data_PCOD9051617
_publ_section_title
;
Structure prediction by ZEFSAII (Michael W. Deem and Ramdas Pophale) SiO2 
 PCOD9051617
Probable space group: P -1
;
_chemical_formula_sum "Si O2"
_cell_formula_units_Z 16
_cell_length_a 8.608175
_cell_length_b 12.023798
_cell_length_c 9.282313
_cell_angle_alpha 95.657677
_cell_angle_beta 51.134619
_cell_angle_gamma 83.265839
_cell_volume 724.249775
_symmetry_space_group_name_H-M "P -1"
_symmetry_group_IT_number 2
_symmetry_cell_setting 'triclinic'
loop_
_space_group_symop_operation_xyz
x,y,z
-x,-y,-z
loop_
_atom_site_type_symbol
_atom_site_label
_atom_site_fract_x
_atom_site_fract_y
_atom_site_fract_z
Si Si1 0.993123 0.251419 0.385354
Si Si2 0.711364 0.532067 0.068834
Si Si3 0.095557 0.640251 0.839602
Si Si4 0.704999 0.345709 0.821761
Si Si5 0.096940 0.987058 0.598623
Si Si6 0.531459 0.966206 0.219310
Si Si7 0.479745 0.178312 0.082696
Si Si8 0.033433 0.116194 0.924081
O O1 0.894898 0.345410 0.335540
O O2 0.883717 0.278193 0.605818
O O3 0.954586 0.130715 0.333292
O O4 0.237878 0.235431 0.250132
O O5 0.738167 0.457857 0.190056
O O6 0.484035 0.599964 0.168467
O O7 0.774017 0.443232 0.887494
O O8 0.874120 0.611240 0.993365
O O9 0.090976 0.763142 0.930006
O O10 0.606349 0.272069 0.983632
O O11 0.336375 0.977017 0.435988
O O12 0.008820 0.092624 0.767259
O O13 0.000000 0.000000 0.500000
O O14 0.729103 0.894900 0.175887
O O15 0.548589 0.091058 0.164839
O O16 0.498944 0.898147 0.084938
O O17 0.000000 0.000000 0.000000
#
# Coordination Sequence:
#
# PCOD9051617 Si02
#       8
#     2   2   2   2   2   2   2   2
#     4  12  23  42  71 102 139 175 224 286 335 406
#     4  10  25  47  69 100 131 181 232 288 334 396
#     4  11  24  46  69  96 143 176 225 286 344 391
#     4  11  24  44  75  98 129 180 235 279 338 401
#     4  12  25  41  65 108 138 180 230 272 343 422
#     4  11  23  40  65  99 146 184 218 276 338 412
#     4  11  22  40  68 103 142 176 223 279 340 401
#     4  12  25  42  68 102 138 184 223 279 347 411
#
# _framework density 22.091825
#
# number of rings (size 3 to 8) (size 9 to 14) (size 15 to 20)
#    0.000    0.750    6.250    0.375    5.250    1.000 
#    0.000    0.000    0.000    0.000    0.000    0.000 
#    0.000    0.000    0.000    0.000    0.000    0.000 
#
# Total GULP energy -89503.252954 kJ/mol
# GULP energy per Si atom -5593.953310 kJ/mol
# Density = 2.204154 g / cm^3
# Si number density = 22.091825 Si / 1000 Ang^3
#
#
#
# Elastic Constant Matrix: (Units=GPa)
#
#
# Indices 1 2 3 4 5 6 
#
# 1 66.9331 27.4034 10.0990 -10.3743 6.7795 -16.3228
# 2 27.4034 85.9530 17.8523 -13.3218 -2.6039 1.1621
# 3 10.0990 17.8523 85.4800 -0.6830 -10.5921 7.1469
# 4 -10.3743 -13.3218 -0.6830 29.8302 -1.7457 11.3122
# 5 6.7795 -2.6039 -10.5921 -1.7457 28.7267 -1.3954
# 6 -16.3228 1.1621 7.1469 11.3122 -1.3954 43.8124
#
#
#
# Elastic Compliance Matrix: (Units=1/GPa)
#
#
# Indices 1 2 3 4 5 6 
#
# 1 0.020471 -0.006126 -0.002505 0.001047 -0.005871 0.007741
# 2 -0.006126 0.015030 -0.001748 0.006162 0.002348 -0.003912
# 3 -0.002505 -0.001748 0.013244 0.000053 0.005179 -0.002896
# 4 0.001047 0.006162 0.000053 0.040645 0.002305 -0.010203
# 5 -0.005871 0.002348 0.005179 0.002305 0.038339 -0.002468
# 6 0.007741 -0.003912 -0.002896 -0.010203 -0.002468 0.028840
#
#
# Mechanical properties :
#
#
# Convention : Reuss Voigt Hill
#
# Bulk Modulus (GPa) = 35.73264 38.78616 37.25940
# Shear Modulus (GPa) = 26.78723 32.67461 29.73092
#
# Velocity S-wave (km/s) = 3.48593 3.85000 3.67248
# Velocity P-wave (km/s) = 5.69316 6.11214 5.90636
#
# Compressibility (1/GPa) = 0.02798562
#
# Stress axis : x y z
#
# Youngs Moduli (GPa) = 48.84925 66.53507 75.50630
#
# Poissons Ratio (x) = 0.40762 0.18917
# Poissons Ratio (y) = 0.29927 0.13197
# Poissons Ratio (z) = 0.12238 0.11629
#
# Static dielectric constant tensor:
#      x y z
#    x 1.828110 -0.016670 0.009680 
#    y -0.016670 1.850640 -0.048650 
#    z 0.009680 -0.048650 1.849520 
# 
# From -- ./inp_files/187246.got.cif
#   From: 2010.05.17/outbox.cif.g08.bks.cpg/sg2_94_cif.got.tgz:187246.got - 2010.06.03 11:33:40.
