data_PCOD9051777
_publ_section_title
;
Structure prediction by ZEFSAII (Michael W. Deem and Ramdas Pophale) SiO2 
 PCOD9051777
Probable space group: P -1
;
_chemical_formula_sum "Si O2"
_cell_formula_units_Z 16
_cell_length_a 5.417577
_cell_length_b 19.539297
_cell_length_c 7.558424
_cell_angle_alpha 52.861859
_cell_angle_beta 75.657814
_cell_angle_gamma 68.962915
_cell_volume 594.798205
_symmetry_space_group_name_H-M "P -1"
_symmetry_group_IT_number 2
_symmetry_cell_setting 'triclinic'
loop_
_space_group_symop_operation_xyz
x,y,z
-x,-y,-z
loop_
_atom_site_type_symbol
_atom_site_label
_atom_site_fract_x
_atom_site_fract_y
_atom_site_fract_z
Si Si1 0.243701 0.836437 0.504177
Si Si2 0.646321 0.610657 0.844224
Si Si3 0.026201 0.024177 0.162768
Si Si4 0.341766 0.149063 0.897770
Si Si5 0.109251 0.570376 0.108963
Si Si6 0.304764 0.601520 0.371972
Si Si7 0.980907 0.721915 0.503310
Si Si8 0.597456 0.208307 0.059287
O O1 0.423227 0.851296 0.281400
O O2 0.388639 0.804144 0.713474
O O3 0.077647 0.769137 0.574929
O O4 0.043109 0.935019 0.408966
O O5 0.763679 0.531247 0.810503
O O6 0.711113 0.693660 0.610982
O O7 0.352727 0.610162 0.946960
O O8 0.841918 0.598411 0.999336
O O9 0.796354 0.111904 0.117422
O O10 0.296299 0.053837 0.093771
O O11 0.000000 0.000000 0.000000
O O12 0.083158 0.204475 0.751754
O O13 0.349274 0.201113 0.996911
O O14 0.080516 0.590566 0.290002
O O15 0.500000 0.500000 0.500000
O O16 0.195926 0.633027 0.537314
O O17 0.377648 0.692292 0.151886
#
# Coordination Sequence:
#
# PCOD9051777 Si02
#       8
#     2   2   2   2   2   2   2   2
#     4  12  27  50  83 115 157 210 263 330 412 487
#     4  10  25  47  76 108 154 201 274 336 401 488
#     4  12  23  52  79 116 163 204 256 332 406 487
#     4  12  25  48  79 113 163 201 262 330 409 483
#     4  10  25  48  73 111 148 204 274 338 404 479
#     4  12  28  50  77 108 161 210 269 339 410 484
#     4  12  27  49  76 111 160 209 262 335 408 483
#     4  12  28  50  76 118 157 202 273 328 393 491
#
# _framework density 26.89988
#
# number of rings (size 3 to 8) (size 9 to 14) (size 15 to 20)
#    0.000    0.500    5.000    1.500   10.500    3.000 
#    0.000    0.000    0.000    0.000    0.000    0.000 
#    0.000    0.000    0.000    0.000    0.000    0.000 
#
# Total GULP energy -89484.437953 kJ/mol
# GULP energy per Si atom -5592.777372 kJ/mol
# Density = 2.683865 g / cm^3
# Si number density = 26.899880 Si / 1000 Ang^3
#
#
#
# Elastic Constant Matrix: (Units=GPa)
#
#
# Indices 1 2 3 4 5 6 
#
# 1 86.3532 54.1018 39.4773 -8.9069 -3.9060 26.5283
# 2 54.1018 178.0861 56.4708 -13.2806 -3.9092 21.2173
# 3 39.4773 56.4708 123.5017 -17.2332 13.9196 21.7612
# 4 -8.9069 -13.2806 -17.2332 54.8806 9.6430 11.5122
# 5 -3.9060 -3.9092 13.9196 9.6430 50.8178 -3.7195
# 6 26.5283 21.2173 21.7612 11.5122 -3.7195 70.5174
#
#
#
# Elastic Compliance Matrix: (Units=1/GPa)
#
#
# Indices 1 2 3 4 5 6 
#
# 1 0.016686 -0.003474 -0.002819 0.001748 0.001120 -0.004588
# 2 -0.003474 0.007481 -0.002298 0.000433 0.000837 -0.000261
# 3 -0.002819 -0.002298 0.011595 0.003992 -0.004526 -0.002717
# 4 0.001748 0.000433 0.003992 0.022080 -0.005549 -0.005917
# 5 0.001120 0.000837 -0.004526 -0.005549 0.022327 0.002807
# 6 -0.004588 -0.000261 -0.002717 -0.005917 0.002807 0.017938
#
#
# Mechanical properties :
#
#
# Convention : Reuss Voigt Hill
#
# Bulk Modulus (GPa) = 53.82174 76.44898 65.13536
# Shear Modulus (GPa) = 41.15855 51.10259 46.13057
#
# Velocity S-wave (km/s) = 3.91585 4.36332 4.14563
# Velocity P-wave (km/s) = 6.36371 7.33937 6.86888
#
# Compressibility (1/GPa) = 0.01857985
#
# Stress axis : x y z
#
# Youngs Moduli (GPa) = 59.93067 133.67078 86.24468
#
# Poissons Ratio (x) = 0.46431 0.24315
# Poissons Ratio (y) = 0.20817 0.19821
# Poissons Ratio (z) = 0.16896 0.30721
#
# Static dielectric constant tensor:
#      x y z
#    x 2.175020 -0.086910 0.017260 
#    y -0.086910 2.142670 -0.022380 
#    z 0.017260 -0.022380 2.198970 
# 
# From -- ./inp_files/141135.got.cif
#   From: 2010.05.17/outbox.cif.g08.bks.cpg/sg2_71_cif.got.tgz:141135.got - 2010.06.03 11:33:40.
