data_PCOD9051063
_publ_section_title
;
Structure prediction by ZEFSAII (Michael W. Deem and Ramdas Pophale) SiO2 
 PCOD9051063
Probable space group: P -1
;
_chemical_formula_sum "Si O2"
_cell_formula_units_Z 16
_cell_length_a 11.745468
_cell_length_b 13.995123
_cell_length_c 11.984744
_cell_angle_alpha 65.677612
_cell_angle_beta 93.069019
_cell_angle_gamma 149.445104
_cell_volume 693.467012
_symmetry_space_group_name_H-M "P -1"
_symmetry_group_IT_number 2
_symmetry_cell_setting 'triclinic'
loop_
_space_group_symop_operation_xyz
x,y,z
-x,-y,-z
loop_
_atom_site_type_symbol
_atom_site_label
_atom_site_fract_x
_atom_site_fract_y
_atom_site_fract_z
Si Si1 0.671359 0.907926 0.486193
Si Si2 0.797912 0.591870 0.154614
Si Si3 0.232993 0.699895 0.593128
Si Si4 0.647476 0.735919 0.366200
Si Si5 0.377994 0.104833 0.058135
Si Si6 0.738660 0.754213 0.971406
Si Si7 0.821001 0.429741 0.099543
Si Si8 0.791144 0.491671 0.690920
O O1 0.517076 0.721550 0.674450
O O2 0.405598 0.759348 0.502503
O O3 0.730093 0.869521 0.417589
O O4 0.956447 0.217736 0.383716
O O5 0.894244 0.616275 0.031663
O O6 0.772719 0.695149 0.096001
O O7 0.056618 0.791010 0.161028
O O8 0.147455 0.579887 0.767065
O O9 0.968716 0.548652 0.611053
O O10 0.500000 0.000000 0.500000
O O11 0.500000 0.500000 0.500000
O O12 0.424751 0.620585 0.340019
O O13 0.946190 0.970052 0.202671
O O14 0.364047 0.218563 0.012737
O O15 0.504797 0.164007 0.149939
O O16 0.602095 0.278602 0.883320
O O17 0.500000 0.500000 0.000000
O O18 0.000000 0.500000 0.000000
#
# Coordination Sequence:
#
# PCOD9051063 Si02
#       8
#     2   2   2   2   2   2   2   2
#     4  10  25  45  68  97 137 179 219 279 340 393
#     4  11  25  43  67 103 133 175 229 272 342 401
#     4   9  21  43  69  98 132 176 221 268 339 401
#     4  12  28  44  67 104 135 175 235 274 330 407
#     4  12  24  43  72  98 139 176 222 289 331 395
#     4  12  25  44  70  97 136 183 225 277 341 399
#     4  11  23  43  69  99 134 174 225 276 335 401
#     4  11  24  45  70  98 135 178 226 277 338 399
#
# _framework density 23.072474
#
# number of rings (size 3 to 8) (size 9 to 14) (size 15 to 20)
#    0.000    1.000    3.750    1.875    3.500    5.500 
#    0.000    0.000    0.000    0.000    0.000    0.000 
#    0.000    0.000    0.000    0.000    0.000    0.000 
#
# Total GULP energy -89379.861321 kJ/mol
# GULP energy per Si atom -5586.241333 kJ/mol
# Density = 2.301996 g / cm^3
# Si number density = 23.072474 Si / 1000 Ang^3
#
#
#
# Elastic Constant Matrix: (Units=GPa)
#
#
# Indices 1 2 3 4 5 6 
#
# 1 78.8770 -9.0896 -10.6434 7.2075 -9.5280 10.5385
# 2 -9.0896 95.9905 -3.7940 -1.2746 4.2784 18.5120
# 3 -10.6434 -3.7940 42.6832 -17.1134 7.7882 9.9329
# 4 7.2075 -1.2746 -17.1134 28.0739 -2.8459 -3.0764
# 5 -9.5280 4.2784 7.7882 -2.8459 31.0328 1.1959
# 6 10.5385 18.5120 9.9329 -3.0764 1.1959 44.6423
#
#
#
# Elastic Compliance Matrix: (Units=1/GPa)
#
#
# Indices 1 2 3 4 5 6 
#
# 1 0.014785 0.002472 0.004000 -0.001527 0.003270 -0.005598
# 2 0.002472 0.012132 0.004082 0.001549 -0.001551 -0.006374
# 3 0.004000 0.004082 0.035797 0.019354 -0.006193 -0.009102
# 4 -0.001527 0.001549 0.019354 0.047627 -0.001123 -0.001276
# 5 0.003270 -0.001551 -0.006193 -0.001123 0.034884 0.000237
# 6 -0.005598 -0.006374 -0.009102 -0.001276 0.000237 0.028296
#
#
# Mechanical properties :
#
#
# Convention : Reuss Voigt Hill
#
# Bulk Modulus (GPa) = 11.93002 18.94407 15.43704
# Shear Modulus (GPa) = 27.72326 36.82163 32.27245
#
# Velocity S-wave (km/s) = 3.47013 3.99922 3.74403
# Velocity P-wave (km/s) = 4.60843 5.43632 5.03940
#
# Compressibility (1/GPa) = 0.08382219
#
# Stress axis : x y z
#
# Youngs Moduli (GPa) = 67.63553 82.42608 27.93538
#
# Poissons Ratio (x) = -0.20373 -0.11175
# Poissons Ratio (y) = -0.16718 -0.11403
# Poissons Ratio (z) = -0.27056 -0.33647
#
# Static dielectric constant tensor:
#      x y z
#    x 1.953700 -0.030390 0.034210 
#    y -0.030390 1.944100 0.004880 
#    z 0.034210 0.004880 1.880120 
# 
# From -- ./inp_files/433835.got.cif
#   From: 2010.05.17/outbox.cif.g08.bks.cpg/sg2_217_cif.got.tgz:433835.got - 2010.06.03 11:33:40.
