data_PCOD9051619
_publ_section_title
;
Structure prediction by ZEFSAII (Michael W. Deem and Ramdas Pophale) SiO2 
 PCOD9051619
Probable space group: P -1
;
_chemical_formula_sum "Si O2"
_cell_formula_units_Z 16
_cell_length_a 10.350491
_cell_length_b 5.361378
_cell_length_c 14.753428
_cell_angle_alpha 111.131830
_cell_angle_beta 65.176498
_cell_angle_gamma 100.889858
_cell_volume 692.414491
_symmetry_space_group_name_H-M "P -1"
_symmetry_group_IT_number 2
_symmetry_cell_setting 'triclinic'
loop_
_space_group_symop_operation_xyz
x,y,z
-x,-y,-z
loop_
_atom_site_type_symbol
_atom_site_label
_atom_site_fract_x
_atom_site_fract_y
_atom_site_fract_z
Si Si1 0.634746 0.211113 0.504851
Si Si2 0.813494 0.432736 0.908494
Si Si3 0.039266 0.813995 0.549109
Si Si4 0.480318 0.392832 0.262540
Si Si5 0.675262 0.703122 0.132441
Si Si6 0.536364 0.094742 0.901973
Si Si7 0.948265 0.863268 0.787605
Si Si8 0.729564 0.213953 0.284661
O O1 0.791229 0.115086 0.474307
O O2 0.598111 0.428719 0.619261
O O3 0.667258 0.324645 0.410292
O O4 0.500000 0.000000 0.500000
O O5 0.656183 0.323798 0.911521
O O6 0.853104 0.654866 0.849049
O O7 0.909078 0.171754 0.854141
O O8 0.800511 0.547533 0.030067
O O9 0.000000 0.500000 0.500000
O O10 0.958240 0.852372 0.673552
O O11 0.000000 0.000000 0.500000
O O12 0.527471 0.544121 0.177858
O O13 0.635642 0.342705 0.252766
O O14 0.403261 0.119670 0.215951
O O15 0.620980 0.872589 0.086857
O O16 0.702636 0.895069 0.234959
O O17 0.500000 0.000000 0.000000
O O18 0.102463 0.766229 0.762105
#
# Coordination Sequence:
#
# PCOD9051619 Si02
#       8
#     2   2   2   2   2   2   2   2
#     4  11  24  47  77 109 141 193 252 312 375 448
#     4  12  26  44  71 105 148 193 245 286 373 443
#     4  11  27  51  76 110 153 196 249 311 375 445
#     4  11  24  42  75 103 138 186 246 308 368 434
#     4  11  24  42  70 104 138 188 241 308 360 433
#     4  11  24  44  68 102 148 189 240 309 364 433
#     4  11  28  47  72 104 149 199 235 304 363 453
#     4  10  25  47  69 101 143 183 245 304 373 426
#
# _framework density 23.107544999999998
#
# number of rings (size 3 to 8) (size 9 to 14) (size 15 to 20)
#    0.000    1.000    2.500    2.250    7.000    5.000 
#    0.000    0.000    0.000    0.000    0.000    0.000 
#    0.000    0.000    0.000    0.000    0.000    0.000 
#
# Total GULP energy -89177.213514 kJ/mol
# GULP energy per Si atom -5573.575845 kJ/mol
# Density = 2.305495 g / cm^3
# Si number density = 23.107545 Si / 1000 Ang^3
#
#
#
# Elastic Constant Matrix: (Units=GPa)
#
#
# Indices 1 2 3 4 5 6 
#
# 1 56.5557 -2.7662 4.8226 -19.5986 -3.2574 7.6506
# 2 -2.7662 85.0911 42.3984 -5.7272 -5.8794 7.2058
# 3 4.8226 42.3984 148.2823 28.4787 -14.8468 1.9497
# 4 -19.5986 -5.7272 28.4787 30.5734 0.6193 -2.6031
# 5 -3.2574 -5.8794 -14.8468 0.6193 32.0416 -2.0860
# 6 7.6506 7.2058 1.9497 -2.6031 -2.0860 24.6065
#
#
#
# Elastic Compliance Matrix: (Units=1/GPa)
#
#
# Indices 1 2 3 4 5 6 
#
# 1 0.029196 0.007522 -0.008268 0.027174 -0.000515 -0.007794
# 2 0.007522 0.017500 -0.008154 0.015258 -0.000438 -0.005240
# 3 -0.008268 -0.008154 0.013456 -0.019262 0.004416 0.002229
# 4 0.027174 0.015258 -0.019262 0.070660 -0.005011 -0.004340
# 5 -0.000515 -0.000438 0.004416 -0.005011 0.033365 0.002237
# 6 -0.007794 -0.005240 0.002229 -0.004340 0.002237 0.044151
#
#
# Mechanical properties :
#
#
# Convention : Reuss Voigt Hill
#
# Bulk Modulus (GPa) = 23.61125 42.09321 32.85223
# Shear Modulus (GPa) = 20.81196 33.80925 27.31061
#
# Velocity S-wave (km/s) = 3.00435 3.82923 3.44159
# Velocity P-wave (km/s) = 4.71964 6.14870 5.48094
#
# Compressibility (1/GPa) = 0.04235270
#
# Stress axis : x y z
#
# Youngs Moduli (GPa) = 34.25126 57.14292 74.31357
#
# Poissons Ratio (x) = -0.42986 0.61446
# Poissons Ratio (y) = -0.25765 0.60594
# Poissons Ratio (z) = 0.28321 0.46594
#
# Static dielectric constant tensor:
#      x y z
#    x 1.926130 -0.110580 -0.019830 
#    y -0.110580 2.129340 -0.012570 
#    z -0.019830 -0.012570 1.939510 
# 
# From -- ./inp_files/511153.got.cif
#   From: 2010.05.17/outbox.cif.g08.bks.cpg/sg2_256_cif.got.tgz:511153.got - 2010.06.03 11:33:40.
