data_PCOD9051496
_publ_section_title
;
Structure prediction by ZEFSAII (Michael W. Deem and Ramdas Pophale) SiO2 
 PCOD9051496
Probable space group: P -1
;
_chemical_formula_sum "Si O2"
_cell_formula_units_Z 13
_cell_length_a 10.470738
_cell_length_b 9.782942
_cell_length_c 4.927588
_cell_angle_alpha 77.955498
_cell_angle_beta 96.989567
_cell_angle_gamma 95.118820
_cell_volume 488.914864
_symmetry_space_group_name_H-M "P -1"
_symmetry_group_IT_number 2
_symmetry_cell_setting 'triclinic'
loop_
_space_group_symop_operation_xyz
x,y,z
-x,-y,-z
loop_
_atom_site_type_symbol
_atom_site_label
_atom_site_fract_x
_atom_site_fract_y
_atom_site_fract_z
Si Si1 0.857945 0.167347 0.345269
Si Si2 0.500000 0.000000 0.500000
Si Si3 0.906233 0.906101 0.821195
Si Si4 0.630824 0.797815 0.807946
Si Si5 0.613976 0.188477 0.902918
Si Si6 0.144683 0.538462 0.612812
Si Si7 0.691173 0.503983 0.805356
O O1 0.746174 0.162211 0.097865
O O2 0.834181 0.293750 0.490416
O O3 0.999587 0.204210 0.234129
O O4 0.869220 0.017894 0.542658
O O5 0.389390 0.114669 0.506318
O O6 0.496710 0.141286 0.105370
O O7 0.774273 0.834539 0.936116
O O8 0.000000 0.000000 0.000000
O O9 0.612906 0.633331 0.825915
O O10 0.605725 0.101141 0.663644
O O11 0.610510 0.356038 0.809442
O O12 0.241438 0.461446 0.476957
O O13 0.000000 0.500000 0.500000
O O14 0.193962 0.514847 0.940137
#
# Coordination Sequence:
#
# PCOD9051496 Si02
#       7
#     2   1   2   2   2   2   2
#     4  10  25  46  72 111 154 201 259 322 393 460
#     4  12  28  46  80 100 162 196 270 306 400 466
#     4  11  25  44  76 108 155 198 258 321 388 466
#     4  12  27  47  76 117 148 204 261 322 388 469
#     4  11  27  51  74 112 152 208 256 328 391 465
#     4  11  25  47  79 111 157 209 257 318 394 470
#     4  11  28  47  81 112 159 199 267 325 388 466
#
# _framework density 26.589499
#
# number of rings (size 3 to 8) (size 9 to 14) (size 15 to 20)
#    0.000    0.923    0.000    4.154   15.077    3.077 
#    0.000    0.000    0.000    0.000    0.000    0.000 
#    0.000    0.000    0.000    0.000    0.000    0.000 
#
# Total GULP energy -72645.251802 kJ/mol
# GULP energy per Si atom -5588.096292 kJ/mol
# Density = 2.652898 g / cm^3
# Si number density = 26.589499 Si / 1000 Ang^3
#
#
#
# Elastic Constant Matrix: (Units=GPa)
#
#
# Indices 1 2 3 4 5 6 
#
# 1 144.5284 50.2979 29.0682 1.9169 8.3116 -0.3459
# 2 50.2979 183.3607 27.6507 -5.4462 16.8155 1.5772
# 3 29.0682 27.6507 81.0654 20.5239 13.1642 11.2614
# 4 1.9169 -5.4462 20.5239 33.6304 -0.4506 3.0536
# 5 8.3116 16.8155 13.1642 -0.4506 33.2818 7.5399
# 6 -0.3459 1.5772 11.2614 3.0536 7.5399 52.9059
#
#
#
# Elastic Compliance Matrix: (Units=1/GPa)
#
#
# Indices 1 2 3 4 5 6 
#
# 1 0.008053 -0.001792 -0.002506 0.000719 -0.000248 0.000633
# 2 -0.001792 0.006481 -0.001826 0.002204 -0.002157 0.000364
# 3 -0.002506 -0.001826 0.017760 -0.010842 -0.005081 -0.002392
# 4 0.000719 0.002204 -0.010842 0.036750 0.003580 -0.000385
# 5 -0.000248 -0.002157 -0.005081 0.003580 0.034146 -0.003929
# 6 0.000633 0.000364 -0.002392 -0.000385 -0.003929 0.019986
#
#
# Mechanical properties :
#
#
# Convention : Reuss Voigt Hill
#
# Bulk Modulus (GPa) = 49.88980 69.22091 59.55535
# Shear Modulus (GPa) = 35.18459 44.09281 39.63870
#
# Velocity S-wave (km/s) = 3.64160 4.07661 3.86523
# Velocity P-wave (km/s) = 6.04031 6.94608 6.50897
#
# Compressibility (1/GPa) = 0.02004418
#
# Stress axis : x y z
#
# Youngs Moduli (GPa) = 124.17516 154.29752 56.30757
#
# Poissons Ratio (x) = 0.27658 0.14111
# Poissons Ratio (y) = 0.22258 0.10283
# Poissons Ratio (z) = 0.31119 0.28178
#
# Static dielectric constant tensor:
#      x y z
#    x 2.146810 -0.002630 -0.008020 
#    y -0.002630 1.955660 0.239380 
#    z -0.008020 0.239380 1.369140 
# 
# From -- ./inp_files/60405.got.cif
#   From: 2010.05.17/outbox.cif.g08.bks.cpg/sg2_31_cif.got.tgz:60405.got - 2010.06.03 11:33:40.
