data_PCOD9051217
_publ_section_title
;
Structure prediction by ZEFSAII (Michael W. Deem and Ramdas Pophale) SiO2 
 PCOD9051217
Probable space group: P -1
;
_chemical_formula_sum "Si O2"
_cell_formula_units_Z 12
_cell_length_a 11.285388
_cell_length_b 5.316283
_cell_length_c 8.766260
_cell_angle_alpha 90.806150
_cell_angle_beta 75.187654
_cell_angle_gamma 61.874048
_cell_volume 442.800250
_symmetry_space_group_name_H-M "P -1"
_symmetry_group_IT_number 2
_symmetry_cell_setting 'triclinic'
loop_
_space_group_symop_operation_xyz
x,y,z
-x,-y,-z
loop_
_atom_site_type_symbol
_atom_site_label
_atom_site_fract_x
_atom_site_fract_y
_atom_site_fract_z
Si Si1 0.107669 0.028173 0.133647
Si Si2 0.424899 0.268040 0.643871
Si Si3 0.226274 0.084278 0.809072
Si Si4 0.494004 0.434593 0.177290
Si Si5 0.227158 0.405523 0.229047
Si Si6 0.845939 0.484854 0.409913
O O1 0.171033 0.691989 0.145522
O O2 0.210791 0.147802 0.160986
O O3 0.966387 0.220274 0.275996
O O4 0.101118 0.118706 0.959238
O O5 0.322291 0.240146 0.803881
O O6 0.543483 0.303311 0.692475
O O7 0.302423 0.503346 0.577254
O O8 0.500000 0.000000 0.500000
O O9 0.169454 0.224325 0.663855
O O10 0.351295 0.768648 0.806019
O O11 0.387018 0.313056 0.216958
O O12 0.500000 0.500000 0.000000
O O13 0.139207 0.507139 0.415667
#
# Coordination Sequence:
#
# PCOD9051217 Si02
#       6
#     2   2   2   2   2   2
#     4  12  26  50  71 113 146 209 239 312 372 455
#     4  10  25  45  72 107 142 195 245 313 371 433
#     4  10  25  45  73 105 146 195 244 310 371 434
#     4  12  25  45  74 111 148 196 250 313 376 450
#     4  12  28  44  79 104 158 194 252 305 380 441
#     4  10  26  47  72 106 148 193 255 307 367 456
#
# _framework density 27.100256000000002
#
# number of rings (size 3 to 8) (size 9 to 14) (size 15 to 20)
#    1.000    0.000    1.667    3.500    4.667    6.667 
#    0.000    2.500    0.000    0.000    0.000    0.000 
#    0.000    0.000    0.000    0.000    0.000    0.000 
#
# Total GULP energy -67063.408721 kJ/mol
# GULP energy per Si atom -5588.617393 kJ/mol
# Density = 2.703857 g / cm^3
# Si number density = 27.100256 Si / 1000 Ang^3
#
#
#
# Elastic Constant Matrix: (Units=GPa)
#
#
# Indices 1 2 3 4 5 6 
#
# 1 109.2632 24.9444 23.0628 3.3366 0.3922 11.8123
# 2 24.9444 107.7824 37.2717 -23.4170 6.6618 -0.1092
# 3 23.0628 37.2717 139.7107 -31.8669 -6.3621 13.4302
# 4 3.3366 -23.4170 -31.8669 46.2949 5.9251 -7.0066
# 5 0.3922 6.6618 -6.3621 5.9251 54.5632 5.0242
# 6 11.8123 -0.1092 13.4302 -7.0066 5.0242 42.4216
#
#
#
# Elastic Compliance Matrix: (Units=1/GPa)
#
#
# Indices 1 2 3 4 5 6 
#
# 1 0.010572 -0.002800 -0.001525 -0.003813 0.000796 -0.003192
# 2 -0.002800 0.011946 -0.001783 0.005735 -0.002510 0.002619
# 3 -0.001525 -0.001783 0.009286 0.005217 0.000907 -0.001766
# 4 -0.003813 0.005735 0.005217 0.029561 -0.003712 0.004747
# 5 0.000796 -0.002510 0.000907 -0.003712 0.019453 -0.003432
# 6 -0.003192 0.002619 -0.001766 0.004747 -0.003432 0.026218
#
#
# Mechanical properties :
#
#
# Convention : Reuss Voigt Hill
#
# Bulk Modulus (GPa) = 51.04971 58.59044 54.82008
# Shear Modulus (GPa) = 39.75154 46.75444 43.25299
#
# Velocity S-wave (km/s) = 3.83408 4.15811 3.99938
# Velocity P-wave (km/s) = 6.20310 6.68730 6.44975
#
# Compressibility (1/GPa) = 0.01958875
#
# Stress axis : x y z
#
# Youngs Moduli (GPa) = 94.58912 83.70745 107.69059
#
# Poissons Ratio (x) = 0.23441 0.16420
# Poissons Ratio (y) = 0.26488 0.19198
# Poissons Ratio (z) = 0.14422 0.14923
#
# Static dielectric constant tensor:
#      x y z
#    x 2.169310 0.030450 0.016540 
#    y 0.030450 2.305980 0.078310 
#    z 0.016540 0.078310 2.149870 
# 
# From -- ./inp_files/229235.got.cif
#   From: 2010.05.17/outbox.cif.g08.bks.cpg/sg2_115_cif.got.tgz:229235.got - 2010.06.03 11:33:40.
