data_PCOD9051285
_publ_section_title
;
Structure prediction by ZEFSAII (Michael W. Deem and Ramdas Pophale) SiO2 
 PCOD9051285
Probable space group: P -1
;
_chemical_formula_sum "Si O2"
_cell_formula_units_Z 14
_cell_length_a 8.097737
_cell_length_b 9.975919
_cell_length_c 7.556162
_cell_angle_alpha 106.445094
_cell_angle_beta 93.223535
_cell_angle_gamma 119.311833
_cell_volume 496.434382
_symmetry_space_group_name_H-M "P -1"
_symmetry_group_IT_number 2
_symmetry_cell_setting 'triclinic'
loop_
_space_group_symop_operation_xyz
x,y,z
-x,-y,-z
loop_
_atom_site_type_symbol
_atom_site_label
_atom_site_fract_x
_atom_site_fract_y
_atom_site_fract_z
Si Si1 0.178864 0.922052 0.943113
Si Si2 0.911155 0.401272 0.773336
Si Si3 0.421979 0.442181 0.733974
Si Si4 0.244878 0.250665 0.010668
Si Si5 0.493782 0.787045 0.472562
Si Si6 0.737761 0.319265 0.229055
Si Si7 0.116245 0.909010 0.514074
O O1 0.289164 0.827707 0.952160
O O2 0.115952 0.891971 0.720498
O O3 0.986632 0.843524 0.022057
O O4 0.292337 0.118004 0.039114
O O5 0.677791 0.303965 0.716701
O O6 0.954925 0.262208 0.655337
O O7 0.027689 0.555741 0.704629
O O8 0.000000 0.500000 0.000000
O O9 0.649591 0.581427 0.813459
O O10 0.407380 0.322073 0.534237
O O11 0.330537 0.555286 0.776444
O O12 0.335555 0.316975 0.848062
O O13 0.370475 0.767261 0.630004
O O14 0.664525 0.965419 0.494081
O O15 0.000000 0.000000 0.500000
#
# Coordination Sequence:
#
# PCOD9051285 Si02
#       7
#     2   2   2   2   2   2   2
#     4  11  25  48  73 110 161 209 261 331 397 480
#     4  12  30  50  80 117 161 214 269 337 405 480
#     4  11  25  45  77 115 157 210 259 332 400 479
#     4  10  25  45  75 111 162 207 262 334 400 470
#     4  12  26  53  80 113 163 209 267 334 399 487
#     4  12  28  46  79 117 156 206 273 321 413 473
#     4  12  28  50  82 116 162 218 276 327 413 482
#
# _framework density 28.201111000000001
#
# number of rings (size 3 to 8) (size 9 to 14) (size 15 to 20)
#    0.000    0.571    2.857    3.000   10.000    1.714 
#    0.000    0.000    0.000    0.000    0.000    0.000 
#    0.000    0.000    0.000    0.000    0.000    0.000 
#
# Total GULP energy -78458.025255 kJ/mol
# GULP energy per Si atom -5604.144661 kJ/mol
# Density = 2.813692 g / cm^3
# Si number density = 28.201111 Si / 1000 Ang^3
#
#
#
# Elastic Constant Matrix: (Units=GPa)
#
#
# Indices 1 2 3 4 5 6 
#
# 1 132.4948 72.3180 17.3439 2.9761 -22.7802 3.0034
# 2 72.3180 234.6948 51.6791 19.7832 -17.1784 23.6853
# 3 17.3439 51.6791 120.1401 3.2796 -12.7956 10.8643
# 4 2.9761 19.7832 3.2796 59.6620 -4.1455 -13.1833
# 5 -22.7802 -17.1784 -12.7956 -4.1455 43.8884 12.6681
# 6 3.0034 23.6853 10.8643 -13.1833 12.6681 72.6038
#
#
#
# Elastic Compliance Matrix: (Units=1/GPa)
#
#
# Indices 1 2 3 4 5 6 
#
# 1 0.009740 -0.002795 0.000228 0.000689 0.004128 -0.000120
# 2 -0.002795 0.005973 -0.001840 -0.002147 0.000747 -0.002078
# 3 0.000228 -0.001840 0.009466 -0.000027 0.002523 -0.001271
# 4 0.000689 -0.002147 -0.000027 0.018328 0.000089 0.003988
# 5 0.004128 0.000747 0.002523 0.000089 0.027577 -0.005588
# 6 -0.000120 -0.002078 -0.001271 0.003988 -0.005588 0.016346
#
#
# Mechanical properties :
#
#
# Convention : Reuss Voigt Hill
#
# Bulk Modulus (GPa) = 61.10375 85.55687 73.33031
# Shear Modulus (GPa) = 49.16505 58.29675 53.73090
#
# Velocity S-wave (km/s) = 4.17990 4.55156 4.36968
# Velocity P-wave (km/s) = 6.70892 7.61749 7.17760
#
# Compressibility (1/GPa) = 0.01636561
#
# Stress axis : x y z
#
# Youngs Moduli (GPa) = 102.66595 167.43010 105.63764
#
# Poissons Ratio (x) = 0.46802 -0.02409
# Poissons Ratio (y) = 0.28699 0.19432
# Poissons Ratio (z) = -0.02341 0.30799
#
# Static dielectric constant tensor:
#      x y z
#    x 2.283420 -0.069450 0.074050 
#    y -0.069450 2.097490 -0.033290 
#    z 0.074050 -0.033290 2.190290 
# 
# From -- ./inp_files/159268.got.cif
#   From: 2010.05.17/outbox.cif.g08.bks.cpg/sg2_80_cif.got.tgz:159268.got - 2010.06.03 11:33:40.
