data_PCOD9051504
_publ_section_title
;
Structure prediction by ZEFSAII (Michael W. Deem and Ramdas Pophale) SiO2 
 PCOD9051504
Probable space group: P -1
;
_chemical_formula_sum "Si O2"
_cell_formula_units_Z 13
_cell_length_a 7.081748
_cell_length_b 13.596890
_cell_length_c 8.926678
_cell_angle_alpha 116.645933
_cell_angle_beta 68.134377
_cell_angle_gamma 138.718514
_cell_volume 505.951160
_symmetry_space_group_name_H-M "P -1"
_symmetry_group_IT_number 2
_symmetry_cell_setting 'triclinic'
loop_
_space_group_symop_operation_xyz
x,y,z
-x,-y,-z
loop_
_atom_site_type_symbol
_atom_site_label
_atom_site_fract_x
_atom_site_fract_y
_atom_site_fract_z
Si Si1 0.142545 0.651452 0.756189
Si Si2 0.000000 0.500000 0.000000
Si Si3 0.556717 0.361414 0.608343
Si Si4 0.864898 0.109339 0.125488
Si Si5 0.278024 0.833782 0.257167
Si Si6 0.962977 0.919070 0.252851
Si Si7 0.915762 0.781593 0.560691
O O1 0.177901 0.590516 0.849531
O O2 0.292853 0.661486 0.571162
O O3 0.236184 0.812771 0.861777
O O4 0.801077 0.516752 0.733807
O O5 0.887034 0.337141 0.862643
O O6 0.360055 0.225497 0.695753
O O7 0.347436 0.353830 0.559314
O O8 0.096891 0.230677 0.266169
O O9 0.605421 0.956850 0.191383
O O10 0.986744 0.082660 0.938485
O O11 0.144932 0.892799 0.261322
O O12 0.195371 0.823131 0.447888
O O13 0.058932 0.077248 0.377323
#
# Coordination Sequence:
#
# PCOD9051504 Si02
#       7
#     2   1   2   2   2   2   2
#     4  11  26  48  73 103 142 195 238 297 357 430
#     4  12  28  46  76 108 140 188 244 300 352 424
#     4  10  25  46  72  99 149 188 240 291 360 424
#     4  12  25  44  77 109 141 192 242 290 355 429
#     4  11  25  48  74 106 145 191 239 291 358 428
#     4  11  23  47  70 109 144 190 236 304 346 421
#     4  11  25  44  73 108 146 188 235 296 357 419
#
# _framework density 25.694177
#
# number of rings (size 3 to 8) (size 9 to 14) (size 15 to 20)
#    0.000    0.923    1.538    5.077    8.615    2.462 
#    2.769    0.000    0.000    0.000    0.000    0.000 
#    0.000    0.000    0.000    0.000    0.000    0.000 
#
# Total GULP energy -72585.918205 kJ/mol
# GULP energy per Si atom -5583.532170 kJ/mol
# Density = 2.563570 g / cm^3
# Si number density = 25.694177 Si / 1000 Ang^3
#
#
#
# Elastic Constant Matrix: (Units=GPa)
#
#
# Indices 1 2 3 4 5 6 
#
# 1 50.1369 20.4763 3.5316 -11.5636 -9.4701 -1.2649
# 2 20.4763 102.8185 21.9650 -8.2206 -23.4657 -9.4771
# 3 3.5316 21.9650 164.7925 -20.0688 -14.7268 0.8865
# 4 -11.5636 -8.2206 -20.0688 37.5612 -11.3459 -3.9674
# 5 -9.4701 -23.4657 -14.7268 -11.3459 30.5756 -1.5378
# 6 -1.2649 -9.4771 0.8865 -3.9674 -1.5378 46.5401
#
#
#
# Elastic Compliance Matrix: (Units=1/GPa)
#
#
# Indices 1 2 3 4 5 6 
#
# 1 0.025883 -0.001493 0.002376 0.013021 0.012942 0.001892
# 2 -0.001493 0.013884 0.000187 0.007034 0.013085 0.003815
# 3 0.002376 0.000187 0.007477 0.007001 0.007119 0.000792
# 4 0.013021 0.007034 0.007001 0.045692 0.030088 0.006542
# 5 0.012942 0.013085 0.007119 0.030088 0.061727 0.007485
# 6 0.001892 0.003815 0.000792 0.006542 0.007485 0.023105
#
#
# Mechanical properties :
#
#
# Convention : Reuss Voigt Hill
#
# Bulk Modulus (GPa) = 20.24940 45.52152 32.88546
# Shear Modulus (GPa) = 26.02968 41.05371 33.54170
#
# Velocity S-wave (km/s) = 3.18631 4.00156 3.61698
# Velocity P-wave (km/s) = 4.62977 6.25341 5.50182
#
# Compressibility (1/GPa) = 0.04938417
#
# Stress axis : x y z
#
# Youngs Moduli (GPa) = 38.63503 72.02717 133.74433
#
# Poissons Ratio (x) = 0.10755 -0.31783
# Poissons Ratio (y) = 0.05769 -0.02500
# Poissons Ratio (z) = -0.09181 -0.01346
#
# Static dielectric constant tensor:
#      x y z
#    x 2.138070 0.025810 0.076060 
#    y 0.025810 2.019890 -0.043730 
#    z 0.076060 -0.043730 1.959240 
# 
# From -- ./inp_files/194826.got.cif
#   From: 2010.05.17/outbox.cif.g08.bks.cpg/sg2_98_cif.got.tgz:194826.got - 2010.06.03 11:33:40.
