data_PCOD9051100
_publ_section_title
;
Structure prediction by ZEFSAII (Michael W. Deem and Ramdas Pophale) SiO2 
 PCOD9051100
Probable space group: P -1
;
_chemical_formula_sum "Si O2"
_cell_formula_units_Z 16
_cell_length_a 10.087814
_cell_length_b 14.258076
_cell_length_c 19.889409
_cell_angle_alpha 157.792706
_cell_angle_beta 45.300514
_cell_angle_gamma 140.417504
_cell_volume 688.344822
_symmetry_space_group_name_H-M "P -1"
_symmetry_group_IT_number 2
_symmetry_cell_setting 'triclinic'
loop_
_space_group_symop_operation_xyz
x,y,z
-x,-y,-z
loop_
_atom_site_type_symbol
_atom_site_label
_atom_site_fract_x
_atom_site_fract_y
_atom_site_fract_z
Si Si1 0.541122 0.233214 0.807187
Si Si2 0.681336 0.981567 0.121922
Si Si3 0.392721 0.195654 0.302316
Si Si4 0.246962 0.986647 0.636372
Si Si5 0.844704 0.635362 0.769000
Si Si6 0.033356 0.041933 0.626130
Si Si7 0.975069 0.583348 0.238738
Si Si8 0.145492 0.046290 0.159578
O O1 0.407494 0.029850 0.779420
O O2 0.779568 0.319802 0.793193
O O3 0.462241 0.105545 0.677919
O O4 0.500000 0.500000 0.000000
O O5 0.543474 0.054107 0.167634
O O6 0.691826 0.695320 0.912390
O O7 0.920225 0.204676 0.181379
O O8 0.500000 0.500000 0.500000
O O9 0.174343 0.005355 0.290906
O O10 0.327937 0.198110 0.249738
O O11 0.194874 0.673406 0.431716
O O12 0.216534 0.113748 0.662133
O O13 0.071550 0.999506 0.757461
O O14 0.832201 0.773855 0.794878
O O15 0.966684 0.745818 0.416522
O O16 0.093980 0.277968 0.705190
O O17 0.868354 0.252225 0.053534
#
# Coordination Sequence:
#
# PCOD9051100 Si02
#       8
#     2   2   2   2   2   2   2   2
#     4  12  24  43  69  97 134 175 227 270 327 399
#     4  11  24  44  67  99 132 179 211 280 329 390
#     4  11  25  44  69  98 133 173 224 272 331 398
#     4  11  24  41  69 100 131 178 218 277 333 392
#     4  11  25  43  68 102 138 166 224 271 341 395
#     4  10  25  45  69  96 135 177 220 280 328 394
#     4  11  24  47  68  97 135 177 226 270 333 392
#     4  11  24  43  72  95 134 179 214 277 335 392
#
# _framework density 23.244164000000001
#
# number of rings (size 3 to 8) (size 9 to 14) (size 15 to 20)
#    0.000    1.000    3.750    1.875    8.750    4.000 
#    4.500    0.000    0.000    0.000    0.000    0.000 
#    0.000    0.000    0.000    0.000    0.000    0.000 
#
# Total GULP energy -89633.924909 kJ/mol
# GULP energy per Si atom -5602.120307 kJ/mol
# Density = 2.319126 g / cm^3
# Si number density = 23.244164 Si / 1000 Ang^3
#
#
#
# Elastic Constant Matrix: (Units=GPa)
#
#
# Indices 1 2 3 4 5 6 
#
# 1 125.9674 24.9328 14.9587 -5.4690 3.0867 -21.0700
# 2 24.9328 43.0490 7.5598 -11.2438 -4.5889 -10.0273
# 3 14.9587 7.5598 89.5073 -4.0194 -8.7155 7.6191
# 4 -5.4690 -11.2438 -4.0194 28.3846 1.4272 0.4945
# 5 3.0867 -4.5889 -8.7155 1.4272 32.4139 0.7845
# 6 -21.0700 -10.0273 7.6191 0.4945 0.7845 28.4056
#
#
#
# Elastic Compliance Matrix: (Units=1/GPa)
#
#
# Indices 1 2 3 4 5 6 
#
# 1 0.010209 -0.004218 -0.002148 -0.000009 -0.002309 0.006724
# 2 -0.004218 0.031096 -0.001758 0.010933 0.003656 0.008029
# 3 -0.002148 -0.001758 0.012524 0.000590 0.003435 -0.005678
# 4 -0.000009 0.010933 0.000590 0.039596 -0.000109 0.003008
# 5 -0.002309 0.003656 0.003435 -0.000109 0.032571 -0.002241
# 6 0.006724 0.008029 -0.005678 0.003008 -0.002241 0.044558
#
#
# Mechanical properties :
#
#
# Convention : Reuss Voigt Hill
#
# Bulk Modulus (GPa) = 26.60836 39.26958 32.93897
# Shear Modulus (GPa) = 25.08411 31.91230 28.49821
#
# Velocity S-wave (km/s) = 3.28862 3.70931 3.50528
# Velocity P-wave (km/s) = 5.08844 5.93939 5.53030
#
# Compressibility (1/GPa) = 0.03758217
#
# Stress axis : x y z
#
# Youngs Moduli (GPa) = 97.94961 32.15815 79.84756
#
# Poissons Ratio (x) = 0.13565 0.17148
# Poissons Ratio (y) = 0.41317 0.14037
# Poissons Ratio (z) = 0.21035 0.05653
#
# Static dielectric constant tensor:
#      x y z
#    x 1.849290 0.005700 0.025600 
#    y 0.005700 1.901830 -0.014450 
#    z 0.025600 -0.014450 1.864930 
# 
# From -- ./inp_files/462004.got.cif
#   From: 2010.05.17/outbox.cif.g08.bks.cpg/sg2_232_cif.got.tgz:462004.got - 2010.06.03 11:33:40.
