data_PCOD9051224
_publ_section_title
;
Structure prediction by ZEFSAII (Michael W. Deem and Ramdas Pophale) SiO2 
 PCOD9051224
Probable space group: P -1
;
_chemical_formula_sum "Si O2"
_cell_formula_units_Z 16
_cell_length_a 6.583566
_cell_length_b 14.907886
_cell_length_c 11.579917
_cell_angle_alpha 131.348805
_cell_angle_beta 88.630320
_cell_angle_gamma 114.654312
_cell_volume 720.735355
_symmetry_space_group_name_H-M "P -1"
_symmetry_group_IT_number 2
_symmetry_cell_setting 'triclinic'
loop_
_space_group_symop_operation_xyz
x,y,z
-x,-y,-z
loop_
_atom_site_type_symbol
_atom_site_label
_atom_site_fract_x
_atom_site_fract_y
_atom_site_fract_z
Si Si1 0.508862 0.164930 0.015420
Si Si2 0.371189 0.764770 0.576401
Si Si3 0.849516 0.136117 0.144303
Si Si4 0.673478 0.982466 0.569484
Si Si5 0.587585 0.661919 0.664815
Si Si6 0.826000 0.778347 0.281615
Si Si7 0.967036 0.378469 0.745157
Si Si8 0.627656 0.322342 0.919556
O O1 0.714851 0.137757 0.031839
O O2 0.538078 0.300781 0.198640
O O3 0.523593 0.194183 0.903557
O O4 0.263308 0.025020 0.947060
O O5 0.236485 0.796616 0.701964
O O6 0.529645 0.904892 0.618954
O O7 0.534062 0.718923 0.597648
O O8 0.177149 0.649514 0.393679
O O9 0.132967 0.239544 0.223282
O O10 0.745741 0.879315 0.421557
O O11 0.500000 0.000000 0.500000
O O12 0.927608 0.125700 0.710048
O O13 0.500000 0.500000 0.500000
O O14 0.899785 0.706998 0.317566
O O15 0.599984 0.671691 0.115620
O O16 0.771828 0.323926 0.805465
O O17 0.170067 0.539673 0.899733
#
# Coordination Sequence:
#
# PCOD9051224 Si02
#       8
#     2   2   2   2   2   2   2   2
#     4  10  25  47  68 100 132 184 226 283 343 405
#     4  11  25  41  71  98 137 177 226 285 342 401
#     4  10  25  45  72  96 139 173 233 286 341 401
#     4  11  23  40  64  98 138 173 226 280 334 409
#     4  11  27  46  72 103 131 177 236 287 346 406
#     4  11  23  39  64  96 135 179 226 267 336 416
#     4  11  25  44  63 102 142 178 228 278 344 417
#     4  11  25  42  68  95 143 183 226 279 344 403
#
# _framework density 22.199549999999999
#
# number of rings (size 3 to 8) (size 9 to 14) (size 15 to 20)
#    0.000    1.250    2.500    0.750   10.500    2.000 
#    2.250    0.000    0.000    0.000    0.000    0.000 
#    0.000    0.000    0.000    0.000    0.000    0.000 
#
# Total GULP energy -89439.994545 kJ/mol
# GULP energy per Si atom -5589.999659 kJ/mol
# Density = 2.214902 g / cm^3
# Si number density = 22.199550 Si / 1000 Ang^3
#
#
#
# Elastic Constant Matrix: (Units=GPa)
#
#
# Indices 1 2 3 4 5 6 
#
# 1 107.5273 34.3334 17.6648 1.0455 21.4663 3.2263
# 2 34.3334 74.1712 1.7554 -6.2880 5.4377 -5.9001
# 3 17.6648 1.7554 75.9808 8.5780 17.3823 4.1029
# 4 1.0455 -6.2880 8.5780 40.9725 -2.1265 5.1639
# 5 21.4663 5.4377 17.3823 -2.1265 40.3232 7.6513
# 6 3.2263 -5.9001 4.1029 5.1639 7.6513 25.2542
#
#
#
# Elastic Compliance Matrix: (Units=1/GPa)
#
#
# Indices 1 2 3 4 5 6 
#
# 1 0.012329 -0.005454 -0.001411 -0.001012 -0.005109 -0.000865
# 2 -0.005454 0.016511 0.000480 0.002043 -0.000204 0.004120
# 3 -0.001411 0.000480 0.015252 -0.003450 -0.006143 0.000381
# 4 -0.001012 0.002043 -0.003450 0.026378 0.004184 -0.005494
# 5 -0.005109 -0.000204 -0.006143 0.004184 0.032121 -0.008984
# 6 -0.000865 0.004120 0.000381 -0.005494 -0.008984 0.044454
#
#
# Mechanical properties :
#
#
# Convention : Reuss Voigt Hill
#
# Bulk Modulus (GPa) = 31.92392 40.57628 36.25010
# Shear Modulus (GPa) = 29.36777 34.90502 32.13640
#
# Velocity S-wave (km/s) = 3.64111 3.96956 3.80888
# Velocity P-wave (km/s) = 5.66468 6.27117 5.97562
#
# Compressibility (1/GPa) = 0.03132447
#
# Stress axis : x y z
#
# Youngs Moduli (GPa) = 81.11105 60.56443 65.56353
#
# Poissons Ratio (x) = 0.33030 0.09248
# Poissons Ratio (y) = 0.44235 -0.03148
# Poissons Ratio (z) = 0.11441 -0.02908
#
# Static dielectric constant tensor:
#      x y z
#    x 1.825420 -0.001800 -0.016810 
#    y -0.001800 1.810000 0.027110 
#    z -0.016810 0.027110 1.862040 
# 
# From -- ./inp_files/95567.got.cif
#   From: 2010.05.17/outbox.cif.g08.bks.cpg/sg2_48_cif.got.tgz:95567.got - 2010.06.03 11:33:40.
