data_PCOD9051068
_publ_section_title
;
Structure prediction by ZEFSAII (Michael W. Deem and Ramdas Pophale) SiO2 
 PCOD9051068
Probable space group: P -1
;
_chemical_formula_sum "Si O2"
_cell_formula_units_Z 16
_cell_length_a 13.750586
_cell_length_b 7.952429
_cell_length_c 13.394330
_cell_angle_alpha 135.801652
_cell_angle_beta 46.548834
_cell_angle_gamma 129.875234
_cell_volume 708.842328
_symmetry_space_group_name_H-M "P -1"
_symmetry_group_IT_number 2
_symmetry_cell_setting 'triclinic'
loop_
_space_group_symop_operation_xyz
x,y,z
-x,-y,-z
loop_
_atom_site_type_symbol
_atom_site_label
_atom_site_fract_x
_atom_site_fract_y
_atom_site_fract_z
Si Si1 0.189581 0.037559 0.520847
Si Si2 0.690920 0.902892 0.910154
Si Si3 0.413568 0.465296 0.873898
Si Si4 0.186880 0.717660 0.194716
Si Si5 0.637827 0.072309 0.226814
Si Si6 0.572464 0.836888 0.450472
Si Si7 0.147662 0.505025 0.648133
Si Si8 0.904562 0.671043 0.605859
O O1 0.274551 0.025485 0.555673
O O2 0.212819 0.321492 0.588571
O O3 0.224934 0.865978 0.335752
O O4 0.023046 0.928829 0.606167
O O5 0.540578 0.712016 0.910823
O O6 0.794865 0.731172 0.784258
O O7 0.759380 0.073680 0.840640
O O8 0.675794 0.076332 0.086440
O O9 0.419064 0.391345 0.722477
O O10 0.422385 0.222186 0.826893
O O11 0.271412 0.519661 0.029821
O O12 0.020067 0.583475 0.256754
O O13 0.524186 0.206769 0.401434
O O14 0.776368 0.211686 0.251468
O O15 0.500000 0.000000 0.500000
O O16 0.173749 0.451360 0.491511
O O17 0.000000 0.500000 0.500000
#
# Coordination Sequence:
#
# PCOD9051068 Si02
#       8
#     2   2   2   2   2   2   2   2
#     4  11  23  46  74  99 142 184 226 285 346 411
#     4  12  24  46  68 103 140 182 234 281 341 415
#     4  11  26  44  71  96 142 180 233 287 342 409
#     4  11  24  46  70 105 138 183 231 280 345 414
#     4  11  27  43  69 101 140 181 225 294 345 402
#     4  10  25  45  68  99 136 178 231 285 343 406
#     4  11  24  48  68 103 146 176 233 282 343 420
#     4  11  25  41  76 104 135 190 231 281 343 410
#
# _framework density 22.572013999999999
#
# number of rings (size 3 to 8) (size 9 to 14) (size 15 to 20)
#    0.000    1.000    2.500    3.000   12.250    2.500 
#    0.000    0.000    0.000    0.000    0.000    0.000 
#    0.000    0.000    0.000    0.000    0.000    0.000 
#
# Total GULP energy -89488.135962 kJ/mol
# GULP energy per Si atom -5593.008498 kJ/mol
# Density = 2.252064 g / cm^3
# Si number density = 22.572014 Si / 1000 Ang^3
#
#
#
# Elastic Constant Matrix: (Units=GPa)
#
#
# Indices 1 2 3 4 5 6 
#
# 1 72.6172 -2.2861 37.6222 3.2527 23.3674 13.0364
# 2 -2.2861 50.9837 -0.7232 -3.5169 14.9771 12.2523
# 3 37.6222 -0.7232 153.1399 -13.1233 4.6650 16.9738
# 4 3.2527 -3.5169 -13.1233 18.4672 1.2677 1.1026
# 5 23.3674 14.9771 4.6650 1.2677 37.9126 13.2213
# 6 13.0364 12.2523 16.9738 1.1026 13.2213 35.7660
#
#
#
# Elastic Compliance Matrix: (Units=1/GPa)
#
#
# Indices 1 2 3 4 5 6 
#
# 1 0.021622 0.005046 -0.005121 -0.005423 -0.013848 -0.001893
# 2 0.005046 0.025031 0.000415 0.005322 -0.010871 -0.006756
# 3 -0.005121 0.000415 0.008732 0.007205 0.002983 -0.003744
# 4 -0.005423 0.005322 0.007205 0.061542 0.000110 -0.005204
# 5 -0.013848 -0.010871 0.002983 0.000110 0.041639 -0.008040
# 6 -0.001893 -0.006756 -0.003744 -0.005204 -0.008040 0.035873
#
#
# Mechanical properties :
#
#
# Convention : Reuss Voigt Hill
#
# Bulk Modulus (GPa) = 17.83717 38.44072 28.13894
# Shear Modulus (GPa) = 23.53527 34.57103 29.05315
#
# Velocity S-wave (km/s) = 3.23255 3.91780 3.59155
# Velocity P-wave (km/s) = 4.67461 6.12640 5.44907
#
# Compressibility (1/GPa) = 0.05606271
#
# Stress axis : x y z
#
# Youngs Moduli (GPa) = 46.24954 39.95118 114.52687
#
# Poissons Ratio (x) = -0.20159 0.58651
# Poissons Ratio (y) = -0.23337 -0.04750
# Poissons Ratio (z) = 0.23685 -0.01657
#
# Static dielectric constant tensor:
#      x y z
#    x 1.866140 -0.057260 -0.017790 
#    y -0.057260 1.895050 0.006640 
#    z -0.017790 0.006640 1.830990 
# 
# From -- ./inp_files/182408.got.cif
#   From: 2010.05.17/outbox.cif.g08.bks.cpg/sg2_92_cif.got.tgz:182408.got - 2010.06.03 11:33:40.
