data_PCOD9051794
_publ_section_title
;
Structure prediction by ZEFSAII (Michael W. Deem and Ramdas Pophale) SiO2 
 PCOD9051794
Probable space group: P -1
;
_chemical_formula_sum "Si O2"
_cell_formula_units_Z 12
_cell_length_a 9.573737
_cell_length_b 5.319729
_cell_length_c 13.330977
_cell_angle_alpha 99.314591
_cell_angle_beta 47.067246
_cell_angle_gamma 89.670080
_cell_volume 484.171717
_symmetry_space_group_name_H-M "P -1"
_symmetry_group_IT_number 2
_symmetry_cell_setting 'triclinic'
loop_
_space_group_symop_operation_xyz
x,y,z
-x,-y,-z
loop_
_atom_site_type_symbol
_atom_site_label
_atom_site_fract_x
_atom_site_fract_y
_atom_site_fract_z
Si Si1 0.069247 0.560097 0.169117
Si Si2 0.438865 0.963836 0.407023
Si Si3 0.869117 0.778513 0.572529
Si Si4 0.722138 0.373750 0.406833
Si Si5 0.145084 0.082489 0.852218
Si Si6 0.725209 0.943920 0.872020
O O1 0.882660 0.557595 0.330872
O O2 0.968616 0.655015 0.121109
O O3 0.192538 0.278896 0.102617
O O4 0.807008 0.154248 0.268122
O O5 0.313883 0.177973 0.412551
O O6 0.500000 0.000000 0.500000
O O7 0.297081 0.759554 0.486231
O O8 0.633096 0.869823 0.242310
O O9 0.000000 0.500000 0.500000
O O10 0.187599 0.790922 0.148230
O O11 0.779023 0.828792 0.729904
O O12 0.000000 0.000000 0.500000
O O13 0.500000 0.500000 0.500000
O O14 0.000000 0.000000 0.000000
O O15 0.500000 0.000000 0.000000
#
# Coordination Sequence:
#
# PCOD9051794 Si02
#       6
#     2   2   2   2   2   2
#     4  12  25  50  82 111 156 206 265 327 401 463
#     4  10  25  47  78 114 157 204 260 326 393 464
#     4  12  29  50  78 115 156 204 267 322 393 472
#     4  11  23  45  78 113 155 203 257 323 405 466
#     4  11  26  46  77 117 156 203 264 332 396 468
#     4  12  29  51  80 109 158 212 267 321 398 480
#
# _framework density 24.784593999999998
#
# number of rings (size 3 to 8) (size 9 to 14) (size 15 to 20)
#    0.000    0.667    3.333    2.500    9.333    3.333 
#    3.000    0.000    0.000    0.000    0.000    0.000 
#    0.000    0.000    0.000    0.000    0.000    0.000 
#
# Total GULP energy -66994.662768 kJ/mol
# GULP energy per Si atom -5582.888564 kJ/mol
# Density = 2.472818 g / cm^3
# Si number density = 24.784594 Si / 1000 Ang^3
#
#
#
# Elastic Constant Matrix: (Units=GPa)
#
#
# Indices 1 2 3 4 5 6 
#
# 1 138.5888 77.2250 60.9639 -1.3031 -35.8423 -34.4599
# 2 77.2250 179.1283 92.7363 -24.5165 -23.3605 -27.8005
# 3 60.9639 92.7363 248.4959 -8.6259 -42.4467 -18.9614
# 4 -1.3031 -24.5165 -8.6259 52.1539 -0.0249 2.7004
# 5 -35.8423 -23.3605 -42.4467 -0.0249 39.2118 -4.1504
# 6 -34.4599 -27.8005 -18.9614 2.7004 -4.1504 55.0761
#
#
#
# Elastic Compliance Matrix: (Units=1/GPa)
#
#
# Indices 1 2 3 4 5 6 
#
# 1 0.014302 -0.003831 0.000588 -0.001766 0.012297 0.008230
# 2 -0.003831 0.009053 -0.002302 0.003719 -0.000475 0.001162
# 3 0.000588 -0.002302 0.005822 -0.000187 0.005642 0.001645
# 4 -0.001766 0.003719 -0.000187 0.020862 0.000381 -0.000287
# 5 0.012297 -0.000475 0.005642 0.000381 0.043911 0.012687
# 6 0.008230 0.001162 0.001645 -0.000287 0.012687 0.025429
#
#
# Mechanical properties :
#
#
# Convention : Reuss Voigt Hill
#
# Bulk Modulus (GPa) = 55.28718 114.22926 84.75822
# Shear Modulus (GPa) = 36.63044 51.64089 44.13567
#
# Velocity S-wave (km/s) = 3.84858 4.56959 4.22450
# Velocity P-wave (km/s) = 6.48878 8.60409 7.62019
#
# Compressibility (1/GPa) = 0.01808737
#
# Stress axis : x y z
#
# Youngs Moduli (GPa) = 69.92138 110.45484 171.76774
#
# Poissons Ratio (x) = 0.42315 -0.10105
# Poissons Ratio (y) = 0.26787 0.39543
# Poissons Ratio (z) = -0.04113 0.25428
#
# Static dielectric constant tensor:
#      x y z
#    x 2.206130 0.140260 0.048210 
#    y 0.140260 2.080880 -0.071450 
#    z 0.048210 -0.071450 1.909310 
# 
# From -- ./inp_files/509285.got.cif
#   From: 2010.05.17/outbox.cif.g08.bks.cpg/sg2_255_cif.got.tgz:509285.got - 2010.06.03 11:33:40.
