data_PCOD9051601
_publ_section_title
;
Structure prediction by ZEFSAII (Michael W. Deem and Ramdas Pophale) SiO2 
 PCOD9051601
Probable space group: P -1
;
_chemical_formula_sum "Si O2"
_cell_formula_units_Z 14
_cell_length_a 8.117062
_cell_length_b 9.308724
_cell_length_c 13.728455
_cell_angle_alpha 72.847649
_cell_angle_beta 140.243318
_cell_angle_gamma 101.916779
_cell_volume 633.540206
_symmetry_space_group_name_H-M "P -1"
_symmetry_group_IT_number 2
_symmetry_cell_setting 'triclinic'
loop_
_space_group_symop_operation_xyz
x,y,z
-x,-y,-z
loop_
_atom_site_type_symbol
_atom_site_label
_atom_site_fract_x
_atom_site_fract_y
_atom_site_fract_z
Si Si1 0.744887 0.891906 0.657769
Si Si2 0.540471 0.770883 0.242701
Si Si3 0.948039 0.831070 0.973194
Si Si4 0.172848 0.480207 0.678125
Si Si5 0.698486 0.047485 0.164105
Si Si6 0.718424 0.615209 0.555003
Si Si7 0.475363 0.349365 0.083772
O O1 0.780320 0.851302 0.795199
O O2 0.736794 0.738893 0.622371
O O3 0.008289 0.972804 0.731863
O O4 0.500000 0.000000 0.500000
O O5 0.684713 0.680920 0.238332
O O6 0.636340 0.701289 0.401359
O O7 0.628403 0.941122 0.242958
O O8 0.233528 0.762191 0.094595
O O9 0.795593 0.725880 0.999788
O O10 0.000000 0.000000 0.000000
O O11 0.392989 0.601373 0.764926
O O12 0.000000 0.500000 0.500000
O O13 0.979615 0.517909 0.671180
O O14 0.643838 0.218318 0.135229
O O15 0.500000 0.000000 0.000000
O O16 0.500000 0.500000 0.500000
O O17 0.500000 0.500000 0.000000
#
# Coordination Sequence:
#
# PCOD9051601 Si02
#       7
#     2   2   2   2   2   2   2
#     4  12  28  46  78 112 147 197 248 317 377 450
#     4  11  25  46  78 102 154 203 245 318 370 454
#     4  12  26  49  75 114 149 193 257 308 379 456
#     4  10  25  47  67 107 145 194 242 307 378 437
#     4  12  24  49  74 111 149 195 259 303 384 451
#     4  11  27  47  70 110 152 193 251 313 378 444
#     4  12  27  46  78 108 148 193 246 315 378 446
#
# _framework density 22.098047000000001
#
# number of rings (size 3 to 8) (size 9 to 14) (size 15 to 20)
#    0.000    0.571    4.286    1.714    8.000    2.286 
#    0.000    0.000    0.000    0.000    0.000    0.000 
#    0.000    0.000    0.000    0.000    0.000    0.000 
#
# Total GULP energy -78300.451177 kJ/mol
# GULP energy per Si atom -5592.889370 kJ/mol
# Density = 2.204775 g / cm^3
# Si number density = 22.098047 Si / 1000 Ang^3
#
#
#
# Elastic Constant Matrix: (Units=GPa)
#
#
# Indices 1 2 3 4 5 6 
#
# 1 124.6523 69.0484 58.4971 -15.2375 22.0953 15.2670
# 2 69.0484 159.4703 59.7546 6.5842 3.2658 -1.7016
# 3 58.4971 59.7546 129.7287 -4.9335 8.2395 -0.8954
# 4 -15.2375 6.5842 -4.9335 41.7191 -1.7968 -1.0593
# 5 22.0953 3.2658 8.2395 -1.7968 54.0847 -0.8587
# 6 15.2670 -1.7016 -0.8954 -1.0593 -0.8587 60.3257
#
#
#
# Elastic Compliance Matrix: (Units=1/GPa)
#
#
# Indices 1 2 3 4 5 6 
#
# 1 0.014614 -0.005082 -0.003755 0.005383 -0.004974 -0.003874
# 2 -0.005082 0.009458 -0.002300 -0.003507 0.001763 0.001482
# 3 -0.003755 -0.002300 0.010471 0.000261 0.000103 0.001047
# 4 0.005383 -0.003507 0.000261 0.026445 -0.001165 -0.001010
# 5 -0.004974 0.001763 0.000103 -0.001165 0.020386 0.001580
# 6 -0.003874 0.001482 0.001047 -0.001010 0.001580 0.017619
#
#
# Mechanical properties :
#
#
# Convention : Reuss Voigt Hill
#
# Bulk Modulus (GPa) = 81.50492 87.60569 84.55530
# Shear Modulus (GPa) = 39.88665 46.32931 43.10798
#
# Velocity S-wave (km/s) = 4.25312 4.58376 4.42153
# Velocity P-wave (km/s) = 7.81550 8.23071 8.02579
#
# Compressibility (1/GPa) = 0.01226920
#
# Stress axis : x y z
#
# Youngs Moduli (GPa) = 68.42891 105.73547 95.49894
#
# Poissons Ratio (x) = 0.53738 0.35857
# Poissons Ratio (y) = 0.34778 0.21961
# Poissons Ratio (z) = 0.25693 0.24315
#
# Static dielectric constant tensor:
#      x y z
#    x 1.848390 -0.019330 -0.005210 
#    y -0.019330 1.792870 -0.014570 
#    z -0.005210 -0.014570 1.891440 
# 
# From -- ./inp_files/494749.got.cif
#   From: 2010.05.17/outbox.cif.g08.bks.cpg/sg2_248_cif.got.tgz:494749.got - 2010.06.03 11:33:40.
