data_PCOD9051112
_publ_section_title
;
Structure prediction by ZEFSAII (Michael W. Deem and Ramdas Pophale) SiO2 
 PCOD9051112
Probable space group: P -1
;
_chemical_formula_sum "Si O2"
_cell_formula_units_Z 16
_cell_length_a 8.198567
_cell_length_b 14.502345
_cell_length_c 9.353199
_cell_angle_alpha 78.786092
_cell_angle_beta 108.042492
_cell_angle_gamma 50.435453
_cell_volume 688.970860
_symmetry_space_group_name_H-M "P -1"
_symmetry_group_IT_number 2
_symmetry_cell_setting 'triclinic'
loop_
_space_group_symop_operation_xyz
x,y,z
-x,-y,-z
loop_
_atom_site_type_symbol
_atom_site_label
_atom_site_fract_x
_atom_site_fract_y
_atom_site_fract_z
Si Si1 0.385165 0.203188 0.882281
Si Si2 0.158830 0.067168 0.209057
Si Si3 0.274766 0.770835 0.170528
Si Si4 0.392068 0.011450 0.757762
Si Si5 0.107290 0.805169 0.616233
Si Si6 0.383842 0.507279 0.820769
Si Si7 0.000961 0.500947 0.826063
Si Si8 0.582772 0.218343 0.503856
O O1 0.536338 0.222414 0.832448
O O2 0.336214 0.131936 0.791587
O O3 0.132803 0.353119 0.840632
O O4 0.569544 0.088254 0.091278
O O5 0.937203 0.171673 0.234165
O O6 0.334959 0.084284 0.218771
O O7 0.348379 0.911709 0.375195
O O8 0.008470 0.101813 0.012998
O O9 0.401213 0.626120 0.181909
O O10 0.286981 0.767596 0.345515
O O11 0.169606 0.083355 0.565091
O O12 0.248420 0.650277 0.665431
O O13 0.273815 0.821414 0.593843
O O14 0.179564 0.512196 0.812525
O O15 0.500000 0.500000 0.000000
O O16 0.715310 0.636403 0.646070
O O17 0.000000 0.500000 0.000000
#
# Coordination Sequence:
#
# PCOD9051112 Si02
#       8
#     2   2   2   2   2   2   2   2
#     4  10  25  45  70 101 140 178 230 285 350 399
#     4  12  25  45  73  99 141 182 233 286 347 406
#     4  11  25  46  72  99 144 183 228 284 343 417
#     4  11  25  44  72 103 136 180 236 287 343 408
#     4  12  27  43  70 102 144 178 233 288 340 414
#     4  11  24  47  69 102 138 181 229 285 346 401
#     4  11  27  45  73  99 142 183 230 283 349 415
#     4  12  27  45  71 105 138 187 231 279 350 411
#
# _framework density 23.223043000000001
#
# number of rings (size 3 to 8) (size 9 to 14) (size 15 to 20)
#    0.000    0.750    2.500    3.375   10.500    2.500 
#    0.000    0.000    0.000    0.000    0.000    0.000 
#    0.000    0.000    0.000    0.000    0.000    0.000 
#
# Total GULP energy -89630.515838 kJ/mol
# GULP energy per Si atom -5601.907240 kJ/mol
# Density = 2.317019 g / cm^3
# Si number density = 23.223043 Si / 1000 Ang^3
#
#
#
# Elastic Constant Matrix: (Units=GPa)
#
#
# Indices 1 2 3 4 5 6 
#
# 1 52.4880 4.7735 14.1847 -5.1977 -2.7742 -11.0442
# 2 4.7735 101.2739 30.6027 -13.3230 -5.9257 -3.7129
# 3 14.1847 30.6027 109.6874 -18.1067 9.0268 -1.7251
# 4 -5.1977 -13.3230 -18.1067 32.8782 -5.3634 -2.7565
# 5 -2.7742 -5.9257 9.0268 -5.3634 41.2259 -0.8469
# 6 -11.0442 -3.7129 -1.7251 -2.7565 -0.8469 31.9919
#
#
#
# Elastic Compliance Matrix: (Units=1/GPa)
#
#
# Indices 1 2 3 4 5 6 
#
# 1 0.021808 0.000632 -0.002535 0.003408 0.002718 0.007831
# 2 0.000632 0.011435 -0.002855 0.003775 0.002839 0.001792
# 3 -0.002535 -0.002855 0.011123 0.004137 -0.002485 -0.000316
# 4 0.003408 0.003775 0.004137 0.035944 0.004646 0.005058
# 5 0.002718 0.002839 -0.002485 0.004646 0.026042 0.002223
# 6 0.007831 0.001792 -0.000316 0.005058 0.002223 0.034647
#
#
# Mechanical properties :
#
#
# Convention : Reuss Voigt Hill
#
# Bulk Modulus (GPa) = 28.69141 40.28568 34.48855
# Shear Modulus (GPa) = 30.83923 35.47842 33.15883
#
# Velocity S-wave (km/s) = 3.64807 3.91285 3.78278
# Velocity P-wave (km/s) = 5.48872 6.14808 5.82773
#
# Compressibility (1/GPa) = 0.03485364
#
# Stress axis : x y z
#
# Youngs Moduli (GPa) = 45.85421 87.44734 89.90074
#
# Poissons Ratio (x) = -0.05530 0.22786
# Poissons Ratio (y) = -0.02900 0.25663
# Poissons Ratio (z) = 0.11622 0.24962
#
# Static dielectric constant tensor:
#      x y z
#    x 1.828860 -0.001980 -0.015320 
#    y -0.001980 1.929620 0.027890 
#    z -0.015320 0.027890 1.819160 
# 
# From -- ./inp_files/207010.got.cif
#   From: 2010.05.17/outbox.cif.g08.bks.cpg/sg2_104_cif.got.tgz:207010.got - 2010.06.03 11:33:40.
