data_PCOD9051450
_publ_section_title
;
Structure prediction by ZEFSAII (Michael W. Deem and Ramdas Pophale) SiO2 
 PCOD9051450
Probable space group: P -1
;
_chemical_formula_sum "Si O2"
_cell_formula_units_Z 16
_cell_length_a 5.930353
_cell_length_b 17.050443
_cell_length_c 20.388066
_cell_angle_alpha 160.337782
_cell_angle_beta 82.871104
_cell_angle_gamma 95.205101
_cell_volume 686.180239
_symmetry_space_group_name_H-M "P -1"
_symmetry_group_IT_number 2
_symmetry_cell_setting 'triclinic'
loop_
_space_group_symop_operation_xyz
x,y,z
-x,-y,-z
loop_
_atom_site_type_symbol
_atom_site_label
_atom_site_fract_x
_atom_site_fract_y
_atom_site_fract_z
Si Si1 0.702241 0.798721 0.341691
Si Si2 0.761228 0.076919 0.341572
Si Si3 0.827587 0.070038 0.886531
Si Si4 0.593584 0.277722 0.932164
Si Si5 0.044941 0.014964 0.402558
Si Si6 0.447835 0.826645 0.772115
Si Si7 0.070275 0.197510 0.102721
Si Si8 0.342684 0.525105 0.422349
O O1 0.819051 0.820495 0.425807
O O2 0.500000 0.000000 0.500000
O O3 0.897890 0.854456 0.327085
O O4 0.601057 0.552384 0.139706
O O5 0.872192 0.144711 0.459159
O O6 0.586978 0.282372 0.480545
O O7 0.640031 0.837823 0.165474
O O8 0.956723 0.029875 0.242761
O O9 0.665971 0.211463 0.951792
O O10 0.691719 0.865123 0.761917
O O11 0.911193 0.217503 0.060974
O O12 0.779023 0.146765 0.774413
O O13 0.314536 0.661461 0.599383
O O14 0.486218 0.696298 0.737395
O O15 0.313752 0.078370 0.976008
O O16 0.120140 0.425615 0.320737
O O17 0.000000 0.000000 0.000000
#
# Coordination Sequence:
#
# PCOD9051450 Si02
#       8
#     2   2   2   2   2   2   2   2
#     4  11  25  47  75 106 136 173 223 274 336 416
#     4  11  24  46  68 102 134 182 223 276 339 393
#     4  11  23  45  65  94 138 177 225 278 342 388
#     4  11  24  47  70  99 143 175 219 283 337 406
#     4  10  25  46  71 105 135 178 225 265 347 405
#     4  11  24  47  61  97 136 180 229 282 333 392
#     4  12  25  42  65  97 128 180 234 283 336 390
#     4  11  24  42  70  93 138 177 229 280 332 394
#
# _framework density 23.317489999999999
#
# number of rings (size 3 to 8) (size 9 to 14) (size 15 to 20)
#    0.000    1.000    3.750    1.500    1.750    9.000 
#    6.750    0.000    0.000    0.000    0.000    0.000 
#    0.000    0.000    0.000    0.000    0.000    0.000 
#
# Total GULP energy -89516.628977 kJ/mol
# GULP energy per Si atom -5594.789311 kJ/mol
# Density = 2.326442 g / cm^3
# Si number density = 23.317490 Si / 1000 Ang^3
#
#
#
# Elastic Constant Matrix: (Units=GPa)
#
#
# Indices 1 2 3 4 5 6 
#
# 1 76.6383 32.2570 22.2929 -14.9722 17.8848 4.5475
# 2 32.2570 93.0705 24.7754 -18.7217 9.8617 -3.1142
# 3 22.2929 24.7754 66.7739 -4.6960 27.3921 18.2008
# 4 -14.9722 -18.7217 -4.6960 39.1486 -11.4171 16.5017
# 5 17.8848 9.8617 27.3921 -11.4171 40.2231 -3.5701
# 6 4.5475 -3.1142 18.2008 16.5017 -3.5701 41.7374
#
#
#
# Elastic Compliance Matrix: (Units=1/GPa)
#
#
# Indices 1 2 3 4 5 6 
#
# 1 0.017561 -0.004604 -0.000361 0.004746 -0.005481 -0.004445
# 2 -0.004604 0.014482 -0.005931 0.004478 0.004050 0.002745
# 3 -0.000361 -0.005931 0.029675 0.001451 -0.019566 -0.015591
# 4 0.004746 0.004478 0.001451 0.037592 0.005121 -0.015240
# 5 -0.005481 0.004050 -0.019566 0.005121 0.042061 0.011005
# 6 -0.004445 0.002745 -0.015591 -0.015240 0.011005 0.038414
#
#
# Mechanical properties :
#
#
# Convention : Reuss Voigt Hill
#
# Bulk Modulus (GPa) = 25.04526 43.90372 34.47449
# Shear Modulus (GPa) = 23.26811 34.69898 28.98355
#
# Velocity S-wave (km/s) = 3.16235 3.86179 3.52944
# Velocity P-wave (km/s) = 4.90900 6.22528 5.60591
#
# Compressibility (1/GPa) = 0.03992771
#
# Stress axis : x y z
#
# Youngs Moduli (GPa) = 56.94418 69.04938 33.69785
#
# Poissons Ratio (x) = 0.31787 0.01217
# Poissons Ratio (y) = 0.26214 0.19986
# Poissons Ratio (z) = 0.02056 0.40954
#
# Static dielectric constant tensor:
#      x y z
#    x 1.933010 0.001240 -0.040850 
#    y 0.001240 1.876140 -0.004030 
#    z -0.040850 -0.004030 1.880000 
# 
# From -- ./inp_files/584081.got.cif
#   From: 2010.05.17/outbox.cif.g08.bks.cpg/sg2_293_cif.got.tgz:584081.got - 2010.06.03 11:33:40.
