data_PCOD9051335
_publ_section_title
;
Structure prediction by ZEFSAII (Michael W. Deem and Ramdas Pophale) SiO2 
 PCOD9051335
Probable space group: P -1
;
_chemical_formula_sum "Si O2"
_cell_formula_units_Z 12
_cell_length_a 17.727916
_cell_length_b 7.939127
_cell_length_c 5.241829
_cell_angle_alpha 121.740347
_cell_angle_beta 98.449687
_cell_angle_gamma 118.239347
_cell_volume 469.291371
_symmetry_space_group_name_H-M "P -1"
_symmetry_group_IT_number 2
_symmetry_cell_setting 'triclinic'
loop_
_space_group_symop_operation_xyz
x,y,z
-x,-y,-z
loop_
_atom_site_type_symbol
_atom_site_label
_atom_site_fract_x
_atom_site_fract_y
_atom_site_fract_z
Si Si1 0.432883 0.508461 0.669279
Si Si2 0.114572 0.528950 0.611853
Si Si3 0.809656 0.964919 0.222841
Si Si4 0.278029 0.568406 0.465209
Si Si5 0.998505 0.214068 0.795207
Si Si6 0.638912 0.912668 0.342007
O O1 0.500000 0.500000 0.500000
O O2 0.373367 0.601754 0.628737
O O3 0.357081 0.211735 0.500945
O O4 0.519171 0.727006 0.084793
O O5 0.137891 0.790580 0.743558
O O6 0.217459 0.577543 0.666321
O O7 0.067325 0.442398 0.799364
O O8 0.042797 0.316790 0.181278
O O9 0.882344 0.078938 0.594614
O O10 0.700660 0.869424 0.154616
O O11 0.795468 0.721282 0.918234
O O12 0.311108 0.791109 0.454449
O O13 0.000000 0.000000 0.500000
#
# Coordination Sequence:
#
# PCOD9051335 Si02
#       6
#     2   2   2   2   2   2
#     4  11  23  45  71  98 139 181 233 292 360 424
#     4  11  27  47  71 106 143 190 238 292 356 423
#     4  11  24  45  71 101 139 186 235 292 355 423
#     4  11  24  45  72 103 140 184 236 294 355 427
#     4  12  25  46  73 103 144 190 238 290 358 420
#     4  10  25  46  67 104 136 183 235 292 357 425
#
# _framework density 25.570466
#
# number of rings (size 3 to 8) (size 9 to 14) (size 15 to 20)
#    0.000    1.000    3.333    2.000    2.333    3.333 
#    3.000    0.000    0.000    0.000    0.000    0.000 
#    0.000    0.000    0.000    0.000    0.000    0.000 
#
# Total GULP energy -67164.132682 kJ/mol
# GULP energy per Si atom -5597.011057 kJ/mol
# Density = 2.551227 g / cm^3
# Si number density = 25.570466 Si / 1000 Ang^3
#
#
#
# Elastic Constant Matrix: (Units=GPa)
#
#
# Indices 1 2 3 4 5 6 
#
# 1 155.4240 26.1814 31.6951 5.0728 7.1440 -8.6997
# 2 26.1814 58.5420 14.9052 7.7836 -5.3959 -10.2429
# 3 31.6951 14.9052 97.5040 7.5474 -2.2270 -8.7934
# 4 5.0728 7.7836 7.5474 43.6612 -8.0866 -12.5565
# 5 7.1440 -5.3959 -2.2270 -8.0866 35.8951 11.3558
# 6 -8.6997 -10.2429 -8.7934 -12.5565 11.3558 34.4128
#
#
#
# Elastic Compliance Matrix: (Units=1/GPa)
#
#
# Indices 1 2 3 4 5 6 
#
# 1 0.007499 -0.002843 -0.001931 -0.000106 -0.002487 0.001338
# 2 -0.002843 0.019770 -0.001615 -0.001531 0.001972 0.003544
# 3 -0.001931 -0.001615 0.011348 -0.000985 0.000141 0.001525
# 4 -0.000106 -0.001531 -0.000985 0.026182 0.003169 0.007773
# 5 -0.002487 0.001972 0.000141 0.003169 0.032390 -0.009538
# 6 0.001338 0.003544 0.001525 0.007773 -0.009538 0.036825
#
#
# Mechanical properties :
#
#
# Convention : Reuss Voigt Hill
#
# Bulk Modulus (GPa) = 38.70189 50.78148 44.74168
# Shear Modulus (GPa) = 32.17399 38.70638 35.44018
#
# Velocity S-wave (km/s) = 3.55103 3.89487 3.72692
# Velocity P-wave (km/s) = 5.65520 6.33476 6.00460
#
# Compressibility (1/GPa) = 0.02583853
#
# Stress axis : x y z
#
# Youngs Moduli (GPa) = 133.34330 50.58231 88.12495
#
# Poissons Ratio (x) = 0.14382 0.17017
# Poissons Ratio (y) = 0.37913 0.14230
# Poissons Ratio (z) = 0.25749 0.08168
#
# Static dielectric constant tensor:
#      x y z
#    x 2.040140 0.003200 0.032780 
#    y 0.003200 2.058070 -0.016130 
#    z 0.032780 -0.016130 2.107910 
# 
# From -- ./inp_files/29901.got.cif
#   From: 2010.05.17/outbox.cif.g08.bks.cpg/sg2_15_cif.got.tgz:29901.got - 2010.06.03 11:33:40.
