data_PCOD9051172
_publ_section_title
;
Structure prediction by ZEFSAII (Michael W. Deem and Ramdas Pophale) SiO2 
 PCOD9051172
Probable space group: P -1
;
_chemical_formula_sum "Si O2"
_cell_formula_units_Z 8
_cell_length_a 6.482917
_cell_length_b 6.402513
_cell_length_c 9.455232
_cell_angle_alpha 67.879075
_cell_angle_beta 79.582486
_cell_angle_gamma 108.606816
_cell_volume 323.687786
_symmetry_space_group_name_H-M "P -1"
_symmetry_group_IT_number 2
_symmetry_cell_setting 'triclinic'
loop_
_space_group_symop_operation_xyz
x,y,z
-x,-y,-z
loop_
_atom_site_type_symbol
_atom_site_label
_atom_site_fract_x
_atom_site_fract_y
_atom_site_fract_z
Si Si1 0.059506 0.823996 0.644221
Si Si2 0.714155 0.942931 0.149094
Si Si3 0.800054 0.269018 0.779092
Si Si4 0.708615 0.501570 0.379417
O O1 0.133865 0.930123 0.765475
O O2 0.270616 0.751764 0.590011
O O3 0.843542 0.549414 0.746236
O O4 0.000000 0.000000 0.500000
O O5 0.445252 0.883925 0.222730
O O6 0.704376 0.666718 0.203226
O O7 0.796599 0.111239 0.958098
O O8 0.028421 0.331841 0.640745
O O9 0.500000 0.500000 0.500000
#
# Coordination Sequence:
#
# PCOD9051172 Si02
#       4
#     2   2   2   2
#     4  10  25  45  74 109 142 189 242 297 362 427
#     4  11  22  47  75 102 146 188 240 307 347 428
#     4   9  24  47  71 109 140 189 242 296 362 424
#     4  10  25  45  71 106 148 187 238 296 363 432
#
# _framework density 24.715177000000001
#
# number of rings (size 3 to 8) (size 9 to 14) (size 15 to 20)
#    1.500    0.500    0.000    1.500    3.500    5.000 
#    4.500    3.750    0.000    0.000    0.000    0.000 
#    0.000    0.000    0.000    0.000    0.000    0.000 
#
# Total GULP energy -44587.344602 kJ/mol
# GULP energy per Si atom -5573.418075 kJ/mol
# Density = 2.465892 g / cm^3
# Si number density = 24.715177 Si / 1000 Ang^3
#
#
#
# Elastic Constant Matrix: (Units=GPa)
#
#
# Indices 1 2 3 4 5 6 
#
# 1 116.9632 39.8657 53.0447 -5.5498 -16.5017 -0.0412
# 2 39.8657 109.1532 65.8822 -10.2551 24.1846 -6.7076
# 3 53.0447 65.8822 194.6487 -35.6413 49.0696 -8.6009
# 4 -5.5498 -10.2551 -35.6413 41.3522 -5.7130 8.4477
# 5 -16.5017 24.1846 49.0696 -5.7130 64.0262 -11.1132
# 6 -0.0412 -6.7076 -8.6009 8.4477 -11.1132 52.4870
#
#
#
# Elastic Compliance Matrix: (Units=1/GPa)
#
#
# Indices 1 2 3 4 5 6 
#
# 1 0.013155 -0.003972 -0.004771 -0.002341 0.008494 0.000896
# 2 -0.003972 0.012890 -0.002202 0.000116 -0.004127 0.000391
# 3 -0.004771 -0.002202 0.010414 0.006969 -0.007999 -0.001394
# 4 -0.002341 0.000116 0.006969 0.030276 -0.004082 -0.004582
# 5 0.008494 -0.004127 -0.007999 -0.004082 0.025880 0.004305
# 6 0.000896 0.000391 -0.001394 -0.004582 0.004305 0.020524
#
#
# Mechanical properties :
#
#
# Convention : Reuss Voigt Hill
#
# Bulk Modulus (GPa) = 68.63234 82.03891 75.33562
# Shear Modulus (GPa) = 35.74418 49.03790 42.39104
#
# Velocity S-wave (km/s) = 3.80708 4.45918 4.14597
# Velocity P-wave (km/s) = 6.86693 7.73163 7.31208
#
# Compressibility (1/GPa) = 0.01457039
#
# Stress axis : x y z
#
# Youngs Moduli (GPa) = 76.01921 77.57836 96.02697
#
# Poissons Ratio (x) = 0.30811 0.45812
# Poissons Ratio (y) = 0.30192 0.21142
# Poissons Ratio (z) = 0.36267 0.17080
#
# Static dielectric constant tensor:
#      x y z
#    x 2.054830 -0.049290 0.003200 
#    y -0.049290 2.024440 -0.038220 
#    z 0.003200 -0.038220 1.991130 
# 
# From -- ./inp_files/1887.got.cif
#   From: 2010.05.17/outbox.cif.g08.bks.cpg/sg2_1_cif.got.tgz:1887.got - 2010.06.03 11:33:40.
