data_PCOD9051495
_publ_section_title
;
Structure prediction by ZEFSAII (Michael W. Deem and Ramdas Pophale) SiO2 
 PCOD9051495
Probable space group: P -1
;
_chemical_formula_sum "Si O2"
_cell_formula_units_Z 14
_cell_length_a 5.061835
_cell_length_b 24.751376
_cell_length_c 11.836549
_cell_angle_alpha 151.515466
_cell_angle_beta 86.458543
_cell_angle_gamma 74.796254
_cell_volume 527.206377
_symmetry_space_group_name_H-M "P -1"
_symmetry_group_IT_number 2
_symmetry_cell_setting 'triclinic'
loop_
_space_group_symop_operation_xyz
x,y,z
-x,-y,-z
loop_
_atom_site_type_symbol
_atom_site_label
_atom_site_fract_x
_atom_site_fract_y
_atom_site_fract_z
Si Si1 0.215311 0.042639 0.436580
Si Si2 0.460267 0.317220 0.932076
Si Si3 0.256747 0.046540 0.199383
Si Si4 0.186926 0.247998 0.997198
Si Si5 0.521207 0.630201 0.217750
Si Si6 0.356568 0.281423 0.397177
Si Si7 0.319164 0.600376 0.504730
O O1 0.365417 0.053870 0.336958
O O2 0.189279 0.138172 0.714756
O O3 0.803661 0.138477 0.595891
O O4 0.458665 0.870344 0.153331
O O5 0.218488 0.344210 0.089698
O O6 0.320703 0.369779 0.905421
O O7 0.548166 0.422538 0.152189
O O8 0.882373 0.209451 0.484346
O O9 0.500000 0.000000 0.000000
O O10 0.302498 0.898206 0.937637
O O11 0.859459 0.345136 0.268468
O O12 0.693910 0.649812 0.351891
O O13 0.500000 0.500000 0.000000
O O14 0.454343 0.355257 0.447703
O O15 0.011684 0.315290 0.420583
#
# Coordination Sequence:
#
# PCOD9051495 Si02
#       7
#     2   2   2   2   2   2   2
#     4  10  25  46  72 109 152 196 262 315 387 443
#     4  11  26  46  72 111 148 204 255 319 385 453
#     4  11  25  47  79 112 153 206 254 313 385 466
#     4  11  25  46  75 108 148 207 255 323 370 466
#     4  11  25  47  75 113 154 196 252 323 384 450
#     4  12  27  51  77 114 153 206 254 315 382 462
#     4  12  28  48  81 108 157 202 258 311 388 450
#
# _framework density 26.555063000000001
#
# number of rings (size 3 to 8) (size 9 to 14) (size 15 to 20)
#    0.000    0.857    2.857    2.143    6.000    5.714 
#    0.000    0.000    0.000    0.000    0.000    0.000 
#    0.000    0.000    0.000    0.000    0.000    0.000 
#
# Total GULP energy -78487.375703 kJ/mol
# GULP energy per Si atom -5606.241122 kJ/mol
# Density = 2.649462 g / cm^3
# Si number density = 26.555063 Si / 1000 Ang^3
#
#
#
# Elastic Constant Matrix: (Units=GPa)
#
#
# Indices 1 2 3 4 5 6 
#
# 1 49.4454 40.7990 14.2364 15.2212 1.1266 -11.0554
# 2 40.7990 203.0371 58.4138 -14.7951 -24.8646 -0.4627
# 3 14.2364 58.4138 119.8681 8.0755 -12.6324 -15.4330
# 4 15.2212 -14.7951 8.0755 73.2728 -7.1004 -3.2299
# 5 1.1266 -24.8646 -12.6324 -7.1004 33.2416 -4.0981
# 6 -11.0554 -0.4627 -15.4330 -3.2299 -4.0981 47.5935
#
#
#
# Elastic Compliance Matrix: (Units=1/GPa)
#
#
# Indices 1 2 3 4 5 6 
#
# 1 0.030743 -0.007962 0.000765 -0.008566 -0.007789 0.006060
# 2 -0.007962 0.008455 -0.003068 0.004203 0.006085 -0.001953
# 3 0.000765 -0.003068 0.010505 -0.001606 0.001772 0.003598
# 4 -0.008566 0.004203 -0.001606 0.017036 0.006368 -0.000765
# 5 -0.007789 0.006085 0.001772 0.006368 0.037236 0.002463
# 6 0.006060 -0.001953 0.003598 -0.000765 0.002463 0.023727
#
#
# Mechanical properties :
#
#
# Convention : Reuss Voigt Hill
#
# Bulk Modulus (GPa) = 34.27797 66.58322 50.43060
# Shear Modulus (GPa) = 31.65459 48.08166 39.86813
#
# Velocity S-wave (km/s) = 3.45633 4.25978 3.87891
# Velocity P-wave (km/s) = 5.37258 7.02299 6.25248
#
# Compressibility (1/GPa) = 0.02917326
#
# Stress axis : x y z
#
# Youngs Moduli (GPa) = 32.52760 118.27664 95.19489
#
# Poissons Ratio (x) = 0.94173 -0.07284
# Poissons Ratio (y) = 0.25899 0.29204
# Poissons Ratio (z) = -0.02489 0.36285
#
# Static dielectric constant tensor:
#      x y z
#    x 2.099410 -0.057540 -0.034160 
#    y -0.057540 2.097730 -0.014880 
#    z -0.034160 -0.014880 2.076140 
# 
# From -- ./inp_files/60938.got.cif
#   From: 2010.05.17/outbox.cif.g08.bks.cpg/sg2_31_cif.got.tgz:60938.got - 2010.06.03 11:33:40.
