data_PCOD9051295
_publ_section_title
;
Structure prediction by ZEFSAII (Michael W. Deem and Ramdas Pophale) SiO2 
 PCOD9051295
Probable space group: P -1
;
_chemical_formula_sum "Si O2"
_cell_formula_units_Z 12
_cell_length_a 9.857235
_cell_length_b 8.743474
_cell_length_c 9.386217
_cell_angle_alpha 48.116323
_cell_angle_beta 58.718618
_cell_angle_gamma 75.047346
_cell_volume 509.702842
_symmetry_space_group_name_H-M "P -1"
_symmetry_group_IT_number 2
_symmetry_cell_setting 'triclinic'
loop_
_space_group_symop_operation_xyz
x,y,z
-x,-y,-z
loop_
_atom_site_type_symbol
_atom_site_label
_atom_site_fract_x
_atom_site_fract_y
_atom_site_fract_z
Si Si1 0.951494 0.359576 0.978220
Si Si2 0.871115 0.804342 0.250041
Si Si3 0.632816 0.519631 0.033742
Si Si4 0.348250 0.005922 0.180396
Si Si5 0.005351 0.055686 0.632707
Si Si6 0.502715 0.703540 0.471408
O O1 0.792268 0.429365 0.958452
O O2 0.931140 0.137556 0.204520
O O3 0.000000 0.500000 0.000000
O O4 0.083409 0.370544 0.775233
O O5 0.685004 0.818963 0.313722
O O6 0.898073 0.768170 0.426889
O O7 0.000000 0.000000 0.000000
O O8 0.561522 0.384702 0.289118
O O9 0.500000 0.500000 0.000000
O O10 0.667082 0.760294 0.910093
O O11 0.180421 0.928334 0.245167
O O12 0.385986 0.858399 0.379656
O O13 0.500000 0.000000 0.000000
O O14 0.000000 0.000000 0.500000
O O15 0.500000 0.500000 0.500000
#
# Coordination Sequence:
#
# PCOD9051295 Si02
#       6
#     2   2   2   2   2   2
#     4  11  22  47  70 101 150 188 243 305 368 438
#     4  10  25  45  78 104 147 203 242 304 379 439
#     4  12  29  45  74 112 149 196 250 313 374 446
#     4  12  25  48  77 105 153 194 251 312 376 442
#     4  11  25  45  72 106 143 196 245 305 369 444
#     4  12  26  49  78 110 147 199 254 309 376 448
#
# _framework density 23.543129
#
# number of rings (size 3 to 8) (size 9 to 14) (size 15 to 20)
#    0.000    0.667    3.333    4.000    9.333    0.667 
#    0.000    2.500    0.000    0.000    0.000    0.000 
#    0.000    0.000    0.000    0.000    0.000    0.000 
#
# Total GULP energy -67052.495585 kJ/mol
# GULP energy per Si atom -5587.707965 kJ/mol
# Density = 2.348954 g / cm^3
# Si number density = 23.543129 Si / 1000 Ang^3
#
#
#
# Elastic Constant Matrix: (Units=GPa)
#
#
# Indices 1 2 3 4 5 6 
#
# 1 167.6793 22.9332 22.9358 -14.9947 15.9859 -16.5289
# 2 22.9332 66.6194 25.1570 17.2643 16.2848 -7.3388
# 3 22.9358 25.1570 98.1047 -8.4233 30.9930 -6.1975
# 4 -14.9947 17.2643 -8.4233 37.4395 4.0230 11.4143
# 5 15.9859 16.2848 30.9930 4.0230 46.4819 0.2833
# 6 -16.5289 -7.3388 -6.1975 11.4143 0.2833 51.4136
#
#
#
# Elastic Compliance Matrix: (Units=1/GPa)
#
#
# Indices 1 2 3 4 5 6 
#
# 1 0.006984 -0.002963 0.000104 0.004094 -0.001793 0.000936
# 2 -0.002963 0.022783 -0.005367 -0.014129 -0.002191 0.004801
# 3 0.000104 -0.005367 0.014844 0.006917 -0.008649 -0.000431
# 4 0.004094 -0.014129 0.006917 0.039525 -0.004439 -0.008617
# 5 -0.001793 -0.002191 -0.008649 -0.004439 0.029056 -0.001106
# 6 0.000936 0.004801 -0.000431 -0.008617 -0.001106 0.022303
#
#
# Mechanical properties :
#
#
# Convention : Reuss Voigt Hill
#
# Bulk Modulus (GPa) = 35.51222 52.71726 44.11474
# Shear Modulus (GPa) = 30.99133 44.49217 37.74175
#
# Velocity S-wave (km/s) = 3.63211 4.35192 4.00820
# Velocity P-wave (km/s) = 5.71894 6.90599 6.34030
#
# Compressibility (1/GPa) = 0.02815932
#
# Stress axis : x y z
#
# Youngs Moduli (GPa) = 143.18145 43.89172 67.36587
#
# Poissons Ratio (x) = 0.13006 -0.00703
# Poissons Ratio (y) = 0.42428 0.36157
# Poissons Ratio (z) = -0.01493 0.23558
#
# Static dielectric constant tensor:
#      x y z
#    x 1.932180 0.182360 -0.052020 
#    y 0.182360 1.808260 0.057760 
#    z -0.052020 0.057760 1.922310 
# 
# From -- ./inp_files/149772.got.cif
#   From: 2010.05.17/outbox.cif.g08.bks.cpg/sg2_75_cif.got.tgz:149772.got - 2010.06.03 11:33:40.
