data_PCOD9051446
_publ_section_title
;
Structure prediction by ZEFSAII (Michael W. Deem and Ramdas Pophale) SiO2 
 PCOD9051446
Probable space group: P -1
;
_chemical_formula_sum "Si O2"
_cell_formula_units_Z 14
_cell_length_a 5.639077
_cell_length_b 8.205278
_cell_length_c 15.719306
_cell_angle_alpha 59.317087
_cell_angle_beta 118.902813
_cell_angle_gamma 114.939116
_cell_volume 532.596560
_symmetry_space_group_name_H-M "P -1"
_symmetry_group_IT_number 2
_symmetry_cell_setting 'triclinic'
loop_
_space_group_symop_operation_xyz
x,y,z
-x,-y,-z
loop_
_atom_site_type_symbol
_atom_site_label
_atom_site_fract_x
_atom_site_fract_y
_atom_site_fract_z
Si Si1 0.720494 0.272603 0.029549
Si Si2 0.789690 0.646570 0.500193
Si Si3 0.960271 0.442261 0.861404
Si Si4 0.422797 0.025469 0.379582
Si Si5 0.850278 0.891624 0.101320
Si Si6 0.006884 0.784851 0.663204
Si Si7 0.047204 0.303235 0.663802
O O1 0.776755 0.403458 0.089199
O O2 0.908095 0.113691 0.086884
O O3 0.410772 0.144733 0.998543
O O4 0.764001 0.415211 0.917196
O O5 0.500000 0.500000 0.500000
O O6 0.814718 0.740599 0.388038
O O7 0.844918 0.799011 0.543830
O O8 0.032629 0.527495 0.588528
O O9 0.956757 0.224206 0.886725
O O10 0.925485 0.559540 0.739713
O O11 0.671774 0.137342 0.330982
O O12 0.158509 0.125967 0.317076
O O13 0.500000 0.000000 0.500000
O O14 0.268449 0.824526 0.361278
O O15 0.799616 0.760227 0.212983
#
# Coordination Sequence:
#
# PCOD9051446 Si02
#       7
#     2   2   2   2   2   2   2
#     4  10  25  46  71 103 148 184 257 312 382 446
#     4  11  25  42  68 105 144 193 237 302 367 448
#     4  11  24  46  72 105 142 197 243 318 372 455
#     4  12  26  48  70 108 151 197 249 305 368 447
#     4  11  23  46  71 106 138 197 242 314 382 447
#     4  12  27  46  76 105 149 200 247 301 381 451
#     4  11  25  43  69 101 145 187 243 304 366 452
#
# _framework density 26.286315999999999
#
# number of rings (size 3 to 8) (size 9 to 14) (size 15 to 20)
#    0.000    0.857    2.857    3.000    8.000    0.000 
#    7.714    0.000    0.000    0.000    0.000    0.000 
#    0.000    0.000    0.000    0.000    0.000    0.000 
#
# Total GULP energy -78083.100389 kJ/mol
# GULP energy per Si atom -5577.364314 kJ/mol
# Density = 2.622649 g / cm^3
# Si number density = 26.286316 Si / 1000 Ang^3
#
#
#
# Elastic Constant Matrix: (Units=GPa)
#
#
# Indices 1 2 3 4 5 6 
#
# 1 115.3891 21.5193 23.5786 -19.7599 -11.6609 -8.7067
# 2 21.5193 101.1784 11.5748 0.4580 9.7352 1.0893
# 3 23.5786 11.5748 95.2045 4.4807 -27.8653 -10.2857
# 4 -19.7599 0.4580 4.4807 52.3634 -6.3319 -5.8685
# 5 -11.6609 9.7352 -27.8653 -6.3319 34.2334 0.4030
# 6 -8.7067 1.0893 -10.2857 -5.8685 0.4030 40.0369
#
#
#
# Elastic Compliance Matrix: (Units=1/GPa)
#
#
# Indices 1 2 3 4 5 6 
#
# 1 0.010931 -0.002718 -0.000945 0.005117 0.004639 0.002912
# 2 -0.002718 0.011470 -0.002827 -0.001915 -0.006821 -0.001841
# 3 -0.000945 -0.002827 0.015245 0.000340 0.012910 0.003708
# 4 0.005117 -0.001915 0.000340 0.022318 0.006640 0.004457
# 5 0.004639 -0.006821 0.012910 0.006640 0.044408 0.005037
# 6 0.002912 -0.001841 0.003708 0.004457 0.005037 0.027215
#
#
# Mechanical properties :
#
#
# Convention : Reuss Voigt Hill
#
# Bulk Modulus (GPa) = 40.54097 47.23528 43.88813
# Shear Modulus (GPa) = 32.72502 42.33336 37.52919
#
# Velocity S-wave (km/s) = 3.53221 4.01742 3.78260
# Velocity P-wave (km/s) = 5.66495 6.28714 5.98413
#
# Compressibility (1/GPa) = 0.02466640
#
# Stress axis : x y z
#
# Youngs Moduli (GPa) = 91.48259 87.18663 65.59693
#
# Poissons Ratio (x) = 0.23694 0.06201
# Poissons Ratio (y) = 0.24861 0.18541
# Poissons Ratio (z) = 0.08648 0.24644
#
# Static dielectric constant tensor:
#      x y z
#    x 2.227270 -0.075150 0.042110 
#    y -0.075150 2.346560 -0.126780 
#    z 0.042110 -0.126780 2.113850 
# 
# From -- ./inp_files/116861.got.cif
#   From: 2010.05.17/outbox.cif.g08.bks.cpg/sg2_59_cif.got.tgz:116861.got - 2010.06.03 11:33:40.
