data_PCOD9051278
_publ_section_title
;
Structure prediction by ZEFSAII (Michael W. Deem and Ramdas Pophale) SiO2 
 PCOD9051278
Probable space group: P -1
;
_chemical_formula_sum "Si O2"
_cell_formula_units_Z 14
_cell_length_a 15.361123
_cell_length_b 5.233479
_cell_length_c 15.062299
_cell_angle_alpha 92.536702
_cell_angle_beta 151.953820
_cell_angle_gamma 77.379848
_cell_volume 525.651663
_symmetry_space_group_name_H-M "P -1"
_symmetry_group_IT_number 2
_symmetry_cell_setting 'triclinic'
loop_
_space_group_symop_operation_xyz
x,y,z
-x,-y,-z
loop_
_atom_site_type_symbol
_atom_site_label
_atom_site_fract_x
_atom_site_fract_y
_atom_site_fract_z
Si Si1 0.675470 0.574746 0.699445
Si Si2 0.390465 0.034956 0.765221
Si Si3 0.735231 0.150215 0.180986
Si Si4 0.839488 0.617967 0.668000
Si Si5 0.025379 0.475926 0.651702
Si Si6 0.562060 0.008635 0.741537
Si Si7 0.069417 0.892728 0.961437
O O1 0.500000 0.500000 0.500000
O O2 0.834163 0.510964 0.761016
O O3 0.582755 0.880208 0.659967
O O4 0.779877 0.414614 0.879541
O O5 0.347284 0.832312 0.792838
O O6 0.185786 0.302165 0.570516
O O7 0.477858 0.896629 0.747320
O O8 0.558268 0.133232 0.959365
O O9 0.906504 0.838115 0.324998
O O10 0.816627 0.383644 0.229334
O O11 0.994378 0.466965 0.729328
O O12 0.618687 0.694814 0.431047
O O13 0.889461 0.889722 0.738864
O O14 0.782045 0.001115 0.954819
O O15 0.000000 0.000000 0.000000
#
# Coordination Sequence:
#
# PCOD9051278 Si02
#       7
#     2   2   2   2   2   2   2
#     4  12  24  41  65  94 133 179 221 282 336 409
#     4  10  25  45  75 104 142 193 233 303 363 426
#     4  11  25  49  73 109 145 187 242 299 363 432
#     4  11  24  43  64  99 129 183 226 284 344 412
#     4  11  26  46  74 106 148 186 244 296 359 430
#     4  11  24  46  62  98 136 173 231 280 342 417
#     4  12  24  40  66  90 134 179 228 278 337 407
#
# _framework density 26.633607999999999
#
# number of rings (size 3 to 8) (size 9 to 14) (size 15 to 20)
#    0.000    0.857    2.857    3.429    2.000    6.857 
#    2.571    0.000    0.000    0.000    0.000    0.000 
#    0.000    0.000    0.000    0.000    0.000    0.000 
#
# Total GULP energy -78360.564252 kJ/mol
# GULP energy per Si atom -5597.183161 kJ/mol
# Density = 2.657299 g / cm^3
# Si number density = 26.633608 Si / 1000 Ang^3
#
#
#
# Elastic Constant Matrix: (Units=GPa)
#
#
# Indices 1 2 3 4 5 6 
#
# 1 228.2596 43.3147 24.8440 -4.0126 -2.0973 1.8000
# 2 43.3147 64.3610 5.2920 0.2928 10.9439 8.0884
# 3 24.8440 5.2920 129.5291 7.4349 16.1097 16.9979
# 4 -4.0126 0.2928 7.4349 33.3094 5.8520 3.7686
# 5 -2.0973 10.9439 16.1097 5.8520 45.4483 1.9661
# 6 1.8000 8.0884 16.9979 3.7686 1.9661 28.2191
#
#
#
# Elastic Compliance Matrix: (Units=1/GPa)
#
#
# Indices 1 2 3 4 5 6 
#
# 1 0.005262 -0.003863 -0.001244 0.000532 0.001487 0.001346
# 2 -0.003863 0.019654 0.001324 0.000650 -0.005208 -0.005908
# 3 -0.001244 0.001324 0.009074 -0.001008 -0.003229 -0.005406
# 4 0.000532 0.000650 -0.001008 0.031349 -0.003658 -0.003545
# 5 0.001487 -0.005208 -0.003229 -0.003658 0.024850 0.002100
# 6 0.001346 -0.005908 -0.005406 -0.003545 0.002100 0.040628
#
#
# Mechanical properties :
#
#
# Convention : Reuss Voigt Hill
#
# Bulk Modulus (GPa) = 37.84604 63.22787 50.53695
# Shear Modulus (GPa) = 33.96968 44.64195 39.30582
#
# Velocity S-wave (km/s) = 3.57521 4.09852 3.84578
# Velocity P-wave (km/s) = 5.59317 6.79622 6.22383
#
# Compressibility (1/GPa) = 0.02642285
#
# Stress axis : x y z
#
# Youngs Moduli (GPa) = 190.04718 50.88097 110.21044
#
# Poissons Ratio (x) = 0.19658 0.13705
# Poissons Ratio (y) = 0.73423 -0.14590
# Poissons Ratio (z) = 0.23633 -0.06736
#
# Static dielectric constant tensor:
#      x y z
#    x 2.062500 0.034150 0.002410 
#    y 0.034150 2.284340 -0.061610 
#    z 0.002410 -0.061610 2.064870 
# 
# From -- ./inp_files/134891.got.cif
#   From: 2010.05.17/outbox.cif.g08.bks.cpg/sg2_68_cif.got.tgz:134891.got - 2010.06.03 11:33:40.
