data_PCOD9051378
_publ_section_title
;
Structure prediction by ZEFSAII (Michael W. Deem and Ramdas Pophale) SiO2 
 PCOD9051378
Probable space group: P -1
;
_chemical_formula_sum "Si O2"
_cell_formula_units_Z 12
_cell_length_a 15.098399
_cell_length_b 15.138269
_cell_length_c 11.327026
_cell_angle_alpha 139.465825
_cell_angle_beta 138.596702
_cell_angle_gamma 19.799584
_cell_volume 562.692550
_symmetry_space_group_name_H-M "P -1"
_symmetry_group_IT_number 2
_symmetry_cell_setting 'triclinic'
loop_
_space_group_symop_operation_xyz
x,y,z
-x,-y,-z
loop_
_atom_site_type_symbol
_atom_site_label
_atom_site_fract_x
_atom_site_fract_y
_atom_site_fract_z
Si Si1 0.589434 0.038740 0.365873
Si Si2 0.133938 0.684950 0.883308
Si Si3 0.042098 0.055294 0.277701
Si Si4 0.547966 0.077974 0.722378
Si Si5 0.900413 0.466847 0.788516
Si Si6 0.787603 0.282340 0.515854
O O1 0.346388 0.291680 0.297842
O O2 0.698581 0.071639 0.585162
O O3 0.518649 0.954364 0.263404
O O4 0.849744 0.787669 0.297391
O O5 0.359161 0.374441 0.816706
O O6 0.125609 0.743078 0.797536
O O7 0.850507 0.861343 0.802035
O O8 0.138926 0.817546 0.102284
O O9 0.862431 0.213835 0.379630
O O10 0.500000 0.000000 0.500000
O O11 0.833990 0.393225 0.721855
O O12 0.000000 0.500000 0.000000
O O13 0.500000 0.500000 0.500000
O O14 0.000000 0.000000 0.500000
#
# Coordination Sequence:
#
# PCOD9051378 Si02
#       6
#     2   2   2   2   2   2
#     4  11  24  43  70  96 137 180 216 287 337 410
#     4  11  26  43  70 104 143 187 224 288 332 433
#     4  10  25  46  69 102 142 184 236 275 359 402
#     4  12  25  42  68 105 141 177 231 273 347 407
#     4  11  25  45  68  96 132 177 229 279 345 402
#     4  11  25  43  69  96 132 178 229 292 336 400
#
# _framework density 21.326032999999999
#
# number of rings (size 3 to 8) (size 9 to 14) (size 15 to 20)
#    0.000    1.000    1.667    4.000    4.667   12.000 
#    0.000    0.000    0.000    0.000    0.000    0.000 
#    0.000    0.000    0.000    0.000    0.000    0.000 
#
# Total GULP energy -66978.516631 kJ/mol
# GULP energy per Si atom -5581.543053 kJ/mol
# Density = 2.127749 g / cm^3
# Si number density = 21.326033 Si / 1000 Ang^3
#
#
#
# Elastic Constant Matrix: (Units=GPa)
#
#
# Indices 1 2 3 4 5 6 
#
# 1 129.5599 49.9896 35.8141 6.9568 24.5737 -8.9772
# 2 49.9896 170.1716 38.6618 15.8321 7.2635 2.3272
# 3 35.8141 38.6618 145.7318 14.8620 23.1424 4.5015
# 4 6.9568 15.8321 14.8620 26.3389 9.2584 8.9048
# 5 24.5737 7.2635 23.1424 9.2584 29.3363 5.0548
# 6 -8.9772 2.3272 4.5015 8.9048 5.0548 43.5800
#
#
#
# Elastic Compliance Matrix: (Units=1/GPa)
#
#
# Indices 1 2 3 4 5 6 
#
# 1 0.010814 -0.002790 -0.000758 0.001223 -0.008709 0.003215
# 2 -0.002790 0.007220 -0.001283 -0.003734 0.002807 -0.000390
# 3 -0.000758 -0.001283 0.008392 -0.002006 -0.005042 0.000040
# 4 0.001223 -0.003734 -0.002006 0.047959 -0.012325 -0.007711
# 5 -0.008709 0.002807 -0.005042 -0.012325 0.049352 -0.004629
# 6 0.003215 -0.000390 0.000040 -0.007711 -0.004629 0.025738
#
#
# Mechanical properties :
#
#
# Convention : Reuss Voigt Hill
#
# Bulk Modulus (GPa) = 59.65221 77.15493 68.40357
# Shear Modulus (GPa) = 30.35328 41.25089 35.80208
#
# Velocity S-wave (km/s) = 3.77675 4.40284 4.10176
# Velocity P-wave (km/s) = 6.85936 7.88060 7.38765
#
# Compressibility (1/GPa) = 0.01676384
#
# Stress axis : x y z
#
# Youngs Moduli (GPa) = 92.47577 138.49496 119.15410
#
# Poissons Ratio (x) = 0.38645 0.09035
# Poissons Ratio (y) = 0.25804 0.15284
# Poissons Ratio (z) = 0.07012 0.17765
#
# Static dielectric constant tensor:
#      x y z
#    x 1.924150 0.003380 0.045370 
#    y 0.003380 1.610560 -0.764970 
#    z 0.045370 -0.764970 -2.128010 
# 
# From -- ./inp_files/116835.got.cif
#   From: 2010.05.17/outbox.cif.g08.bks.cpg/sg2_59_cif.got.tgz:116835.got - 2010.06.03 11:33:40.
