data_PCOD9051319
_publ_section_title
;
Structure prediction by ZEFSAII (Michael W. Deem and Ramdas Pophale) SiO2 
 PCOD9051319
Probable space group: P -1
;
_chemical_formula_sum "Si O2"
_cell_formula_units_Z 14
_cell_length_a 16.733934
_cell_length_b 7.879676
_cell_length_c 13.927961
_cell_angle_alpha 126.520730
_cell_angle_beta 158.058761
_cell_angle_gamma 51.961726
_cell_volume 538.734419
_symmetry_space_group_name_H-M "P -1"
_symmetry_group_IT_number 2
_symmetry_cell_setting 'triclinic'
loop_
_space_group_symop_operation_xyz
x,y,z
-x,-y,-z
loop_
_atom_site_type_symbol
_atom_site_label
_atom_site_fract_x
_atom_site_fract_y
_atom_site_fract_z
Si Si1 0.190750 0.697584 0.159021
Si Si2 0.452606 0.204697 0.294390
Si Si3 0.543174 0.868008 0.131314
Si Si4 0.965589 0.628189 0.604557
Si Si5 0.670721 0.155620 0.838840
Si Si6 0.200376 0.874912 0.620781
Si Si7 0.186180 0.457699 0.391298
O O1 0.335657 0.453077 0.235486
O O2 0.293012 0.804622 0.397433
O O3 0.232007 0.831064 0.155119
O O4 0.946921 0.656682 0.870545
O O5 0.417031 0.080714 0.116337
O O6 0.364418 0.072010 0.236491
O O7 0.696248 0.937370 0.245070
O O8 0.712723 0.749796 0.357331
O O9 0.376786 0.749493 0.852805
O O10 0.000000 0.500000 0.500000
O O11 0.960594 0.519664 0.666470
O O12 0.154925 0.763560 0.870328
O O13 0.433302 0.320984 0.628008
O O14 0.182614 0.710556 0.460226
O O15 0.000000 0.000000 0.500000
#
# Coordination Sequence:
#
# PCOD9051319 Si02
#       7
#     2   2   2   2   2   2   2
#     4  10  25  46  65  99 133 171 225 277 323 397
#     4  11  23  46  70  94 135 175 221 275 330 390
#     4  11  24  41  62 101 126 169 224 263 324 403
#     4  11  24  39  63  95 132 168 219 268 321 400
#     4  11  24  44  67  98 132 177 218 275 333 385
#     4  11  24  40  66  94 136 172 209 279 335 384
#     4  11  23  42  65  93 131 171 216 275 330 385
#
# _framework density 25.986830999999999
#
# number of rings (size 3 to 8) (size 9 to 14) (size 15 to 20)
#    0.000    1.143    1.429    3.857    6.000    6.286 
#    2.571    2.143    0.000    0.000    0.000    0.000 
#    0.000    0.000    0.000    0.000    0.000    0.000 
#
# Total GULP energy -78319.701629 kJ/mol
# GULP energy per Si atom -5594.264402 kJ/mol
# Density = 2.592768 g / cm^3
# Si number density = 25.986831 Si / 1000 Ang^3
#
#
#
# Elastic Constant Matrix: (Units=GPa)
#
#
# Indices 1 2 3 4 5 6 
#
# 1 83.0535 20.8596 23.9088 6.4062 -1.5736 -6.7320
# 2 20.8596 66.9275 20.5900 3.9240 -3.5167 1.6923
# 3 23.9088 20.5900 161.5448 16.4601 -9.6064 5.5167
# 4 6.4062 3.9240 16.4601 36.2705 -5.1163 -2.3460
# 5 -1.5736 -3.5167 -9.6064 -5.1163 30.5309 -0.3288
# 6 -6.7320 1.6923 5.5167 -2.3460 -0.3288 31.9926
#
#
#
# Elastic Compliance Matrix: (Units=1/GPa)
#
#
# Indices 1 2 3 4 5 6 
#
# 1 0.013810 -0.003857 -0.001570 -0.001150 -0.000384 0.003292
# 2 -0.003857 0.016697 -0.001393 -0.000419 0.001200 -0.001473
# 3 -0.001570 -0.001393 0.007016 -0.002650 0.001504 -0.001645
# 4 -0.001150 -0.000419 -0.002650 0.029755 0.004071 0.002461
# 5 -0.000384 0.001200 0.001504 0.004071 0.034030 0.000245
# 6 0.003292 -0.001473 -0.001645 0.002461 0.000245 0.032495
#
#
# Mechanical properties :
#
#
# Convention : Reuss Voigt Hill
#
# Bulk Modulus (GPa) = 41.87250 49.13808 45.50529
# Shear Modulus (GPa) = 32.17425 36.16995 34.17210
#
# Velocity S-wave (km/s) = 3.52248 3.73481 3.63020
# Velocity P-wave (km/s) = 5.71767 6.12766 5.92621
#
# Compressibility (1/GPa) = 0.02388202
#
# Stress axis : x y z
#
# Youngs Moduli (GPa) = 72.41388 59.89077 142.53447
#
# Poissons Ratio (x) = 0.23100 0.22382
# Poissons Ratio (y) = 0.27930 0.19854
# Poissons Ratio (z) = 0.11371 0.08343
#
# Static dielectric constant tensor:
#      x y z
#    x 2.049840 0.061400 -0.009740 
#    y 0.061400 2.065060 -0.040030 
#    z -0.009740 -0.040030 2.146320 
# 
# From -- ./inp_files/38543.got.cif
#   From: 2010.05.17/outbox.cif.g08.bks.cpg/sg2_20_cif.got.tgz:38543.got - 2010.06.03 11:33:40.
