data_PCOD9051956
_publ_section_title
;
Structure prediction by ZEFSAII (Michael W. Deem and Ramdas Pophale) SiO2 
 PCOD9051956
Probable space group: P -1
;
_chemical_formula_sum "Si O2"
_cell_formula_units_Z 16
_cell_length_a 22.567346
_cell_length_b 9.426236
_cell_length_c 19.372145
_cell_angle_alpha 37.489560
_cell_angle_beta 17.400518
_cell_angle_gamma 35.157956
_cell_volume 707.512996
_symmetry_space_group_name_H-M "P -1"
_symmetry_group_IT_number 2
_symmetry_cell_setting 'triclinic'
loop_
_space_group_symop_operation_xyz
x,y,z
-x,-y,-z
loop_
_atom_site_type_symbol
_atom_site_label
_atom_site_fract_x
_atom_site_fract_y
_atom_site_fract_z
Si Si1 0.666004 0.600807 0.614369
Si Si2 0.704251 0.060085 0.772064
Si Si3 0.689622 0.608340 0.735870
Si Si4 0.263903 0.265279 0.734897
Si Si5 0.350686 0.776681 0.771961
Si Si6 0.892313 0.773191 0.929464
Si Si7 0.869862 0.619011 0.863413
Si Si8 0.079836 0.142947 0.522848
O O1 0.651108 0.333076 0.754144
O O2 0.663489 0.724545 0.643596
O O3 0.486622 0.722076 0.712303
O O4 0.886747 0.544025 0.352464
O O5 0.825866 0.848538 0.771452
O O6 0.830951 0.044827 0.566089
O O7 0.500000 0.000000 0.000000
O O8 0.730188 0.794249 0.675487
O O9 0.911517 0.383938 0.582926
O O10 0.500000 0.500000 0.000000
O O11 0.491363 0.234879 0.462427
O O12 0.104316 0.538590 0.793610
O O13 0.197406 0.056002 0.847805
O O14 0.251941 0.222078 0.846433
O O15 0.253814 0.562505 0.951738
O O16 0.806171 0.727482 0.968617
O O17 0.956006 0.019876 0.759092
#
# Coordination Sequence:
#
# PCOD9051956 Si02
#       8
#     2   2   2   2   2   2   2   2
#     4  12  23  44  65 101 139 174 220 275 332 407
#     4  12  22  41  68 100 143 176 212 269 328 412
#     4  11  26  41  66 102 141 179 219 264 340 414
#     4  10  25  49  68  96 135 171 232 299 328 391
#     4  11  25  46  72  98 132 175 233 282 338 396
#     4  11  24  46  71  97 137 178 225 284 345 383
#     4  12  24  41  74 101 132 184 220 269 345 407
#     4  11  24  44  66  99 141 177 219 276 328 407
#
# _framework density 22.614426000000002
#
# number of rings (size 3 to 8) (size 9 to 14) (size 15 to 20)
#    0.000    0.750    5.000    1.875    3.500    1.000 
#    0.000    0.000    0.000    0.000    0.000    0.000 
#    0.000    0.000    0.000    0.000    0.000    0.000 
#
# Total GULP energy -89532.179857 kJ/mol
# GULP energy per Si atom -5595.761241 kJ/mol
# Density = 2.256295 g / cm^3
# Si number density = 22.614426 Si / 1000 Ang^3
#
#
#
# Elastic Constant Matrix: (Units=GPa)
#
#
# Indices 1 2 3 4 5 6 
#
# 1 134.9257 11.5034 53.5565 -7.3484 5.1178 17.8983
# 2 11.5034 52.5201 6.3327 -11.4107 1.2470 4.4835
# 3 53.5565 6.3327 70.5432 -10.8083 0.8518 6.2978
# 4 -7.3484 -11.4107 -10.8083 31.3326 3.0240 8.0509
# 5 5.1178 1.2470 0.8518 3.0240 44.5099 1.0516
# 6 17.8983 4.4835 6.2978 8.0509 1.0516 28.3296
#
#
#
# Elastic Compliance Matrix: (Units=1/GPa)
#
#
# Indices 1 2 3 4 5 6 
#
# 1 0.011495 -0.000780 -0.007947 0.001237 -0.001098 -0.005683
# 2 -0.000780 0.021720 0.000627 0.009522 -0.001042 -0.005752
# 3 -0.007947 0.000627 0.021216 0.006063 0.000114 -0.001522
# 4 0.001237 0.009522 0.006063 0.042031 -0.003015 -0.015469
# 5 -0.001098 -0.001042 0.000114 -0.003015 0.022805 0.000843
# 6 -0.005683 -0.005752 -0.001522 -0.015469 0.000843 0.044503
#
#
# Mechanical properties :
#
#
# Convention : Reuss Voigt Hill
#
# Bulk Modulus (GPa) = 26.15589 44.53045 35.34317
# Shear Modulus (GPa) = 25.94518 33.27417 29.60967
#
# Velocity S-wave (km/s) = 3.39083 3.84000 3.62239
# Velocity P-wave (km/s) = 5.18859 6.27652 5.75831
#
# Compressibility (1/GPa) = 0.03823231
#
# Stress axis : x y z
#
# Youngs Moduli (GPa) = 86.99175 46.04059 47.13337
#
# Poissons Ratio (x) = 0.03589 0.37458
# Poissons Ratio (y) = 0.06782 -0.02955
# Poissons Ratio (z) = 0.69133 -0.02887
#
# Static dielectric constant tensor:
#      x y z
#    x 1.857750 0.002610 0.028420 
#    y 0.002610 1.852560 0.021220 
#    z 0.028420 0.021220 1.846550 
# 
# From -- ./inp_files/577533.got.cif
#   From: 2010.05.17/outbox.cif.g08.bks.cpg/sg2_289_cif.got.tgz:577533.got - 2010.06.03 11:33:40.
