data_PCOD9051614
_publ_section_title
;
Structure prediction by ZEFSAII (Michael W. Deem and Ramdas Pophale) SiO2 
 PCOD9051614
Probable space group: P -1
;
_chemical_formula_sum "Si O2"
_cell_formula_units_Z 16
_cell_length_a 8.157834
_cell_length_b 16.122634
_cell_length_c 9.645581
_cell_angle_alpha 62.312057
_cell_angle_beta 134.122870
_cell_angle_gamma 90.290435
_cell_volume 697.932536
_symmetry_space_group_name_H-M "P -1"
_symmetry_group_IT_number 2
_symmetry_cell_setting 'triclinic'
loop_
_space_group_symop_operation_xyz
x,y,z
-x,-y,-z
loop_
_atom_site_type_symbol
_atom_site_label
_atom_site_fract_x
_atom_site_fract_y
_atom_site_fract_z
Si Si1 0.906014 0.644066 0.962867
Si Si2 0.221731 0.736399 0.768285
Si Si3 0.087454 0.564016 0.820472
Si Si4 0.653895 0.192680 0.484639
Si Si5 0.364884 0.284675 0.761354
Si Si6 0.707631 0.986580 0.748233
Si Si7 0.006638 0.739470 0.204429
Si Si8 0.596039 0.902074 0.240278
O O1 0.649786 0.759648 0.693265
O O2 0.037041 0.599050 0.926219
O O3 0.808384 0.562479 0.022582
O O4 0.062090 0.660085 0.168876
O O5 0.243058 0.624373 0.817190
O O6 0.338381 0.784882 0.689328
O O7 0.910178 0.826682 0.515263
O O8 0.393242 0.712620 0.025809
O O9 0.826175 0.617039 0.528370
O O10 0.823114 0.064267 0.711088
O O11 0.753049 0.264023 0.567935
O O12 0.183088 0.273080 0.784149
O O13 0.478205 0.180637 0.810020
O O14 0.554491 0.041585 0.754688
O O15 0.500000 0.000000 0.500000
O O16 0.880177 0.859937 0.974094
O O17 0.500000 0.000000 0.000000
#
# Coordination Sequence:
#
# PCOD9051614 Si02
#       8
#     2   2   2   2   2   2   2   2
#     4  11  25  46  71  96 134 171 221 282 334 395
#     4  11  23  43  69  99 135 173 226 272 329 398
#     4  10  25  47  68  98 132 173 220 280 337 392
#     4  12  23  43  68 100 133 174 224 271 329 396
#     4  11  22  44  66  98 136 174 219 273 331 393
#     4  12  24  44  66  95 138 179 215 268 331 387
#     4  12  24  44  66 100 135 173 224 271 328 399
#     4  11  23  43  64  96 137 173 222 274 318 391
#
# _framework density 22.924852999999999
#
# number of rings (size 3 to 8) (size 9 to 14) (size 15 to 20)
#    0.000    0.750    6.250    1.875    0.000    4.500 
#    2.250    2.500    0.000    0.000    0.000    0.000 
#    0.000    0.000    0.000    0.000    0.000    0.000 
#
# Total GULP energy -89390.749438 kJ/mol
# GULP energy per Si atom -5586.921840 kJ/mol
# Density = 2.287268 g / cm^3
# Si number density = 22.924853 Si / 1000 Ang^3
#
#
#
# Elastic Constant Matrix: (Units=GPa)
#
#
# Indices 1 2 3 4 5 6 
#
# 1 44.0659 24.0982 4.7652 2.3413 -22.4787 1.4396
# 2 24.0982 118.9141 60.9751 17.8884 -7.9477 6.7990
# 3 4.7652 60.9751 113.4874 18.1389 -14.1109 7.8859
# 4 2.3413 17.8884 18.1389 57.7359 12.0432 -7.7214
# 5 -22.4787 -7.9477 -14.1109 12.0432 35.3612 6.5406
# 6 1.4396 6.7990 7.8859 -7.7214 6.5406 27.0102
#
#
#
# Elastic Compliance Matrix: (Units=1/GPa)
#
#
# Indices 1 2 3 4 5 6 
#
# 1 0.050013 -0.010486 0.012246 -0.013838 0.042329 -0.017807
# 2 -0.010486 0.014144 -0.008147 0.000220 -0.007024 0.001141
# 3 0.012246 -0.008147 0.016846 -0.008229 0.017342 -0.010072
# 4 -0.013838 0.000220 -0.008229 0.027814 -0.024649 0.017005
# 5 0.042329 -0.007024 0.017342 -0.024649 0.074596 -0.030661
# 6 -0.017807 0.001141 -0.010072 0.017005 -0.030661 0.052911
#
#
# Mechanical properties :
#
#
# Convention : Reuss Voigt Hill
#
# Bulk Modulus (GPa) = 14.65625 50.68271 32.66948
# Shear Modulus (GPa) = 18.39309 36.46340 27.42825
#
# Velocity S-wave (km/s) = 2.83560 3.99251 3.46271
# Velocity P-wave (km/s) = 4.13858 6.58861 5.50171
#
# Compressibility (1/GPa) = 0.06823029
#
# Stress axis : x y z
#
# Youngs Moduli (GPa) = 19.99472 70.70099 59.36123
#
# Poissons Ratio (x) = 0.74136 -0.72695
# Poissons Ratio (y) = 0.20966 0.48361
# Poissons Ratio (z) = -0.24486 0.57599
#
# Static dielectric constant tensor:
#      x y z
#    x 1.925180 0.032640 -0.011930 
#    y 0.032640 1.830510 0.000940 
#    z -0.011930 0.000940 1.870610 
# 
# From -- ./inp_files/206532.got.cif
#   From: 2010.05.17/outbox.cif.g08.bks.cpg/sg2_104_cif.got.tgz:206532.got - 2010.06.03 11:33:40.
