data_PCOD9051222
_publ_section_title
;
Structure prediction by ZEFSAII (Michael W. Deem and Ramdas Pophale) SiO2 
 PCOD9051222
Probable space group: P -1
;
_chemical_formula_sum "Si O2"
_cell_formula_units_Z 13
_cell_length_a 5.223760
_cell_length_b 5.859117
_cell_length_c 17.068321
_cell_angle_alpha 93.397017
_cell_angle_beta 67.068736
_cell_angle_gamma 82.576061
_cell_volume 473.638545
_symmetry_space_group_name_H-M "P -1"
_symmetry_group_IT_number 2
_symmetry_cell_setting 'triclinic'
loop_
_space_group_symop_operation_xyz
x,y,z
-x,-y,-z
loop_
_atom_site_type_symbol
_atom_site_label
_atom_site_fract_x
_atom_site_fract_y
_atom_site_fract_z
Si Si1 0.000000 0.000000 0.000000
Si Si2 0.225114 0.181756 0.832005
Si Si3 0.665024 0.455980 0.543694
Si Si4 0.930683 0.737526 0.405763
Si Si5 0.107965 0.421538 0.227920
Si Si6 0.387346 0.533645 0.926431
Si Si7 0.312558 0.884894 0.675496
O O1 0.025142 0.044403 0.902884
O O2 0.896872 0.281943 0.031189
O O3 0.402189 0.282254 0.880458
O O4 0.061309 0.409245 0.813212
O O5 0.396016 0.037456 0.739547
O O6 0.639821 0.615777 0.459367
O O7 0.530499 0.658863 0.623600
O O8 0.000000 0.500000 0.500000
O O9 0.801923 0.220753 0.571678
O O10 0.071317 0.578615 0.313896
O O11 0.779857 0.975675 0.389877
O O12 0.412813 0.348382 0.153118
O O13 0.962103 0.205838 0.261507
O O14 0.500000 0.500000 0.000000
#
# Coordination Sequence:
#
# PCOD9051222 Si02
#       7
#     1   2   2   2   2   2   2
#     4  12  26  48  80 102 138 198 244 302 380 428
#     4  11  27  48  73 110 148 189 254 303 369 442
#     4  11  23  48  74 108 155 191 244 305 358 443
#     4  10  25  45  72 111 146 194 248 299 365 440
#     4  11  25  50  71 112 150 190 253 308 359 439
#     4  12  28  50  74 107 151 190 247 311 366 445
#     4  11  25  49  76 107 151 201 241 304 374 428
#
# _framework density 27.447091
#
# number of rings (size 3 to 8) (size 9 to 14) (size 15 to 20)
#    0.000    0.923    3.077    1.846    6.462    3.692 
#    2.769    0.000    0.000    0.000    0.000    0.000 
#    0.000    0.000    0.000    0.000    0.000    0.000 
#
# Total GULP energy -72445.647378 kJ/mol
# GULP energy per Si atom -5572.742106 kJ/mol
# Density = 2.738462 g / cm^3
# Si number density = 27.447091 Si / 1000 Ang^3
#
#
#
# Elastic Constant Matrix: (Units=GPa)
#
#
# Indices 1 2 3 4 5 6 
#
# 1 140.4219 38.2588 49.5567 -13.5942 20.4598 -31.5039
# 2 38.2588 112.2476 18.4784 -8.4973 3.7977 -26.1853
# 3 49.5567 18.4784 151.7855 10.1771 -9.2272 -7.6916
# 4 -13.5942 -8.4973 10.1771 72.4686 6.4041 7.8167
# 5 20.4598 3.7977 -9.2272 6.4041 56.2991 -14.9079
# 6 -31.5039 -26.1853 -7.6916 7.8167 -14.9079 26.8365
#
#
#
# Elastic Compliance Matrix: (Units=1/GPa)
#
#
# Indices 1 2 3 4 5 6 
#
# 1 0.011144 -0.000801 -0.003287 0.001602 -0.002149 0.009698
# 2 -0.000801 0.011983 -0.000401 -0.000240 0.002673 0.012192
# 3 -0.003287 -0.000401 0.008033 -0.002067 0.002834 0.000228
# 4 0.001602 -0.000240 -0.002067 0.015348 -0.004168 -0.005732
# 5 -0.002149 0.002673 0.002834 -0.004168 0.023286 0.015047
# 6 0.009698 0.012192 0.000228 -0.005732 0.015047 0.070638
#
#
# Mechanical properties :
#
#
# Convention : Reuss Voigt Hill
#
# Bulk Modulus (GPa) = 45.08249 68.56033 56.82141
# Shear Modulus (GPa) = 31.88689 50.99824 41.44257
#
# Velocity S-wave (km/s) = 3.41216 4.31519 3.88997
# Velocity P-wave (km/s) = 5.65550 7.06125 6.39710
#
# Compressibility (1/GPa) = 0.02218156
#
# Stress axis : x y z
#
# Youngs Moduli (GPa) = 89.73703 83.44825 124.48989
#
# Poissons Ratio (x) = 0.06682 0.40925
# Poissons Ratio (y) = 0.07185 0.04992
# Poissons Ratio (z) = 0.29500 0.03346
#
# Static dielectric constant tensor:
#      x y z
#    x 2.502750 -0.122930 0.253780 
#    y -0.122930 1.994980 0.023490 
#    z 0.253780 0.023490 2.158830 
# 
# From -- ./inp_files/545673.got.cif
#   From: 2010.05.17/outbox.cif.g08.bks.cpg/sg2_273_cif.got.tgz:545673.got - 2010.06.03 11:33:40.
