data_PCOD9051717
_publ_section_title
;
Structure prediction by ZEFSAII (Michael W. Deem and Ramdas Pophale) SiO2 
 PCOD9051717
Probable space group: P -1
;
_chemical_formula_sum "Si O2"
_cell_formula_units_Z 14
_cell_length_a 14.294146
_cell_length_b 18.881954
_cell_length_c 10.548740
_cell_angle_alpha 144.724566
_cell_angle_beta 33.462588
_cell_angle_gamma 160.066144
_cell_volume 527.356031
_symmetry_space_group_name_H-M "P -1"
_symmetry_group_IT_number 2
_symmetry_cell_setting 'triclinic'
loop_
_space_group_symop_operation_xyz
x,y,z
-x,-y,-z
loop_
_atom_site_type_symbol
_atom_site_label
_atom_site_fract_x
_atom_site_fract_y
_atom_site_fract_z
Si Si1 0.628464 0.013448 0.997045
Si Si2 0.913560 0.745048 0.985750
Si Si3 0.253089 0.327524 0.422843
Si Si4 0.307778 0.632890 0.393512
Si Si5 0.091915 0.647326 0.224587
Si Si6 0.703751 0.876343 0.518545
Si Si7 0.562873 0.816575 0.117583
O O1 0.669353 0.895743 0.731432
O O2 0.381026 0.881394 0.186283
O O3 0.500000 0.000000 0.000000
O O4 0.927080 0.226978 0.034684
O O5 0.721443 0.531224 0.822286
O O6 0.170839 0.947766 0.898823
O O7 0.765211 0.773630 0.260905
O O8 0.500000 0.500000 0.500000
O O9 0.150871 0.388473 0.549512
O O10 0.367249 0.282799 0.142811
O O11 0.973453 0.112629 0.502913
O O12 0.412037 0.734259 0.561484
O O13 0.542389 0.814092 0.288271
O O14 0.000000 0.500000 0.500000
O O15 0.247537 0.671344 0.202576
O O16 0.000000 0.500000 0.000000
#
# Coordination Sequence:
#
# PCOD9051717 Si02
#       7
#     2   2   2   2   2   2   2
#     4  11  22  41  72 101 143 178 233 304 349 418
#     4  10  25  47  73 104 142 191 242 295 363 423
#     4  11  23  42  71 105 143 185 236 300 363 418
#     4  12  28  48  74 103 146 195 236 294 367 433
#     4  11  23  40  70 108 139 185 237 294 369 417
#     4  11  25  46  70 108 143 188 243 294 361 432
#     4  10  26  48  70 105 147 186 245 295 354 440
#
# _framework density 26.547532
#
# number of rings (size 3 to 8) (size 9 to 14) (size 15 to 20)
#    0.000    1.143    2.857    1.714    8.000    4.000 
#    2.571    0.000    0.000    0.000    0.000    0.000 
#    0.000    0.000    0.000    0.000    0.000    0.000 
#
# Total GULP energy -78442.886261 kJ/mol
# GULP energy per Si atom -5603.063304 kJ/mol
# Density = 2.648711 g / cm^3
# Si number density = 26.547532 Si / 1000 Ang^3
#
#
#
# Elastic Constant Matrix: (Units=GPa)
#
#
# Indices 1 2 3 4 5 6 
#
# 1 89.8024 34.2131 45.2259 4.8148 -11.1317 15.6408
# 2 34.2131 76.7205 36.1534 -7.3332 -8.6866 14.2343
# 3 45.2259 36.1534 127.9826 9.3440 -15.7493 6.3688
# 4 4.8148 -7.3332 9.3440 45.4103 6.8087 6.4831
# 5 -11.1317 -8.6866 -15.7493 6.8087 50.9282 -0.0667
# 6 15.6408 14.2343 6.3688 6.4831 -0.0667 44.4286
#
#
#
# Elastic Compliance Matrix: (Units=1/GPa)
#
#
# Indices 1 2 3 4 5 6 
#
# 1 0.015610 -0.004516 -0.003771 -0.001385 0.001656 -0.003303
# 2 -0.004516 0.018033 -0.003582 0.004698 0.000347 -0.004359
# 3 -0.003771 -0.003582 0.010573 -0.002885 0.002222 0.001384
# 4 -0.001385 0.004698 -0.002885 0.024676 -0.003698 -0.004210
# 5 0.001656 0.000347 0.002222 -0.003698 0.021238 -0.000441
# 6 -0.003303 -0.004359 0.001384 -0.004210 -0.000441 0.025483
#
#
# Mechanical properties :
#
#
# Convention : Reuss Voigt Hill
#
# Bulk Modulus (GPa) = 48.83100 58.41004 53.62052
# Shear Modulus (GPa) = 34.20489 40.08097 37.14293
#
# Velocity S-wave (km/s) = 3.59338 3.88981 3.74453
# Velocity P-wave (km/s) = 5.97078 6.49800 6.23996
#
# Compressibility (1/GPa) = 0.02047879
#
# Stress axis : x y z
#
# Youngs Moduli (GPa) = 64.06027 55.45299 94.57906
#
# Poissons Ratio (x) = 0.25044 0.35667
# Poissons Ratio (y) = 0.28931 0.33875
# Poissons Ratio (z) = 0.24158 0.19861
#
# Static dielectric constant tensor:
#      x y z
#    x 2.151140 -0.030360 -0.135160 
#    y -0.030360 2.056080 -0.026280 
#    z -0.135160 -0.026280 2.152050 
# 
# From -- ./inp_files/174170.got.cif
#   From: 2010.05.17/outbox.cif.g08.bks.cpg/sg2_88_cif.got.tgz:174170.got - 2010.06.03 11:33:40.
