data_PCOD9051036
_publ_section_title
;
Structure prediction by ZEFSAII (Michael W. Deem and Ramdas Pophale) SiO2 
 PCOD9051036
Probable space group: P -1
;
_chemical_formula_sum "Si O2"
_cell_formula_units_Z 16
_cell_length_a 25.564967
_cell_length_b 5.492702
_cell_length_c 11.014958
_cell_angle_alpha 120.019455
_cell_angle_beta 148.423123
_cell_angle_gamma 60.525297
_cell_volume 693.855536
_symmetry_space_group_name_H-M "P -1"
_symmetry_group_IT_number 2
_symmetry_cell_setting 'triclinic'
loop_
_space_group_symop_operation_xyz
x,y,z
-x,-y,-z
loop_
_atom_site_type_symbol
_atom_site_label
_atom_site_fract_x
_atom_site_fract_y
_atom_site_fract_z
Si Si1 0.247068 0.576401 0.606604
Si Si2 0.886519 0.705060 0.053503
Si Si3 0.622200 0.070540 0.888664
Si Si4 0.110763 0.696811 0.572143
Si Si5 0.813737 0.688224 0.153402
Si Si6 0.738501 0.988050 0.652544
Si Si7 0.570242 0.201702 0.547654
Si Si8 0.888816 0.162098 0.791937
O O1 0.174432 0.490893 0.548365
O O2 0.282767 0.319139 0.520276
O O3 0.169896 0.823862 0.448004
O O4 0.336723 0.705604 0.884020
O O5 0.833427 0.572243 0.028041
O O6 0.994085 0.764246 0.324893
O O7 0.809142 0.948072 0.901460
O O8 0.906813 0.484270 0.929617
O O9 0.629350 0.144801 0.778311
O O10 0.507360 0.028770 0.673508
O O11 0.697159 0.772706 0.979751
O O12 0.126996 0.525216 0.686873
O O13 0.151858 0.998276 0.717845
O O14 0.638822 0.173853 0.555798
O O15 0.805179 0.094231 0.705071
O O16 0.500000 0.500000 0.500000
O O17 0.000000 0.000000 0.000000
#
# Coordination Sequence:
#
# PCOD9051036 Si02
#       8
#     2   2   2   2   2   2   2   2
#     4  10  25  45  68 100 141 193 236 295 360 441
#     4  11  24  40  66 101 146 189 242 296 359 442
#     4  10  25  45  73  97 143 180 242 304 378 426
#     4  11  25  41  71 106 149 190 244 293 370 434
#     4  11  25  42  71 106 144 190 241 306 367 442
#     4  11  25  44  69 102 144 189 248 297 366 434
#     4  11  26  46  74 105 133 184 244 313 379 434
#     4  11  25  41  69 100 146 196 239 291 355 437
#
# _framework density 23.059557999999999
#
# number of rings (size 3 to 8) (size 9 to 14) (size 15 to 20)
#    0.000    1.250    1.250    2.250   15.750    3.500 
#    0.000    1.250    0.000    0.000    0.000    0.000 
#    0.000    0.000    0.000    0.000    0.000    0.000 
#
# Total GULP energy -89364.920762 kJ/mol
# GULP energy per Si atom -5585.307548 kJ/mol
# Density = 2.300707 g / cm^3
# Si number density = 23.059558 Si / 1000 Ang^3
#
#
#
# Elastic Constant Matrix: (Units=GPa)
#
#
# Indices 1 2 3 4 5 6 
#
# 1 95.9244 14.7665 27.4788 -2.3020 -5.0842 -2.4869
# 2 14.7665 72.7593 36.8909 5.2089 -2.5794 -11.1679
# 3 27.4788 36.8909 136.4919 -2.6494 -16.5268 -0.0383
# 4 -2.3020 5.2089 -2.6494 20.4214 0.1306 -3.4409
# 5 -5.0842 -2.5794 -16.5268 0.1306 38.2201 -8.4587
# 6 -2.4869 -11.1679 -0.0383 -3.4409 -8.4587 45.4325
#
#
#
# Elastic Compliance Matrix: (Units=1/GPa)
#
#
# Indices 1 2 3 4 5 6 
#
# 1 0.011233 -0.001381 -0.001769 0.001473 0.000747 0.000524
# 2 -0.001381 0.017187 -0.004465 -0.004480 -0.000101 0.003787
# 3 -0.001769 -0.004465 0.009342 0.002063 0.003408 -0.000396
# 4 0.001473 -0.004480 0.002063 0.051057 0.001295 0.003089
# 5 0.000747 -0.000101 0.003408 0.001295 0.028945 0.005506
# 6 0.000524 0.003787 -0.000396 0.003089 0.005506 0.024229
#
#
# Mechanical properties :
#
#
# Convention : Reuss Voigt Hill
#
# Bulk Modulus (GPa) = 44.38388 51.49422 47.93905
# Shear Modulus (GPa) = 30.35210 35.88409 33.11810
#
# Velocity S-wave (km/s) = 3.63195 3.94908 3.79383
# Velocity P-wave (km/s) = 6.07267 6.57063 6.32655
#
# Compressibility (1/GPa) = 0.02253070
#
# Stress axis : x y z
#
# Youngs Moduli (GPa) = 89.02534 58.18437 107.04288
#
# Poissons Ratio (x) = 0.08037 0.18934
# Poissons Ratio (y) = 0.12297 0.47798
# Poissons Ratio (z) = 0.15747 0.25981
#
# Static dielectric constant tensor:
#      x y z
#    x 1.922660 -0.031020 -0.002530 
#    y -0.031020 1.945090 0.041830 
#    z -0.002530 0.041830 1.929810 
# 
# From -- ./inp_files/475939.got.cif
#   From: 2010.05.17/outbox.cif.g08.bks.cpg/sg2_238_cif.got.tgz:475939.got - 2010.06.03 11:33:40.
