data_PCOD9051150
_publ_section_title
;
Structure prediction by ZEFSAII (Michael W. Deem and Ramdas Pophale) SiO2 
 PCOD9051150
Probable space group: P -1
;
_chemical_formula_sum "Si O2"
_cell_formula_units_Z 16
_cell_length_a 15.421679
_cell_length_b 18.951171
_cell_length_c 12.028817
_cell_angle_alpha 30.490218
_cell_angle_beta 51.961505
_cell_angle_gamma 29.415763
_cell_volume 737.672655
_symmetry_space_group_name_H-M "P -1"
_symmetry_group_IT_number 2
_symmetry_cell_setting 'triclinic'
loop_
_space_group_symop_operation_xyz
x,y,z
-x,-y,-z
loop_
_atom_site_type_symbol
_atom_site_label
_atom_site_fract_x
_atom_site_fract_y
_atom_site_fract_z
Si Si1 0.174208 0.696307 0.253928
Si Si2 0.667649 0.491541 0.855024
Si Si3 0.338292 0.547643 0.568931
Si Si4 0.948470 0.986895 0.441092
Si Si5 0.790457 0.892726 0.600428
Si Si6 0.618973 0.817243 0.947778
Si Si7 0.960797 0.430530 0.375340
Si Si8 0.832405 0.607331 0.565089
O O1 0.309916 0.573698 0.203527
O O2 0.301483 0.558628 0.453606
O O3 0.071085 0.654549 0.392010
O O4 0.000000 0.000000 0.000000
O O5 0.830982 0.443725 0.804735
O O6 0.442136 0.794323 0.653864
O O7 0.743731 0.283772 0.152014
O O8 0.500000 0.500000 0.500000
O O9 0.393314 0.334380 0.861175
O O10 0.134733 0.810956 0.443331
O O11 0.901344 0.872343 0.631820
O O12 0.000000 0.000000 0.500000
O O13 0.763112 0.761103 0.833004
O O14 0.921925 0.763522 0.559380
O O15 0.387903 0.121881 0.689814
O O16 0.733274 0.716985 0.114012
O O17 0.111465 0.384363 0.371356
O O18 0.000000 0.500000 0.500000
#
# Coordination Sequence:
#
# PCOD9051150 Si02
#       8
#     2   2   2   2   2   2   2   2
#     4  11  21  43  70  95 137 187 228 283 350 409
#     4  11  25  45  67 105 137 179 241 284 355 417
#     4  11  26  44  69 106 134 182 235 289 349 416
#     4  12  27  44  67 103 141 184 228 290 352 411
#     4  11  24  48  69  99 140 188 229 286 352 425
#     4  10  25  45  71 102 138 180 240 277 354 416
#     4  11  23  44  73  98 139 187 233 288 349 418
#     4  11  25  42  70 104 137 179 228 296 347 410
#
# _framework density 21.689834999999999
#
# number of rings (size 3 to 8) (size 9 to 14) (size 15 to 20)
#    0.000    1.000    5.000    0.750    7.000    3.500 
#    2.250    0.000    0.000    0.000    0.000    0.000 
#    0.000    0.000    0.000    0.000    0.000    0.000 
#
# Total GULP energy -89282.242611 kJ/mol
# GULP energy per Si atom -5580.140163 kJ/mol
# Density = 2.164047 g / cm^3
# Si number density = 21.689835 Si / 1000 Ang^3
#
#
#
# Elastic Constant Matrix: (Units=GPa)
#
#
# Indices 1 2 3 4 5 6 
#
# 1 122.0585 35.3053 20.1955 10.4844 -18.7369 0.5198
# 2 35.3053 71.5656 15.3515 -0.4111 6.3596 -6.5064
# 3 20.1955 15.3515 95.2904 5.4919 -7.5632 -7.6059
# 4 10.4844 -0.4111 5.4919 27.6094 -6.9409 -2.2640
# 5 -18.7369 6.3596 -7.5632 -6.9409 34.8829 9.5541
# 6 0.5198 -6.5064 -7.6059 -2.2640 9.5541 46.1082
#
#
#
# Elastic Compliance Matrix: (Units=1/GPa)
#
#
# Indices 1 2 3 4 5 6 
#
# 1 0.011603 -0.006472 -0.000898 -0.002681 0.007470 -0.002872
# 2 -0.006472 0.018716 -0.002045 0.001426 -0.008183 0.004142
# 3 -0.000898 -0.002045 0.011326 -0.001408 0.001749 0.001159
# 4 -0.002681 0.001426 -0.001408 0.038996 0.005544 0.000765
# 5 0.007470 -0.008183 0.001749 0.005544 0.037996 -0.008551
# 6 -0.002872 0.004142 0.001159 0.000765 -0.008551 0.024306
#
#
# Mechanical properties :
#
#
# Convention : Reuss Voigt Hill
#
# Bulk Modulus (GPa) = 43.82798 47.84656 45.83727
# Shear Modulus (GPa) = 29.51997 36.25758 32.88878
#
# Velocity S-wave (km/s) = 3.69318 4.09300 3.89822
# Velocity P-wave (km/s) = 6.19973 6.66665 6.43743
#
# Compressibility (1/GPa) = 0.02281647
#
# Stress axis : x y z
#
# Youngs Moduli (GPa) = 86.18774 53.42937 88.28942
#
# Poissons Ratio (x) = 0.34577 0.07930
# Poissons Ratio (y) = 0.55777 0.18052
# Poissons Ratio (z) = 0.07741 0.10924
#
# Static dielectric constant tensor:
#      x y z
#    x 2.045860 0.076440 0.127580 
#    y 0.076440 1.974290 0.185880 
#    z 0.127580 0.185880 2.056090 
# 
# From -- ./inp_files/456905.got.cif
#   From: 2010.05.17/outbox.cif.g08.bks.cpg/sg2_229_cif.got.tgz:456905.got - 2010.06.03 11:33:40.
