data_PCOD9051815
_publ_section_title
;
Structure prediction by ZEFSAII (Michael W. Deem and Ramdas Pophale) SiO2 
 PCOD9051815
Probable space group: P -1
;
_chemical_formula_sum "Si O2"
_cell_formula_units_Z 15
_cell_length_a 8.270426
_cell_length_b 14.529412
_cell_length_c 7.902278
_cell_angle_alpha 100.590505
_cell_angle_beta 126.382157
_cell_angle_gamma 112.487676
_cell_volume 588.952303
_symmetry_space_group_name_H-M "P -1"
_symmetry_group_IT_number 2
_symmetry_cell_setting 'triclinic'
loop_
_space_group_symop_operation_xyz
x,y,z
-x,-y,-z
loop_
_atom_site_type_symbol
_atom_site_label
_atom_site_fract_x
_atom_site_fract_y
_atom_site_fract_z
Si Si1 0.874199 0.275523 0.000408
Si Si2 0.238412 0.949396 0.230947
Si Si3 0.723884 0.464466 0.274050
Si Si4 0.393477 0.217954 0.792389
Si Si5 0.525620 0.332677 0.440935
Si Si6 0.838249 0.696676 0.499695
Si Si7 0.000000 0.500000 0.000000
Si Si8 0.760495 0.918096 0.007346
O O1 0.926664 0.193635 0.913624
O O2 0.574316 0.214406 0.775614
O O3 0.040378 0.410777 0.091978
O O4 0.925712 0.269594 0.229219
O O5 0.500000 0.000000 0.500000
O O6 0.280247 0.994249 0.077778
O O7 0.060908 0.978513 0.208109
O O8 0.554404 0.404802 0.317250
O O9 0.759888 0.584410 0.301263
O O10 0.000000 0.500000 0.500000
O O11 0.587748 0.359894 0.014913
O O12 0.150533 0.204437 0.566308
O O13 0.330072 0.132463 0.878770
O O14 0.374536 0.338689 0.502094
O O15 0.807088 0.393341 0.708421
O O16 0.388779 0.198860 0.246257
#
# Coordination Sequence:
#
# PCOD9051815 Si02
#       8
#     2   2   2   2   2   2   1   2
#     4  12  25  43  69 103 137 181 231 279 338 409
#     4  11  25  48  77  98 130 182 235 287 349 405
#     4  11  22  41  59  98 142 182 222 276 333 406
#     4  11  25  43  65 100 143 178 221 283 342 403
#     4  11  22  40  69  96 135 182 228 275 335 406
#     4  12  23  41  64  97 134 185 224 270 335 409
#     4  12  22  38  68 104 136 178 226 276 326 406
#     4  10  25  48  69 103 137 174 234 293 333 409
#
# _framework density 25.468955000000001
#
# number of rings (size 3 to 8) (size 9 to 14) (size 15 to 20)
#    0.000    0.800    5.333    1.600    0.000    1.600 
#    4.800    1.333    0.000    0.000    0.000    0.000 
#    0.000    0.000    0.000    0.000    0.000    0.000 
#
# Total GULP energy -83708.142891 kJ/mol
# GULP energy per Si atom -5580.542859 kJ/mol
# Density = 2.541099 g / cm^3
# Si number density = 25.468955 Si / 1000 Ang^3
#
#
#
# Elastic Constant Matrix: (Units=GPa)
#
#
# Indices 1 2 3 4 5 6 
#
# 1 49.3261 29.6704 -7.7867 -10.3770 -3.9076 -2.9023
# 2 29.6704 157.7886 19.7114 -20.4776 8.2910 -12.3748
# 3 -7.7867 19.7114 96.3811 -12.8741 18.7257 -9.6013
# 4 -10.3770 -20.4776 -12.8741 39.7016 -10.5448 4.6251
# 5 -3.9076 8.2910 18.7257 -10.5448 24.4035 0.7518
# 6 -2.9023 -12.3748 -9.6013 4.6251 0.7518 24.9055
#
#
#
# Elastic Compliance Matrix: (Units=1/GPa)
#
#
# Indices 1 2 3 4 5 6 
#
# 1 0.025399 -0.004540 0.002654 0.006862 0.006530 0.000256
# 2 -0.004540 0.007860 -0.001112 0.001690 -0.001897 0.002691
# 3 0.002654 -0.001112 0.013217 0.001493 -0.008843 0.004842
# 4 0.006862 0.001690 0.001493 0.032418 0.013517 -0.004213
# 5 0.006530 -0.001897 -0.008843 0.013517 0.055534 -0.007777
# 6 0.000256 0.002691 0.004842 -0.004213 -0.007777 0.044403
#
#
# Mechanical properties :
#
#
# Convention : Reuss Voigt Hill
#
# Bulk Modulus (GPa) = 24.70344 42.96510 33.83427
# Shear Modulus (GPa) = 25.21168 35.26218 30.23693
#
# Velocity S-wave (km/s) = 3.14968 3.72495 3.44933
# Velocity P-wave (km/s) = 4.79039 5.95034 5.40159
#
# Compressibility (1/GPa) = 0.04048019
#
# Stress axis : x y z
#
# Youngs Moduli (GPa) = 39.37142 127.22278 75.65891
#
# Poissons Ratio (x) = 0.57760 -0.20079
# Poissons Ratio (y) = 0.17875 0.08413
# Poissons Ratio (z) = -0.10449 0.14147
#
# Static dielectric constant tensor:
#      x y z
#    x 2.042900 0.014140 0.006190 
#    y 0.014140 2.016770 -0.014220 
#    z 0.006190 -0.014220 2.076340 
# 
# From -- ./inp_files/179559.got.cif
#   From: 2010.05.17/outbox.cif.g08.bks.cpg/sg2_90_cif.got.tgz:179559.got - 2010.06.03 11:33:40.
