data_PCOD9051363
_publ_section_title
;
Structure prediction by ZEFSAII (Michael W. Deem and Ramdas Pophale) SiO2 
 PCOD9051363
Probable space group: P -1
;
_chemical_formula_sum "Si O2"
_cell_formula_units_Z 12
_cell_length_a 14.882449
_cell_length_b 14.531564
_cell_length_c 11.915978
_cell_angle_alpha 143.459306
_cell_angle_beta 140.967006
_cell_angle_gamma 19.217725
_cell_volume 502.876746
_symmetry_space_group_name_H-M "P -1"
_symmetry_group_IT_number 2
_symmetry_cell_setting 'triclinic'
loop_
_space_group_symop_operation_xyz
x,y,z
-x,-y,-z
loop_
_atom_site_type_symbol
_atom_site_label
_atom_site_fract_x
_atom_site_fract_y
_atom_site_fract_z
Si Si1 0.101139 0.842802 0.682904
Si Si2 0.307674 0.333162 0.642534
Si Si3 0.763386 0.805986 0.136122
Si Si4 0.154076 0.998672 0.089025
Si Si5 0.375730 0.715536 0.492188
Si Si6 0.108902 0.283568 0.571151
O O1 0.362048 0.514024 0.561016
O O2 0.914040 0.881455 0.597046
O O3 0.210188 0.875669 0.901078
O O4 0.888261 0.115803 0.657249
O O5 0.564427 0.208120 0.784396
O O6 0.311160 0.177663 0.573160
O O7 0.185542 0.416363 0.481057
O O8 0.058052 0.664153 0.781843
O O9 0.812131 0.727182 0.239543
O O10 0.741540 0.011940 0.314731
O O11 0.000000 0.500000 0.000000
O O12 0.500000 0.000000 0.000000
O O13 0.000000 0.000000 0.000000
O O14 0.500000 0.500000 0.500000
#
# Coordination Sequence:
#
# PCOD9051363 Si02
#       6
#     2   2   2   2   2   2
#     4  11  24  43  73 100 146 187 234 297 360 431
#     4  11  26  43  72 101 148 187 235 297 351 449
#     4  11  25  45  72 101 144 189 243 306 354 427
#     4  12  25  44  67 107 139 185 237 291 357 425
#     4  11  25  45  70 104 141 192 240 296 363 429
#     4  10  25  46  68 106 140 191 239 287 372 420
#
# _framework density 23.862705999999999
#
# number of rings (size 3 to 8) (size 9 to 14) (size 15 to 20)
#    0.000    1.000    1.667    4.000    2.333   12.000 
#    0.000    0.000    0.000    0.000    0.000    0.000 
#    0.000    0.000    0.000    0.000    0.000    0.000 
#
# Total GULP energy -67018.585485 kJ/mol
# GULP energy per Si atom -5584.882124 kJ/mol
# Density = 2.380839 g / cm^3
# Si number density = 23.862706 Si / 1000 Ang^3
#
#
#
# Elastic Constant Matrix: (Units=GPa)
#
#
# Indices 1 2 3 4 5 6 
#
# 1 100.2786 46.3822 56.9718 -22.3754 -15.4502 7.5052
# 2 46.3822 179.0762 61.9912 -37.6697 -13.4097 1.6889
# 3 56.9718 61.9912 156.7701 -39.3756 -21.6331 3.7886
# 4 -22.3754 -37.6697 -39.3756 57.9776 2.6549 -0.0200
# 5 -15.4502 -13.4097 -21.6331 2.6549 33.9042 -6.8447
# 6 7.5052 1.6889 3.7886 -0.0200 -6.8447 47.3915
#
#
#
# Elastic Compliance Matrix: (Units=1/GPa)
#
#
# Indices 1 2 3 4 5 6 
#
# 1 0.013656 -0.001775 -0.003402 0.001672 0.002936 -0.001403
# 2 -0.001775 0.007215 -0.001301 0.003072 0.001030 0.000278
# 3 -0.003402 -0.001301 0.009729 0.004272 0.003883 0.000370
# 4 0.001672 0.003072 0.004272 0.022659 0.002869 -0.000292
# 5 0.002936 0.001030 0.003883 0.002869 0.034331 0.004147
# 6 -0.001403 0.000278 0.000370 -0.000292 0.004147 0.021882
#
#
# Mechanical properties :
#
#
# Convention : Reuss Voigt Hill
#
# Bulk Modulus (GPa) = 56.67168 85.20170 70.93669
# Shear Modulus (GPa) = 38.96801 45.90664 42.43732
#
# Velocity S-wave (km/s) = 4.04543 4.39085 4.22168
# Velocity P-wave (km/s) = 6.75436 7.84147 7.31813
#
# Compressibility (1/GPa) = 0.01764550
#
# Stress axis : x y z
#
# Youngs Moduli (GPa) = 73.22609 138.59975 102.78100
#
# Poissons Ratio (x) = 0.24595 0.34967
# Poissons Ratio (y) = 0.12994 0.13372
# Poissons Ratio (z) = 0.24912 0.18032
#
# Static dielectric constant tensor:
#      x y z
#    x 2.019830 -0.016410 -0.068930 
#    y -0.016410 1.995820 0.037680 
#    z -0.068930 0.037680 2.014180 
# 
# From -- ./inp_files/455103.got.cif
#   From: 2010.05.17/outbox.cif.g08.bks.cpg/sg2_228_cif.got.tgz:455103.got - 2010.06.03 11:33:40.
