data_PCOD9051210
_publ_section_title
;
Structure prediction by ZEFSAII (Michael W. Deem and Ramdas Pophale) SiO2 
 PCOD9051210
Probable space group: P -1
;
_chemical_formula_sum "Si O2"
_cell_formula_units_Z 16
_cell_length_a 10.496682
_cell_length_b 12.381122
_cell_length_c 14.955855
_cell_angle_alpha 18.897230
_cell_angle_beta 90.809536
_cell_angle_gamma 91.818996
_cell_volume 628.423854
_symmetry_space_group_name_H-M "P -1"
_symmetry_group_IT_number 2
_symmetry_cell_setting 'triclinic'
loop_
_space_group_symop_operation_xyz
x,y,z
-x,-y,-z
loop_
_atom_site_type_symbol
_atom_site_label
_atom_site_fract_x
_atom_site_fract_y
_atom_site_fract_z
Si Si1 0.067938 0.865639 0.226478
Si Si2 0.499902 0.547910 0.119566
Si Si3 0.814470 0.166578 0.931866
Si Si4 0.460485 0.112482 0.812494
Si Si5 0.015736 0.372835 0.247095
Si Si6 0.127718 0.013422 0.305625
Si Si7 0.683779 0.444906 0.058045
Si Si8 0.742484 0.754839 0.563080
O O1 0.000000 0.500000 0.500000
O O2 0.142733 0.895119 0.296822
O O3 0.160909 0.936980 0.088267
O O4 0.945650 0.091844 0.041419
O O5 0.622824 0.396358 0.195184
O O6 0.406662 0.314522 0.363499
O O7 0.416450 0.591288 0.995293
O O8 0.519662 0.885260 0.913292
O O9 0.692186 0.970532 0.127045
O O10 0.781512 0.557963 0.629438
O O11 0.500000 0.500000 0.500000
O O12 0.500000 0.000000 0.000000
O O13 0.166568 0.427449 0.223986
O O14 0.934994 0.292683 0.399767
O O15 0.960596 0.670461 0.957750
O O16 0.000000 0.000000 0.500000
O O17 0.248730 0.187907 0.220228
O O18 0.772118 0.142451 0.274756
#
# Coordination Sequence:
#
# PCOD9051210 Si02
#       8
#     2   2   2   2   2   2   2   2
#     4  11  25  45  72 107 148 197 241 306 372 434
#     4  10  26  47  70 108 142 192 245 300 366 434
#     4  10  25  45  72 105 144 191 248 302 372 436
#     4  11  28  50  77 110 146 196 251 307 364 436
#     4  12  24  43  68 108 142 185 238 293 363 432
#     4  12  27  44  72 107 148 189 242 297 365 444
#     4  11  25  45  72 103 146 192 240 300 371 427
#     4  11  22  42  73  96 144 186 241 294 362 438
#
# _framework density 25.460522000000001
#
# number of rings (size 3 to 8) (size 9 to 14) (size 15 to 20)
#    0.000    1.000    2.500    2.250   10.500    1.000 
#    0.000    0.000    0.000    0.000    0.000    0.000 
#    0.000    0.000    0.000    0.000    0.000    0.000 
#
# Total GULP energy -89513.729611 kJ/mol
# GULP energy per Si atom -5594.608101 kJ/mol
# Density = 2.540257 g / cm^3
# Si number density = 25.460522 Si / 1000 Ang^3
#
#
#
# Elastic Constant Matrix: (Units=GPa)
#
#
# Indices 1 2 3 4 5 6 
#
# 1 68.8220 34.0058 38.1298 -7.6152 -6.4762 -11.7697
# 2 34.0058 159.1801 48.7216 -20.6748 0.5415 -0.4507
# 3 38.1298 48.7216 114.4466 -24.7529 -2.9122 -5.0471
# 4 -7.6152 -20.6748 -24.7529 45.0871 11.0339 -5.4849
# 5 -6.4762 0.5415 -2.9122 11.0339 24.3887 -0.9201
# 6 -11.7697 -0.4507 -5.0471 -5.4849 -0.9201 41.2855
#
#
#
# Elastic Compliance Matrix: (Units=1/GPa)
#
#
# Indices 1 2 3 4 5 6 
#
# 1 0.020195 -0.002854 -0.005524 -0.001732 0.005737 0.004949
# 2 -0.002854 0.007814 -0.001916 0.002538 -0.002334 -0.000677
# 3 -0.005524 -0.001916 0.012616 0.005813 -0.002522 0.000663
# 4 -0.001732 0.002538 0.005813 0.029957 -0.013227 0.003929
# 5 0.005737 -0.002334 -0.002522 -0.013227 0.048284 0.000620
# 6 0.004949 -0.000677 0.000663 0.003929 0.000620 0.026242
#
#
# Mechanical properties :
#
#
# Convention : Reuss Voigt Hill
#
# Bulk Modulus (GPa) = 49.90674 64.90702 57.40688
# Shear Modulus (GPa) = 29.00657 36.92501 32.96579
#
# Velocity S-wave (km/s) = 3.37898 3.81239 3.60221
# Velocity P-wave (km/s) = 5.90487 6.70281 6.31645
#
# Compressibility (1/GPa) = 0.02003737
#
# Stress axis : x y z
#
# Youngs Moduli (GPa) = 49.51639 127.97492 79.26500
#
# Poissons Ratio (x) = 0.36526 0.43785
# Poissons Ratio (y) = 0.14133 0.15187
# Poissons Ratio (z) = 0.27352 0.24520
#
# Static dielectric constant tensor:
#      x y z
#    x 2.090280 -0.040290 -0.005960 
#    y -0.040290 2.094060 -0.018960 
#    z -0.005960 -0.018960 1.989370 
# 
# From -- ./inp_files/519465.got.cif
#   From: 2010.05.17/outbox.cif.g08.bks.cpg/sg2_260_cif.got.tgz:519465.got - 2010.06.03 11:33:40.
