data_PCOD9051114
_publ_section_title
;
Structure prediction by ZEFSAII (Michael W. Deem and Ramdas Pophale) SiO2 
 PCOD9051114
Probable space group: P -1
;
_chemical_formula_sum "Si O2"
_cell_formula_units_Z 16
_cell_length_a 11.932446
_cell_length_b 8.330544
_cell_length_c 15.919631
_cell_angle_alpha 64.664060
_cell_angle_beta 148.577468
_cell_angle_gamma 104.256423
_cell_volume 721.527341
_symmetry_space_group_name_H-M "P -1"
_symmetry_group_IT_number 2
_symmetry_cell_setting 'triclinic'
loop_
_space_group_symop_operation_xyz
x,y,z
-x,-y,-z
loop_
_atom_site_type_symbol
_atom_site_label
_atom_site_fract_x
_atom_site_fract_y
_atom_site_fract_z
Si Si1 0.301868 0.495467 0.811672
Si Si2 0.017591 0.151564 0.544215
Si Si3 0.703511 0.830415 0.680087
Si Si4 0.464189 0.535092 0.343640
Si Si5 0.952754 0.990734 0.213384
Si Si6 0.526948 0.748331 0.177774
Si Si7 0.953140 0.389988 0.734457
Si Si8 0.992976 0.653305 0.035662
O O1 0.407472 0.330427 0.854445
O O2 0.188663 0.673234 0.643731
O O3 0.099791 0.460689 0.744363
O O4 0.500000 0.500000 0.000000
O O5 0.253937 0.193947 0.666371
O O6 0.021677 0.082342 0.658367
O O7 0.000000 0.000000 0.500000
O O8 0.606922 0.653643 0.645427
O O9 0.901148 0.861962 0.740455
O O10 0.500000 0.000000 0.500000
O O11 0.807118 0.818798 0.842360
O O12 0.493947 0.587515 0.254453
O O13 0.699517 0.511718 0.543584
O O14 0.239958 0.684494 0.193428
O O15 0.697749 0.090920 0.006662
O O16 0.038069 0.817225 0.244361
O O17 0.056065 0.397729 0.890622
O O18 0.000000 0.500000 0.000000
#
# Coordination Sequence:
#
# PCOD9051114 Si02
#       8
#     2   2   2   2   2   2   2   2
#     4  12  28  44  77 111 146 201 246 301 368 443
#     4  12  27  48  73 112 149 192 247 302 371 433
#     4  11  24  45  69 106 143 187 239 302 365 426
#     4  11  23  46  74 103 140 194 242 297 362 442
#     4  12  26  47  73 106 151 193 241 312 363 436
#     4  12  25  50  76 105 151 195 247 305 366 440
#     4  12  25  47  73 105 147 193 248 299 371 438
#     4  10  25  45  70 101 141 188 244 296 359 436
#
# _framework density 22.175184000000002
#
# number of rings (size 3 to 8) (size 9 to 14) (size 15 to 20)
#    0.000    0.500    5.000    2.625    5.250    2.500 
#    2.250    0.000    0.000    0.000    0.000    0.000 
#    0.000    0.000    0.000    0.000    0.000    0.000 
#
# Total GULP energy -89429.064320 kJ/mol
# GULP energy per Si atom -5589.316520 kJ/mol
# Density = 2.212471 g / cm^3
# Si number density = 22.175184 Si / 1000 Ang^3
#
#
#
# Elastic Constant Matrix: (Units=GPa)
#
#
# Indices 1 2 3 4 5 6 
#
# 1 83.3369 22.4781 23.9139 4.3763 -26.9250 8.0671
# 2 22.4781 70.5886 30.9857 12.3122 -8.9302 5.0436
# 3 23.9139 30.9857 176.7313 -17.5168 -2.1822 -0.3777
# 4 4.3763 12.3122 -17.5168 27.5822 8.0823 2.2642
# 5 -26.9250 -8.9302 -2.1822 8.0823 43.3969 -1.0561
# 6 8.0671 5.0436 -0.3777 2.2642 -1.0561 41.3932
#
#
#
# Elastic Compliance Matrix: (Units=1/GPa)
#
#
# Indices 1 2 3 4 5 6 
#
# 1 0.017576 -0.001541 -0.002664 -0.007008 0.011696 -0.002580
# 2 -0.001541 0.019562 -0.004419 -0.012706 0.005182 -0.001296
# 3 -0.002664 -0.004419 0.007565 0.008237 -0.003702 0.000582
# 4 -0.007008 -0.012706 0.008237 0.053118 -0.016449 -0.000336
# 5 0.011696 0.005182 -0.003702 -0.016449 0.034215 -0.001172
# 6 -0.002580 -0.001296 0.000582 -0.000336 -0.001172 0.024813
#
#
# Mechanical properties :
#
#
# Convention : Reuss Voigt Hill
#
# Bulk Modulus (GPa) = 36.42353 53.93469 45.17911
# Shear Modulus (GPa) = 27.28526 39.35974 33.32250
#
# Velocity S-wave (km/s) = 3.51157 4.21758 3.88066
# Velocity P-wave (km/s) = 5.73607 6.93485 6.36375
#
# Compressibility (1/GPa) = 0.02745478
#
# Stress axis : x y z
#
# Youngs Moduli (GPa) = 56.89515 51.12039 132.17908
#
# Poissons Ratio (x) = 0.07879 0.35209
# Poissons Ratio (y) = 0.08769 0.58413
# Poissons Ratio (z) = 0.15155 0.22591
#
# Static dielectric constant tensor:
#      x y z
#    x 1.823890 0.008720 0.000980 
#    y 0.008720 1.858230 -0.056780 
#    z 0.000980 -0.056780 1.710890 
# 
# From -- ./inp_files/515460.got.cif
#   From: 2010.05.17/outbox.cif.g08.bks.cpg/sg2_258_cif.got.tgz:515460.got - 2010.06.03 11:33:40.
