data_PCOD9051308
_publ_section_title
;
Structure prediction by ZEFSAII (Michael W. Deem and Ramdas Pophale) SiO2 
 PCOD9051308
Probable space group: P -1
;
_chemical_formula_sum "Si O2"
_cell_formula_units_Z 13
_cell_length_a 9.411117
_cell_length_b 9.653433
_cell_length_c 9.147426
_cell_angle_alpha 124.375837
_cell_angle_beta 56.863713
_cell_angle_gamma 94.412340
_cell_volume 541.114272
_symmetry_space_group_name_H-M "P -1"
_symmetry_group_IT_number 2
_symmetry_cell_setting 'triclinic'
loop_
_space_group_symop_operation_xyz
x,y,z
-x,-y,-z
loop_
_atom_site_type_symbol
_atom_site_label
_atom_site_fract_x
_atom_site_fract_y
_atom_site_fract_z
Si Si1 0.799533 0.133522 0.206983
Si Si2 0.530351 0.178694 0.144930
Si Si3 0.313898 0.165932 0.804954
Si Si4 0.021805 0.591683 0.693131
Si Si5 0.403931 0.705218 0.127987
Si Si6 0.206452 0.276035 0.603076
Si Si7 0.000000 0.000000 0.500000
O O1 0.719134 0.148338 0.099314
O O2 0.826695 0.313504 0.353175
O O3 0.692827 0.034385 0.305000
O O4 0.000000 0.000000 0.000000
O O5 0.384358 0.256081 0.397692
O O6 0.527563 0.295691 0.076916
O O7 0.500000 0.000000 0.000000
O O8 0.499270 0.181188 0.764838
O O9 0.250145 0.255357 0.737630
O O10 0.168727 0.266018 0.069888
O O11 0.073233 0.460682 0.725016
O O12 0.000000 0.500000 0.500000
O O13 0.188158 0.811473 0.311253
O O14 0.500000 0.500000 0.000000
O O15 0.126607 0.122141 0.512522
#
# Coordination Sequence:
#
# PCOD9051308 Si02
#       7
#     2   2   2   2   2   2   1
#     4  10  25  45  80 108 155 208 265 331 406 480
#     4  12  25  53  75 114 161 217 266 332 415 495
#     4  11  25  51  74 116 163 211 270 340 414 491
#     4  11  26  46  79 117 160 211 279 343 411 491
#     4  12  28  52  84 118 167 213 278 344 412 496
#     4  12  28  46  78 115 161 212 272 336 414 491
#     4  12  28  46  82 120 158 218 272 332 420 484
#
# _framework density 24.024498999999999
#
# number of rings (size 3 to 8) (size 9 to 14) (size 15 to 20)
#    0.000    0.615    3.077    2.308   10.769    3.077 
#    2.769    0.000    0.000    0.000    0.000    0.000 
#    0.000    0.000    0.000    0.000    0.000    0.000 
#
# Total GULP energy -72494.618405 kJ/mol
# GULP energy per Si atom -5576.509108 kJ/mol
# Density = 2.396982 g / cm^3
# Si number density = 24.024499 Si / 1000 Ang^3
#
#
#
# Elastic Constant Matrix: (Units=GPa)
#
#
# Indices 1 2 3 4 5 6 
#
# 1 180.5313 95.2880 44.8036 -5.0644 6.8006 -3.6612
# 2 95.2880 171.4860 49.3202 -3.2057 12.8459 -19.5016
# 3 44.8036 49.3202 101.3155 -5.7343 2.4162 -11.4230
# 4 -5.0644 -3.2057 -5.7343 36.1644 -14.1521 9.6886
# 5 6.8006 12.8459 2.4162 -14.1521 41.6354 1.2174
# 6 -3.6612 -19.5016 -11.4230 9.6886 1.2174 36.6025
#
#
#
# Elastic Compliance Matrix: (Units=1/GPa)
#
#
# Indices 1 2 3 4 5 6 
#
# 1 0.008248 -0.004389 -0.001723 0.001404 0.000656 -0.002444
# 2 -0.004389 0.009665 -0.002297 -0.002650 -0.003173 0.004800
# 3 -0.001723 -0.002297 0.012030 0.001165 0.000629 0.002029
# 4 0.001404 -0.002650 0.001165 0.035781 0.012999 -0.010811
# 5 0.000656 -0.003173 0.000629 0.012999 0.029443 -0.005849
# 6 -0.002444 0.004800 0.002029 -0.010811 -0.005849 0.033323
#
#
# Mechanical properties :
#
#
# Convention : Reuss Voigt Hill
#
# Bulk Modulus (GPa) = 76.18656 92.46184 84.32420
# Shear Modulus (GPa) = 33.40405 40.47517 36.93961
#
# Velocity S-wave (km/s) = 3.73287 4.10902 3.92545
# Velocity P-wave (km/s) = 7.09648 7.81550 7.46465
#
# Compressibility (1/GPa) = 0.01312567
#
# Stress axis : x y z
#
# Youngs Moduli (GPa) = 121.23726 103.47033 83.12554
#
# Poissons Ratio (x) = 0.45408 0.14322
# Poissons Ratio (y) = 0.53205 0.19095
# Poissons Ratio (z) = 0.20889 0.23768
#
# Static dielectric constant tensor:
#      x y z
#    x 2.747070 -0.176060 -0.191790 
#    y -0.176060 2.003420 0.080530 
#    z -0.191790 0.080530 2.013530 
# 
# From -- ./inp_files/153125.got.cif
#   From: 2010.05.17/outbox.cif.g08.bks.cpg/sg2_77_cif.got.tgz:153125.got - 2010.06.03 11:33:40.
