data_PCOD9051283
_publ_section_title
;
Structure prediction by ZEFSAII (Michael W. Deem and Ramdas Pophale) SiO2 
 PCOD9051283
Probable space group: P -1
;
_chemical_formula_sum "Si O2"
_cell_formula_units_Z 16
_cell_length_a 5.880470
_cell_length_b 11.376857
_cell_length_c 23.141781
_cell_angle_alpha 31.551086
_cell_angle_beta 112.916584
_cell_angle_gamma 123.911098
_cell_volume 658.989824
_symmetry_space_group_name_H-M "P -1"
_symmetry_group_IT_number 2
_symmetry_cell_setting 'triclinic'
loop_
_space_group_symop_operation_xyz
x,y,z
-x,-y,-z
loop_
_atom_site_type_symbol
_atom_site_label
_atom_site_fract_x
_atom_site_fract_y
_atom_site_fract_z
Si Si1 0.693041 0.404747 0.592502
Si Si2 0.639617 0.067503 0.301211
Si Si3 0.802510 0.819956 0.655656
Si Si4 0.302673 0.749585 0.512690
Si Si5 0.393510 0.931324 0.951705
Si Si6 0.644461 0.475853 0.690788
Si Si7 0.831353 0.644202 0.949019
Si Si8 0.523800 0.550661 0.852026
O O1 0.500000 0.500000 0.500000
O O2 0.710982 0.476413 0.630908
O O3 0.007485 0.549041 0.542156
O O4 0.555192 0.102113 0.698325
O O5 0.702071 0.359233 0.189140
O O6 0.925165 0.056787 0.329445
O O7 0.490931 0.916706 0.408165
O O8 0.875027 0.685479 0.666869
O O9 0.577826 0.616286 0.762062
O O10 0.739769 0.047007 0.538162
O O11 0.420695 0.583989 0.626362
O O12 0.541991 0.197221 0.821605
O O13 0.061236 0.816371 0.948244
O O14 0.500000 0.000000 0.000000
O O15 0.496562 0.726010 0.027971
O O16 0.773889 0.738112 0.841679
O O17 0.500000 0.500000 0.000000
O O18 0.000000 0.500000 0.000000
#
# Coordination Sequence:
#
# PCOD9051283 Si02
#       8
#     2   2   2   2   2   2   2   2
#     4  12  25  45  71 109 144 187 245 318 369 455
#     4  11  25  43  77 102 151 189 243 309 384 454
#     4  11  24  46  71 109 148 194 242 305 381 461
#     4  11  24  45  71 104 145 187 250 297 385 452
#     4  11  25  52  74 109 159 199 262 324 385 467
#     4  12  27  44  75 104 150 194 246 306 384 453
#     4  10  25  47  78 110 150 209 267 322 390 467
#     4  10  25  45  75 107 146 198 251 309 379 462
#
# _framework density 24.279584
#
# number of rings (size 3 to 8) (size 9 to 14) (size 15 to 20)
#    0.000    1.000    3.750    0.750    7.000    5.000 
#    0.000    3.125    0.000    0.000    0.000    0.000 
#    0.000    0.000    0.000    0.000    0.000    0.000 
#
# Total GULP energy -89176.438143 kJ/mol
# GULP energy per Si atom -5573.527384 kJ/mol
# Density = 2.422432 g / cm^3
# Si number density = 24.279584 Si / 1000 Ang^3
#
#
#
# Elastic Constant Matrix: (Units=GPa)
#
#
# Indices 1 2 3 4 5 6 
#
# 1 68.9289 28.6440 33.9191 -9.2685 13.1713 -0.6498
# 2 28.6440 144.6763 41.4910 4.6601 -2.0772 -12.5840
# 3 33.9191 41.4910 123.8341 -0.6254 16.8315 -20.6577
# 4 -9.2685 4.6601 -0.6254 46.6344 -9.7759 9.2474
# 5 13.1713 -2.0772 16.8315 -9.7759 46.7032 -0.6664
# 6 -0.6498 -12.5840 -20.6577 9.2474 -0.6664 41.7182
#
#
#
# Elastic Compliance Matrix: (Units=1/GPa)
#
#
# Indices 1 2 3 4 5 6 
#
# 1 0.019030 -0.003013 -0.004384 0.004114 -0.003113 -0.003745
# 2 -0.003013 0.008277 -0.001859 -0.001489 0.001603 0.001885
# 3 -0.004384 -0.001859 0.011235 -0.002295 -0.003299 0.005390
# 4 0.004114 -0.001489 -0.002295 0.024734 0.004679 -0.006929
# 5 -0.003113 0.001603 -0.003299 0.004679 0.024503 -0.001844
# 6 -0.003745 0.001885 0.005390 -0.006929 -0.001844 0.028656
#
#
# Mechanical properties :
#
#
# Convention : Reuss Voigt Hill
#
# Bulk Modulus (GPa) = 49.92560 60.61638 55.27099
# Shear Modulus (GPa) = 35.30513 42.57019 38.93766
#
# Velocity S-wave (km/s) = 3.81741 4.19182 4.00899
# Velocity P-wave (km/s) = 6.32753 6.96051 6.65155
#
# Compressibility (1/GPa) = 0.02002981
#
# Stress axis : x y z
#
# Youngs Moduli (GPa) = 52.54887 120.82320 89.00972
#
# Poissons Ratio (x) = 0.36410 0.39018
# Poissons Ratio (y) = 0.15836 0.16544
# Poissons Ratio (z) = 0.23035 0.22457
#
# Static dielectric constant tensor:
#      x y z
#    x 2.044910 -0.061670 -0.001930 
#    y -0.061670 2.110380 0.068900 
#    z -0.001930 0.068900 1.983730 
# 
# From -- ./inp_files/604417.got.cif
#   From: 2010.05.17/outbox.cif.g08.bks.cpg/sg2_303_cif.got.tgz:604417.got - 2010.06.03 11:33:40.
