data_PCOD9051360
_publ_section_title
;
Structure prediction by ZEFSAII (Michael W. Deem and Ramdas Pophale) SiO2 
 PCOD9051360
Probable space group: P -1
;
_chemical_formula_sum "Si O2"
_cell_formula_units_Z 16
_cell_length_a 21.195522
_cell_length_b 9.343204
_cell_length_c 12.052391
_cell_angle_alpha 129.098396
_cell_angle_beta 29.514085
_cell_angle_gamma 141.539825
_cell_volume 721.213909
_symmetry_space_group_name_H-M "P -1"
_symmetry_group_IT_number 2
_symmetry_cell_setting 'triclinic'
loop_
_space_group_symop_operation_xyz
x,y,z
-x,-y,-z
loop_
_atom_site_type_symbol
_atom_site_label
_atom_site_fract_x
_atom_site_fract_y
_atom_site_fract_z
Si Si1 0.768028 0.224367 0.957826
Si Si2 0.564372 0.504119 0.653917
Si Si3 0.341640 0.593625 0.308725
Si Si4 0.846366 0.893696 0.761637
Si Si5 0.658086 0.509869 0.286973
Si Si6 0.584808 0.930554 0.915446
Si Si7 0.063828 0.617816 0.836916
Si Si8 0.201724 0.135638 0.937630
O O1 0.920332 0.468108 0.894344
O O2 0.776685 0.039438 0.922597
O O3 0.633789 0.269839 0.191998
O O4 0.755552 0.147778 0.811633
O O5 0.591507 0.430174 0.691962
O O6 0.690859 0.563311 0.393218
O O7 0.386715 0.290547 0.777380
O O8 0.584795 0.738147 0.758058
O O9 0.276203 0.369047 0.222991
O O10 0.476560 0.806841 0.130898
O O11 0.201516 0.605653 0.570671
O O12 0.892907 0.903586 0.823257
O O13 0.000000 0.000000 0.500000
O O14 0.500000 0.500000 0.500000
O O15 0.788598 0.703447 0.094879
O O16 0.500000 0.000000 0.000000
O O17 0.137714 0.886581 0.867253
O O18 0.000000 0.500000 0.000000
#
# Coordination Sequence:
#
# PCOD9051360 Si02
#       8
#     2   2   2   2   2   2   2   2
#     4  12  25  46  72 103 143 184 237 292 352 418
#     4  11  23  43  71 105 136 185 238 292 357 414
#     4  12  25  43  74 105 139 189 240 288 363 414
#     4  12  23  46  71 105 144 187 234 294 346 427
#     4  10  25  46  68 104 142 183 230 294 357 418
#     4  12  26  44  71 104 141 181 242 303 347 420
#     4  12  26  44  69 107 143 187 239 289 347 430
#     4  11  24  45  70 100 149 186 234 293 351 422
#
# _framework density 22.184819000000001
#
# number of rings (size 3 to 8) (size 9 to 14) (size 15 to 20)
#    0.000    0.500    5.000    3.375    5.250    1.000 
#    0.000    2.500    0.000    0.000    0.000    0.000 
#    0.000    0.000    0.000    0.000    0.000    0.000 
#
# Total GULP energy -89373.884939 kJ/mol
# GULP energy per Si atom -5585.867809 kJ/mol
# Density = 2.213432 g / cm^3
# Si number density = 22.184819 Si / 1000 Ang^3
#
#
#
# Elastic Constant Matrix: (Units=GPa)
#
#
# Indices 1 2 3 4 5 6 
#
# 1 94.5901 78.5725 6.8495 9.3368 21.0499 -3.6755
# 2 78.5725 166.6950 52.2524 39.8720 17.3319 16.9552
# 3 6.8495 52.2524 89.8381 20.4555 18.6686 -17.7394
# 4 9.3368 39.8720 20.4555 20.7652 -0.1213 -2.4906
# 5 21.0499 17.3319 18.6686 -0.1213 35.9438 -6.7858
# 6 -3.6755 16.9552 -17.7394 -2.4906 -6.7858 52.7735
#
#
#
# Elastic Compliance Matrix: (Units=1/GPa)
#
#
# Indices 1 2 3 4 5 6 
#
# 1 0.028300 -0.021658 0.010072 0.020340 -0.009005 0.012117
# 2 -0.021658 0.031347 -0.010172 -0.042483 -0.000515 -0.017070
# 3 0.010072 -0.010172 0.021485 -0.005068 -0.010353 0.009621
# 4 0.020340 -0.042483 -0.005068 0.128239 0.015684 0.021431
# 5 -0.009005 -0.000515 -0.010353 0.015684 0.039118 0.001828
# 6 0.012117 -0.017070 0.009621 0.021431 0.001828 0.029758
#
#
# Mechanical properties :
#
#
# Convention : Reuss Voigt Hill
#
# Bulk Modulus (GPa) = 26.58446 69.60801 48.09623
# Shear Modulus (GPa) = 14.95656 36.12644 25.54150
#
# Velocity S-wave (km/s) = 2.59931 4.03976 3.39677
# Velocity P-wave (km/s) = 4.58451 7.29411 6.09187
#
# Compressibility (1/GPa) = 0.03761596
#
# Stress axis : x y z
#
# Youngs Moduli (GPa) = 35.33572 31.90070 46.54513
#
# Poissons Ratio (x) = 0.69090 -0.46878
# Poissons Ratio (y) = 0.76529 0.47345
# Poissons Ratio (z) = -0.35589 0.32449
#
# Static dielectric constant tensor:
#      x y z
#    x 1.884920 0.039890 -0.101660 
#    y 0.039890 1.866270 -0.051090 
#    z -0.101660 -0.051090 2.025210 
# 
# From -- ./inp_files/470121.got.cif
#   From: 2010.05.17/outbox.cif.g08.bks.cpg/sg2_236_cif.got.tgz:470121.got - 2010.06.03 11:33:40.
