data_PCOD9051484
_publ_section_title
;
Structure prediction by ZEFSAII (Michael W. Deem and Ramdas Pophale) SiO2 
 PCOD9051484
Probable space group: P -1
;
_chemical_formula_sum "Si O2"
_cell_formula_units_Z 16
_cell_length_a 11.601460
_cell_length_b 15.580287
_cell_length_c 14.403689
_cell_angle_alpha 140.904010
_cell_angle_beta 28.975299
_cell_angle_gamma 122.881076
_cell_volume 712.134177
_symmetry_space_group_name_H-M "P -1"
_symmetry_group_IT_number 2
_symmetry_cell_setting 'triclinic'
loop_
_space_group_symop_operation_xyz
x,y,z
-x,-y,-z
loop_
_atom_site_type_symbol
_atom_site_label
_atom_site_fract_x
_atom_site_fract_y
_atom_site_fract_z
Si Si1 0.630491 0.317598 0.383319
Si Si2 0.240851 0.989791 0.211465
Si Si3 0.268402 0.864335 0.442514
Si Si4 0.681406 0.587693 0.804920
Si Si5 0.170758 0.228871 0.608421
Si Si6 0.390618 0.704364 0.398639
Si Si7 0.814490 0.813075 0.218512
Si Si8 0.388905 0.654828 0.883921
O O1 0.411628 0.270403 0.455833
O O2 0.670498 0.277195 0.432124
O O3 0.526455 0.498885 0.600251
O O4 0.908591 0.235070 0.067498
O O5 0.204059 0.073202 0.406997
O O6 0.982265 0.080253 0.405060
O O7 0.500000 0.000000 0.000000
O O8 0.302125 0.814509 0.028578
O O9 0.193487 0.820024 0.558482
O O10 0.336837 0.005100 0.525685
O O11 0.523868 0.723232 0.100919
O O12 0.582776 0.459212 0.783283
O O13 0.581618 0.652872 0.827899
O O14 0.000000 0.500000 0.500000
O O15 0.151887 0.227527 0.731097
O O16 0.874631 0.347867 0.887230
O O17 0.652547 0.728399 0.221161
#
# Coordination Sequence:
#
# PCOD9051484 Si02
#       8
#     2   2   2   2   2   2   2   2
#     4  10  25  46  72 107 141 190 244 286 361 430
#     4  12  26  44  73 112 143 192 237 296 370 422
#     4  12  24  47  72 105 148 186 239 301 356 432
#     4  11  26  47  74 105 141 194 242 297 362 422
#     4  11  22  46  70 106 143 182 241 293 361 419
#     4  10  26  46  71 104 142 188 240 298 350 423
#     4  11  24  47  75 104 144 193 234 300 359 419
#     4  11  23  46  71 102 149 185 238 304 349 431
#
# _framework density 22.467676999999998
#
# number of rings (size 3 to 8) (size 9 to 14) (size 15 to 20)
#    0.000    1.000    2.500    3.000    5.250    2.000 
#    6.750    0.000    0.000    0.000    0.000    0.000 
#    0.000    0.000    0.000    0.000    0.000    0.000 
#
# Total GULP energy -89445.815943 kJ/mol
# GULP energy per Si atom -5590.363496 kJ/mol
# Density = 2.241654 g / cm^3
# Si number density = 22.467677 Si / 1000 Ang^3
#
#
#
# Elastic Constant Matrix: (Units=GPa)
#
#
# Indices 1 2 3 4 5 6 
#
# 1 131.9746 50.3851 70.4200 0.4203 -12.0185 9.9778
# 2 50.3851 102.1331 75.3050 -3.0842 -1.0059 23.9191
# 3 70.4200 75.3050 126.6978 -8.2758 -0.7579 12.3681
# 4 0.4203 -3.0842 -8.2758 34.8808 0.7631 2.9414
# 5 -12.0185 -1.0059 -0.7579 0.7631 28.5955 10.8278
# 6 9.9778 23.9191 12.3681 2.9414 10.8278 36.9135
#
#
#
# Elastic Compliance Matrix: (Units=1/GPa)
#
#
# Indices 1 2 3 4 5 6 
#
# 1 0.011715 -0.001040 -0.005758 -0.001546 0.005560 -0.002071
# 2 -0.001040 0.020737 -0.010660 0.000138 0.004094 -0.010796
# 3 -0.005758 -0.010660 0.017257 0.003004 -0.003761 0.003545
# 4 -0.001546 0.000138 0.003004 0.029669 -0.000231 -0.002974
# 5 0.005560 0.004094 -0.003761 -0.000231 0.043251 -0.015564
# 6 -0.002071 -0.010796 0.003545 -0.002974 -0.015564 0.038260
#
#
# Mechanical properties :
#
#
# Convention : Reuss Voigt Hill
#
# Bulk Modulus (GPa) = 67.60648 83.66952 75.63800
# Shear Modulus (GPa) = 24.90831 31.05765 27.98298
#
# Velocity S-wave (km/s) = 3.33322 3.72200 3.53296
# Velocity P-wave (km/s) = 6.70594 7.46939 7.09794
#
# Compressibility (1/GPa) = 0.01479148
#
# Stress axis : x y z
#
# Youngs Moduli (GPa) = 85.36176 48.22317 57.94809
#
# Poissons Ratio (x) = 0.05017 0.33369
# Poissons Ratio (y) = 0.08881 0.61771
# Poissons Ratio (z) = 0.49155 0.51404
#
# Static dielectric constant tensor:
#      x y z
#    x 1.911610 -0.029140 -0.016060 
#    y -0.029140 1.841830 -0.005320 
#    z -0.016060 -0.005320 1.847660 
# 
# From -- ./inp_files/522473.got.cif
#   From: 2010.05.17/outbox.cif.g08.bks.cpg/sg2_262_cif.got.tgz:522473.got - 2010.06.03 11:33:40.
