data_PCOD9051700
_publ_section_title
;
Structure prediction by ZEFSAII (Michael W. Deem and Ramdas Pophale) SiO2 
 PCOD9051700
Probable space group: P -1
;
_chemical_formula_sum "Si O2"
_cell_formula_units_Z 16
_cell_length_a 11.458385
_cell_length_b 14.288746
_cell_length_c 5.969343
_cell_angle_alpha 98.413270
_cell_angle_beta 109.417549
_cell_angle_gamma 128.494552
_cell_volume 633.450522
_symmetry_space_group_name_H-M "P -1"
_symmetry_group_IT_number 2
_symmetry_cell_setting 'triclinic'
loop_
_space_group_symop_operation_xyz
x,y,z
-x,-y,-z
loop_
_atom_site_type_symbol
_atom_site_label
_atom_site_fract_x
_atom_site_fract_y
_atom_site_fract_z
Si Si1 0.219307 0.148240 0.830059
Si Si2 0.634344 0.399939 0.153897
Si Si3 0.233010 0.320930 0.612240
Si Si4 0.238637 0.717373 0.653970
Si Si5 0.928054 0.560030 0.060129
Si Si6 0.259162 0.141348 0.365506
Si Si7 0.565240 0.943620 0.653133
Si Si8 0.079984 0.770949 0.884186
O O1 0.205788 0.253146 0.808474
O O2 0.156920 0.067884 0.517674
O O3 0.434864 0.253570 0.993595
O O4 0.176623 0.095873 0.041891
O O5 0.653778 0.521173 0.264200
O O6 0.751972 0.390909 0.371333
O O7 0.732458 0.445289 0.994799
O O8 0.310308 0.279468 0.490229
O O9 0.037390 0.240270 0.375485
O O10 0.076530 0.662971 0.379477
O O11 0.426692 0.858501 0.736975
O O12 0.192441 0.741101 0.865773
O O13 0.942941 0.652891 0.930035
O O14 0.000000 0.500000 0.000000
O O15 0.417777 0.151748 0.473421
O O16 0.500000 0.000000 0.500000
O O17 0.770895 0.076889 0.881367
#
# Coordination Sequence:
#
# PCOD9051700 Si02
#       8
#     2   2   2   2   2   2   2   2
#     4  10  25  47  72 108 152 196 249 304 371 446
#     4  12  23  44  74 109 152 197 240 310 379 452
#     4  10  26  45  72 107 152 195 248 300 382 443
#     4  12  25  47  69 109 148 187 251 302 381 444
#     4  12  25  40  70 108 153 186 238 309 378 448
#     4  10  26  48  75 108 149 195 255 309 365 443
#     4  12  27  49  78 105 141 199 254 316 370 444
#     4  12  26  46  72 106 144 198 248 305 376 445
#
# _framework density 25.258483999999999
#
# number of rings (size 3 to 8) (size 9 to 14) (size 15 to 20)
#    0.750    0.000    5.000    1.875    5.250    3.000 
#    0.000    0.625    0.000    0.000    0.000    0.000 
#    0.000    0.000    0.000    0.000    0.000    0.000 
#
# Total GULP energy -89293.902358 kJ/mol
# GULP energy per Si atom -5580.868897 kJ/mol
# Density = 2.520099 g / cm^3
# Si number density = 25.258484 Si / 1000 Ang^3
#
#
#
# Elastic Constant Matrix: (Units=GPa)
#
#
# Indices 1 2 3 4 5 6 
#
# 1 134.0087 46.3600 39.2319 -24.5106 -1.0977 -16.5162
# 2 46.3600 111.0455 40.7213 -25.0416 1.3987 3.4156
# 3 39.2319 40.7213 102.8928 -22.5814 4.7208 -9.9893
# 4 -24.5106 -25.0416 -22.5814 35.8020 -9.5243 0.8011
# 5 -1.0977 1.3987 4.7208 -9.5243 41.1409 -8.8632
# 6 -16.5162 3.4156 -9.9893 0.8011 -8.8632 62.6332
#
#
#
# Elastic Compliance Matrix: (Units=1/GPa)
#
#
# Indices 1 2 3 4 5 6 
#
# 1 0.010053 -0.002709 -0.001604 0.004496 0.002187 0.002795
# 2 -0.002709 0.012441 -0.002959 0.005195 0.000651 -0.001839
# 3 -0.001604 -0.002959 0.012728 0.004845 0.000089 0.001719
# 4 0.004496 0.005195 0.004845 0.040092 0.009200 0.002464
# 5 0.002187 0.000651 0.000089 0.009200 0.027392 0.004314
# 6 0.002795 -0.001839 0.001719 0.002464 0.004314 0.017656
#
#
# Mechanical properties :
#
#
# Convention : Reuss Voigt Hill
#
# Bulk Modulus (GPa) = 48.35720 66.73038 57.54379
# Shear Modulus (GPa) = 35.26127 42.69084 38.97605
#
# Velocity S-wave (km/s) = 3.74038 4.11561 3.93248
# Velocity P-wave (km/s) = 6.15146 7.00434 6.59171
#
# Compressibility (1/GPa) = 0.02067944
#
# Stress axis : x y z
#
# Youngs Moduli (GPa) = 99.46796 80.37723 78.56947
#
# Poissons Ratio (x) = 0.21773 0.12599
# Poissons Ratio (y) = 0.26944 0.23250
# Poissons Ratio (z) = 0.15950 0.23785
#
# Static dielectric constant tensor:
#      x y z
#    x 2.011620 -0.012610 -0.090660 
#    y -0.012610 1.965870 0.037270 
#    z -0.090660 0.037270 2.161140 
# 
# From -- ./inp_files/77942.got.cif
#   From: 2010.05.17/outbox.cif.g08.bks.cpg/sg2_39_cif.got.tgz:77942.got - 2010.06.03 11:33:40.
