data_PCOD9051447
_publ_section_title
;
Structure prediction by ZEFSAII (Michael W. Deem and Ramdas Pophale) SiO2 
 PCOD9051447
Probable space group: P -1
;
_chemical_formula_sum "Si O2"
_cell_formula_units_Z 12
_cell_length_a 9.104900
_cell_length_b 8.007063
_cell_length_c 15.518358
_cell_angle_alpha 118.492649
_cell_angle_beta 130.632961
_cell_angle_gamma 32.545243
_cell_volume 454.662344
_symmetry_space_group_name_H-M "P -1"
_symmetry_group_IT_number 2
_symmetry_cell_setting 'triclinic'
loop_
_space_group_symop_operation_xyz
x,y,z
-x,-y,-z
loop_
_atom_site_type_symbol
_atom_site_label
_atom_site_fract_x
_atom_site_fract_y
_atom_site_fract_z
Si Si1 0.182035 0.142821 0.385414
Si Si2 0.362932 0.844500 0.837158
Si Si3 0.299327 0.842522 0.525801
Si Si4 0.545327 0.691757 0.060173
Si Si5 0.505402 0.715357 0.242503
Si Si6 0.180025 0.435929 0.215212
O O1 0.146614 0.043837 0.431154
O O2 0.260620 0.967997 0.284940
O O3 0.500000 0.000000 0.500000
O O4 0.864085 0.516861 0.345736
O O5 0.425513 0.566823 0.793348
O O6 0.634709 0.710996 0.842246
O O7 0.387651 0.879431 0.956477
O O8 0.027444 0.204546 0.769957
O O9 0.500000 0.500000 0.500000
O O10 0.542188 0.783385 0.659639
O O11 0.000000 0.000000 0.500000
O O12 0.413548 0.845337 0.142528
O O13 0.902205 0.498473 0.140718
O O14 0.500000 0.500000 0.000000
#
# Coordination Sequence:
#
# PCOD9051447 Si02
#       6
#     2   2   2   2   2   2
#     4  12  25  43  66  97 135 179 227 281 341 407
#     4  11  24  44  71 100 137 181 230 285 345 411
#     4  12  25  43  69 101 135 178 230 283 340 405
#     4  10  25  46  71 104 141 184 232 285 348 416
#     4  11  24  44  66  96 136 179 225 280 341 407
#     4  12  24  44  70 102 139 183 231 288 345 410
#
# _framework density 26.393214
#
# number of rings (size 3 to 8) (size 9 to 14) (size 15 to 20)
#    0.000    0.667    0.000    8.500    0.000    5.333 
#    0.000    9.167    0.000    0.000    0.000    0.000 
#    0.000    0.000    0.000    0.000    0.000    0.000 
#
# Total GULP energy -67225.699129 kJ/mol
# GULP energy per Si atom -5602.141594 kJ/mol
# Density = 2.633314 g / cm^3
# Si number density = 26.393214 Si / 1000 Ang^3
#
#
#
# Elastic Constant Matrix: (Units=GPa)
#
#
# Indices 1 2 3 4 5 6 
#
# 1 157.0266 40.6009 58.7927 10.0517 -25.9607 -20.1857
# 2 40.6009 140.1588 29.2804 0.1920 -21.4845 -19.7001
# 3 58.7927 29.2804 149.1100 2.8395 -24.4880 -3.7721
# 4 10.0517 0.1920 2.8395 31.9818 -8.4764 -10.2327
# 5 -25.9607 -21.4845 -24.4880 -8.4764 64.9632 4.4699
# 6 -20.1857 -19.7001 -3.7721 -10.2327 4.4699 45.0893
#
#
#
# Elastic Compliance Matrix: (Units=1/GPa)
#
#
# Indices 1 2 3 4 5 6 
#
# 1 0.008370 -0.001256 -0.002707 -0.001145 0.001584 0.002555
# 2 -0.001256 0.008436 -0.000783 0.002011 0.002027 0.003313
# 3 -0.002707 -0.000783 0.008202 0.000305 0.001859 -0.000983
# 4 -0.001145 0.002011 0.000305 0.035299 0.004380 0.007968
# 5 0.001584 0.002027 0.001859 0.004380 0.017902 0.000970
# 6 0.002555 0.003313 -0.000983 0.007968 0.000970 0.026400
#
#
# Mechanical properties :
#
#
# Convention : Reuss Voigt Hill
#
# Bulk Modulus (GPa) = 64.44668 78.18260 71.31464
# Shear Modulus (GPa) = 41.92074 49.58162 45.75118
#
# Velocity S-wave (km/s) = 3.98969 4.33895 4.16798
# Velocity P-wave (km/s) = 6.75976 7.40193 7.08812
#
# Compressibility (1/GPa) = 0.01551670
#
# Stress axis : x y z
#
# Youngs Moduli (GPa) = 119.47069 118.54235 121.91911
#
# Poissons Ratio (x) = 0.14884 0.33006
# Poissons Ratio (y) = 0.15001 0.09546
# Poissons Ratio (z) = 0.32343 0.09281
#
# Static dielectric constant tensor:
#      x y z
#    x 2.054180 0.043700 0.090570 
#    y 0.043700 1.999290 0.041170 
#    z 0.090570 0.041170 2.148740 
# 
# From -- ./inp_files/197718.got.cif
#   From: 2010.05.17/outbox.cif.g08.bks.cpg/sg2_99_cif.got.tgz:197718.got - 2010.06.03 11:33:40.
