data_PCOD9051629
_publ_section_title
;
Structure prediction by ZEFSAII (Michael W. Deem and Ramdas Pophale) SiO2 
 PCOD9051629
Probable space group: P -1
;
_chemical_formula_sum "Si O2"
_cell_formula_units_Z 14
_cell_length_a 14.496734
_cell_length_b 14.276192
_cell_length_c 6.592557
_cell_angle_alpha 112.321957
_cell_angle_beta 79.089815
_cell_angle_gamma 151.550843
_cell_volume 567.932494
_symmetry_space_group_name_H-M "P -1"
_symmetry_group_IT_number 2
_symmetry_cell_setting 'triclinic'
loop_
_space_group_symop_operation_xyz
x,y,z
-x,-y,-z
loop_
_atom_site_type_symbol
_atom_site_label
_atom_site_fract_x
_atom_site_fract_y
_atom_site_fract_z
Si Si1 0.626744 0.900909 0.157197
Si Si2 0.401064 0.268542 0.309384
Si Si3 0.165158 0.390672 0.018563
Si Si4 0.163879 0.605838 0.364868
Si Si5 0.525317 0.023514 0.770010
Si Si6 0.100619 0.948228 0.513237
Si Si7 0.782005 0.709776 0.725705
O O1 0.406494 0.639208 0.081095
O O2 0.593370 0.987427 0.248918
O O3 0.794579 0.027312 0.351482
O O4 0.666467 0.897762 0.911542
O O5 0.632717 0.496300 0.475751
O O6 0.340300 0.302663 0.214044
O O7 0.275923 0.164449 0.481570
O O8 0.089253 0.424890 0.171614
O O9 0.155335 0.290131 0.100726
O O10 0.045911 0.248331 0.747407
O O11 0.252605 0.751888 0.247432
O O12 0.000000 0.500000 0.500000
O O13 0.377003 0.794573 0.557014
O O14 0.500000 0.000000 0.000000
O O15 0.981151 0.914211 0.672020
#
# Coordination Sequence:
#
# PCOD9051629 Si02
#       7
#     2   2   2   2   2   2   2
#     4  11  25  47  73 105 142 186 234 295 352 421
#     4  11  25  44  72 104 143 187 234 293 352 418
#     4  11  25  47  72 104 143 185 238 291 352 425
#     4  10  25  47  69 106 141 181 238 294 355 428
#     4  10  25  48  73 102 146 185 234 297 362 423
#     4  12  25  44  73 101 143 189 234 287 355 418
#     4  11  25  45  70 105 143 186 237 290 352 424
#
# _framework density 24.650818999999998
#
# number of rings (size 3 to 8) (size 9 to 14) (size 15 to 20)
#    0.000    1.143    2.857    1.286    6.000    5.714 
#    0.000    0.000    0.000    0.000    0.000    0.000 
#    0.000    0.000    0.000    0.000    0.000    0.000 
#
# Total GULP energy -78328.789648 kJ/mol
# GULP energy per Si atom -5594.913546 kJ/mol
# Density = 2.459471 g / cm^3
# Si number density = 24.650819 Si / 1000 Ang^3
#
#
#
# Elastic Constant Matrix: (Units=GPa)
#
#
# Indices 1 2 3 4 5 6 
#
# 1 66.4215 5.0435 23.8947 0.3699 3.3041 15.2744
# 2 5.0435 116.9619 35.3961 -21.9200 -2.5313 14.5854
# 3 23.8947 35.3961 115.8995 12.4664 14.7701 7.1607
# 4 0.3699 -21.9200 12.4664 45.6050 -5.6531 -6.3269
# 5 3.3041 -2.5313 14.7701 -5.6531 33.8194 4.3393
# 6 15.2744 14.5854 7.1607 -6.3269 4.3393 26.9184
#
#
#
# Elastic Compliance Matrix: (Units=1/GPa)
#
#
# Indices 1 2 3 4 5 6 
#
# 1 0.018745 0.001887 -0.004037 0.000565 0.001540 -0.010701
# 2 0.001887 0.012124 -0.005136 0.007068 0.004839 -0.005393
# 3 -0.004037 -0.005136 0.012503 -0.006504 -0.006704 0.001299
# 4 0.000565 0.007068 -0.006504 0.028471 0.007684 0.003033
# 5 0.001540 0.004839 -0.006704 0.007684 0.034699 -0.005500
# 6 -0.010701 -0.005393 0.001299 0.003033 -0.005500 0.047397
#
#
# Mechanical properties :
#
#
# Convention : Reuss Voigt Hill
#
# Bulk Modulus (GPa) = 34.72071 47.55017 41.13544
# Shear Modulus (GPa) = 28.07234 36.93179 32.50207
#
# Velocity S-wave (km/s) = 3.37827 3.87485 3.63505
# Velocity P-wave (km/s) = 5.41595 6.27301 5.86017
#
# Compressibility (1/GPa) = 0.02880126
#
# Stress axis : x y z
#
# Youngs Moduli (GPa) = 53.34654 82.47787 79.98356
#
# Poissons Ratio (x) = -0.15563 0.32288
# Poissons Ratio (y) = -0.10066 0.41077
# Poissons Ratio (z) = 0.21535 0.42358
#
# Static dielectric constant tensor:
#      x y z
#    x 1.927740 0.030270 -0.013010 
#    y 0.030270 2.016010 -0.028710 
#    z -0.013010 -0.028710 1.968610 
# 
# From -- ./inp_files/98423.got.cif
#   From: 2010.05.17/outbox.cif.g08.bks.cpg/sg2_50_cif.got.tgz:98423.got - 2010.06.03 11:33:40.
