data_PCOD9051066
_publ_section_title
;
Structure prediction by ZEFSAII (Michael W. Deem and Ramdas Pophale) SiO2 
 PCOD9051066
Probable space group: P -1
;
_chemical_formula_sum "Si O2"
_cell_formula_units_Z 15
_cell_length_a 8.356087
_cell_length_b 12.268955
_cell_length_c 9.462492
_cell_angle_alpha 140.055490
_cell_angle_beta 83.102665
_cell_angle_gamma 91.837392
_cell_volume 615.593782
_symmetry_space_group_name_H-M "P -1"
_symmetry_group_IT_number 2
_symmetry_cell_setting 'triclinic'
loop_
_space_group_symop_operation_xyz
x,y,z
-x,-y,-z
loop_
_atom_site_type_symbol
_atom_site_label
_atom_site_fract_x
_atom_site_fract_y
_atom_site_fract_z
Si Si1 0.668750 0.847992 0.878919
Si Si2 0.851046 0.501312 0.624331
Si Si3 0.277576 0.124555 0.430759
Si Si4 0.055118 0.682296 0.297488
Si Si5 0.627772 0.334291 0.301784
Si Si6 0.853704 0.238545 0.930227
Si Si7 0.500000 0.000000 0.500000
Si Si8 0.809867 0.976725 0.254191
O O1 0.743826 0.676012 0.778997
O O2 0.722538 0.850081 0.712907
O O3 0.477377 0.825137 0.869842
O O4 0.742110 0.981986 0.106956
O O5 0.908210 0.467001 0.742878
O O6 0.744598 0.350903 0.437888
O O7 0.000000 0.500000 0.500000
O O8 0.445414 0.128912 0.498690
O O9 0.133742 0.255157 0.631403
O O10 0.238842 0.928292 0.267652
O O11 0.127072 0.655571 0.108126
O O12 0.131138 0.848287 0.518706
O O13 0.500000 0.500000 0.500000
O O14 0.744152 0.339076 0.158806
O O15 0.027191 0.155187 0.885009
O O16 0.334413 0.071474 0.676169
#
# Coordination Sequence:
#
# PCOD9051066 Si02
#       8
#     2   2   2   2   2   2   1   2
#     4  11  25  43  66 107 140 183 236 290 348 413
#     4  11  23  46  70  96 138 191 237 284 343 423
#     4  11  23  40  69 102 147 175 233 287 354 412
#     4  11  23  44  70 105 142 186 232 291 351 418
#     4  10  25  45  68  98 144 184 233 291 346 415
#     4  11  22  44  68 104 139 186 233 290 351 419
#     4  12  22  40  64 104 144 178 214 300 354 412
#     4  11  24  41  71 107 141 180 233 289 354 417
#
# _framework density 24.366716
#
# number of rings (size 3 to 8) (size 9 to 14) (size 15 to 20)
#    0.000    1.067    4.000    2.400    3.733    2.133 
#    0.000    8.000    0.000    0.000    0.000    0.000 
#    0.000    0.000    0.000    0.000    0.000    0.000 
#
# Total GULP energy -83701.003420 kJ/mol
# GULP energy per Si atom -5580.066895 kJ/mol
# Density = 2.431126 g / cm^3
# Si number density = 24.366716 Si / 1000 Ang^3
#
#
#
# Elastic Constant Matrix: (Units=GPa)
#
#
# Indices 1 2 3 4 5 6 
#
# 1 89.5207 21.0207 35.0339 -6.7228 -16.2672 -4.5547
# 2 21.0207 141.5612 39.6208 -25.2034 -11.1473 -14.6556
# 3 35.0339 39.6208 106.4240 -7.1975 -11.3868 -3.6104
# 4 -6.7228 -25.2034 -7.1975 42.8898 8.4281 5.1296
# 5 -16.2672 -11.1473 -11.3868 8.4281 56.4604 -6.4594
# 6 -4.5547 -14.6556 -3.6104 5.1296 -6.4594 33.7162
#
#
#
# Elastic Compliance Matrix: (Units=1/GPa)
#
#
# Indices 1 2 3 4 5 6 
#
# 1 0.013472 -0.000421 -0.003853 0.000383 0.003167 0.001773
# 2 -0.000421 0.009037 -0.002745 0.004252 0.000828 0.003089
# 3 -0.003853 -0.002745 0.011732 -0.000362 0.000738 -0.000261
# 4 0.000383 0.004252 -0.000362 0.026838 -0.003459 -0.002885
# 5 0.003167 0.000828 0.000738 -0.003459 0.020052 0.005235
# 6 0.001773 0.003089 -0.000261 -0.002885 0.005235 0.032655
#
#
# Mechanical properties :
#
#
# Convention : Reuss Voigt Hill
#
# Bulk Modulus (GPa) = 49.49726 58.76187 54.12956
# Shear Modulus (GPa) = 37.15864 42.73533 39.94698
#
# Velocity S-wave (km/s) = 3.90933 4.19243 4.05335
# Velocity P-wave (km/s) = 6.38238 6.89951 6.64598
#
# Compressibility (1/GPa) = 0.02020314
#
# Stress axis : x y z
#
# Youngs Moduli (GPa) = 74.22900 110.65904 85.23427
#
# Poissons Ratio (x) = 0.04657 0.32843
# Poissons Ratio (y) = 0.03124 0.23396
# Poissons Ratio (z) = 0.28602 0.30374
#
# Static dielectric constant tensor:
#      x y z
#    x 2.001960 0.052410 0.127910 
#    y 0.052410 1.976300 0.043430 
#    z 0.127910 0.043430 1.996590 
# 
# From -- ./inp_files/190771.got.cif
#   From: 2010.05.17/outbox.cif.g08.bks.cpg/sg2_96_cif.got.tgz:190771.got - 2010.06.03 11:33:40.
