data_PCOD9051637
_publ_section_title
;
Structure prediction by ZEFSAII (Michael W. Deem and Ramdas Pophale) SiO2 
 PCOD9051637
Probable space group: P -1
;
_chemical_formula_sum "Si O2"
_cell_formula_units_Z 16
_cell_length_a 9.101805
_cell_length_b 13.687876
_cell_length_c 6.587882
_cell_angle_alpha 76.080718
_cell_angle_beta 76.826709
_cell_angle_gamma 107.909860
_cell_volume 716.409352
_symmetry_space_group_name_H-M "P -1"
_symmetry_group_IT_number 2
_symmetry_cell_setting 'triclinic'
loop_
_space_group_symop_operation_xyz
x,y,z
-x,-y,-z
loop_
_atom_site_type_symbol
_atom_site_label
_atom_site_fract_x
_atom_site_fract_y
_atom_site_fract_z
Si Si1 0.794289 0.788670 0.433451
Si Si2 0.168336 0.996073 0.531369
Si Si3 0.360323 0.558460 0.139606
Si Si4 0.068190 0.336302 0.234890
Si Si5 0.652688 0.097617 0.805249
Si Si6 0.512680 0.407746 0.334712
Si Si7 0.936351 0.180668 0.994459
Si Si8 0.737459 0.327569 0.544936
O O1 0.736456 0.882344 0.478957
O O2 0.876880 0.748764 0.614120
O O3 0.641768 0.683429 0.467755
O O4 0.923336 0.827641 0.191210
O O5 0.260639 0.956567 0.351179
O O6 0.125656 0.914245 0.773190
O O7 0.000000 0.000000 0.500000
O O8 0.219668 0.451441 0.141569
O O9 0.470095 0.514676 0.272630
O O10 0.275130 0.625133 0.254636
O O11 0.475242 0.623502 0.889359
O O12 0.009758 0.290614 0.051084
O O13 0.915316 0.341875 0.404366
O O14 0.627406 0.197830 0.647973
O O15 0.783321 0.161479 0.905961
O O16 0.500000 0.000000 0.000000
O O17 0.671176 0.400196 0.387578
#
# Coordination Sequence:
#
# PCOD9051637 Si02
#       8
#     2   2   2   2   2   2   2   2
#     4  11  24  43  71 101 139 184 230 290 337 414
#     4  12  23  44  68 103 135 180 244 280 335 424
#     4  10  25  47  70 101 137 179 230 293 347 408
#     4  11  24  45  70 103 137 175 239 285 338 421
#     4  12  30  45  67 107 148 180 230 292 349 415
#     4  10  26  44  69 104 136 177 233 287 349 416
#     4  12  23  44  70  96 141 181 233 281 347 400
#     4  12  24  46  69 100 139 185 228 283 348 420
#
# _framework density 22.333597000000001
#
# number of rings (size 3 to 8) (size 9 to 14) (size 15 to 20)
#    0.000    0.750    5.000    1.125    5.250    6.000 
#    0.000    0.000    0.000    0.000    0.000    0.000 
#    0.000    0.000    0.000    0.000    0.000    0.000 
#
# Total GULP energy -89462.057342 kJ/mol
# GULP energy per Si atom -5591.378584 kJ/mol
# Density = 2.228276 g / cm^3
# Si number density = 22.333597 Si / 1000 Ang^3
#
#
#
# Elastic Constant Matrix: (Units=GPa)
#
#
# Indices 1 2 3 4 5 6 
#
# 1 77.7526 45.3799 38.0690 5.3348 -2.3121 -3.1555
# 2 45.3799 118.5086 44.8917 22.0253 -13.1017 -10.7154
# 3 38.0690 44.8917 101.6695 3.2384 -14.7916 -8.0255
# 4 5.3348 22.0253 3.2384 39.3542 -0.8622 -6.8186
# 5 -2.3121 -13.1017 -14.7916 -0.8622 25.1896 -0.9281
# 6 -3.1555 -10.7154 -8.0255 -6.8186 -0.9281 29.5511
#
#
#
# Elastic Compliance Matrix: (Units=1/GPa)
#
#
# Indices 1 2 3 4 5 6 
#
# 1 0.018601 -0.005974 -0.005119 0.000885 -0.004431 -0.001505
# 2 -0.005974 0.013622 -0.002699 -0.006085 0.004829 0.002316
# 3 -0.005119 -0.002699 0.014072 0.001691 0.006554 0.002893
# 4 0.000885 -0.006085 0.001691 0.029422 -0.000895 0.005108
# 5 -0.004431 0.004829 0.006554 -0.000895 0.045780 0.004289
# 6 -0.001505 0.002316 0.002893 0.005108 0.004289 0.036618
#
#
# Mechanical properties :
#
#
# Convention : Reuss Voigt Hill
#
# Bulk Modulus (GPa) = 53.44109 61.62353 57.53231
# Shear Modulus (GPa) = 26.05040 30.12497 28.08768
#
# Velocity S-wave (km/s) = 3.41900 3.67667 3.55017
# Velocity P-wave (km/s) = 6.29020 6.75841 6.52850
#
# Compressibility (1/GPa) = 0.01871219
#
# Stress axis : x y z
#
# Youngs Moduli (GPa) = 53.76143 73.40827 71.06323
#
# Poissons Ratio (x) = 0.43856 0.36374
# Poissons Ratio (y) = 0.32118 0.19177
# Poissons Ratio (z) = 0.27518 0.19810
#
# Static dielectric constant tensor:
#      x y z
#    x 1.832350 0.030690 0.046770 
#    y 0.030690 1.854820 0.010730 
#    z 0.046770 0.010730 1.827120 
# 
# From -- ./inp_files/37974.got.cif
#   From: 2010.05.17/outbox.cif.g08.bks.cpg/sg2_19_cif.got.tgz:37974.got - 2010.06.03 11:33:40.
