data_PCOD9051376
_publ_section_title
;
Structure prediction by ZEFSAII (Michael W. Deem and Ramdas Pophale) SiO2 
 PCOD9051376
Probable space group: P -1
;
_chemical_formula_sum "Si O2"
_cell_formula_units_Z 16
_cell_length_a 11.517820
_cell_length_b 9.045590
_cell_length_c 9.090772
_cell_angle_alpha 56.835274
_cell_angle_beta 81.702411
_cell_angle_gamma 66.320664
_cell_volume 722.570057
_symmetry_space_group_name_H-M "P -1"
_symmetry_group_IT_number 2
_symmetry_cell_setting 'triclinic'
loop_
_space_group_symop_operation_xyz
x,y,z
-x,-y,-z
loop_
_atom_site_type_symbol
_atom_site_label
_atom_site_fract_x
_atom_site_fract_y
_atom_site_fract_z
Si Si1 0.944995 0.417388 0.422019
Si Si2 0.684814 0.685213 0.205627
Si Si3 0.166817 0.799581 0.962142
Si Si4 0.290779 0.076716 0.171166
Si Si5 0.500216 0.693523 0.470368
Si Si6 0.890621 0.572241 0.856872
Si Si7 0.895028 0.096735 0.768972
Si Si8 0.405549 0.593074 0.831430
O O1 0.835028 0.580053 0.262462
O O2 0.885603 0.270906 0.571747
O O3 0.000000 0.500000 0.500000
O O4 0.060120 0.332078 0.334334
O O5 0.623884 0.709219 0.365802
O O6 0.634752 0.552921 0.183205
O O7 0.660534 0.881341 0.017519
O O8 0.278200 0.743941 0.851546
O O9 0.124125 0.621552 0.081818
O O10 0.193587 0.832731 0.108361
O O11 0.043654 0.987409 0.839253
O O12 0.248409 0.279355 0.150742
O O13 0.387315 0.885211 0.330036
O O14 0.156683 0.052763 0.206311
O O15 0.500000 0.500000 0.500000
O O16 0.478195 0.676926 0.656088
O O17 0.000000 0.500000 0.000000
O O18 0.500000 0.500000 0.000000
#
# Coordination Sequence:
#
# PCOD9051376 Si02
#       8
#     2   2   2   2   2   2   2   2
#     4  12  25  43  72 105 144 186 228 293 359 423
#     4  11  24  47  71 100 142 189 236 289 354 416
#     4  11  23  43  64 101 144 177 235 286 355 416
#     4  12  24  44  76 100 141 193 234 292 358 419
#     4  10  25  46  69 102 134 183 243 289 345 420
#     4  12  22  44  68 101 146 182 229 291 359 421
#     4  11  25  39  70 104 138 187 230 287 353 428
#     4  11  25  45  74  97 138 189 234 297 351 411
#
# _framework density 22.143184000000002
#
# number of rings (size 3 to 8) (size 9 to 14) (size 15 to 20)
#    0.000    0.750    5.000    1.875    8.750    0.500 
#    0.000    0.625    0.000    0.000    0.000    0.000 
#    0.000    0.000    0.000    0.000    0.000    0.000 
#
# Total GULP energy -89341.745593 kJ/mol
# GULP energy per Si atom -5583.859100 kJ/mol
# Density = 2.209278 g / cm^3
# Si number density = 22.143184 Si / 1000 Ang^3
#
#
#
# Elastic Constant Matrix: (Units=GPa)
#
#
# Indices 1 2 3 4 5 6 
#
# 1 51.3791 13.2665 26.0180 15.2814 -5.3866 -9.2891
# 2 13.2665 79.6540 43.4823 9.5074 -3.0064 -15.0369
# 3 26.0180 43.4823 155.5842 12.3265 -21.8275 -16.7759
# 4 15.2814 9.5074 12.3265 43.9633 -15.6827 -9.0140
# 5 -5.3866 -3.0064 -21.8275 -15.6827 38.3620 8.9414
# 6 -9.2891 -15.0369 -16.7759 -9.0140 8.9414 37.9849
#
#
#
# Elastic Compliance Matrix: (Units=1/GPa)
#
#
# Indices 1 2 3 4 5 6 
#
# 1 0.023766 -0.000913 -0.003137 -0.007388 -0.002200 0.002829
# 2 -0.000913 0.015925 -0.004081 -0.002181 -0.003143 0.004501
# 3 -0.003137 -0.004081 0.008705 0.001303 0.004563 0.000697
# 4 -0.007388 -0.002181 0.001303 0.029903 0.011207 0.002363
# 5 -0.002200 -0.003143 0.004563 0.011207 0.033874 -0.005081
# 6 0.002829 0.004501 0.000697 0.002363 -0.005081 0.030865
#
#
# Mechanical properties :
#
#
# Convention : Reuss Voigt Hill
#
# Bulk Modulus (GPa) = 31.11962 50.23899 40.67930
# Shear Modulus (GPa) = 29.40981 37.65209 33.53095
#
# Velocity S-wave (km/s) = 3.64835 4.12805 3.89559
# Velocity P-wave (km/s) = 5.64195 6.74230 6.21652
#
# Compressibility (1/GPa) = 0.03213407
#
# Stress axis : x y z
#
# Youngs Moduli (GPa) = 42.07686 62.79264 114.88160
#
# Poissons Ratio (x) = 0.05730 0.36043
# Poissons Ratio (y) = 0.03840 0.46883
# Poissons Ratio (z) = 0.13201 0.25626
#
# Static dielectric constant tensor:
#      x y z
#    x 1.795080 -0.086930 -0.066710 
#    y -0.086930 1.863160 -0.023310 
#    z -0.066710 -0.023310 1.679150 
# 
# From -- ./inp_files/222986.got.cif
#   From: 2010.05.17/outbox.cif.g08.bks.cpg/sg2_112_cif.got.tgz:222986.got - 2010.06.03 11:33:40.
