data_PCOD9051385
_publ_section_title
;
Structure prediction by ZEFSAII (Michael W. Deem and Ramdas Pophale) SiO2 
 PCOD9051385
Probable space group: P -1
;
_chemical_formula_sum "Si O2"
_cell_formula_units_Z 14
_cell_length_a 9.223743
_cell_length_b 8.894233
_cell_length_c 10.781836
_cell_angle_alpha 99.270526
_cell_angle_beta 116.329725
_cell_angle_gamma 46.709852
_cell_volume 563.001091
_symmetry_space_group_name_H-M "P -1"
_symmetry_group_IT_number 2
_symmetry_cell_setting 'triclinic'
loop_
_space_group_symop_operation_xyz
x,y,z
-x,-y,-z
loop_
_atom_site_type_symbol
_atom_site_label
_atom_site_fract_x
_atom_site_fract_y
_atom_site_fract_z
Si Si1 0.255504 0.646566 0.553828
Si Si2 0.406209 0.817258 0.450874
Si Si3 0.077862 0.460613 0.809152
Si Si4 0.700772 0.751184 0.874849
Si Si5 0.796621 0.030199 0.871209
Si Si6 0.376112 0.501735 0.841834
Si Si7 0.753989 0.900033 0.360677
O O1 0.337036 0.722631 0.501671
O O2 0.354355 0.409855 0.534611
O O3 0.344287 0.620196 0.722184
O O4 0.988729 0.825383 0.468022
O O5 0.237975 0.937414 0.286211
O O6 0.381797 0.987197 0.546498
O O7 0.135527 0.592168 0.802112
O O8 0.157312 0.307872 0.703496
O O9 0.834442 0.579102 0.790641
O O10 0.229440 0.343130 0.974550
O O11 0.793605 0.861804 0.901966
O O12 0.435316 0.916037 0.780597
O O13 0.554145 0.252714 0.849514
O O14 0.000000 0.000000 0.000000
O O15 0.500000 0.500000 0.000000
#
# Coordination Sequence:
#
# PCOD9051385 Si02
#       7
#     2   2   2   2   2   2   2
#     4  10  25  46  69 105 140 181 228 286 350 406
#     4  10  25  46  69 105 140 181 228 286 350 406
#     4  11  26  46  69 103 139 182 230 289 350 405
#     4  11  26  46  69 103 139 182 230 289 350 405
#     4  11  25  45  72 102 137 181 236 285 346 418
#     4  11  25  45  72 102 137 181 236 285 346 418
#     4  12  24  44  74  98 144 178 234 282 350 418
#
# _framework density 24.866737000000001
#
# number of rings (size 3 to 8) (size 9 to 14) (size 15 to 20)
#    0.000    1.143    1.429    2.571    8.000    1.143 
#    0.000    0.000    0.000    0.000    0.000    0.000 
#    0.000    0.000    0.000    0.000    0.000    0.000 
#
# Total GULP energy -78158.805840 kJ/mol
# GULP energy per Si atom -5582.771846 kJ/mol
# Density = 2.481014 g / cm^3
# Si number density = 24.866737 Si / 1000 Ang^3
#
#
#
# Elastic Constant Matrix: (Units=GPa)
#
#
# Indices 1 2 3 4 5 6 
#
# 1 59.3146 41.9425 23.7473 -6.9569 -25.0729 -8.4183
# 2 41.9425 111.6801 40.1421 3.2493 3.7353 -14.9789
# 3 23.7473 40.1421 136.3426 4.0664 -12.6068 0.3253
# 4 -6.9569 3.2493 4.0664 51.1630 -11.5370 7.4010
# 5 -25.0729 3.7353 -12.6068 -11.5370 39.5623 -16.4594
# 6 -8.4183 -14.9789 0.3253 7.4010 -16.4594 33.6340
#
#
#
# Elastic Compliance Matrix: (Units=1/GPa)
#
#
# Indices 1 2 3 4 5 6 
#
# 1 0.070466 -0.024870 0.000621 0.021374 0.068066 0.035161
# 2 -0.024870 0.019589 -0.003409 -0.008768 -0.024357 -0.007458
# 3 0.000621 -0.003409 0.008556 0.000411 0.003670 0.000260
# 4 0.021374 -0.008768 0.000411 0.027657 0.025913 0.008036
# 5 0.068066 -0.024357 0.003670 0.025913 0.099984 0.049380
# 6 0.035161 -0.007458 0.000260 0.008036 0.049380 0.057605
#
#
# Mechanical properties :
#
#
# Convention : Reuss Voigt Hill
#
# Bulk Modulus (GPa) = 23.09652 57.66678 40.38165
# Shear Modulus (GPa) = 14.14014 38.30556 26.22285
#
# Velocity S-wave (km/s) = 2.38720 3.92909 3.25088
# Velocity P-wave (km/s) = 4.11176 6.62000 5.51049
#
# Compressibility (1/GPa) = 0.04329656
#
# Stress axis : x y z
#
# Youngs Moduli (GPa) = 14.19127 51.04917 116.87299
#
# Poissons Ratio (x) = 1.26959 -0.07260
# Poissons Ratio (y) = 0.35294 0.39837
# Poissons Ratio (z) = -0.00882 0.17400
#
# Static dielectric constant tensor:
#      x y z
#    x 1.980520 0.026790 0.023890 
#    y 0.026790 2.182150 0.174450 
#    z 0.023890 0.174450 2.047390 
# 
# From -- ./inp_files/382718.got.cif
#   From: 2010.05.17/outbox.cif.g08.bks.cpg/sg2_192_cif.got.tgz:382718.got - 2010.06.03 11:33:40.
