data_PCOD9051689
_publ_section_title
;
Structure prediction by ZEFSAII (Michael W. Deem and Ramdas Pophale) SiO2 
 PCOD9051689
Probable space group: P -1
;
_chemical_formula_sum "Si O2"
_cell_formula_units_Z 14
_cell_length_a 21.102792
_cell_length_b 5.243643
_cell_length_c 14.780604
_cell_angle_alpha 89.078973
_cell_angle_beta 26.035217
_cell_angle_gamma 76.444678
_cell_volume 621.145080
_symmetry_space_group_name_H-M "P -1"
_symmetry_group_IT_number 2
_symmetry_cell_setting 'triclinic'
loop_
_space_group_symop_operation_xyz
x,y,z
-x,-y,-z
loop_
_atom_site_type_symbol
_atom_site_label
_atom_site_fract_x
_atom_site_fract_y
_atom_site_fract_z
Si Si1 0.921556 0.481178 0.194669
Si Si2 0.407656 0.541485 0.970614
Si Si3 0.830278 0.386975 0.883816
Si Si4 0.995449 0.282287 0.284860
Si Si5 0.514164 0.738307 0.419829
Si Si6 0.390598 0.309234 0.186125
Si Si7 0.288878 0.853522 0.536659
O O1 0.797005 0.349077 0.343313
O O2 0.046670 0.283976 0.114576
O O3 0.840127 0.817972 0.328809
O O4 0.000000 0.500000 0.000000
O O5 0.256302 0.630253 0.097555
O O6 0.493899 0.737889 0.873903
O O7 0.564959 0.263936 0.724490
O O8 0.368598 0.512733 0.124678
O O9 0.684983 0.555708 0.143966
O O10 0.916396 0.586339 0.765919
O O11 0.956902 0.048477 0.750210
O O12 0.799246 0.521633 0.538374
O O13 0.500000 0.500000 0.500000
O O14 0.369357 0.860995 0.529059
O O15 0.500000 0.000000 0.500000
O O16 0.500000 0.000000 0.000000
#
# Coordination Sequence:
#
# PCOD9051689 Si02
#       7
#     2   2   2   2   2   2   2
#     4  12  26  42  69  99 144 182 238 289 354 412
#     4  10  25  47  72 104 137 186 237 291 355 423
#     4  11  28  46  71 105 151 181 234 296 361 414
#     4  12  27  47  72 106 146 185 233 303 354 419
#     4  11  24  43  70  98 138 188 238 281 343 419
#     4  11  25  46  80 101 140 187 244 287 356 432
#     4  11  24  45  69 100 133 186 239 292 337 427
#
# _framework density 22.539020000000001
#
# number of rings (size 3 to 8) (size 9 to 14) (size 15 to 20)
#    0.000    0.857    1.429    3.857   12.000    3.429 
#    0.000    0.000    0.000    0.000    0.000    0.000 
#    0.000    0.000    0.000    0.000    0.000    0.000 
#
# Total GULP energy -78098.905263 kJ/mol
# GULP energy per Si atom -5578.493233 kJ/mol
# Density = 2.248772 g / cm^3
# Si number density = 22.539020 Si / 1000 Ang^3
#
#
#
# Elastic Constant Matrix: (Units=GPa)
#
#
# Indices 1 2 3 4 5 6 
#
# 1 142.8227 12.3519 21.8791 -8.8615 3.8269 28.0411
# 2 12.3519 95.7963 17.8552 -1.2354 8.9898 20.3280
# 3 21.8791 17.8552 52.6219 -1.1320 5.1652 7.5990
# 4 -8.8615 -1.2354 -1.1320 38.4298 1.7688 7.7971
# 5 3.8269 8.9898 5.1652 1.7688 30.1154 -8.8634
# 6 28.0411 20.3280 7.5990 7.7971 -8.8634 37.2729
#
#
#
# Elastic Compliance Matrix: (Units=1/GPa)
#
#
# Indices 1 2 3 4 5 6 
#
# 1 0.009501 0.001742 -0.002657 0.004290 -0.004313 -0.009479
# 2 0.001742 0.013730 -0.003100 0.003212 -0.007073 -0.010520
# 3 -0.002657 -0.003100 0.021670 0.000364 -0.002916 -0.001498
# 4 0.004290 0.003212 0.000364 0.030104 -0.007178 -0.013058
# 5 -0.004313 -0.007073 -0.002916 -0.007178 0.042466 0.019297
# 6 -0.009479 -0.010520 -0.001498 -0.013058 0.019297 0.047324
#
#
# Mechanical properties :
#
#
# Convention : Reuss Voigt Hill
#
# Bulk Modulus (GPa) = 27.12200 43.93482 35.52841
# Shear Modulus (GPa) = 27.01010 37.10725 32.05867
#
# Velocity S-wave (km/s) = 3.46550 4.06193 3.77551
# Velocity P-wave (km/s) = 5.29834 6.44470 5.89943
#
# Compressibility (1/GPa) = 0.03687044
#
# Stress axis : x y z
#
# Youngs Moduli (GPa) = 105.25300 72.83555 46.14576
#
# Poissons Ratio (x) = -0.12686 0.12260
# Poissons Ratio (y) = -0.18332 0.14307
# Poissons Ratio (z) = 0.27963 0.22581
#
# Static dielectric constant tensor:
#      x y z
#    x 1.871970 0.012110 0.041860 
#    y 0.012110 1.990660 -0.203900 
#    z 0.041860 -0.203900 1.418640 
# 
# From -- ./inp_files/339820.got.cif
#   From: 2010.05.17/outbox.cif.g08.bks.cpg/sg2_170_cif.got.tgz:339820.got - 2010.06.03 11:33:40.
