data_PCOD9051009
_publ_section_title
;
Structure prediction by ZEFSAII (Michael W. Deem and Ramdas Pophale) SiO2 
 PCOD9051009
Probable space group: P -1
;
_chemical_formula_sum "Si O2"
_cell_formula_units_Z 16
_cell_length_a 12.600849
_cell_length_b 8.403843
_cell_length_c 14.592398
_cell_angle_alpha 96.247631
_cell_angle_beta 56.299405
_cell_angle_gamma 51.141982
_cell_volume 709.658707
_symmetry_space_group_name_H-M "P -1"
_symmetry_group_IT_number 2
_symmetry_cell_setting 'triclinic'
loop_
_space_group_symop_operation_xyz
x,y,z
-x,-y,-z
loop_
_atom_site_type_symbol
_atom_site_label
_atom_site_fract_x
_atom_site_fract_y
_atom_site_fract_z
Si Si1 0.272953 0.162624 0.054095
Si Si2 0.065902 0.080517 0.750795
Si Si3 0.271664 0.842911 0.131346
Si Si4 0.255755 0.351116 0.725789
Si Si5 0.516311 0.738438 0.560658
Si Si6 0.945797 0.428688 0.663145
Si Si7 0.927964 0.358159 0.460308
Si Si8 0.184008 0.430514 0.954617
O O1 0.266609 0.285416 0.153700
O O2 0.998921 0.426004 0.175454
O O3 0.334914 0.922581 0.039758
O O4 0.359888 0.148481 0.916789
O O5 0.933573 0.054363 0.799786
O O6 0.066474 0.181637 0.661327
O O7 0.322303 0.808266 0.648193
O O8 0.925546 0.329407 0.908779
O O9 0.500000 0.500000 0.000000
O O10 0.162395 0.032403 0.288765
O O11 0.362102 0.352108 0.598747
O O12 0.276637 0.414029 0.817903
O O13 0.386478 0.045162 0.657688
O O14 0.705122 0.509106 0.532401
O O15 0.905982 0.387126 0.582014
O O16 0.071164 0.462721 0.573504
O O17 0.000000 0.500000 0.000000
#
# Coordination Sequence:
#
# PCOD9051009 Si02
#       8
#     2   2   2   2   2   2   2   2
#     4   9  17  40  65  91 126 164 212 270 304 376
#     4  11  22  40  65  93 131 169 213 260 325 387
#     4  11  25  46  58  83 138 186 211 252 320 386
#     4  10  17  34  67  99 130 154 198 280 331 361
#     4  11  18  35  67 102 126 154 204 283 327 365
#     4   9  17  39  66  96 122 158 218 265 313 373
#     4  10  21  39  67  96 129 163 213 269 320 380
#     4   9  17  37  63  96 126 158 212 262 313 382
#
# _framework density 22.546050000000001
#
# number of rings (size 3 to 8) (size 9 to 14) (size 15 to 20)
#    0.000    2.000    6.250    0.750    0.000    1.000 
#   11.250    5.625    0.000    0.000    0.000    0.000 
#    0.000    0.000    0.000    0.000    0.000    0.000 
#
# Total GULP energy -89290.134964 kJ/mol
# GULP energy per Si atom -5580.633435 kJ/mol
# Density = 2.249473 g / cm^3
# Si number density = 22.546050 Si / 1000 Ang^3
#
#
#
# Elastic Constant Matrix: (Units=GPa)
#
#
# Indices 1 2 3 4 5 6 
#
# 1 113.7386 39.9045 45.0892 -14.9157 5.1211 -11.1739
# 2 39.9045 87.0204 54.4823 -1.7114 27.9027 -26.3431
# 3 45.0892 54.4823 76.2453 -6.5741 24.1411 -16.4354
# 4 -14.9157 -1.7114 -6.5741 46.4895 -12.3973 11.1846
# 5 5.1211 27.9027 24.1411 -12.3973 33.7949 -10.0313
# 6 -11.1739 -26.3431 -16.4354 11.1846 -10.0313 34.0425
#
#
#
# Elastic Compliance Matrix: (Units=1/GPa)
#
#
# Indices 1 2 3 4 5 6 
#
# 1 0.013617 -0.005258 -0.007100 0.006121 0.008876 -0.002423
# 2 -0.005258 0.030148 -0.011240 -0.009818 -0.015241 0.014912
# 3 -0.007100 -0.011240 0.028600 -0.001507 -0.010580 0.000157
# 4 0.006121 -0.009818 -0.001507 0.029876 0.015809 -0.011473
# 5 0.008876 -0.015241 -0.010580 0.015809 0.053140 -0.003524
# 6 -0.002423 0.014912 0.000157 -0.011473 -0.003524 0.042926
#
#
# Mechanical properties :
#
#
# Convention : Reuss Voigt Hill
#
# Bulk Modulus (GPa) = 39.73197 61.77294 50.75246
# Shear Modulus (GPa) = 19.69353 32.03393 25.86373
#
# Velocity S-wave (km/s) = 2.95868 3.77347 3.39064
# Velocity P-wave (km/s) = 5.41595 6.81494 6.15532
#
# Compressibility (1/GPa) = 0.02516865
#
# Stress axis : x y z
#
# Youngs Moduli (GPa) = 73.44015 33.17011 34.96539
#
# Poissons Ratio (x) = 0.17440 0.24826
# Poissons Ratio (y) = 0.38613 0.39300
# Poissons Ratio (z) = 0.52144 0.37282
#
# Static dielectric constant tensor:
#      x y z
#    x 1.881220 -0.014220 -0.030320 
#    y -0.014220 1.862980 0.019090 
#    z -0.030320 0.019090 1.982350 
# 
# From -- ./inp_files/515920.got.cif
#   From: 2010.05.17/outbox.cif.g08.bks.cpg/sg2_258_cif.got.tgz:515920.got - 2010.06.03 11:33:40.
