data_PCOD9051521
_publ_section_title
;
Structure prediction by ZEFSAII (Michael W. Deem and Ramdas Pophale) SiO2 
 PCOD9051521
Probable space group: P -1
;
_chemical_formula_sum "Si O2"
_cell_formula_units_Z 13
_cell_length_a 18.336271
_cell_length_b 15.281824
_cell_length_c 13.487319
_cell_angle_alpha 27.968086
_cell_angle_beta 151.587129
_cell_angle_gamma 161.071941
_cell_volume 550.260873
_symmetry_space_group_name_H-M "P -1"
_symmetry_group_IT_number 2
_symmetry_cell_setting 'triclinic'
loop_
_space_group_symop_operation_xyz
x,y,z
-x,-y,-z
loop_
_atom_site_type_symbol
_atom_site_label
_atom_site_fract_x
_atom_site_fract_y
_atom_site_fract_z
Si Si1 0.391604 0.657881 0.953984
Si Si2 0.505851 0.095053 0.521362
Si Si3 0.910849 0.093678 0.858324
Si Si4 0.000000 0.500000 0.000000
Si Si5 0.592976 0.291257 0.843923
Si Si6 0.731176 0.697404 0.220922
Si Si7 0.091318 0.967756 0.545561
O O1 0.127533 0.407483 0.847700
O O2 0.533594 0.963175 0.770067
O O3 0.392406 0.673137 0.056842
O O4 0.520456 0.588072 0.143502
O O5 0.674661 0.430520 0.393403
O O6 0.500000 0.000000 0.500000
O O7 0.243321 0.932516 0.376258
O O8 0.756167 0.857666 0.996852
O O9 0.000000 0.000000 0.000000
O O10 0.154894 0.491815 0.123180
O O11 0.978570 0.313750 0.242656
O O12 0.374103 0.220466 0.619617
O O13 0.500000 0.000000 0.000000
O O14 0.964318 0.923813 0.339442
O O15 0.000000 0.000000 0.500000
#
# Coordination Sequence:
#
# PCOD9051521 Si02
#       7
#     2   2   2   1   2   2   2
#     4  12  26  48  78 110 145 202 250 306 383 445
#     4  12  26  48  79 105 151 198 249 314 378 442
#     4  12  26  47  74 109 151 190 253 316 372 443
#     4  10  26  46  70 100 156 186 246 302 374 434
#     4  10  25  46  73 109 150 190 248 309 366 452
#     4  12  27  47  75 113 148 197 250 309 376 451
#     4  11  25  44  75 107 147 195 248 305 371 449
#
# _framework density 23.625159
#
# number of rings (size 3 to 8) (size 9 to 14) (size 15 to 20)
#    0.000    0.615    4.615    1.846    6.462    6.769 
#    0.000    0.000    0.000    0.000    0.000    0.000 
#    0.000    0.000    0.000    0.000    0.000    0.000 
#
# Total GULP energy -72412.639404 kJ/mol
# GULP energy per Si atom -5570.203031 kJ/mol
# Density = 2.357139 g / cm^3
# Si number density = 23.625159 Si / 1000 Ang^3
#
#
#
# Elastic Constant Matrix: (Units=GPa)
#
#
# Indices 1 2 3 4 5 6 
#
# 1 149.2460 28.4745 11.2867 10.6891 9.8421 8.7074
# 2 28.4745 60.6545 39.7284 -12.1463 3.8789 -23.2003
# 3 11.2867 39.7284 80.0207 -0.9453 5.2772 -2.7149
# 4 10.6891 -12.1463 -0.9453 51.6165 3.8883 6.1553
# 5 9.8421 3.8789 5.2772 3.8883 40.5091 0.5054
# 6 8.7074 -23.2003 -2.7149 6.1553 0.5054 31.1365
#
#
#
# Elastic Compliance Matrix: (Units=1/GPa)
#
#
# Indices 1 2 3 4 5 6 
#
# 1 0.009577 -0.011850 0.004223 -0.003350 -0.001290 -0.010456
# 2 -0.011850 0.055749 -0.024453 0.010331 -0.000773 0.040692
# 3 0.004223 -0.024453 0.023508 -0.004143 -0.001143 -0.016514
# 4 -0.003350 0.010331 -0.004143 0.022089 -0.001805 0.003936
# 5 -0.001290 -0.000773 -0.001143 -0.001805 0.025400 -0.000370
# 6 -0.010456 0.040692 -0.016514 0.003936 -0.000370 0.063149
#
#
# Mechanical properties :
#
#
# Convention : Reuss Voigt Hill
#
# Bulk Modulus (GPa) = 40.52881 49.87783 45.20332
# Shear Modulus (GPa) = 18.39206 38.68119 28.53663
#
# Velocity S-wave (km/s) = 2.79318 4.05073 3.47924
# Velocity P-wave (km/s) = 5.25306 6.56018 5.94267
#
# Compressibility (1/GPa) = 0.02467381
#
# Stress axis : x y z
#
# Youngs Moduli (GPa) = 104.41786 17.93747 42.53924
#
# Poissons Ratio (x) = 0.21256 -0.17965
# Poissons Ratio (y) = 1.23736 1.04022
# Poissons Ratio (z) = -0.44098 0.43863
#
# Static dielectric constant tensor:
#      x y z
#    x 1.867620 0.101790 -0.071080 
#    y 0.101790 2.012920 0.024010 
#    z -0.071080 0.024010 1.564480 
# 
# From -- ./inp_files/115929.got.cif
#   From: 2010.05.17/outbox.cif.g08.bks.cpg/sg2_58_cif.got.tgz:115929.got - 2010.06.03 11:33:40.
