data_PCOD9051618
_publ_section_title
;
Structure prediction by ZEFSAII (Michael W. Deem and Ramdas Pophale) SiO2 
 PCOD9051618
Probable space group: P -1
;
_chemical_formula_sum "Si O2"
_cell_formula_units_Z 14
_cell_length_a 14.814944
_cell_length_b 7.074168
_cell_length_c 7.370374
_cell_angle_alpha 86.024915
_cell_angle_beta 48.308000
_cell_angle_gamma 95.031462
_cell_volume 566.058133
_symmetry_space_group_name_H-M "P -1"
_symmetry_group_IT_number 2
_symmetry_cell_setting 'triclinic'
loop_
_space_group_symop_operation_xyz
x,y,z
-x,-y,-z
loop_
_atom_site_type_symbol
_atom_site_label
_atom_site_fract_x
_atom_site_fract_y
_atom_site_fract_z
Si Si1 0.128277 0.094313 0.531443
Si Si2 0.558841 0.216730 0.865314
Si Si3 0.956317 0.377083 0.886651
Si Si4 0.564484 0.473692 0.138032
Si Si5 0.720957 0.091767 0.365339
Si Si6 0.100311 0.249166 0.182434
Si Si7 0.665318 0.715235 0.327703
O O1 0.164866 0.167490 0.274271
O O2 0.057892 0.258473 0.690913
O O3 0.229877 0.037551 0.533374
O O4 0.026081 0.899570 0.665477
O O5 0.452880 0.338556 0.961368
O O6 0.640138 0.218147 0.576533
O O7 0.625240 0.327799 0.944269
O O8 0.500000 0.000000 0.000000
O O9 0.925932 0.536278 0.776092
O O10 0.834561 0.224740 0.108878
O O11 0.000000 0.500000 0.000000
O O12 0.630031 0.558851 0.226319
O O13 0.427022 0.369906 0.384742
O O14 0.647063 0.938542 0.333215
O O15 0.187372 0.253481 0.890029
#
# Coordination Sequence:
#
# PCOD9051618 Si02
#       7
#     2   2   2   2   2   2   2
#     4  11  25  44  67 101 142 176 230 286 337 412
#     4  11  24  46  71 100 136 178 229 285 346 407
#     4  12  23  43  69  98 135 184 230 277 337 410
#     4  10  25  47  69 101 136 177 231 283 340 417
#     4  12  24  44  75 102 138 185 228 286 349 404
#     4  11  24  44  67 101 140 181 227 282 343 408
#     4  11  23  45  71  99 138 179 225 287 341 403
#
# _framework density 24.732443
#
# number of rings (size 3 to 8) (size 9 to 14) (size 15 to 20)
#    0.000    0.857    4.286    2.571    2.000    1.714 
#    7.714    0.000    0.000    0.000    0.000    0.000 
#    0.000    0.000    0.000    0.000    0.000    0.000 
#
# Total GULP energy -78273.763040 kJ/mol
# GULP energy per Si atom -5590.983074 kJ/mol
# Density = 2.467615 g / cm^3
# Si number density = 24.732443 Si / 1000 Ang^3
#
#
#
# Elastic Constant Matrix: (Units=GPa)
#
#
# Indices 1 2 3 4 5 6 
#
# 1 43.9094 24.0394 7.8128 -8.3160 6.7114 3.9310
# 2 24.0394 155.0736 24.1220 2.4161 2.1362 11.7503
# 3 7.8128 24.1220 86.9056 7.1962 2.1076 17.2680
# 4 -8.3160 2.4161 7.1962 53.7936 6.3564 9.4551
# 5 6.7114 2.1362 2.1076 6.3564 23.8182 5.0450
# 6 3.9310 11.7503 17.2680 9.4551 5.0450 34.9864
#
#
#
# Elastic Compliance Matrix: (Units=1/GPa)
#
#
# Indices 1 2 3 4 5 6 
#
# 1 0.027754 -0.003949 -0.001390 0.005930 -0.008615 -0.001466
# 2 -0.003949 0.007374 -0.001402 -0.000644 0.001026 -0.001315
# 3 -0.001390 -0.001402 0.013226 -0.001009 0.000834 -0.005748
# 4 0.005930 -0.000644 -0.001009 0.021244 -0.006176 -0.004802
# 5 -0.008615 0.001026 0.000834 -0.006176 0.046930 -0.004886
# 6 -0.001466 -0.001315 -0.005748 -0.004802 -0.004886 0.034029
#
#
# Mechanical properties :
#
#
# Convention : Reuss Voigt Hill
#
# Bulk Modulus (GPa) = 28.67489 44.20408 36.43949
# Shear Modulus (GPa) = 28.46348 37.84727 33.15537
#
# Velocity S-wave (km/s) = 3.39611 3.91611 3.66534
# Velocity P-wave (km/s) = 5.19589 6.19351 5.71650
#
# Compressibility (1/GPa) = 0.03487371
#
# Stress axis : x y z
#
# Youngs Moduli (GPa) = 36.03022 135.60529 75.60616
#
# Poissons Ratio (x) = 0.53549 0.10507
# Poissons Ratio (y) = 0.14228 0.10601
# Poissons Ratio (z) = 0.05007 0.19014
#
# Static dielectric constant tensor:
#      x y z
#    x 2.106650 0.022750 0.044030 
#    y 0.022750 1.976800 0.043610 
#    z 0.044030 0.043610 1.963840 
# 
# From -- ./inp_files/52331.got.cif
#   From: 2010.05.17/outbox.cif.g08.bks.cpg/sg2_27_cif.got.tgz:52331.got - 2010.06.03 11:33:40.
