data_PCOD9051057
_publ_section_title
;
Structure prediction by ZEFSAII (Michael W. Deem and Ramdas Pophale) SiO2 
 PCOD9051057
Probable space group: P -1
;
_chemical_formula_sum "Si O2"
_cell_formula_units_Z 14
_cell_length_a 10.041773
_cell_length_b 13.383930
_cell_length_c 8.422271
_cell_angle_alpha 116.066332
_cell_angle_beta 99.579887
_cell_angle_gamma 32.897912
_cell_volume 502.444414
_symmetry_space_group_name_H-M "P -1"
_symmetry_group_IT_number 2
_symmetry_cell_setting 'triclinic'
loop_
_space_group_symop_operation_xyz
x,y,z
-x,-y,-z
loop_
_atom_site_type_symbol
_atom_site_label
_atom_site_fract_x
_atom_site_fract_y
_atom_site_fract_z
Si Si1 0.019020 0.379639 0.245591
Si Si2 0.864713 0.044540 0.232398
Si Si3 0.731614 0.764031 0.114123
Si Si4 0.461495 0.163348 0.417781
Si Si5 0.313141 0.555533 0.871927
Si Si6 0.455753 0.331103 0.070692
Si Si7 0.730987 0.348039 0.571569
O O1 0.240394 0.283126 0.325798
O O2 0.750124 0.647466 0.357425
O O3 0.861089 0.380430 0.258525
O O4 0.180098 0.228357 0.017188
O O5 0.658392 0.119416 0.357505
O O6 0.709597 0.175975 0.126308
O O7 0.939432 0.107768 0.379851
O O8 0.118135 0.789157 0.062043
O O9 0.626528 0.934424 0.325553
O O10 0.529713 0.811868 0.051543
O O11 0.000000 0.500000 0.000000
O O12 0.395364 0.420894 0.945267
O O13 0.580681 0.406828 0.737175
O O14 0.224006 0.556207 0.295784
O O15 0.500000 0.500000 0.500000
#
# Coordination Sequence:
#
# PCOD9051057 Si02
#       7
#     2   2   2   2   2   2   2
#     4  11  22  37  66  94 126 171 216 264 327 387
#     4  11  22  43  70  92 134 172 219 269 325 391
#     4  12  22  40  62  95 135 166 211 269 330 387
#     4  11  22  38  65  97 126 177 216 266 328 388
#     4  12  23  44  69  96 130 174 218 271 331 381
#     4  11  24  42  65  98 134 168 219 272 317 393
#     4  10  25  45  68  94 131 173 222 270 320 394
#
# _framework density 27.863779999999998
#
# number of rings (size 3 to 8) (size 9 to 14) (size 15 to 20)
#    0.000    0.857    5.714    1.714    0.000    3.429 
#    0.000    4.286    0.000    0.000    0.000    0.000 
#    0.000    0.000    0.000    0.000    0.000    0.000 
#
# Total GULP energy -78130.171189 kJ/mol
# GULP energy per Si atom -5580.726514 kJ/mol
# Density = 2.780036 g / cm^3
# Si number density = 27.863780 Si / 1000 Ang^3
#
#
#
# Elastic Constant Matrix: (Units=GPa)
#
#
# Indices 1 2 3 4 5 6 
#
# 1 84.8017 14.2746 15.9149 0.8220 11.0789 2.6330
# 2 14.2746 103.9938 32.0275 6.9794 1.7672 15.7772
# 3 15.9149 32.0275 141.8780 20.8522 12.5407 12.9539
# 4 0.8220 6.9794 20.8522 45.5565 8.0178 7.3182
# 5 11.0789 1.7672 12.5407 8.0178 45.1210 -4.2522
# 6 2.6330 15.7772 12.9539 7.3182 -4.2522 38.0183
#
#
#
# Elastic Compliance Matrix: (Units=1/GPa)
#
#
# Indices 1 2 3 4 5 6 
#
# 1 0.012600 -0.001380 -0.000940 0.001026 -0.003009 -0.000514
# 2 -0.001380 0.010990 -0.001970 -0.000179 0.000135 -0.003744
# 3 -0.000940 -0.001970 0.008319 -0.002951 -0.001627 -0.001566
# 4 0.001026 -0.000179 -0.002951 0.024731 -0.004217 -0.004223
# 5 -0.003009 0.000135 -0.001627 -0.004217 0.024499 0.004259
# 6 -0.000514 -0.003744 -0.001566 -0.004223 0.004259 0.029715
#
#
# Mechanical properties :
#
#
# Convention : Reuss Voigt Hill
#
# Bulk Modulus (GPa) = 42.86343 50.56751 46.71547
# Shear Modulus (GPa) = 39.30504 43.63627 41.47066
#
# Velocity S-wave (km/s) = 3.75989 3.96164 3.86208
# Velocity P-wave (km/s) = 5.85368 6.25409 6.05720
#
# Compressibility (1/GPa) = 0.02332991
#
# Stress axis : x y z
#
# Youngs Moduli (GPa) = 79.36493 90.99348 120.20783
#
# Poissons Ratio (x) = 0.12556 0.11297
# Poissons Ratio (y) = 0.10951 0.23678
# Poissons Ratio (z) = 0.07459 0.17923
#
# Static dielectric constant tensor:
#      x y z
#    x 2.395310 -0.037580 0.059210 
#    y -0.037580 2.323860 0.022690 
#    z 0.059210 0.022690 2.167150 
# 
# From -- ./inp_files/278262.got.cif
#   From: 2010.05.17/outbox.cif.g08.bks.cpg/sg2_140_cif.got.tgz:278262.got - 2010.06.03 11:33:40.
