data_PCOD9051331
_publ_section_title
;
Structure prediction by ZEFSAII (Michael W. Deem and Ramdas Pophale) SiO2 
 PCOD9051331
Probable space group: P -1
;
_chemical_formula_sum "Si O2"
_cell_formula_units_Z 16
_cell_length_a 8.223026
_cell_length_b 10.037508
_cell_length_c 17.652409
_cell_angle_alpha 81.992799
_cell_angle_beta 149.447808
_cell_angle_gamma 96.750971
_cell_volume 733.400974
_symmetry_space_group_name_H-M "P -1"
_symmetry_group_IT_number 2
_symmetry_cell_setting 'triclinic'
loop_
_space_group_symop_operation_xyz
x,y,z
-x,-y,-z
loop_
_atom_site_type_symbol
_atom_site_label
_atom_site_fract_x
_atom_site_fract_y
_atom_site_fract_z
Si Si1 0.255784 0.737306 0.775262
Si Si2 0.554036 0.638286 0.464461
Si Si3 0.062543 0.777973 0.349719
Si Si4 0.888797 0.135530 0.904666
Si Si5 0.795427 0.977374 0.345048
Si Si6 0.614378 0.848315 0.038146
Si Si7 0.779587 0.628394 0.899274
Si Si8 0.321622 0.556025 0.588693
O O1 0.512885 0.629897 0.858010
O O2 0.911804 0.684333 0.619850
O O3 0.312229 0.877282 0.741635
O O4 0.323528 0.771841 0.886728
O O5 0.500000 0.500000 0.500000
O O6 0.335058 0.759831 0.396342
O O7 0.508019 0.577636 0.367250
O O8 0.175666 0.661426 0.461358
O O9 0.008706 0.907842 0.370356
O O10 0.742305 0.774662 0.170554
O O11 0.506268 0.116538 0.747112
O O12 0.099531 0.149272 0.910866
O O13 0.990792 0.249879 0.995693
O O14 0.000000 0.000000 0.000000
O O15 0.000000 0.000000 0.500000
O O16 0.500000 0.000000 0.000000
O O17 0.568060 0.629588 0.737694
O O18 0.000000 0.500000 0.000000
O O19 0.000000 0.500000 0.500000
#
# Coordination Sequence:
#
# PCOD9051331 Si02
#       8
#     2   2   2   2   2   2   2   2
#     4  11  23  46  68 103 146 186 245 305 361 436
#     4  10  25  46  67 102 142 190 241 298 369 437
#     4  11  26  45  69 105 143 191 238 302 384 420
#     4  11  24  46  72 104 146 188 249 300 361 443
#     4  12  26  43  73 109 137 190 249 305 365 437
#     4  11  23  46  69 104 153 186 234 305 371 442
#     4  11  25  42  73 107 140 191 242 305 368 427
#     4  11  24  47  73 100 144 188 253 303 356 447
#
# _framework density 21.81617
#
# number of rings (size 3 to 8) (size 9 to 14) (size 15 to 20)
#    0.000    1.000    5.000    0.750    7.000    1.500 
#    6.750    2.500    0.000    0.000    0.000    0.000 
#    0.000    0.000    0.000    0.000    0.000    0.000 
#
# Total GULP energy -89273.110936 kJ/mol
# GULP energy per Si atom -5579.569433 kJ/mol
# Density = 2.176652 g / cm^3
# Si number density = 21.816170 Si / 1000 Ang^3
#
#
#
# Elastic Constant Matrix: (Units=GPa)
#
#
# Indices 1 2 3 4 5 6 
#
# 1 62.0939 42.7477 27.9227 11.6745 0.6126 -28.2380
# 2 42.7477 117.8603 60.3139 13.5101 2.5119 -26.7822
# 3 27.9227 60.3139 165.3649 25.7707 -21.1340 -5.9014
# 4 11.6745 13.5101 25.7707 50.7206 0.2918 -0.6456
# 5 0.6126 2.5119 -21.1340 0.2918 46.8999 -1.0175
# 6 -28.2380 -26.7822 -5.9014 -0.6456 -1.0175 49.4067
#
#
#
# Elastic Compliance Matrix: (Units=1/GPa)
#
#
# Indices 1 2 3 4 5 6 
#
# 1 0.026965 -0.005873 -0.001451 -0.003750 -0.000408 0.011998
# 2 -0.005873 0.013580 -0.004133 -0.000108 -0.002437 0.003459
# 3 -0.001451 -0.004133 0.008735 -0.003053 0.004153 -0.001980
# 4 -0.003750 -0.000108 -0.003053 0.022138 -0.001509 -0.002308
# 5 -0.000408 -0.002437 0.004153 -0.001509 0.023326 -0.000597
# 6 0.011998 0.003459 -0.001980 -0.002308 -0.000597 0.028694
#
#
# Mechanical properties :
#
#
# Convention : Reuss Voigt Hill
#
# Bulk Modulus (GPa) = 37.92481 67.47639 52.70060
# Shear Modulus (GPa) = 32.22901 43.69444 37.96173
#
# Velocity S-wave (km/s) = 3.84774 4.48017 4.17594
# Velocity P-wave (km/s) = 6.09603 7.59995 6.88915
#
# Compressibility (1/GPa) = 0.02636796
#
# Stress axis : x y z
#
# Youngs Moduli (GPa) = 37.08460 73.63782 114.47857
#
# Poissons Ratio (x) = 0.43248 0.16607
# Poissons Ratio (y) = 0.21780 0.47309
# Poissons Ratio (z) = 0.05380 0.30432
#
# Static dielectric constant tensor:
#      x y z
#    x 1.886790 -0.021030 -0.014680 
#    y -0.021030 1.798540 -0.001220 
#    z -0.014680 -0.001220 1.801620 
# 
# From -- ./inp_files/557287.got.cif
#   From: 2010.05.17/outbox.cif.g08.bks.cpg/sg2_279_cif.got.tgz:557287.got - 2010.06.03 11:33:40.
