data_PCOD9051876
_publ_section_title
;
Structure prediction by ZEFSAII (Michael W. Deem and Ramdas Pophale) SiO2 
 PCOD9051876
Probable space group: P -1
;
_chemical_formula_sum "Si O2"
_cell_formula_units_Z 14
_cell_length_a 4.988744
_cell_length_b 14.675154
_cell_length_c 8.447297
_cell_angle_alpha 101.668276
_cell_angle_beta 83.724454
_cell_angle_gamma 68.407674
_cell_volume 551.567863
_symmetry_space_group_name_H-M "P -1"
_symmetry_group_IT_number 2
_symmetry_cell_setting 'triclinic'
loop_
_space_group_symop_operation_xyz
x,y,z
-x,-y,-z
loop_
_atom_site_type_symbol
_atom_site_label
_atom_site_fract_x
_atom_site_fract_y
_atom_site_fract_z
Si Si1 0.242244 0.093751 0.465752
Si Si2 0.617632 0.553107 0.143121
Si Si3 0.228345 0.273069 0.345945
Si Si4 0.916903 0.659441 0.951320
Si Si5 0.421288 0.614176 0.495893
Si Si6 0.348535 0.957020 0.130276
Si Si7 0.988463 0.832644 0.165839
O O1 0.361337 0.171212 0.403317
O O2 0.004100 0.149722 0.638278
O O3 0.500000 0.000000 0.500000
O O4 0.160863 0.044181 0.298993
O O5 0.386419 0.612356 0.310106
O O6 0.876213 0.452930 0.167201
O O7 0.500000 0.500000 0.000000
O O8 0.744082 0.629100 0.087799
O O9 0.284127 0.275809 0.156620
O O10 0.318720 0.354407 0.456303
O O11 0.877730 0.306733 0.383978
O O12 0.088082 0.721267 0.043743
O O13 0.500000 0.500000 0.500000
O O14 0.638612 0.877695 0.170681
O O15 0.140857 0.897657 0.088125
O O16 0.500000 0.000000 0.000000
#
# Coordination Sequence:
#
# PCOD9051876 Si02
#       7
#     2   2   2   2   2   2   2
#     4  10  25  48  73 106 143 192 247 304 363 434
#     4  11  26  44  72 102 153 192 239 306 360 434
#     4  12  27  46  75 105 146 195 245 299 367 434
#     4  11  26  44  69 109 143 195 245 297 366 437
#     4  12  26  47  72 107 148 192 243 300 363 438
#     4  11  24  45  71 101 138 179 234 304 359 421
#     4  11  25  43  70  99 140 182 237 291 361 431
#
# _framework density 25.382189
#
# number of rings (size 3 to 8) (size 9 to 14) (size 15 to 20)
#    0.000    0.857    1.429    3.857    8.000    5.714 
#    0.000    0.000    0.000    0.000    0.000    0.000 
#    0.000    0.000    0.000    0.000    0.000    0.000 
#
# Total GULP energy -78325.877374 kJ/mol
# GULP energy per Si atom -5594.705527 kJ/mol
# Density = 2.532442 g / cm^3
# Si number density = 25.382189 Si / 1000 Ang^3
#
#
#
# Elastic Constant Matrix: (Units=GPa)
#
#
# Indices 1 2 3 4 5 6 
#
# 1 59.0544 25.1707 4.1963 -3.1594 -1.2044 16.8414
# 2 25.1707 187.6234 57.9040 -14.7053 2.9427 34.0919
# 3 4.1963 57.9040 140.6744 -7.5289 -0.5745 18.1964
# 4 -3.1594 -14.7053 -7.5289 36.7139 1.0426 4.2339
# 5 -1.2044 2.9427 -0.5745 1.0426 31.6112 7.8013
# 6 16.8414 34.0919 18.1964 4.2339 7.8013 52.8937
#
#
#
# Elastic Compliance Matrix: (Units=1/GPa)
#
#
# Indices 1 2 3 4 5 6 
#
# 1 0.019429 -0.001741 0.001005 0.001795 0.002316 -0.005895
# 2 -0.001741 0.007100 -0.002285 0.002623 -0.000005 -0.003445
# 3 0.001005 -0.002285 0.008329 0.001077 0.000841 -0.001923
# 4 0.001795 0.002623 0.001077 0.029236 0.000111 -0.004989
# 5 0.002316 -0.000005 0.000841 0.000111 0.033198 -0.005929
# 6 -0.005895 -0.003445 -0.001923 -0.004989 -0.005929 0.024939
#
#
# Mechanical properties :
#
#
# Convention : Reuss Voigt Hill
#
# Bulk Modulus (GPa) = 34.70247 62.43270 48.56758
# Shear Modulus (GPa) = 36.26422 44.24916 40.25669
#
# Velocity S-wave (km/s) = 3.78395 4.17983 3.98681
# Velocity P-wave (km/s) = 5.72649 6.92424 6.35365
#
# Compressibility (1/GPa) = 0.02881639
#
# Stress axis : x y z
#
# Youngs Moduli (GPa) = 51.47033 140.84207 120.06435
#
# Poissons Ratio (x) = 0.24524 -0.12069
# Poissons Ratio (y) = 0.08962 0.27430
# Poissons Ratio (z) = -0.05174 0.32177
#
# Static dielectric constant tensor:
#      x y z
#    x 1.997470 -0.071270 -0.004850 
#    y -0.071270 2.041370 -0.011040 
#    z -0.004850 -0.011040 2.040080 
# 
# From -- ./inp_files/131733.got.cif
#   From: 2010.05.17/outbox.cif.g08.bks.cpg/sg2_66_cif.got.tgz:131733.got - 2010.06.03 11:33:40.
