data_PCOD9051531
_publ_section_title
;
Structure prediction by ZEFSAII (Michael W. Deem and Ramdas Pophale) SiO2 
 PCOD9051531
Probable space group: P -1
;
_chemical_formula_sum "Si O2"
_cell_formula_units_Z 16
_cell_length_a 17.130976
_cell_length_b 14.806843
_cell_length_c 6.228390
_cell_angle_alpha 83.643294
_cell_angle_beta 83.448193
_cell_angle_gamma 150.882018
_cell_volume 687.628980
_symmetry_space_group_name_H-M "P -1"
_symmetry_group_IT_number 2
_symmetry_cell_setting 'triclinic'
loop_
_space_group_symop_operation_xyz
x,y,z
-x,-y,-z
loop_
_atom_site_type_symbol
_atom_site_label
_atom_site_fract_x
_atom_site_fract_y
_atom_site_fract_z
Si Si1 0.767945 0.859557 0.484042
Si Si2 0.468558 0.851567 0.123234
Si Si3 0.360256 0.820109 0.768974
Si Si4 0.932647 0.143988 0.697213
Si Si5 0.412982 0.220886 0.782348
Si Si6 0.901894 0.486195 0.433635
Si Si7 0.836723 0.768173 0.190595
Si Si8 0.338386 0.398745 0.132574
O O1 0.625922 0.780376 0.440856
O O2 0.737545 0.745881 0.351700
O O3 0.796998 0.816677 0.679706
O O4 0.900636 0.074123 0.482590
O O5 0.536194 0.830363 0.213418
O O6 0.276786 0.676854 0.331090
O O7 0.621387 0.082849 0.080631
O O8 0.436685 0.815245 0.885623
O O9 0.176164 0.613463 0.756466
O O10 0.500000 0.000000 0.500000
O O11 0.979789 0.299397 0.652291
O O12 0.090130 0.244026 0.711388
O O13 0.759035 0.945860 0.959019
O O14 0.580708 0.446726 0.770389
O O15 0.000000 0.500000 0.500000
O O16 0.733363 0.630042 0.048955
O O17 0.000000 0.000000 0.000000
O O18 0.500000 0.500000 0.000000
#
# Coordination Sequence:
#
# PCOD9051531 Si02
#       8
#     2   2   2   2   2   2   2   2
#     4  12  24  43  71  95 144 187 228 280 346 402
#     4  10  25  46  74 102 131 186 229 281 352 416
#     4   9  22  48  73  97 135 176 226 288 347 411
#     4  12  28  44  68 104 143 186 235 288 348 414
#     4  12  27  43  70 104 138 183 239 281 338 424
#     4  11  28  47  71 105 141 180 231 296 349 413
#     4  12  24  45  66 100 142 186 231 287 342 410
#     4  12  24  44  66  99 141 185 234 283 339 410
#
# _framework density 23.268362
#
# number of rings (size 3 to 8) (size 9 to 14) (size 15 to 20)
#    0.000    0.750    5.000    0.750   10.500    2.500 
#    0.000    0.000    0.000    0.000    0.000    0.000 
#    0.000    0.000    0.000    0.000    0.000    0.000 
#
# Total GULP energy -89095.114435 kJ/mol
# GULP energy per Si atom -5568.444652 kJ/mol
# Density = 2.321540 g / cm^3
# Si number density = 23.268362 Si / 1000 Ang^3
#
#
#
# Elastic Constant Matrix: (Units=GPa)
#
#
# Indices 1 2 3 4 5 6 
#
# 1 154.5950 52.0988 29.4176 14.1707 36.6322 4.0093
# 2 52.0988 158.1934 33.1372 32.6479 29.4874 -9.5161
# 3 29.4176 33.1372 63.7118 10.3220 21.4422 12.2868
# 4 14.1707 32.6479 10.3220 50.8416 18.4806 16.4863
# 5 36.6322 29.4874 21.4422 18.4806 35.5207 1.3227
# 6 4.0093 -9.5161 12.2868 16.4863 1.3227 38.7879
#
#
#
# Elastic Compliance Matrix: (Units=1/GPa)
#
#
# Indices 1 2 3 4 5 6 
#
# 1 0.009109 -0.002000 -0.000149 0.002783 -0.009007 -0.002261
# 2 -0.002000 0.009784 -0.004373 -0.007122 0.000025 0.007019
# 3 -0.000149 -0.004373 0.023592 0.006438 -0.013404 -0.010810
# 4 0.002783 -0.007122 0.006438 0.034678 -0.018208 -0.018193
# 5 -0.009007 0.000025 -0.013404 -0.018208 0.054574 0.011061
# 6 -0.002261 0.007019 -0.010810 -0.018193 0.011061 0.038516
#
#
# Mechanical properties :
#
#
# Convention : Reuss Voigt Hill
#
# Bulk Modulus (GPa) = 33.96757 67.31195 50.63976
# Shear Modulus (GPa) = 25.89203 42.48648 34.18925
#
# Velocity S-wave (km/s) = 3.33942 4.27773 3.83736
# Velocity P-wave (km/s) = 5.43128 7.30684 6.43773
#
# Compressibility (1/GPa) = 0.02943985
#
# Stress axis : x y z
#
# Youngs Moduli (GPa) = 109.78502 102.21253 42.38744
#
# Poissons Ratio (x) = 0.20442 0.00632
# Poissons Ratio (y) = 0.21957 0.18536
# Poissons Ratio (z) = 0.01637 0.44698
#
# Static dielectric constant tensor:
#      x y z
#    x 1.925840 -0.077780 0.057560 
#    y -0.077780 1.992710 -0.186730 
#    z 0.057560 -0.186730 2.160600 
# 
# From -- ./inp_files/110802.got.cif
#   From: 2010.05.17/outbox.cif.g08.bks.cpg/sg2_56_cif.got.tgz:110802.got - 2010.06.03 11:33:40.
