data_PCOD9051721
_publ_section_title
;
Structure prediction by ZEFSAII (Michael W. Deem and Ramdas Pophale) SiO2 
 PCOD9051721
Probable space group: P -1
;
_chemical_formula_sum "Si O2"
_cell_formula_units_Z 12
_cell_length_a 8.815396
_cell_length_b 7.913466
_cell_length_c 19.035150
_cell_angle_alpha 148.255225
_cell_angle_beta 136.747136
_cell_angle_gamma 49.305983
_cell_volume 476.766170
_symmetry_space_group_name_H-M "P -1"
_symmetry_group_IT_number 2
_symmetry_cell_setting 'triclinic'
loop_
_space_group_symop_operation_xyz
x,y,z
-x,-y,-z
loop_
_atom_site_type_symbol
_atom_site_label
_atom_site_fract_x
_atom_site_fract_y
_atom_site_fract_z
Si Si1 0.237776 0.316799 0.770775
Si Si2 0.970527 0.322340 0.057028
Si Si3 0.978185 0.127235 0.212545
Si Si4 0.488396 0.133782 0.387216
Si Si5 0.369112 0.705482 0.376221
Si Si6 0.812242 0.249732 0.349833
O O1 0.109120 0.565527 0.758799
O O2 0.243207 0.501164 0.912800
O O3 0.458498 0.161668 0.751663
O O4 0.146305 0.988614 0.654336
O O5 0.162050 0.561955 0.220362
O O6 0.003283 0.186451 0.942116
O O7 0.000000 0.000000 0.000000
O O8 0.831125 0.108040 0.226338
O O9 0.233679 0.135576 0.326167
O O10 0.500000 0.500000 0.500000
O O11 0.686479 0.135967 0.510834
O O12 0.563575 0.413221 0.335903
O O13 0.500000 0.000000 0.500000
O O14 0.000000 0.500000 0.500000
#
# Coordination Sequence:
#
# PCOD9051721 Si02
#       6
#     2   2   2   2   2   2
#     4  11  25  45  72 105 148 193 244 308 369 434
#     4  10  25  47  73 105 155 195 242 312 375 438
#     4  11  26  49  70 106 151 193 249 308 370 445
#     4  12  23  44  74 105 142 198 250 293 376 449
#     4  12  25  45  75 109 149 192 249 313 370 440
#     4  12  24  44  72 110 145 193 250 304 374 444
#
# _framework density 25.169571999999999
#
# number of rings (size 3 to 8) (size 9 to 14) (size 15 to 20)
#    0.000    0.667    3.333    4.000    0.000    6.667 
#    3.000    0.000    0.000    0.000    0.000    0.000 
#    0.000    0.000    0.000    0.000    0.000    0.000 
#
# Total GULP energy -66805.880367 kJ/mol
# GULP energy per Si atom -5567.156697 kJ/mol
# Density = 2.511228 g / cm^3
# Si number density = 25.169572 Si / 1000 Ang^3
#
#
#
# Elastic Constant Matrix: (Units=GPa)
#
#
# Indices 1 2 3 4 5 6 
#
# 1 134.7631 49.9994 33.0161 2.5222 -38.6657 -15.9764
# 2 49.9994 113.1645 17.0663 11.4533 5.0308 -2.8422
# 3 33.0161 17.0663 113.3490 -9.3341 -21.1286 0.4510
# 4 2.5222 11.4533 -9.3341 32.5814 4.4659 -3.3293
# 5 -38.6657 5.0308 -21.1286 4.4659 59.4208 10.5401
# 6 -15.9764 -2.8422 0.4510 -3.3293 10.5401 55.6408
#
#
#
# Elastic Compliance Matrix: (Units=1/GPa)
#
#
# Indices 1 2 3 4 5 6 
#
# 1 0.012163 -0.005438 -0.001336 -0.000274 0.007607 0.001768
# 2 -0.005438 0.012018 -0.001403 -0.003582 -0.004741 -0.000252
# 3 -0.001336 -0.001403 0.010200 0.003044 0.002805 -0.000887
# 4 -0.000274 -0.003582 0.003044 0.033277 -0.001652 0.002018
# 5 0.007607 -0.004741 0.002805 -0.001652 0.023778 -0.002684
# 6 0.001768 -0.000252 -0.000887 0.002018 -0.002684 0.019104
#
#
# Mechanical properties :
#
#
# Convention : Reuss Voigt Hill
#
# Bulk Modulus (GPa) = 55.47487 62.38224 58.92855
# Shear Modulus (GPa) = 37.62172 46.94158 42.28165
#
# Velocity S-wave (km/s) = 3.87037 4.32326 4.10307
# Velocity P-wave (km/s) = 6.48547 7.05404 6.77572
#
# Compressibility (1/GPa) = 0.01802618
#
# Stress axis : x y z
#
# Youngs Moduli (GPa) = 82.21899 83.20813 98.04276
#
# Poissons Ratio (x) = 0.45252 0.13094
# Poissons Ratio (y) = 0.44714 0.13757
# Poissons Ratio (z) = 0.10981 0.11675
#
# Static dielectric constant tensor:
#      x y z
#    x 1.963350 0.029830 -0.041270 
#    y 0.029830 2.091000 0.033890 
#    z -0.041270 0.033890 1.995380 
# 
# From -- ./inp_files/555811.got.cif
#   From: 2010.05.17/outbox.cif.g08.bks.cpg/sg2_278_cif.got.tgz:555811.got - 2010.06.03 11:33:40.
