data_PCOD9051084
_publ_section_title
;
Structure prediction by ZEFSAII (Michael W. Deem and Ramdas Pophale) SiO2 
 PCOD9051084
Probable space group: P -1
;
_chemical_formula_sum "Si O2"
_cell_formula_units_Z 16
_cell_length_a 18.806533
_cell_length_b 6.160685
_cell_length_c 9.791443
_cell_angle_alpha 44.525603
_cell_angle_beta 113.562396
_cell_angle_gamma 118.565957
_cell_volume 695.470891
_symmetry_space_group_name_H-M "P -1"
_symmetry_group_IT_number 2
_symmetry_cell_setting 'triclinic'
loop_
_space_group_symop_operation_xyz
x,y,z
-x,-y,-z
loop_
_atom_site_type_symbol
_atom_site_label
_atom_site_fract_x
_atom_site_fract_y
_atom_site_fract_z
Si Si1 0.064338 0.810364 0.265410
Si Si2 0.889643 0.885182 0.108288
Si Si3 0.730921 0.328653 0.336330
Si Si4 0.402512 0.091629 0.764035
Si Si5 0.330572 0.666100 0.402985
Si Si6 0.080807 0.120071 0.592680
Si Si7 0.184169 0.214938 0.374776
Si Si8 0.552862 0.866862 0.908626
O O1 0.080623 0.481419 0.474779
O O2 0.967962 0.754500 0.196292
O O3 0.105861 0.112060 0.262234
O O4 0.110777 0.897286 0.119142
O O5 0.803860 0.627823 0.197632
O O6 0.915814 0.081295 0.180562
O O7 0.695704 0.355873 0.448009
O O8 0.662136 0.217625 0.217327
O O9 0.768100 0.033500 0.518209
O O10 0.379016 0.399805 0.550908
O O11 0.490237 0.075093 0.791579
O O12 0.401270 0.103950 0.922942
O O13 0.251273 0.559264 0.290660
O O14 0.388747 0.994837 0.236694
O O15 0.152610 0.129714 0.542350
O O16 0.000000 0.000000 0.500000
O O17 0.500000 0.500000 0.000000
#
# Coordination Sequence:
#
# PCOD9051084 Si02
#       8
#     2   2   2   2   2   2   2   2
#     4  11  24  42  63  97 131 179 228 279 328 385
#     4  11  23  42  64  95 134 173 224 277 327 382
#     4  11  23  44  67  98 138 173 220 278 332 387
#     4  10  25  45  69 104 132 175 221 269 338 399
#     4  11  24  44  70 101 135 177 222 274 333 401
#     4  12  22  42  66  90 133 178 227 275 331 391
#     4  11  22  42  64  96 131 178 223 273 333 387
#     4  11  25  47  73 102 136 173 218 272 338 409
#
# _framework density 23.005997000000001
#
# number of rings (size 3 to 8) (size 9 to 14) (size 15 to 20)
#    0.000    1.000    3.750    2.250    1.750    6.500 
#    9.000    0.000    0.000    0.000    0.000    0.000 
#    0.000    0.000    0.000    0.000    0.000    0.000 
#
# Total GULP energy -89327.385554 kJ/mol
# GULP energy per Si atom -5582.961597 kJ/mol
# Density = 2.295363 g / cm^3
# Si number density = 23.005997 Si / 1000 Ang^3
#
#
#
# Elastic Constant Matrix: (Units=GPa)
#
#
# Indices 1 2 3 4 5 6 
#
# 1 80.8350 27.6414 25.9421 -12.0376 -19.8620 3.2493
# 2 27.6414 118.6870 50.7080 11.9021 -17.1703 30.8390
# 3 25.9421 50.7080 104.9256 5.1176 -40.2222 18.4153
# 4 -12.0376 11.9021 5.1176 29.8967 4.1483 5.7461
# 5 -19.8620 -17.1703 -40.2222 4.1483 44.6197 -2.2357
# 6 3.2493 30.8390 18.4153 5.7461 -2.2357 39.3225
#
#
#
# Elastic Compliance Matrix: (Units=1/GPa)
#
#
# Indices 1 2 3 4 5 6 
#
# 1 0.016059 -0.003714 -0.001237 0.007350 0.003987 0.001318
# 2 -0.003714 0.013475 -0.004038 -0.004683 -0.000058 -0.007689
# 3 -0.001237 -0.004038 0.018136 -0.003229 0.014347 -0.003937
# 4 0.007350 -0.004683 -0.003229 0.039846 -0.005223 -0.001542
# 5 0.003987 -0.000058 0.014347 -0.005223 0.037377 -0.004115
# 6 0.001318 -0.007689 -0.003937 -0.001542 -0.004115 0.033187
#
#
# Mechanical properties :
#
#
# Convention : Reuss Voigt Hill
#
# Bulk Modulus (GPa) = 33.67983 57.00340 45.34162
# Shear Modulus (GPa) = 26.88817 36.11152 31.49984
#
# Velocity S-wave (km/s) = 3.42240 3.96619 3.70429
# Velocity P-wave (km/s) = 5.50350 6.76798 6.16823
#
# Compressibility (1/GPa) = 0.02969136
#
# Stress axis : x y z
#
# Youngs Moduli (GPa) = 62.26990 74.21246 55.13830
#
# Poissons Ratio (x) = 0.27565 0.06820
# Poissons Ratio (y) = 0.23129 0.22266
# Poissons Ratio (z) = 0.07702 0.29968
#
# Static dielectric constant tensor:
#      x y z
#    x 1.908710 0.035640 0.032460 
#    y 0.035640 1.951920 0.050050 
#    z 0.032460 0.050050 1.851540 
# 
# From -- ./inp_files/323329.got.cif
#   From: 2010.05.17/outbox.cif.g08.bks.cpg/sg2_162_cif.got.tgz:323329.got - 2010.06.03 11:33:40.
