data_PCOD9051512
_publ_section_title
;
Structure prediction by ZEFSAII (Michael W. Deem and Ramdas Pophale) SiO2 
 PCOD9051512
Probable space group: P -1
;
_chemical_formula_sum "Si O2"
_cell_formula_units_Z 14
_cell_length_a 15.877665
_cell_length_b 12.828202
_cell_length_c 8.162071
_cell_angle_alpha 47.656001
_cell_angle_beta 56.836382
_cell_angle_gamma 27.094662
_cell_volume 552.768877
_symmetry_space_group_name_H-M "P -1"
_symmetry_group_IT_number 2
_symmetry_cell_setting 'triclinic'
loop_
_space_group_symop_operation_xyz
x,y,z
-x,-y,-z
loop_
_atom_site_type_symbol
_atom_site_label
_atom_site_fract_x
_atom_site_fract_y
_atom_site_fract_z
Si Si1 0.015333 0.368020 0.866261
Si Si2 0.570138 0.532738 0.514092
Si Si3 0.791102 0.497502 0.432552
Si Si4 0.495580 0.604776 0.049432
Si Si5 0.865434 0.273128 0.935716
Si Si6 0.367358 0.077254 0.688712
Si Si7 0.185509 0.147754 0.281266
O O1 0.144298 0.307785 0.667914
O O2 0.952541 0.298694 0.919542
O O3 0.840528 0.667112 0.804227
O O4 0.140514 0.202211 0.075924
O O5 0.500000 0.500000 0.500000
O O6 0.723912 0.468652 0.396552
O O7 0.648016 0.324301 0.776303
O O8 0.382090 0.841459 0.436608
O O9 0.769182 0.457460 0.680658
O O10 0.650845 0.797039 0.268826
O O11 0.006442 0.278410 0.407898
O O12 0.500000 0.500000 0.000000
O O13 0.715898 0.364459 0.109041
O O14 0.436018 0.836065 0.875510
O O15 0.000000 0.000000 0.000000
O O16 0.500000 0.000000 0.500000
#
# Coordination Sequence:
#
# PCOD9051512 Si02
#       7
#     2   2   2   2   2   2   2
#     4  10  25  46  73 104 144 192 237 300 359 425
#     4  12  27  45  73 104 145 190 236 300 359 428
#     4  11  26  46  71 108 140 191 242 293 365 426
#     4  12  24  43  66 104 142 178 233 297 355 419
#     4  12  25  41  70 103 141 188 235 297 360 418
#     4  11  22  44  72 100 142 180 238 298 348 434
#     4  10  25  50  71 105 149 190 243 291 360 441
#
# _framework density 25.327038999999999
#
# number of rings (size 3 to 8) (size 9 to 14) (size 15 to 20)
#    0.000    0.857    2.857    2.571    6.000    5.143 
#    0.000    2.857    0.000    0.000    0.000    0.000 
#    0.000    0.000    0.000    0.000    0.000    0.000 
#
# Total GULP energy -77998.354643 kJ/mol
# GULP energy per Si atom -5571.311046 kJ/mol
# Density = 2.526939 g / cm^3
# Si number density = 25.327039 Si / 1000 Ang^3
#
#
#
# Elastic Constant Matrix: (Units=GPa)
#
#
# Indices 1 2 3 4 5 6 
#
# 1 196.4233 36.3668 24.2722 -10.2253 -42.2415 23.9269
# 2 36.3668 109.0499 17.8997 -30.9716 -21.7574 7.1205
# 3 24.2722 17.8997 57.3302 -18.4344 -21.9207 9.1613
# 4 -10.2253 -30.9716 -18.4344 40.2537 8.7324 -16.8315
# 5 -42.2415 -21.7574 -21.9207 8.7324 40.0128 -2.6265
# 6 23.9269 7.1205 9.1613 -16.8315 -2.6265 45.6462
#
#
#
# Elastic Compliance Matrix: (Units=1/GPa)
#
#
# Indices 1 2 3 4 5 6 
#
# 1 0.007270 -0.001449 -0.000063 -0.002563 0.007142 -0.004106
# 2 -0.001449 0.013062 0.000988 0.010334 0.004027 0.002566
# 3 -0.000063 0.000988 0.024849 0.009064 0.012036 -0.001074
# 4 -0.002563 0.010334 0.009064 0.041969 -0.000403 0.013365
# 5 0.007142 0.004027 0.012036 -0.000403 0.041104 -0.004571
# 6 -0.004106 0.002566 -0.001074 0.013365 -0.004571 0.028540
#
#
# Mechanical properties :
#
#
# Convention : Reuss Voigt Hill
#
# Bulk Modulus (GPa) = 22.65853 57.76455 40.21154
# Shear Modulus (GPa) = 28.97672 44.13351 36.55512
#
# Velocity S-wave (km/s) = 3.38613 4.17891 3.80323
# Velocity P-wave (km/s) = 4.92480 6.79274 5.93275
#
# Compressibility (1/GPa) = 0.04413349
#
# Stress axis : x y z
#
# Youngs Moduli (GPa) = 137.55519 76.55777 40.24318
#
# Poissons Ratio (x) = 0.11093 0.00252
# Poissons Ratio (y) = 0.19931 -0.03975
# Poissons Ratio (z) = 0.00860 -0.07562
#
# Static dielectric constant tensor:
#      x y z
#    x 2.056130 0.008240 0.143980 
#    y 0.008240 1.998160 0.075700 
#    z 0.143980 0.075700 2.249510 
# 
# From -- ./inp_files/263670.got.cif
#   From: 2010.05.17/outbox.cif.g08.bks.cpg/sg2_132_cif.got.tgz:263670.got - 2010.06.03 11:33:40.
