data_PCOD9051188
_publ_section_title
;
Structure prediction by ZEFSAII (Michael W. Deem and Ramdas Pophale) SiO2 
 PCOD9051188
Probable space group: P -1
;
_chemical_formula_sum "Si O2"
_cell_formula_units_Z 16
_cell_length_a 16.340929
_cell_length_b 8.935630
_cell_length_c 12.326226
_cell_angle_alpha 142.461867
_cell_angle_beta 40.665277
_cell_angle_gamma 117.123767
_cell_volume 664.843200
_symmetry_space_group_name_H-M "P -1"
_symmetry_group_IT_number 2
_symmetry_cell_setting 'triclinic'
loop_
_space_group_symop_operation_xyz
x,y,z
-x,-y,-z
loop_
_atom_site_type_symbol
_atom_site_label
_atom_site_fract_x
_atom_site_fract_y
_atom_site_fract_z
Si Si1 0.831137 0.448952 0.039283
Si Si2 0.652466 0.409765 0.851604
Si Si3 0.224978 0.721712 0.569861
Si Si4 0.477648 0.273584 0.458752
Si Si5 0.411411 0.120914 0.055178
Si Si6 0.223414 0.947655 0.272950
Si Si7 0.356126 0.055953 0.731826
Si Si8 0.916238 0.433226 0.181661
O O1 0.672793 0.621818 0.284130
O O2 0.859021 0.353884 0.082496
O O3 0.859931 0.221099 0.788625
O O4 0.928289 0.609984 0.015926
O O5 0.767306 0.283546 0.571989
O O6 0.681723 0.225427 0.824383
O O7 0.500000 0.500000 0.000000
O O8 0.678568 0.667638 0.016268
O O9 0.346724 0.435093 0.303373
O O10 0.252415 0.983502 0.722733
O O11 0.114747 0.692650 0.748619
O O12 0.500000 0.500000 0.500000
O O13 0.600685 0.183492 0.365011
O O14 0.502964 0.015122 0.212927
O O15 0.296151 0.998329 0.119605
O O16 0.500000 0.000000 0.000000
O O17 0.153028 0.245647 0.557572
O O18 0.500000 0.000000 0.500000
#
# Coordination Sequence:
#
# PCOD9051188 Si02
#       8
#     2   2   2   2   2   2   2   2
#     4  11  23  42  69 101 133 172 232 280 336 388
#     4  12  25  41  65 104 142 175 217 270 348 415
#     4  11  24  43  64  97 141 176 222 274 334 403
#     4  12  22  37  64 101 132 165 216 280 336 391
#     4  11  21  36  61  98 136 166 215 277 340 395
#     4  11  24  42  69  98 135 177 221 281 336 397
#     4  12  25  39  63  99 139 178 212 268 347 407
#     4  10  25  45  71  97 129 181 233 283 321 392
#
# _framework density 24.065823999999999
#
# number of rings (size 3 to 8) (size 9 to 14) (size 15 to 20)
#    0.000    0.750    3.750    4.875    1.750    1.000 
#    0.000    0.625    0.000   10.500    0.000    0.000 
#    0.000    0.000    0.000    0.000    0.000    0.000 
#
# Total GULP energy -89320.569214 kJ/mol
# GULP energy per Si atom -5582.535576 kJ/mol
# Density = 2.401105 g / cm^3
# Si number density = 24.065824 Si / 1000 Ang^3
#
#
#
# Elastic Constant Matrix: (Units=GPa)
#
#
# Indices 1 2 3 4 5 6 
#
# 1 95.3018 29.9436 41.3376 13.2290 27.3446 3.3263
# 2 29.9436 129.4360 38.2868 1.8436 8.7710 -0.9831
# 3 41.3376 38.2868 87.2243 -2.8181 14.8610 -0.2256
# 4 13.2290 1.8436 -2.8181 47.2941 -3.8798 -1.6040
# 5 27.3446 8.7710 14.8610 -3.8798 41.7821 4.3938
# 6 3.3263 -0.9831 -0.2256 -1.6040 4.3938 38.7744
#
#
#
# Elastic Compliance Matrix: (Units=1/GPa)
#
#
# Indices 1 2 3 4 5 6 
#
# 1 0.017049 -0.001449 -0.006074 -0.005851 -0.009159 -0.000739
# 2 -0.001449 0.009032 -0.003313 -0.000118 0.000187 0.000308
# 3 -0.006074 -0.003313 0.016034 0.002739 -0.000856 0.000741
# 4 -0.005851 -0.000118 0.002739 0.023386 0.004955 0.000921
# 5 -0.009159 0.000187 -0.000856 0.004955 0.030917 -0.002513
# 6 -0.000739 0.000308 0.000741 0.000921 -0.002513 0.026189
#
#
# Mechanical properties :
#
#
# Convention : Reuss Voigt Hill
#
# Bulk Modulus (GPa) = 48.91760 59.01091 53.96426
# Shear Modulus (GPa) = 33.09209 39.06305 36.07757
#
# Velocity S-wave (km/s) = 3.71221 4.03324 3.87605
# Velocity P-wave (km/s) = 6.22453 6.80170 6.51951
#
# Compressibility (1/GPa) = 0.02044254
#
# Stress axis : x y z
#
# Youngs Moduli (GPa) = 58.65511 110.71349 62.36807
#
# Poissons Ratio (x) = 0.16042 0.37885
# Poissons Ratio (y) = 0.08499 0.20662
# Poissons Ratio (z) = 0.35629 0.36679
#
# Static dielectric constant tensor:
#      x y z
#    x 2.172870 -0.091420 -0.033570 
#    y -0.091420 2.045170 -0.026640 
#    z -0.033570 -0.026640 2.018270 
# 
# From -- ./inp_files/448295.got.cif
#   From: 2010.05.17/outbox.cif.g08.bks.cpg/sg2_225_cif.got.tgz:448295.got - 2010.06.03 11:33:40.
