data_PCOD9051250
_publ_section_title
;
Structure prediction by ZEFSAII (Michael W. Deem and Ramdas Pophale) SiO2 
 PCOD9051250
Probable space group: P -1
;
_chemical_formula_sum "Si O2"
_cell_formula_units_Z 14
_cell_length_a 14.662792
_cell_length_b 7.724813
_cell_length_c 17.735224
_cell_angle_alpha 58.874829
_cell_angle_beta 19.563517
_cell_angle_gamma 64.298874
_cell_volume 565.744453
_symmetry_space_group_name_H-M "P -1"
_symmetry_group_IT_number 2
_symmetry_cell_setting 'triclinic'
loop_
_space_group_symop_operation_xyz
x,y,z
-x,-y,-z
loop_
_atom_site_type_symbol
_atom_site_label
_atom_site_fract_x
_atom_site_fract_y
_atom_site_fract_z
Si Si1 0.397684 0.774129 0.873513
Si Si2 0.221984 0.417295 0.638789
Si Si3 0.831725 0.613896 0.474404
Si Si4 0.175311 0.052794 0.070484
Si Si5 0.826645 0.694228 0.662757
Si Si6 0.215080 0.080635 0.200569
Si Si7 0.796154 0.338651 0.248121
O O1 0.581827 0.714770 0.675699
O O2 0.524530 0.645833 0.869934
O O3 0.086916 0.714328 0.096364
O O4 0.421767 0.008750 0.833691
O O5 0.256941 0.508019 0.506485
O O6 0.481017 0.301088 0.472628
O O7 0.225767 0.567235 0.672486
O O8 0.063730 0.815600 0.233310
O O9 0.969685 0.468048 0.453253
O O10 0.214993 0.163565 0.096081
O O11 0.947819 0.146343 0.181789
O O12 0.977679 0.885485 0.450639
O O13 0.796056 0.769105 0.754906
O O14 0.500000 0.000000 0.000000
O O15 0.000000 0.500000 0.000000
#
# Coordination Sequence:
#
# PCOD9051250 Si02
#       7
#     2   2   2   2   2   2   2
#     4  11  23  42  66 104 137 182 219 277 327 405
#     4  10  25  45  73  99 125 181 225 279 348 398
#     4  11  24  44  67 101 143 178 225 275 330 411
#     4  11  25  42  69 100 135 177 229 279 343 391
#     4  11  24  42  68 100 142 187 221 267 338 391
#     4  11  23  42  66 101 137 182 226 274 323 407
#     4  11  25  50  71  98 131 174 228 291 343 407
#
# _framework density 24.746154000000001
#
# number of rings (size 3 to 8) (size 9 to 14) (size 15 to 20)
#    0.000    1.143    2.857    2.143    0.000   11.429 
#    0.000    4.286    0.000    0.000    0.000    0.000 
#    0.000    0.000    0.000    0.000    0.000    0.000 
#
# Total GULP energy -78166.183213 kJ/mol
# GULP energy per Si atom -5583.298801 kJ/mol
# Density = 2.468983 g / cm^3
# Si number density = 24.746154 Si / 1000 Ang^3
#
#
#
# Elastic Constant Matrix: (Units=GPa)
#
#
# Indices 1 2 3 4 5 6 
#
# 1 144.9121 14.8636 38.1567 16.7685 1.0167 -0.4655
# 2 14.8636 47.6848 34.9007 13.9096 3.7326 -15.1909
# 3 38.1567 34.9007 134.0244 38.8570 -10.7824 -6.8923
# 4 16.7685 13.9096 38.8570 44.0503 3.1457 -10.2912
# 5 1.0167 3.7326 -10.7824 3.1457 45.5564 22.5962
# 6 -0.4655 -15.1909 -6.8923 -10.2912 22.5962 37.9279
#
#
#
# Elastic Compliance Matrix: (Units=1/GPa)
#
#
# Indices 1 2 3 4 5 6 
#
# 1 0.007580 -0.001358 -0.001382 -0.001588 0.000407 -0.001375
# 2 -0.001358 0.037788 -0.011430 0.006135 -0.019147 0.026113
# 3 -0.001382 -0.011430 0.014739 -0.012481 0.011282 -0.012024
# 4 -0.001588 0.006135 -0.012481 0.038214 -0.016022 0.020084
# 5 0.000407 -0.019147 0.011282 -0.016022 0.045746 -0.037215
# 6 -0.001375 0.026113 -0.012024 0.020084 -0.037215 0.062243
#
#
# Mechanical properties :
#
#
# Convention : Reuss Voigt Hill
#
# Bulk Modulus (GPa) = 31.47877 55.82924 43.65400
# Shear Modulus (GPa) = 20.38826 41.42025 30.90426
#
# Velocity S-wave (km/s) = 2.87347 4.09566 3.53774
# Velocity P-wave (km/s) = 4.87416 6.70639 5.86230
#
# Compressibility (1/GPa) = 0.03176745
#
# Stress axis : x y z
#
# Youngs Moduli (GPa) = 131.91864 26.46366 67.84734
#
# Poissons Ratio (x) = 0.03594 0.09377
# Poissons Ratio (y) = 0.17915 0.77547
# Poissons Ratio (z) = 0.18233 0.30247
#
# Static dielectric constant tensor:
#      x y z
#    x 2.062310 0.063610 0.108340 
#    y 0.063610 1.948860 -0.017420 
#    z 0.108340 -0.017420 2.136390 
# 
# From -- ./inp_files/572551.got.cif
#   From: 2010.05.17/outbox.cif.g08.bks.cpg/sg2_287_cif.got.tgz:572551.got - 2010.06.03 11:33:40.
