data_PCOD9051390
_publ_section_title
;
Structure prediction by ZEFSAII (Michael W. Deem and Ramdas Pophale) SiO2 
 PCOD9051390
Probable space group: P -1
;
_chemical_formula_sum "Si O2"
_cell_formula_units_Z 13
_cell_length_a 12.835650
_cell_length_b 5.681108
_cell_length_c 9.265636
_cell_angle_alpha 92.882683
_cell_angle_beta 49.853335
_cell_angle_gamma 111.023644
_cell_volume 466.317824
_symmetry_space_group_name_H-M "P -1"
_symmetry_group_IT_number 2
_symmetry_cell_setting 'triclinic'
loop_
_space_group_symop_operation_xyz
x,y,z
-x,-y,-z
loop_
_atom_site_type_symbol
_atom_site_label
_atom_site_fract_x
_atom_site_fract_y
_atom_site_fract_z
Si Si1 0.000000 0.500000 0.500000
Si Si2 0.171157 0.046240 0.256190
Si Si3 0.833303 0.493824 0.133076
Si Si4 0.393769 0.496173 0.227695
Si Si5 0.390169 0.058822 0.802267
Si Si6 0.979459 0.194345 0.251295
Si Si7 0.677495 0.771153 0.432479
O O1 0.012796 0.457721 0.314049
O O2 0.141119 0.798410 0.372766
O O3 0.230023 0.325504 0.298240
O O4 0.015489 0.008725 0.321876
O O5 0.285372 0.074952 0.026372
O O6 0.762588 0.584316 0.330227
O O7 0.699605 0.240625 0.175854
O O8 0.888770 0.737851 0.981688
O O9 0.000000 0.500000 0.000000
O O10 0.448227 0.782709 0.257458
O O11 0.407371 0.320017 0.342919
O O12 0.500000 0.500000 0.000000
O O13 0.403788 0.214709 0.643005
O O14 0.813718 0.057202 0.333266
#
# Coordination Sequence:
#
# PCOD9051390 Si02
#       7
#     1   2   2   2   2   2   2
#     4  12  24  38  70  98 134 180 218 278 346 412
#     4  11  23  45  66 100 139 175 226 284 342 405
#     4  12  24  40  70 109 137 173 227 284 348 413
#     4  10  25  46  69  95 136 189 231 278 338 411
#     4  11  23  45  69  96 138 182 234 274 341 408
#     4  12  24  40  68 105 135 174 222 290 350 399
#     4  12  24  43  73  98 139 180 222 297 344 396
#
# _framework density 27.877984999999999
#
# number of rings (size 3 to 8) (size 9 to 14) (size 15 to 20)
#    0.000    0.615    6.154    2.308    0.000    0.615 
#    0.000    2.308    0.000    0.000    0.000    0.000 
#    0.000    0.000    0.000    0.000    0.000    0.000 
#
# Total GULP energy -72438.682208 kJ/mol
# GULP energy per Si atom -5572.206324 kJ/mol
# Density = 2.781453 g / cm^3
# Si number density = 27.877985 Si / 1000 Ang^3
#
#
#
# Elastic Constant Matrix: (Units=GPa)
#
#
# Indices 1 2 3 4 5 6 
#
# 1 93.4552 46.6141 24.9906 -1.1466 5.5885 24.7193
# 2 46.6141 156.2072 17.3503 6.7674 -6.5778 43.3279
# 3 24.9906 17.3503 191.4904 -13.4278 8.6440 1.7085
# 4 -1.1466 6.7674 -13.4278 44.2388 0.7304 8.8080
# 5 5.5885 -6.5778 8.6440 0.7304 28.0335 3.9594
# 6 24.7193 43.3279 1.7085 8.8080 3.9594 46.8193
#
#
#
# Elastic Compliance Matrix: (Units=1/GPa)
#
#
# Indices 1 2 3 4 5 6 
#
# 1 0.013875 -0.002855 -0.001305 0.001374 -0.002407 -0.004690
# 2 -0.002855 0.009643 -0.000638 -0.000280 0.004122 -0.007689
# 3 -0.001305 -0.000638 0.005637 0.001621 -0.001800 0.000921
# 4 0.001374 -0.000280 0.001621 0.024185 -0.000762 -0.005011
# 5 -0.002407 0.004122 -0.001800 -0.000762 0.038483 -0.005589
# 6 -0.004690 -0.007689 0.000921 -0.005011 -0.005589 0.032333
#
#
# Mechanical properties :
#
#
# Convention : Reuss Voigt Hill
#
# Bulk Modulus (GPa) = 51.13071 68.78478 59.95775
# Shear Modulus (GPa) = 35.64482 47.29817 41.47149
#
# Velocity S-wave (km/s) = 3.57963 4.12347 3.86114
# Velocity P-wave (km/s) = 5.95531 6.88460 6.43675
#
# Compressibility (1/GPa) = 0.01955772
#
# Stress axis : x y z
#
# Youngs Moduli (GPa) = 72.07223 103.70012 177.39713
#
# Poissons Ratio (x) = 0.29610 0.23154
# Poissons Ratio (y) = 0.20579 0.11321
# Poissons Ratio (z) = 0.09407 0.06618
#
# Static dielectric constant tensor:
#      x y z
#    x 1.724070 0.199870 -0.221470 
#    y 0.199870 2.019320 0.136540 
#    z -0.221470 0.136540 2.146710 
# 
# From -- ./inp_files/59365.got.cif
#   From: 2010.05.17/outbox.cif.g08.bks.cpg/sg2_30_cif.got.tgz:59365.got - 2010.06.03 11:33:40.
