data_PCOD9051997
_publ_section_title
;
Structure prediction by ZEFSAII (Michael W. Deem and Ramdas Pophale) SiO2 
 PCOD9051997
Probable space group: P -1
;
_chemical_formula_sum "Si O2"
_cell_formula_units_Z 16
_cell_length_a 12.062549
_cell_length_b 18.677844
_cell_length_c 14.297137
_cell_angle_alpha 137.414148
_cell_angle_beta 21.699295
_cell_angle_gamma 137.877068
_cell_volume 784.270777
_symmetry_space_group_name_H-M "P -1"
_symmetry_group_IT_number 2
_symmetry_cell_setting 'triclinic'
loop_
_space_group_symop_operation_xyz
x,y,z
-x,-y,-z
loop_
_atom_site_type_symbol
_atom_site_label
_atom_site_fract_x
_atom_site_fract_y
_atom_site_fract_z
Si Si1 0.187555 0.852649 0.505346
Si Si2 0.903443 0.938738 0.324198
Si Si3 0.097807 0.130733 0.055103
Si Si4 0.123302 0.714547 0.767955
Si Si5 0.247164 0.258244 0.423596
Si Si6 0.534136 0.887840 0.746631
Si Si7 0.947296 0.372251 0.933045
Si Si8 0.686071 0.681465 0.224906
O O1 0.533169 0.837063 0.213169
O O2 0.971299 0.777346 0.527478
O O3 0.195191 0.976261 0.585466
O O4 0.034646 0.837258 0.712273
O O5 0.767609 0.948293 0.543124
O O6 0.757067 0.813777 0.289512
O O7 0.269538 0.948616 0.040982
O O8 0.956756 0.191489 0.142550
O O9 0.000000 0.000000 0.000000
O O10 0.347469 0.776736 0.734659
O O11 0.323380 0.645689 0.489608
O O12 0.826478 0.645647 0.986515
O O13 0.300253 0.152188 0.334653
O O14 0.083838 0.321136 0.687558
O O15 0.586028 0.321769 0.186073
O O16 0.133069 0.347125 0.854461
O O17 0.000000 0.500000 0.000000
#
# Coordination Sequence:
#
# PCOD9051997 Si02
#       8
#     2   2   2   2   2   2   2   2
#     4  12  26  38  59  91 130 181 206 248 316 348
#     4  10  18  33  53  78 121 162 202 230 281 358
#     4  12  23  40  58  87 124 173 230 256 281 352
#     4  10  18  32  59  79 117 154 201 262 283 331
#     4  12  23  43  59  93 136 155 206 256 309 407
#     4  10  18  34  56  82 117 159 199 248 294 350
#     4  12  23  41  67  95 124 159 197 262 329 384
#     4  10  17  35  55  89 117 145 208 244 305 362
#
# _framework density 20.401116999999999
#
# number of rings (size 3 to 8) (size 9 to 14) (size 15 to 20)
#    0.000    1.000    5.000    6.000    0.000    1.000 
#    0.000    0.000    0.000    0.000    0.000   17.500 
#    0.000    0.000    0.000    0.000    0.000    0.000 
#
# Total GULP energy -89453.124906 kJ/mol
# GULP energy per Si atom -5590.820307 kJ/mol
# Density = 2.035468 g / cm^3
# Si number density = 20.401117 Si / 1000 Ang^3
#
#
#
# Elastic Constant Matrix: (Units=GPa)
#
#
# Indices 1 2 3 4 5 6 
#
# 1 95.1445 13.6717 62.2212 -4.5117 8.6257 -15.1460
# 2 13.6717 36.1096 28.8968 1.5360 1.3435 -14.9787
# 3 62.2212 28.8968 204.1505 -29.3528 29.1673 -12.6890
# 4 -4.5117 1.5360 -29.3528 17.4426 -5.1704 0.8339
# 5 8.6257 1.3435 29.1673 -5.1704 39.7016 -3.6349
# 6 -15.1460 -14.9787 -12.6890 0.8339 -3.6349 7.6810
#
#
#
# Elastic Compliance Matrix: (Units=1/GPa)
#
#
# Indices 1 2 3 4 5 6 
#
# 1 -0.081747 -0.313315 0.046991 0.102840 -0.059978 -0.734109
# 2 -0.313315 -0.988261 0.161834 0.335863 -0.193914 -2.405901
# 3 0.046991 0.161834 -0.017841 -0.042734 0.028181 0.396754
# 4 0.102840 0.335863 -0.042734 -0.036680 0.068302 0.823461
# 5 -0.059978 -0.193914 0.028181 0.068302 -0.009297 -0.461679
# 6 -0.734109 -2.405901 0.396754 0.823461 -0.461679 -5.661562
#
#
# Mechanical properties :
#
#
# Convention : Reuss Voigt Hill
#
# Bulk Modulus (GPa) = -0.77111 60.55377 29.89133
# Shear Modulus (GPa) = -0.71238 28.33936 13.81349
#
# Velocity S-wave (km/s) = -0.59156 3.73112 2.60493
# Velocity P-wave (km/s) = 0.91945 6.95037 4.87146
#
# Compressibility (1/GPa) = -1.29683006
#
# Stress axis : x y z
#
# Youngs Moduli (GPa) = -12.23288 -1.01188 -56.05088
#
# Poissons Ratio (x) = -0.31704 2.63386
# Poissons Ratio (y) = -3.83275 9.07093
# Poissons Ratio (z) = 0.57483 0.16376
#
# Static dielectric constant tensor:
#      x y z
#    x 1.722330 0.012110 0.039780 
#    y 0.012110 1.691800 -0.031270 
#    z 0.039780 -0.031270 1.819500 
# 
# From -- ./inp_files/523271.got.cif
#   From: 2010.05.17/outbox.cif.g08.bks.cpg/sg2_262_cif.got.tgz:523271.got - 2010.06.03 11:33:40.
