data_PCOD9051206
_publ_section_title
;
Structure prediction by ZEFSAII (Michael W. Deem and Ramdas Pophale) SiO2 
 PCOD9051206
Probable space group: P -1
;
_chemical_formula_sum "Si O2"
_cell_formula_units_Z 12
_cell_length_a 8.969811
_cell_length_b 8.325401
_cell_length_c 11.882020
_cell_angle_alpha 105.150358
_cell_angle_beta 140.719729
_cell_angle_gamma 68.433463
_cell_volume 522.039167
_symmetry_space_group_name_H-M "P -1"
_symmetry_group_IT_number 2
_symmetry_cell_setting 'triclinic'
loop_
_space_group_symop_operation_xyz
x,y,z
-x,-y,-z
loop_
_atom_site_type_symbol
_atom_site_label
_atom_site_fract_x
_atom_site_fract_y
_atom_site_fract_z
Si Si1 0.951530 0.819814 0.973843
Si Si2 0.720186 0.811906 0.299143
Si Si3 0.488374 0.893895 0.586287
Si Si4 0.185023 0.645649 0.427974
Si Si5 0.479646 0.549950 0.229852
Si Si6 0.725590 0.732529 0.047241
O O1 0.758004 0.788826 0.764112
O O2 0.817242 0.827884 0.016407
O O3 0.207194 0.675296 0.103340
O O4 0.000000 0.000000 0.000000
O O5 0.635036 0.649060 0.265174
O O6 0.629536 0.842988 0.122769
O O7 0.013539 0.757744 0.447178
O O8 0.616214 0.967086 0.351016
O O9 0.312949 0.769275 0.457941
O O10 0.500000 0.000000 0.500000
O O11 0.385490 0.498296 0.580966
O O12 0.977524 0.602836 0.221259
O O13 0.449942 0.375763 0.122688
#
# Coordination Sequence:
#
# PCOD9051206 Si02
#       6
#     2   2   2   2   2   2
#     4  12  25  47  70 104 140 190 233 287 353 412
#     4  10  25  46  71 103 144 188 231 289 354 414
#     4  12  25  49  72 104 143 188 238 292 345 423
#     4  10  25  45  72 104 142 185 236 285 358 402
#     4  12  23  48  70 106 147 177 242 285 348 428
#     4  10  25  45  72 108 139 186 231 294 353 409
#
# _framework density 22.986781000000001
#
# number of rings (size 3 to 8) (size 9 to 14) (size 15 to 20)
#    1.000    0.000    3.333    3.000    0.000    2.667 
#    3.000    0.000    0.000    0.000    0.000    0.000 
#    0.000    0.000    0.000    0.000    0.000    0.000 
#
# Total GULP energy -67102.338417 kJ/mol
# GULP energy per Si atom -5591.861535 kJ/mol
# Density = 2.293446 g / cm^3
# Si number density = 22.986781 Si / 1000 Ang^3
#
#
#
# Elastic Constant Matrix: (Units=GPa)
#
#
# Indices 1 2 3 4 5 6 
#
# 1 145.7269 50.5881 36.6706 -12.2053 -16.2474 11.0485
# 2 50.5881 39.9584 19.2124 -16.2793 -6.3831 -10.9439
# 3 36.6706 19.2124 128.9745 -19.0686 -0.9039 3.8550
# 4 -12.2053 -16.2793 -19.0686 39.3062 2.1114 0.9288
# 5 -16.2474 -6.3831 -0.9039 2.1114 47.5621 -1.9622
# 6 11.0485 -10.9439 3.8550 0.9288 -1.9622 40.3769
#
#
#
# Elastic Compliance Matrix: (Units=1/GPa)
#
#
# Indices 1 2 3 4 5 6 
#
# 1 0.016669 -0.025542 -0.001470 -0.005963 0.002045 -0.011107
# 2 -0.025542 0.074376 -0.001436 0.021467 0.001384 0.026859
# 3 -0.001470 -0.001436 0.008901 0.003327 -0.000713 -0.000948
# 4 -0.005963 0.021467 0.003327 0.033963 -0.000339 0.006335
# 5 0.002045 0.001384 -0.000713 -0.000339 0.021951 0.000958
# 6 -0.011107 0.026859 -0.000948 0.006335 0.000958 0.035077
#
#
# Mechanical properties :
#
#
# Convention : Reuss Voigt Hill
#
# Bulk Modulus (GPa) = 23.22897 58.62245 40.92571
# Shear Modulus (GPa) = 19.07070 39.32829 29.19949
#
# Velocity S-wave (km/s) = 2.88347 4.14080 3.56796
# Velocity P-wave (km/s) = 4.60577 6.95843 5.90054
#
# Compressibility (1/GPa) = 0.04304969
#
# Stress axis : x y z
#
# Youngs Moduli (GPa) = 59.99035 13.44528 112.35094
#
# Poissons Ratio (x) = 0.34341 0.16516
# Poissons Ratio (y) = 1.53225 0.16138
# Poissons Ratio (z) = 0.08819 0.01931
#
# Static dielectric constant tensor:
#      x y z
#    x 1.840920 -0.047480 0.006100 
#    y -0.047480 1.870070 -0.019830 
#    z 0.006100 -0.019830 1.870620 
# 
# From -- ./inp_files/279330.got.cif
#   From: 2010.05.17/outbox.cif.g08.bks.cpg/sg2_140_cif.got.tgz:279330.got - 2010.06.03 11:33:40.
