data_PCOD9051054
_publ_section_title
;
Structure prediction by ZEFSAII (Michael W. Deem and Ramdas Pophale) SiO2 
 PCOD9051054
Probable space group: P -1
;
_chemical_formula_sum "Si O2"
_cell_formula_units_Z 14
_cell_length_a 9.727553
_cell_length_b 7.263481
_cell_length_c 16.628794
_cell_angle_alpha 44.405688
_cell_angle_beta 139.377050
_cell_angle_gamma 132.688027
_cell_volume 510.952414
_symmetry_space_group_name_H-M "P -1"
_symmetry_group_IT_number 2
_symmetry_cell_setting 'triclinic'
loop_
_space_group_symop_operation_xyz
x,y,z
-x,-y,-z
loop_
_atom_site_type_symbol
_atom_site_label
_atom_site_fract_x
_atom_site_fract_y
_atom_site_fract_z
Si Si1 0.363146 0.130856 0.609140
Si Si2 0.165113 0.801488 0.204637
Si Si3 0.287471 0.102226 0.829719
Si Si4 0.820953 0.020903 0.585535
Si Si5 0.916989 0.205262 0.013504
Si Si6 0.467412 0.564518 0.659903
Si Si7 0.307996 0.642478 0.855877
O O1 0.472273 0.377147 0.798197
O O2 0.610372 0.229228 0.649173
O O3 0.183830 0.091332 0.472164
O O4 0.359560 0.345089 0.610404
O O5 0.193134 0.794602 0.122538
O O6 0.302162 0.237409 0.332594
O O7 0.120724 0.084578 0.122206
O O8 0.348943 0.840158 0.735006
O O9 0.296539 0.839870 0.863740
O O10 0.060269 0.156865 0.684441
O O11 0.248414 0.004531 0.933905
O O12 0.681183 0.234968 0.454688
O O13 0.065516 0.425041 0.808472
O O14 0.000000 0.500000 0.000000
O O15 0.500000 0.500000 0.000000
#
# Coordination Sequence:
#
# PCOD9051054 Si02
#       7
#     2   2   2   2   2   2   2
#     4  11  26  45  73 106 145 187 237 291 354 434
#     4  11  25  46  70 102 147 185 232 292 355 415
#     4  11  25  47  73 106 149 182 241 302 352 422
#     4  11  25  47  73 105 143 190 237 294 361 422
#     4  11  24  44  72 102 140 195 234 289 358 418
#     4  10  25  45  68 110 136 190 241 287 356 421
#     4  11  24  47  71 108 141 188 243 286 358 427
#
# _framework density 27.399813000000002
#
# number of rings (size 3 to 8) (size 9 to 14) (size 15 to 20)
#    0.000    1.143    1.429    3.429    6.000    3.429 
#    0.000    2.143    0.000    0.000    0.000    0.000 
#    0.000    0.000    0.000    0.000    0.000    0.000 
#
# Total GULP energy -78723.006254 kJ/mol
# GULP energy per Si atom -5623.071875 kJ/mol
# Density = 2.733745 g / cm^3
# Si number density = 27.399813 Si / 1000 Ang^3
#
#
#
# Elastic Constant Matrix: (Units=GPa)
#
#
# Indices 1 2 3 4 5 6 
#
# 1 134.8731 52.6275 42.3136 -9.1036 -31.1162 25.6985
# 2 52.6275 145.2934 30.4334 -14.7038 -15.1874 -4.0019
# 3 42.3136 30.4334 97.7428 -2.6055 -19.8663 3.3184
# 4 -9.1036 -14.7038 -2.6055 48.2719 5.2081 8.4801
# 5 -31.1162 -15.1874 -19.8663 5.2081 42.5253 -9.7103
# 6 25.6985 -4.0019 3.3184 8.4801 -9.7103 52.4642
#
#
#
# Elastic Compliance Matrix: (Units=1/GPa)
#
#
# Indices 1 2 3 4 5 6 
#
# 1 0.011733 -0.003133 -0.002926 0.001497 0.004736 -0.005166
# 2 -0.003133 0.008538 -0.001237 0.001522 0.000474 0.002106
# 3 -0.002926 -0.001237 0.012567 -0.000892 0.003711 0.001375
# 4 0.001497 0.001522 -0.000892 0.022517 -0.002605 -0.004683
# 5 0.004736 0.000474 0.003711 -0.002605 0.029992 0.003453
# 6 -0.005166 0.002106 0.001375 -0.004683 0.003453 0.023061
#
#
# Mechanical properties :
#
#
# Convention : Reuss Voigt Hill
#
# Bulk Modulus (GPa) = 54.80514 69.85093 62.32803
# Shear Modulus (GPa) = 38.73563 45.48793 42.11178
#
# Velocity S-wave (km/s) = 3.76402 4.07892 3.92463
# Velocity P-wave (km/s) = 6.23987 6.90884 6.58285
#
# Compressibility (1/GPa) = 0.01824646
#
# Stress axis : x y z
#
# Youngs Moduli (GPa) = 85.23101 117.12424 79.57641
#
# Poissons Ratio (x) = 0.36691 0.23283
# Poissons Ratio (y) = 0.26700 0.09843
# Poissons Ratio (z) = 0.24937 0.14487
#
# Static dielectric constant tensor:
#      x y z
#    x 2.131380 0.000440 -0.004930 
#    y 0.000440 2.081820 0.002980 
#    z -0.004930 0.002980 2.133470 
# 
# From -- ./inp_files/564042.got.cif
#   From: 2010.05.17/outbox.cif.g08.bks.cpg/sg2_283_cif.got.tgz:564042.got - 2010.06.03 11:33:40.
