data_PCOD9051800
_publ_section_title
;
Structure prediction by ZEFSAII (Michael W. Deem and Ramdas Pophale) SiO2 
 PCOD9051800
Probable space group: P -1
;
_chemical_formula_sum "Si O2"
_cell_formula_units_Z 10
_cell_length_a 5.381790
_cell_length_b 12.216456
_cell_length_c 8.099897
_cell_angle_alpha 112.626721
_cell_angle_beta 90.319836
_cell_angle_gamma 127.363404
_cell_volume 369.360711
_symmetry_space_group_name_H-M "P -1"
_symmetry_group_IT_number 2
_symmetry_cell_setting 'triclinic'
loop_
_space_group_symop_operation_xyz
x,y,z
-x,-y,-z
loop_
_atom_site_type_symbol
_atom_site_label
_atom_site_fract_x
_atom_site_fract_y
_atom_site_fract_z
Si Si1 0.745089 0.861853 0.685963
Si Si2 0.240712 0.892173 0.294487
Si Si3 0.261969 0.474614 0.843162
Si Si4 0.994905 0.680226 0.560846
Si Si5 0.659274 0.241014 0.066819
O O1 0.918049 0.794581 0.604367
O O2 0.662387 0.844505 0.869755
O O3 0.363414 0.749063 0.552381
O O4 0.922871 0.033535 0.711122
O O5 0.019892 0.713300 0.246191
O O6 0.500000 0.000000 0.500000
O O7 0.385244 0.888000 0.120421
O O8 0.275720 0.473804 0.639481
O O9 0.263948 0.616178 0.951643
O O10 0.500000 0.500000 0.000000
O O11 0.032161 0.675293 0.756161
#
# Coordination Sequence:
#
# PCOD9051800 Si02
#       5
#     2   2   2   2   2
#     4  10  25  47  81 108 153 200 265 306 382 455
#     4  12  25  48  77 115 156 201 256 326 386 453
#     4  12  28  46  77 118 158 201 252 327 391 455
#     4  10  25  49  80 110 152 203 262 308 382 460
#     4  10  26  49  77 110 154 205 258 311 385 464
#
# _framework density 27.073806000000001
#
# number of rings (size 3 to 8) (size 9 to 14) (size 15 to 20)
#    1.200    0.000    2.000    1.800    5.600    5.600 
#    0.000    0.000    0.000    0.000    0.000    0.000 
#    0.000    0.000    0.000    0.000    0.000    0.000 
#
# Total GULP energy -55873.111055 kJ/mol
# GULP energy per Si atom -5587.311106 kJ/mol
# Density = 2.701218 g / cm^3
# Si number density = 27.073806 Si / 1000 Ang^3
#
#
#
# Elastic Constant Matrix: (Units=GPa)
#
#
# Indices 1 2 3 4 5 6 
#
# 1 177.8101 52.2655 68.5664 15.3569 7.4249 -48.0968
# 2 52.2655 116.4999 22.0773 18.3658 8.2201 -29.4988
# 3 68.5664 22.0773 196.4453 17.3436 17.0917 -1.8357
# 4 15.3569 18.3658 17.3436 41.6418 0.5744 -2.1376
# 5 7.4249 8.2201 17.0917 0.5744 59.8327 6.6569
# 6 -48.0968 -29.4988 -1.8357 -2.1376 6.6569 62.7333
#
#
#
# Elastic Compliance Matrix: (Units=1/GPa)
#
#
# Indices 1 2 3 4 5 6 
#
# 1 0.008923 -0.001755 -0.002701 -0.001074 -0.000750 0.005980
# 2 -0.001755 0.011134 -0.000103 -0.003996 -0.001681 0.003929
# 3 -0.002701 -0.000103 0.006280 -0.001653 -0.001221 -0.001862
# 4 -0.001074 -0.003996 -0.001653 0.026745 0.001115 -0.001958
# 5 -0.000750 -0.001681 -0.001221 0.001115 0.017736 -0.003245
# 6 0.005980 0.003929 -0.001862 -0.001958 -0.003245 0.022596
#
#
# Mechanical properties :
#
#
# Convention : Reuss Voigt Hill
#
# Bulk Modulus (GPa) = 58.07753 86.28594 72.18173
# Shear Modulus (GPa) = 46.17991 56.03130 51.10561
#
# Velocity S-wave (km/s) = 4.13450 4.55419 4.34941
# Velocity P-wave (km/s) = 6.65509 7.71972 7.20709
#
# Compressibility (1/GPa) = 0.01721836
#
# Stress axis : x y z
#
# Youngs Moduli (GPa) = 112.06873 89.81538 159.24397
#
# Poissons Ratio (x) = 0.15761 0.43017
# Poissons Ratio (y) = 0.19666 0.01641
# Poissons Ratio (z) = 0.30273 0.00925
#
# Static dielectric constant tensor:
#      x y z
#    x 2.072670 0.101680 0.018620 
#    y 0.101680 2.295530 -0.272320 
#    z 0.018620 -0.272320 2.433830 
# 
# From -- ./inp_files/67473.got.cif
#   From: 2010.05.17/outbox.cif.g08.bks.cpg/sg2_34_cif.got.tgz:67473.got - 2010.06.03 11:33:40.
