data_PCOD9051134
_publ_section_title
;
Structure prediction by ZEFSAII (Michael W. Deem and Ramdas Pophale) SiO2 
 PCOD9051134
Probable space group: P -1
;
_chemical_formula_sum "Si O2"
_cell_formula_units_Z 16
_cell_length_a 20.360081
_cell_length_b 15.065305
_cell_length_c 7.980237
_cell_angle_alpha 54.828302
_cell_angle_beta 53.907712
_cell_angle_gamma 19.833467
_cell_volume 668.962271
_symmetry_space_group_name_H-M "P -1"
_symmetry_group_IT_number 2
_symmetry_cell_setting 'triclinic'
loop_
_space_group_symop_operation_xyz
x,y,z
-x,-y,-z
loop_
_atom_site_type_symbol
_atom_site_label
_atom_site_fract_x
_atom_site_fract_y
_atom_site_fract_z
Si Si1 0.433151 0.950549 0.562843
Si Si2 0.509727 0.434948 0.799120
Si Si3 0.076092 0.715137 0.867830
Si Si4 0.671020 0.146709 0.180920
Si Si5 0.827155 0.156208 0.398099
Si Si6 0.970808 0.515382 0.326800
Si Si7 0.106035 0.625380 0.529535
Si Si8 0.680539 0.759055 0.874985
O O1 0.369723 0.917045 0.599108
O O2 0.664860 0.657010 0.560966
O O3 0.252555 0.178130 0.719594
O O4 0.386408 0.111614 0.343369
O O5 0.412841 0.654926 0.798787
O O6 0.714217 0.227663 0.637333
O O7 0.353943 0.593648 0.722004
O O8 0.547740 0.297554 0.029084
O O9 0.080855 0.839203 0.704713
O O10 0.095863 0.643605 0.727697
O O11 0.255072 0.443914 0.996985
O O12 0.888970 0.905946 0.051304
O O13 0.985605 0.880223 0.381198
O O14 0.992362 0.364474 0.404835
O O15 0.000000 0.500000 0.500000
O O16 0.139474 0.391242 0.149546
O O17 0.500000 0.000000 0.000000
#
# Coordination Sequence:
#
# PCOD9051134 Si02
#       8
#     2   2   2   2   2   2   2   2
#     4  11  24  46  72 101 142 191 237 302 354 425
#     4  10  25  45  70 107 143 195 236 294 363 426
#     4  12  25  46  69 110 148 187 242 296 355 439
#     4  11  24  46  72 104 147 189 242 296 359 427
#     4  11  26  46  74 107 148 189 242 295 362 432
#     4  10  25  47  69 104 140 187 240 298 358 426
#     4  12  25  45  75 104 143 195 240 296 365 428
#     4  11  24  46  72 103 143 190 236 294 358 422
#
# _framework density 23.917643999999999
#
# number of rings (size 3 to 8) (size 9 to 14) (size 15 to 20)
#    0.000    1.000    3.750    1.500    7.000    2.000 
#    6.750    0.000    0.000    0.000    0.000    0.000 
#    0.000    0.000    0.000    0.000    0.000    0.000 
#
# Total GULP energy -89391.676916 kJ/mol
# GULP energy per Si atom -5586.979807 kJ/mol
# Density = 2.386321 g / cm^3
# Si number density = 23.917644 Si / 1000 Ang^3
#
#
#
# Elastic Constant Matrix: (Units=GPa)
#
#
# Indices 1 2 3 4 5 6 
#
# 1 113.5661 41.1884 27.5738 4.2830 -26.0403 10.6100
# 2 41.1884 176.7344 32.5479 7.0593 -20.7819 -1.2003
# 3 27.5738 32.5479 56.5507 -6.7763 -16.9706 0.6159
# 4 4.2830 7.0593 -6.7763 42.9738 5.3554 -10.2932
# 5 -26.0403 -20.7819 -16.9706 5.3554 32.3125 -7.0343
# 6 10.6100 -1.2003 0.6159 -10.2932 -7.0343 38.6785
#
#
#
# Elastic Compliance Matrix: (Units=1/GPa)
#
#
# Indices 1 2 3 4 5 6 
#
# 1 0.012082 -0.001259 -0.003394 -0.003090 0.007038 -0.002842
# 2 -0.001259 0.006805 -0.002816 -0.001577 0.002274 0.000595
# 3 -0.003394 -0.002816 0.023815 0.004300 0.007913 0.003048
# 4 -0.003090 -0.001577 0.004300 0.026729 -0.004132 0.007092
# 5 0.007038 0.002274 0.007913 -0.004132 0.043993 0.004915
# 6 -0.002842 0.000595 0.003048 0.007092 0.004915 0.029385
#
#
# Mechanical properties :
#
#
# Convention : Reuss Voigt Hill
#
# Bulk Modulus (GPa) = 36.01640 61.05238 48.53439
# Shear Modulus (GPa) = 29.94025 39.16239 34.55132
#
# Velocity S-wave (km/s) = 3.54193 4.05085 3.80491
# Velocity P-wave (km/s) = 5.64076 6.88917 6.29599
#
# Compressibility (1/GPa) = 0.02776513
#
# Stress axis : x y z
#
# Youngs Moduli (GPa) = 82.76857 146.96002 41.99013
#
# Poissons Ratio (x) = 0.18502 0.14250
# Poissons Ratio (y) = 0.10420 0.11823
# Poissons Ratio (z) = 0.28089 0.41378
#
# Static dielectric constant tensor:
#      x y z
#    x 1.916160 -0.047240 0.027760 
#    y -0.047240 1.977550 0.051780 
#    z 0.027760 0.051780 2.139420 
# 
# From -- ./inp_files/188920.got.cif
#   From: 2010.05.17/outbox.cif.g08.bks.cpg/sg2_95_cif.got.tgz:188920.got - 2010.06.03 11:33:40.
