data_PCOD9051710
_publ_section_title
;
Structure prediction by ZEFSAII (Michael W. Deem and Ramdas Pophale) SiO2 
 PCOD9051710
Probable space group: P -1
;
_chemical_formula_sum "Si O2"
_cell_formula_units_Z 16
_cell_length_a 5.508369
_cell_length_b 22.148641
_cell_length_c 15.336675
_cell_angle_alpha 157.692731
_cell_angle_beta 111.298328
_cell_angle_gamma 74.044761
_cell_volume 651.751154
_symmetry_space_group_name_H-M "P -1"
_symmetry_group_IT_number 2
_symmetry_cell_setting 'triclinic'
loop_
_space_group_symop_operation_xyz
x,y,z
-x,-y,-z
loop_
_atom_site_type_symbol
_atom_site_label
_atom_site_fract_x
_atom_site_fract_y
_atom_site_fract_z
Si Si1 0.689479 0.040720 0.941311
Si Si2 0.548381 0.538560 0.804996
Si Si3 0.367015 0.099303 0.493680
Si Si4 0.892302 0.879538 0.055335
Si Si5 0.023665 0.554102 0.674544
Si Si6 0.735760 0.871802 0.284674
Si Si7 0.333855 0.301690 0.599163
Si Si8 0.190198 0.717458 0.580337
O O1 0.403676 0.091682 0.958622
O O2 0.918309 0.109933 0.992771
O O3 0.640627 0.849817 0.663128
O O4 0.764514 0.106048 0.135744
O O5 0.315293 0.612506 0.828054
O O6 0.480787 0.466940 0.796765
O O7 0.577237 0.377463 0.541077
O O8 0.784871 0.690050 0.029856
O O9 0.397495 0.149377 0.664808
O O10 0.425679 0.246902 0.631022
O O11 0.549374 0.962491 0.321270
O O12 0.067431 0.012128 0.317039
O O13 0.870832 0.703214 0.858955
O O14 0.000000 0.500000 0.500000
O O15 0.933756 0.396658 0.509764
O O16 0.000000 0.000000 0.500000
O O17 0.018262 0.301241 0.551003
#
# Coordination Sequence:
#
# PCOD9051710 Si02
#       8
#     2   2   2   2   2   2   2   2
#     4  11  25  43  70 107 145 199 247 290 356 438
#     4  11  26  44  67 106 146 189 243 301 368 434
#     4  10  25  47  73 101 135 186 243 307 370 429
#     4  11  24  41  74 103 144 189 247 303 359 432
#     4  11  22  40  65 102 148 189 238 292 365 430
#     4  11  26  46  76 106 134 182 246 313 374 434
#     4  10  26  46  69  99 148 191 243 294 363 442
#     4  11  25  40  67 104 149 196 238 297 357 439
#
# _framework density 24.549247999999999
#
# number of rings (size 3 to 8) (size 9 to 14) (size 15 to 20)
#    0.000    1.250    2.500    1.125   12.250    3.000 
#    0.000    1.250    0.000    0.000    0.000    0.000 
#    0.000    0.000    0.000    0.000    0.000    0.000 
#
# Total GULP energy -89413.333196 kJ/mol
# GULP energy per Si atom -5588.333325 kJ/mol
# Density = 2.449337 g / cm^3
# Si number density = 24.549248 Si / 1000 Ang^3
#
#
#
# Elastic Constant Matrix: (Units=GPa)
#
#
# Indices 1 2 3 4 5 6 
#
# 1 76.4364 33.8694 15.0273 9.4519 -0.3363 -11.3936
# 2 33.8694 135.9298 17.5303 21.5009 9.8885 0.1868
# 3 15.0273 17.5303 76.3299 26.7857 7.7472 14.4296
# 4 9.4519 21.5009 26.7857 30.0736 1.5246 -12.8162
# 5 -0.3363 9.8885 7.7472 1.5246 28.1595 8.3055
# 6 -11.3936 0.1868 14.4296 -12.8162 8.3055 30.9756
#
#
#
# Elastic Compliance Matrix: (Units=1/GPa)
#
#
# Indices 1 2 3 4 5 6 
#
# 1 0.019115 -0.006021 -0.012913 0.018948 -0.001413 0.021301
# 2 -0.006021 0.010851 0.007682 -0.018230 -0.001147 -0.013094
# 3 -0.012913 0.007682 0.048637 -0.069428 0.004447 -0.057371
# 4 0.018948 -0.018230 -0.069428 0.147000 -0.012809 0.103677
# 5 -0.001413 -0.001147 0.004447 -0.012809 0.040930 -0.018859
# 6 0.021301 -0.013094 -0.057371 0.103677 -0.018859 0.114877
#
#
# Mechanical properties :
#
#
# Convention : Reuss Voigt Hill
#
# Bulk Modulus (GPa) = 17.82535 46.83890 32.33213
# Shear Modulus (GPa) = 11.83112 32.65968 22.24540
#
# Velocity S-wave (km/s) = 2.19768 3.65139 3.01351
# Velocity P-wave (km/s) = 3.70359 6.07436 5.03063
#
# Compressibility (1/GPa) = 0.05609987
#
# Stress axis : x y z
#
# Youngs Moduli (GPa) = 52.31379 92.15518 20.56049
#
# Poissons Ratio (x) = 0.55488 0.26550
# Poissons Ratio (y) = 0.31499 -0.15795
# Poissons Ratio (z) = 0.67553 -0.70796
#
# Static dielectric constant tensor:
#      x y z
#    x 2.068350 0.084010 -0.045430 
#    y 0.084010 1.738840 0.184300 
#    z -0.045430 0.184300 1.714770 
# 
# From -- ./inp_files/551308.got.cif
#   From: 2010.05.17/outbox.cif.g08.bks.cpg/sg2_276_cif.got.tgz:551308.got - 2010.06.03 11:33:40.
