data_PCOD9051244
_publ_section_title
;
Structure prediction by ZEFSAII (Michael W. Deem and Ramdas Pophale) SiO2 
 PCOD9051244
Probable space group: P -1
;
_chemical_formula_sum "Si O2"
_cell_formula_units_Z 13
_cell_length_a 8.400098
_cell_length_b 8.612220
_cell_length_c 12.333599
_cell_angle_alpha 92.989167
_cell_angle_beta 85.084142
_cell_angle_gamma 36.325953
_cell_volume 515.387848
_symmetry_space_group_name_H-M "P -1"
_symmetry_group_IT_number 2
_symmetry_cell_setting 'triclinic'
loop_
_space_group_symop_operation_xyz
x,y,z
-x,-y,-z
loop_
_atom_site_type_symbol
_atom_site_label
_atom_site_fract_x
_atom_site_fract_y
_atom_site_fract_z
Si Si1 0.917924 0.894278 0.460735
Si Si2 0.976799 0.897855 0.205715
Si Si3 0.404588 0.228712 0.652547
Si Si4 0.620295 0.469109 0.165607
Si Si5 0.460880 0.980556 0.836529
Si Si6 0.000000 0.500000 0.500000
Si Si7 0.735568 0.610165 0.989163
O O1 0.105740 0.601059 0.477413
O O2 0.896361 0.929178 0.335366
O O3 0.636577 0.073152 0.544431
O O4 0.000000 0.000000 0.500000
O O5 0.815366 0.175352 0.180479
O O6 0.840394 0.861533 0.147358
O O7 0.301595 0.673823 0.180363
O O8 0.357540 0.412382 0.740513
O O9 0.136720 0.391152 0.609198
O O10 0.518036 0.999268 0.714151
O O11 0.720754 0.458234 0.044476
O O12 0.488786 0.110060 0.916523
O O13 0.651498 0.702692 0.873126
O O14 0.000000 0.500000 0.000000
#
# Coordination Sequence:
#
# PCOD9051244 Si02
#       7
#     2   2   2   2   2   1   2
#     4  12  26  45  72 106 157 200 253 308 374 451
#     4  12  27  47  73 112 149 195 247 313 379 447
#     4  11  25  46  70 105 148 199 250 307 366 461
#     4  11  28  47  75 107 151 194 249 313 379 450
#     4  10  25  45  73 106 145 189 253 310 376 450
#     4  12  26  42  72 106 146 208 258 302 376 452
#     4  10  25  48  76 102 141 198 243 312 384 454
#
# _framework density 25.223723
#
# number of rings (size 3 to 8) (size 9 to 14) (size 15 to 20)
#    0.000    0.923    3.077    1.385   10.769    3.692 
#    0.000    0.000    0.000    0.000    0.000    0.000 
#    0.000    0.000    0.000    0.000    0.000    0.000 
#
# Total GULP energy -72541.358699 kJ/mol
# GULP energy per Si atom -5580.104515 kJ/mol
# Density = 2.516631 g / cm^3
# Si number density = 25.223723 Si / 1000 Ang^3
#
#
#
# Elastic Constant Matrix: (Units=GPa)
#
#
# Indices 1 2 3 4 5 6 
#
# 1 143.2800 52.1117 74.6612 -14.9591 -0.3275 8.7972
# 2 52.1117 123.4845 68.7860 -50.6003 -12.6686 8.3416
# 3 74.6612 68.7860 167.7287 -43.7604 -9.4451 18.9935
# 4 -14.9591 -50.6003 -43.7604 54.8914 8.8073 -7.6711
# 5 -0.3275 -12.6686 -9.4451 8.8073 61.8481 -9.7207
# 6 8.7972 8.3416 18.9935 -7.6711 -9.7207 48.1846
#
#
#
# Elastic Compliance Matrix: (Units=1/GPa)
#
#
# Indices 1 2 3 4 5 6 
#
# 1 0.009961 -0.003559 -0.003918 -0.003614 -0.000823 -0.000399
# 2 -0.003559 0.015479 -0.001686 0.011852 0.001331 0.000790
# 3 -0.003918 -0.001686 0.009944 0.004995 0.000112 -0.002095
# 4 -0.003614 0.011852 0.004995 0.032556 -0.001217 0.001577
# 5 -0.000823 0.001331 0.000112 -0.001217 0.017120 0.003136
# 6 -0.000399 0.000790 -0.002095 0.001577 0.003136 0.022399
#
#
# Mechanical properties :
#
#
# Convention : Reuss Voigt Hill
#
# Bulk Modulus (GPa) = 58.62658 91.73455 75.18056
# Shear Modulus (GPa) = 38.03083 48.91378 43.47230
#
# Velocity S-wave (km/s) = 3.88718 4.40841 4.15597
# Velocity P-wave (km/s) = 6.59090 7.89680 7.27322
#
# Compressibility (1/GPa) = 0.01705711
#
# Stress axis : x y z
#
# Youngs Moduli (GPa) = 100.39204 64.60311 100.55996
#
# Poissons Ratio (x) = 0.22994 0.39402
# Poissons Ratio (y) = 0.35733 0.16955
# Poissons Ratio (z) = 0.39336 0.10892
#
# Static dielectric constant tensor:
#      x y z
#    x 1.970150 0.043300 0.014950 
#    y 0.043300 2.192100 0.139690 
#    z 0.014950 0.139690 1.992960 
# 
# From -- ./inp_files/28037.got.cif
#   From: 2010.05.17/outbox.cif.g08.bks.cpg/sg2_15_cif.got.tgz:28037.got - 2010.06.03 11:33:40.
