data_PCOD9051426
_publ_section_title
;
Structure prediction by ZEFSAII (Michael W. Deem and Ramdas Pophale) SiO2 
 PCOD9051426
Probable space group: P -1
;
_chemical_formula_sum "Si O2"
_cell_formula_units_Z 16
_cell_length_a 8.067659
_cell_length_b 11.251921
_cell_length_c 9.051135
_cell_angle_alpha 85.638047
_cell_angle_beta 124.731495
_cell_angle_gamma 105.360209
_cell_volume 648.211161
_symmetry_space_group_name_H-M "P -1"
_symmetry_group_IT_number 2
_symmetry_cell_setting 'triclinic'
loop_
_space_group_symop_operation_xyz
x,y,z
-x,-y,-z
loop_
_atom_site_type_symbol
_atom_site_label
_atom_site_fract_x
_atom_site_fract_y
_atom_site_fract_z
Si Si1 0.703616 0.965781 0.783111
Si Si2 0.220430 0.439996 0.206179
Si Si3 0.613856 0.401020 0.001151
Si Si4 0.390861 0.658050 0.473766
Si Si5 0.814272 0.776955 0.299727
Si Si6 0.894960 0.359585 0.410524
Si Si7 0.652690 0.909888 0.433624
Si Si8 0.059936 0.203479 0.971017
O O1 0.762606 0.951112 0.642806
O O2 0.481039 0.993491 0.674752
O O3 0.736047 0.846454 0.892048
O O4 0.864830 0.088041 0.916850
O O5 0.255359 0.525763 0.072776
O O6 0.222055 0.541585 0.323597
O O7 0.424957 0.395194 0.361337
O O8 0.064851 0.314326 0.075714
O O9 0.423876 0.293190 0.854374
O O10 0.500000 0.500000 0.000000
O O11 0.766051 0.360504 0.196370
O O12 0.274787 0.701194 0.546002
O O13 0.494303 0.773950 0.408757
O O14 0.793017 0.896651 0.366642
O O15 0.932233 0.773664 0.203694
O O16 0.919849 0.706568 0.480994
O O17 0.000000 0.500000 0.500000
#
# Coordination Sequence:
#
# PCOD9051426 Si02
#       8
#     2   2   2   2   2   2   2   2
#     4  10  25  46  70  93 135 180 231 276 335 394
#     4  11  21  39  71  99 139 174 218 276 345 404
#     4  12  21  42  65 101 142 175 215 274 344 413
#     4  11  22  39  69 102 134 182 217 273 347 406
#     4  12  25  44  69 101 136 176 227 283 339 401
#     4  12  24  40  64  98 146 182 214 267 342 415
#     4  11  24  47  69  96 134 180 226 281 335 404
#     4  11  22  45  70 101 133 176 226 285 331 400
#
# _framework density 24.683316000000001
#
# number of rings (size 3 to 8) (size 9 to 14) (size 15 to 20)
#    0.000    0.750    6.250    0.750    1.750    1.000 
#    6.750    1.875    0.000    0.000    0.000    0.000 
#    0.000    0.000    0.000    0.000    0.000    0.000 
#
# Total GULP energy -89492.708278 kJ/mol
# GULP energy per Si atom -5593.294267 kJ/mol
# Density = 2.462714 g / cm^3
# Si number density = 24.683316 Si / 1000 Ang^3
#
#
#
# Elastic Constant Matrix: (Units=GPa)
#
#
# Indices 1 2 3 4 5 6 
#
# 1 45.1880 19.8254 28.1970 4.6715 -13.8127 -10.1334
# 2 19.8254 99.5498 48.5879 14.7259 0.8613 -10.1454
# 3 28.1970 48.5879 128.1322 -16.4048 -2.0146 -23.6542
# 4 4.6715 14.7259 -16.4048 62.4354 -9.7638 5.8354
# 5 -13.8127 0.8613 -2.0146 -9.7638 32.0855 2.1915
# 6 -10.1334 -10.1454 -23.6542 5.8354 2.1915 29.8591
#
#
#
# Elastic Compliance Matrix: (Units=1/GPa)
#
#
# Indices 1 2 3 4 5 6 
#
# 1 0.031749 -0.003417 -0.004695 -0.001303 0.012712 0.005216
# 2 -0.003417 0.014115 -0.005161 -0.005098 -0.003781 0.000822
# 3 -0.004695 -0.005161 0.012379 0.004264 -0.000193 0.005640
# 4 -0.001303 -0.005098 0.004264 0.019669 0.006040 -0.003084
# 5 0.012712 -0.003781 -0.000193 0.006040 0.038644 -0.001140
# 6 0.005216 0.000822 0.005640 -0.003084 -0.001140 0.040695
#
#
# Mechanical properties :
#
#
# Convention : Reuss Voigt Hill
#
# Bulk Modulus (GPa) = 31.54903 51.78785 41.66844
# Shear Modulus (GPa) = 25.72516 36.62665 31.17590
#
# Velocity S-wave (km/s) = 3.23183 3.85627 3.55778
# Velocity P-wave (km/s) = 5.17064 6.39173 5.81334
#
# Compressibility (1/GPa) = 0.03169670
#
# Stress axis : x y z
#
# Youngs Moduli (GPa) = 31.49754 70.84570 80.78347
#
# Poissons Ratio (x) = 0.24208 0.37928
# Poissons Ratio (y) = 0.10763 0.41692
# Poissons Ratio (z) = 0.14788 0.36563
#
# Static dielectric constant tensor:
#      x y z
#    x 2.198140 0.041140 0.141370 
#    y 0.041140 1.940820 0.003120 
#    z 0.141370 0.003120 2.084070 
# 
# From -- ./inp_files/188082.got.cif
#   From: 2010.05.17/outbox.cif.g08.bks.cpg/sg2_95_cif.got.tgz:188082.got - 2010.06.03 11:33:40.
