data_PCOD9051193
_publ_section_title
;
Structure prediction by ZEFSAII (Michael W. Deem and Ramdas Pophale) SiO2 
 PCOD9051193
Probable space group: P -1
;
_chemical_formula_sum "Si O2"
_cell_formula_units_Z 14
_cell_length_a 12.514895
_cell_length_b 9.358269
_cell_length_c 5.303918
_cell_angle_alpha 93.988043
_cell_angle_beta 92.996635
_cell_angle_gamma 75.764142
_cell_volume 600.251956
_symmetry_space_group_name_H-M "P -1"
_symmetry_group_IT_number 2
_symmetry_cell_setting 'triclinic'
loop_
_space_group_symop_operation_xyz
x,y,z
-x,-y,-z
loop_
_atom_site_type_symbol
_atom_site_label
_atom_site_fract_x
_atom_site_fract_y
_atom_site_fract_z
Si Si1 0.419127 0.623330 0.172771
Si Si2 0.176670 0.278058 0.587912
Si Si3 0.781822 0.909364 0.932753
Si Si4 0.254552 0.549930 0.494202
Si Si5 0.818756 0.213671 0.091716
Si Si6 0.952219 0.383083 0.834691
Si Si7 0.541554 0.065806 0.761363
O O1 0.374083 0.551614 0.402937
O O2 0.477319 0.757591 0.240073
O O3 0.500000 0.500000 0.000000
O O4 0.301037 0.701498 0.033911
O O5 0.179824 0.207807 0.301083
O O6 0.239843 0.410886 0.637522
O O7 0.045988 0.326657 0.634509
O O8 0.227900 0.169047 0.811176
O O9 0.670828 0.002053 0.801042
O O10 0.838825 0.039858 0.035536
O O11 0.200878 0.710818 0.627029
O O12 0.168034 0.536944 0.266700
O O13 0.923569 0.258223 0.989276
O O14 0.000000 0.500000 0.000000
O O15 0.500000 0.000000 0.500000
O O16 0.500000 0.000000 0.000000
#
# Coordination Sequence:
#
# PCOD9051193 Si02
#       7
#     2   2   2   2   2   2   2
#     4  10  26  47  72 107 138 186 245 300 357 430
#     4  12  26  44  75 106 147 190 242 298 349 437
#     4  11  28  46  68 111 148 184 242 297 366 422
#     4  11  25  45  76  99 145 193 241 298 359 427
#     4  10  25  45  72 100 147 188 234 302 360 430
#     4  11  23  45  71 107 143 192 245 293 363 417
#     4  11  26  49  76 101 144 192 233 300 366 425
#
# _framework density 23.323540999999999
#
# number of rings (size 3 to 8) (size 9 to 14) (size 15 to 20)
#    0.000    1.143    1.429    2.143   16.000    2.857 
#    0.000    0.000    0.000    0.000    0.000    0.000 
#    0.000    0.000    0.000    0.000    0.000    0.000 
#
# Total GULP energy -78147.208539 kJ/mol
# GULP energy per Si atom -5581.943467 kJ/mol
# Density = 2.327046 g / cm^3
# Si number density = 23.323541 Si / 1000 Ang^3
#
#
#
# Elastic Constant Matrix: (Units=GPa)
#
#
# Indices 1 2 3 4 5 6 
#
# 1 91.8940 52.9248 33.2905 13.5278 -13.9211 25.5451
# 2 52.9248 129.0215 67.2823 23.1923 -3.4003 24.0416
# 3 33.2905 67.2823 127.0007 21.4413 -5.0696 28.4233
# 4 13.5278 23.1923 21.4413 43.1941 -8.0059 5.0026
# 5 -13.9211 -3.4003 -5.0696 -8.0059 49.9623 2.9376
# 6 25.5451 24.0416 28.4233 5.0026 2.9376 34.8808
#
#
#
# Elastic Compliance Matrix: (Units=1/GPa)
#
#
# Indices 1 2 3 4 5 6 
#
# 1 0.017352 -0.005445 0.000924 -0.000883 0.005005 -0.010002
# 2 -0.005445 0.013197 -0.004996 -0.003145 -0.001603 -0.000451
# 3 0.000924 -0.004996 0.012350 -0.002713 0.001148 -0.007004
# 4 -0.000883 -0.003145 -0.002713 0.027022 0.003544 0.000852
# 5 0.005005 -0.001603 0.001148 0.003544 0.022331 -0.005884
# 6 -0.010002 -0.000451 -0.007004 0.000852 -0.005884 0.042386
#
#
# Mechanical properties :
#
#
# Convention : Reuss Voigt Hill
#
# Bulk Modulus (GPa) = 41.90421 72.76792 57.33606
# Shear Modulus (GPa) = 30.93538 38.56869 34.75203
#
# Velocity S-wave (km/s) = 3.64587 4.07091 3.86424
# Velocity P-wave (km/s) = 5.97735 7.30503 6.67428
#
# Compressibility (1/GPa) = 0.02386395
#
# Stress axis : x y z
#
# Youngs Moduli (GPa) = 57.62970 75.77628 80.97067
#
# Poissons Ratio (x) = 0.41261 -0.07479
# Poissons Ratio (y) = 0.31380 0.40454
# Poissons Ratio (z) = -0.05323 0.37859
#
# Static dielectric constant tensor:
#      x y z
#    x 1.947920 -0.118690 0.022370 
#    y -0.118690 1.881790 0.043870 
#    z 0.022370 0.043870 1.935730 
# 
# From -- ./inp_files/27483.got.cif
#   From: 2010.05.17/outbox.cif.g08.bks.cpg/sg2_14_cif.got.tgz:27483.got - 2010.06.03 11:33:40.
