data_PCOD9051195
_publ_section_title
;
Structure prediction by ZEFSAII (Michael W. Deem and Ramdas Pophale) SiO2 
 PCOD9051195
Probable space group: P -1
;
_chemical_formula_sum "Si O2"
_cell_formula_units_Z 16
_cell_length_a 10.507541
_cell_length_b 14.630546
_cell_length_c 11.278822
_cell_angle_alpha 124.639991
_cell_angle_beta 105.756109
_cell_angle_gamma 30.142163
_cell_volume 606.310010
_symmetry_space_group_name_H-M "P -1"
_symmetry_group_IT_number 2
_symmetry_cell_setting 'triclinic'
loop_
_space_group_symop_operation_xyz
x,y,z
-x,-y,-z
loop_
_atom_site_type_symbol
_atom_site_label
_atom_site_fract_x
_atom_site_fract_y
_atom_site_fract_z
Si Si1 0.301841 0.303614 0.359694
Si Si2 0.823051 0.786289 0.195040
Si Si3 0.166634 0.887829 0.141466
Si Si4 0.091306 0.304061 0.125034
Si Si5 0.820245 0.305977 0.177533
Si Si6 0.118779 0.629498 0.379582
Si Si7 0.520140 0.822068 0.286500
Si Si8 0.762713 0.203473 0.487298
O O1 0.000000 0.500000 0.500000
O O2 0.330909 0.191330 0.177364
O O3 0.269629 0.439844 0.376681
O O4 0.598811 0.060854 0.333448
O O5 0.094946 0.599692 0.218321
O O6 0.634792 0.821656 0.216552
O O7 0.918504 0.694329 0.017469
O O8 0.411330 0.782590 0.186693
O O9 0.296112 0.688124 0.951417
O O10 0.990550 0.101464 0.164253
O O11 0.920249 0.036517 0.286229
O O12 0.050235 0.216134 0.108569
O O13 0.784347 0.606498 0.287730
O O14 0.563596 0.570228 0.372532
O O15 0.251214 0.652566 0.431695
O O16 0.772137 0.902334 0.528580
O O17 0.000000 0.000000 0.500000
#
# Coordination Sequence:
#
# PCOD9051195 Si02
#       8
#     2   2   2   2   2   2   2   2
#     4  12  25  45  73 102 142 185 226 287 356 419
#     4  12  25  44  70 103 146 176 233 288 349 427
#     4  10  25  45  72 101 134 188 234 298 352 415
#     4  12  27  42  69 104 138 187 228 288 356 421
#     4  11  25  47  69 100 145 181 239 296 351 416
#     4  11  25  46  71 107 134 188 235 286 355 416
#     4  11  22  45  69  97 143 176 232 290 346 424
#     4  11  26  46  72 102 139 185 242 290 352 424
#
# _framework density 26.389143000000001
#
# number of rings (size 3 to 8) (size 9 to 14) (size 15 to 20)
#    0.000    0.750    2.500    4.500    5.250    3.000 
#    0.000    0.000    0.000    0.000    0.000    0.000 
#    0.000    0.000    0.000    0.000    0.000    0.000 
#
# Total GULP energy -89733.342294 kJ/mol
# GULP energy per Si atom -5608.333893 kJ/mol
# Density = 2.632908 g / cm^3
# Si number density = 26.389143 Si / 1000 Ang^3
#
#
#
# Elastic Constant Matrix: (Units=GPa)
#
#
# Indices 1 2 3 4 5 6 
#
# 1 84.8322 20.2988 13.6982 -15.9434 -9.2065 20.2779
# 2 20.2988 124.3001 17.9863 -10.5530 5.5486 17.6221
# 3 13.6982 17.9863 112.3315 -35.8811 -0.5745 5.1959
# 4 -15.9434 -10.5530 -35.8811 47.3308 8.6330 3.6425
# 5 -9.2065 5.5486 -0.5745 8.6330 39.6917 -4.1150
# 6 20.2779 17.6221 5.1959 3.6425 -4.1150 49.9951
#
#
#
# Elastic Compliance Matrix: (Units=1/GPa)
#
#
# Indices 1 2 3 4 5 6 
#
# 1 0.014534 -0.001276 0.000272 0.004908 0.001898 -0.005675
# 2 -0.001276 0.009002 -0.000603 0.001753 -0.002246 -0.002905
# 3 0.000272 -0.000603 0.012142 0.009681 -0.001993 -0.002029
# 4 0.004908 0.001753 0.009681 0.032226 -0.006651 -0.006510
# 5 0.001898 -0.002246 -0.001993 -0.006651 0.027676 0.002991
# 6 -0.005675 -0.002905 -0.002029 -0.006510 0.002991 0.024259
#
#
# Mechanical properties :
#
#
# Convention : Reuss Voigt Hill
#
# Bulk Modulus (GPa) = 30.80403 47.27005 39.03704
# Shear Modulus (GPa) = 37.34857 45.36888 41.35872
#
# Velocity S-wave (km/s) = 3.76613 4.15085 3.96316
# Velocity P-wave (km/s) = 5.53263 6.39721 5.98057
#
# Compressibility (1/GPa) = 0.03246329
#
# Stress axis : x y z
#
# Youngs Moduli (GPa) = 68.80257 111.09061 82.36082
#
# Poissons Ratio (x) = 0.14179 -0.02239
# Poissons Ratio (y) = 0.08782 0.04964
# Poissons Ratio (z) = -0.01871 0.06696
#
# Static dielectric constant tensor:
#      x y z
#    x 2.112320 -0.054210 -0.028500 
#    y -0.054210 2.034770 0.003790 
#    z -0.028500 0.003790 2.176310 
# 
# From -- ./inp_files/434253.got.cif
#   From: 2010.05.17/outbox.cif.g08.bks.cpg/sg2_218_cif.got.tgz:434253.got - 2010.06.03 11:33:40.
