data_PCOD9051230
_publ_section_title
;
Structure prediction by ZEFSAII (Michael W. Deem and Ramdas Pophale) SiO2 
 PCOD9051230
Probable space group: P -1
;
_chemical_formula_sum "Si O2"
_cell_formula_units_Z 13
_cell_length_a 14.474857
_cell_length_b 12.757560
_cell_length_c 9.786456
_cell_angle_alpha 37.109206
_cell_angle_beta 45.078653
_cell_angle_gamma 28.917942
_cell_volume 527.044283
_symmetry_space_group_name_H-M "P -1"
_symmetry_group_IT_number 2
_symmetry_cell_setting 'triclinic'
loop_
_space_group_symop_operation_xyz
x,y,z
-x,-y,-z
loop_
_atom_site_type_symbol
_atom_site_label
_atom_site_fract_x
_atom_site_fract_y
_atom_site_fract_z
Si Si1 0.881575 0.553686 0.937107
Si Si2 0.583144 0.273450 0.549442
Si Si3 0.489824 0.268809 0.178825
Si Si4 0.186908 0.261591 0.465073
Si Si5 0.957541 0.086627 0.295432
Si Si6 0.500000 0.000000 0.000000
Si Si7 0.319674 0.607592 0.263164
O O1 0.884645 0.685554 0.670517
O O2 0.954958 0.297091 0.069236
O O3 0.666100 0.731041 0.026821
O O4 0.000000 0.500000 0.000000
O O5 0.500000 0.500000 0.500000
O O6 0.756240 0.191078 0.373692
O O7 0.418744 0.379085 0.503195
O O8 0.636053 0.044267 0.805591
O O9 0.354616 0.244687 0.298172
O O10 0.355805 0.498472 0.189287
O O11 0.687433 0.013304 0.311376
O O12 0.561372 0.328645 0.925778
O O13 0.000000 0.500000 0.500000
O O14 0.000000 0.000000 0.500000
O O15 0.111656 0.854707 0.274734
#
# Coordination Sequence:
#
# PCOD9051230 Si02
#       7
#     2   2   2   2   2   1   2
#     4  12  27  43  72 109 144 192 245 304 369 433
#     4  12  24  44  69 103 148 185 238 299 369 431
#     4  10  25  45  73 100 140 196 238 297 362 434
#     4  11  25  47  72 104 146 190 244 305 359 437
#     4  12  24  42  68 102 145 191 236 302 365 438
#     4  12  26  44  70 106 148 194 232 298 374 442
#     4  11  24  46  70 101 140 185 245 296 360 437
#
# _framework density 24.665859999999999
#
# number of rings (size 3 to 8) (size 9 to 14) (size 15 to 20)
#    0.000    0.615    3.077    3.692    0.000    7.385 
#    0.000    3.846    0.000    0.000    0.000    0.000 
#    0.000    0.000    0.000    0.000    0.000    0.000 
#
# Total GULP energy -72527.683514 kJ/mol
# GULP energy per Si atom -5579.052578 kJ/mol
# Density = 2.460972 g / cm^3
# Si number density = 24.665860 Si / 1000 Ang^3
#
#
#
# Elastic Constant Matrix: (Units=GPa)
#
#
# Indices 1 2 3 4 5 6 
#
# 1 67.7372 33.1386 29.6807 -2.9720 1.6793 -3.2188
# 2 33.1386 206.8325 26.6234 10.2157 16.3572 -18.9159
# 3 29.6807 26.6234 70.2936 -2.9986 8.7453 -3.7076
# 4 -2.9720 10.2157 -2.9986 43.9391 5.5439 -1.6628
# 5 1.6793 16.3572 8.7453 5.5439 43.8354 -3.0790
# 6 -3.2188 -18.9159 -3.7076 -1.6628 -3.0790 27.5995
#
#
#
# Elastic Compliance Matrix: (Units=1/GPa)
#
#
# Indices 1 2 3 4 5 6 
#
# 1 0.019110 -0.002297 -0.007334 0.001141 0.001437 -0.000102
# 2 -0.002297 0.005808 -0.000920 -0.001252 -0.001502 0.003346
# 3 -0.007334 -0.000920 0.018155 0.001377 -0.003124 0.000687
# 4 0.001141 -0.001252 0.001377 0.023595 -0.002795 0.000569
# 5 0.001437 -0.001502 -0.003124 -0.002795 0.024384 0.001270
# 6 -0.000102 0.003346 0.000687 0.000569 0.001270 0.038782
#
#
# Mechanical properties :
#
#
# Convention : Reuss Voigt Hill
#
# Bulk Modulus (GPa) = 45.51617 58.19430 51.85523
# Shear Modulus (GPa) = 31.59341 40.10284 35.84813
#
# Velocity S-wave (km/s) = 3.58279 4.03655 3.81642
# Velocity P-wave (km/s) = 5.96727 6.73567 6.36308
#
# Compressibility (1/GPa) = 0.02197022
#
# Stress axis : x y z
#
# Youngs Moduli (GPa) = 52.32840 172.17804 55.08141
#
# Poissons Ratio (x) = 0.39550 0.40399
# Poissons Ratio (y) = 0.12020 0.05067
# Poissons Ratio (z) = 0.38380 0.15838
#
# Static dielectric constant tensor:
#      x y z
#    x 2.058170 -0.009820 0.026830 
#    y -0.009820 1.954450 -0.057550 
#    z 0.026830 -0.057550 2.099280 
# 
# From -- ./inp_files/306126.got.cif
#   From: 2010.05.17/outbox.cif.g08.bks.cpg/sg2_154_cif.got.tgz:306126.got - 2010.06.03 11:33:40.
