data_PCOD9051310
_publ_section_title
;
Structure prediction by ZEFSAII (Michael W. Deem and Ramdas Pophale) SiO2 
 PCOD9051310
Probable space group: P -1
;
_chemical_formula_sum "Si O2"
_cell_formula_units_Z 14
_cell_length_a 9.359428
_cell_length_b 9.383213
_cell_length_c 7.543216
_cell_angle_alpha 102.266337
_cell_angle_beta 60.839796
_cell_angle_gamma 74.783910
_cell_volume 510.659725
_symmetry_space_group_name_H-M "P -1"
_symmetry_group_IT_number 2
_symmetry_cell_setting 'triclinic'
loop_
_space_group_symop_operation_xyz
x,y,z
-x,-y,-z
loop_
_atom_site_type_symbol
_atom_site_label
_atom_site_fract_x
_atom_site_fract_y
_atom_site_fract_z
Si Si1 0.734429 0.033999 0.000845
Si Si2 0.281182 0.476208 0.509273
Si Si3 0.129374 0.723664 0.390968
Si Si4 0.160231 0.944793 0.708149
Si Si5 0.648434 0.479275 0.133026
Si Si6 0.460907 0.172605 0.887318
Si Si7 0.245884 0.151551 0.513497
O O1 0.593898 0.145406 0.968320
O O2 0.704835 0.132384 0.230704
O O3 0.701790 0.872237 0.967665
O O4 0.949045 0.984519 0.851998
O O5 0.460740 0.473032 0.303611
O O6 0.252097 0.546715 0.744640
O O7 0.278233 0.305225 0.494874
O O8 0.132701 0.589348 0.491246
O O9 0.215924 0.825741 0.473656
O O10 0.923322 0.837576 0.498242
O O11 0.235664 0.640867 0.125033
O O12 0.173921 0.115908 0.733166
O O13 0.425152 0.988365 0.338063
O O14 0.604027 0.657165 0.125795
#
# Coordination Sequence:
#
# PCOD9051310 Si02
#       7
#     2   2   2   2   2   2   2
#     4  10  25  45  84 117 156 204 272 321 391 461
#     4  11  28  51  76 116 158 207 263 320 398 475
#     4  12  27  50  75 115 160 206 258 329 396 467
#     4  11  25  50  79 119 157 208 265 328 389 471
#     4  11  28  53  81 112 160 209 259 326 401 471
#     4  11  25  51  82 118 155 208 269 327 388 473
#     4  12  27  48  80 112 158 206 266 329 389 466
#
# _framework density 27.415516
#
# number of rings (size 3 to 8) (size 9 to 14) (size 15 to 20)
#    0.000    0.857    1.429    3.000    6.000    9.714 
#    0.000    0.000    0.000    0.000    0.000    0.000 
#    0.000    0.000    0.000    0.000    0.000    0.000 
#
# Total GULP energy -78335.014062 kJ/mol
# GULP energy per Si atom -5595.358147 kJ/mol
# Density = 2.735312 g / cm^3
# Si number density = 27.415516 Si / 1000 Ang^3
#
#
#
# Elastic Constant Matrix: (Units=GPa)
#
#
# Indices 1 2 3 4 5 6 
#
# 1 141.6503 35.6523 79.3167 -10.6769 33.1357 -4.6484
# 2 35.6523 194.7266 56.2643 -34.8179 -9.5533 24.1735
# 3 79.3167 56.2643 123.6482 -4.4520 19.2651 4.3640
# 4 -10.6769 -34.8179 -4.4520 46.0411 5.8395 -2.2492
# 5 33.1357 -9.5533 19.2651 5.8395 56.5091 -1.1995
# 6 -4.6484 24.1735 4.3640 -2.2492 -1.1995 36.1709
#
#
#
# Elastic Compliance Matrix: (Units=1/GPa)
#
#
# Indices 1 2 3 4 5 6 
#
# 1 0.012691 -0.000359 -0.007149 0.002786 -0.005295 0.002731
# 2 -0.000359 0.007663 -0.003236 0.004929 0.002006 -0.004404
# 3 -0.007149 -0.003236 0.014221 -0.002643 -0.000945 -0.000667
# 4 0.002786 0.004929 -0.002643 0.026117 -0.002621 -0.001080
# 5 -0.005295 0.002006 -0.000945 -0.002621 0.021705 -0.001351
# 6 0.002731 -0.004404 -0.000667 -0.001080 -0.001351 0.030909
#
#
# Mechanical properties :
#
#
# Convention : Reuss Voigt Hill
#
# Bulk Modulus (GPa) = 76.40945 89.16574 82.78760
# Shear Modulus (GPa) = 35.93079 46.99703 41.46391
#
# Velocity S-wave (km/s) = 3.62415 4.14484 3.89321
# Velocity P-wave (km/s) = 6.74122 7.44988 7.10439
#
# Compressibility (1/GPa) = 0.01308739
#
# Stress axis : x y z
#
# Youngs Moduli (GPa) = 78.79514 130.50351 70.31636
#
# Poissons Ratio (x) = 0.04682 0.50268
# Poissons Ratio (y) = 0.02827 0.22757
# Poissons Ratio (z) = 0.56329 0.42235
#
# Static dielectric constant tensor:
#      x y z
#    x 2.108100 0.000340 0.089190 
#    y 0.000340 2.198600 -0.157090 
#    z 0.089190 -0.157090 2.540760 
# 
# From -- ./inp_files/179706.got.cif
#   From: 2010.05.17/outbox.cif.g08.bks.cpg/sg2_90_cif.got.tgz:179706.got - 2010.06.03 11:33:40.
