data_PCOD9051675
_publ_section_title
;
Structure prediction by ZEFSAII (Michael W. Deem and Ramdas Pophale) SiO2 
 PCOD9051675
Probable space group: P -1
;
_chemical_formula_sum "Si O2"
_cell_formula_units_Z 16
_cell_length_a 13.768866
_cell_length_b 9.017764
_cell_length_c 12.078641
_cell_angle_alpha 64.910300
_cell_angle_beta 100.522207
_cell_angle_gamma 47.369358
_cell_volume 708.631414
_symmetry_space_group_name_H-M "P -1"
_symmetry_group_IT_number 2
_symmetry_cell_setting 'triclinic'
loop_
_space_group_symop_operation_xyz
x,y,z
-x,-y,-z
loop_
_atom_site_type_symbol
_atom_site_label
_atom_site_fract_x
_atom_site_fract_y
_atom_site_fract_z
Si Si1 0.935128 0.259100 0.963066
Si Si2 0.101639 0.214738 0.813765
Si Si3 0.799625 0.035362 0.690905
Si Si4 0.180713 0.119248 0.504003
Si Si5 0.506292 0.912800 0.650188
Si Si6 0.533968 0.700163 0.362849
Si Si7 0.708012 0.269540 0.152615
Si Si8 0.506429 0.798284 0.071425
O O1 0.714583 0.570023 0.830109
O O2 0.997818 0.314187 0.873431
O O3 0.000000 0.000000 0.000000
O O4 0.032153 0.163051 0.129538
O O5 0.974528 0.522737 0.624667
O O6 0.150742 0.976174 0.837090
O O7 0.301172 0.018121 0.933829
O O8 0.680524 0.369860 0.551380
O O9 0.665820 0.085671 0.703057
O O10 0.847033 0.913282 0.614822
O O11 0.376129 0.939195 0.610405
O O12 0.201668 0.952852 0.654205
O O13 0.500000 0.000000 0.500000
O O14 0.438657 0.151551 0.641398
O O15 0.549704 0.671715 0.243199
O O16 0.660420 0.516179 0.107105
O O17 0.500000 0.500000 0.000000
O O18 0.500000 0.000000 0.000000
#
# Coordination Sequence:
#
# PCOD9051675 Si02
#       8
#     2   2   2   2   2   2   2   2
#     4  12  27  43  72 113 147 186 241 297 369 435
#     4  11  25  46  72 103 148 189 244 296 360 430
#     4  11  24  43  72 105 147 190 230 303 367 429
#     4  12  25  48  74 105 146 192 242 299 370 431
#     4  12  25  42  70 109 140 183 240 293 362 439
#     4  11  23  41  70  99 148 185 237 293 368 422
#     4  10  25  47  71  98 137 196 241 295 354 426
#     4  11  25  46  71 105 140 195 244 297 356 434
#
# _framework density 22.578735999999999
#
# number of rings (size 3 to 8) (size 9 to 14) (size 15 to 20)
#    0.000    0.750    5.000    1.125   10.500    1.000 
#    0.000    0.625    0.000    0.000    0.000    0.000 
#    0.000    0.000    0.000    0.000    0.000    0.000 
#
# Total GULP energy -89572.799649 kJ/mol
# GULP energy per Si atom -5598.299978 kJ/mol
# Density = 2.252735 g / cm^3
# Si number density = 22.578736 Si / 1000 Ang^3
#
#
#
# Elastic Constant Matrix: (Units=GPa)
#
#
# Indices 1 2 3 4 5 6 
#
# 1 50.7225 17.2455 20.9821 11.5145 -3.6913 18.0430
# 2 17.2455 124.4116 50.0618 0.9606 6.3393 12.7242
# 3 20.9821 50.0618 141.6712 9.8068 10.7081 7.8427
# 4 11.5145 0.9606 9.8068 31.4393 6.5675 -12.3143
# 5 -3.6913 6.3393 10.7081 6.5675 29.9727 -0.3164
# 6 18.0430 12.7242 7.8427 -12.3143 -0.3164 25.0300
#
#
#
# Elastic Compliance Matrix: (Units=1/GPa)
#
#
# Indices 1 2 3 4 5 6 
#
# 1 0.054477 -0.000862 -0.002489 -0.046564 0.017342 -0.060742
# 2 -0.000862 0.009799 -0.003046 -0.000181 -0.001088 -0.003508
# 3 -0.002489 -0.003046 0.008782 -0.001222 -0.002532 -0.000043
# 4 -0.046564 -0.000181 -0.001222 0.083258 -0.022714 0.074715
# 5 0.017342 -0.001088 -0.002532 -0.022714 0.041381 -0.021807
# 6 -0.060742 -0.003508 -0.000043 0.074715 -0.021807 0.122017
#
#
# Mechanical properties :
#
#
# Convention : Reuss Voigt Hill
#
# Bulk Modulus (GPa) = 16.59345 54.82044 35.70694
# Shear Modulus (GPa) = 14.18058 32.52280 23.35169
#
# Velocity S-wave (km/s) = 2.50881 3.79940 3.21944
# Velocity P-wave (km/s) = 3.96954 6.60149 5.44688
#
# Compressibility (1/GPa) = 0.06026476
#
# Stress axis : x y z
#
# Youngs Moduli (GPa) = 18.35631 102.05585 113.87042
#
# Poissons Ratio (x) = 0.08794 0.28340
# Poissons Ratio (y) = 0.01582 0.34684
# Poissons Ratio (z) = 0.04569 0.31085
#
# Static dielectric constant tensor:
#      x y z
#    x 1.825110 0.006060 -0.015520 
#    y 0.006060 1.862350 0.042550 
#    z -0.015520 0.042550 1.839100 
# 
# From -- ./inp_files/207707.got.cif
#   From: 2010.05.17/outbox.cif.g08.bks.cpg/sg2_104_cif.got.tgz:207707.got - 2010.06.03 11:33:40.
