data_PCOD9051334
_publ_section_title
;
Structure prediction by ZEFSAII (Michael W. Deem and Ramdas Pophale) SiO2 
 PCOD9051334
Probable space group: P -1
;
_chemical_formula_sum "Si O2"
_cell_formula_units_Z 14
_cell_length_a 10.648767
_cell_length_b 8.154049
_cell_length_c 16.780686
_cell_angle_alpha 51.495963
_cell_angle_beta 140.061640
_cell_angle_gamma 100.673445
_cell_volume 595.515017
_symmetry_space_group_name_H-M "P -1"
_symmetry_group_IT_number 2
_symmetry_cell_setting 'triclinic'
loop_
_space_group_symop_operation_xyz
x,y,z
-x,-y,-z
loop_
_atom_site_type_symbol
_atom_site_label
_atom_site_fract_x
_atom_site_fract_y
_atom_site_fract_z
Si Si1 0.354873 0.440725 0.509702
Si Si2 0.717487 0.224705 0.295977
Si Si3 0.676096 0.943664 0.491157
Si Si4 0.209129 0.768895 0.117210
Si Si5 0.822761 0.683639 0.789033
Si Si6 0.512671 0.790573 0.969722
Si Si7 0.850295 0.947289 0.147161
O O1 0.500000 0.500000 0.500000
O O2 0.276086 0.271639 0.482599
O O3 0.543914 0.282187 0.719289
O O4 0.122114 0.700176 0.352051
O O5 0.566989 0.194182 0.164491
O O6 0.650620 0.181663 0.363553
O O7 0.656359 0.501062 0.162167
O O8 0.000000 0.000000 0.500000
O O9 0.868681 0.805598 0.698480
O O10 0.409863 0.070773 0.357404
O O11 0.232410 0.506459 0.221408
O O12 0.159860 0.844332 0.977860
O O13 0.000000 0.000000 0.000000
O O14 0.000000 0.500000 0.000000
O O15 0.271558 0.955057 0.856034
O O16 0.683334 0.880855 0.040708
#
# Coordination Sequence:
#
# PCOD9051334 Si02
#       7
#     2   2   2   2   2   2   2
#     4  12  23  42  68  97 134 178 224 273 340 403
#     4  11  24  45  72  95 135 180 230 275 340 399
#     4  11  24  43  63  98 132 171 222 273 329 403
#     4  12  23  40  66  99 134 177 220 277 338 406
#     4  11  25  40  64  95 135 172 214 269 337 399
#     4  10  25  46  67 104 131 182 228 284 337 395
#     4  11  24  43  70  97 140 171 229 283 336 400
#
# _framework density 23.509063999999999
#
# number of rings (size 3 to 8) (size 9 to 14) (size 15 to 20)
#    0.000    0.857    2.857    3.429    0.000    6.857 
#    0.000    3.571    0.000    0.000    0.000    0.000 
#    0.000    0.000    0.000    0.000    0.000    0.000 
#
# Total GULP energy -78329.037941 kJ/mol
# GULP energy per Si atom -5594.931282 kJ/mol
# Density = 2.345556 g / cm^3
# Si number density = 23.509064 Si / 1000 Ang^3
#
#
#
# Elastic Constant Matrix: (Units=GPa)
#
#
# Indices 1 2 3 4 5 6 
#
# 1 69.8535 2.7747 44.8856 -4.6246 -8.4306 4.1168
# 2 2.7747 54.8168 15.6631 -10.8747 -7.5546 2.9098
# 3 44.8856 15.6631 166.1809 -1.4123 -14.1267 -12.6518
# 4 -4.6246 -10.8747 -1.4123 38.6404 -10.0659 -1.9715
# 5 -8.4306 -7.5546 -14.1267 -10.0659 58.2909 -5.3314
# 6 4.1168 2.9098 -12.6518 -1.9715 -5.3314 27.1332
#
#
#
# Elastic Compliance Matrix: (Units=1/GPa)
#
#
# Indices 1 2 3 4 5 6 
#
# 1 0.018322 0.001586 -0.005319 0.002600 0.001564 -0.004934
# 2 0.001586 0.020703 -0.002221 0.006677 0.003311 -0.002361
# 3 -0.005319 -0.002221 0.008160 -0.000359 0.001323 0.005084
# 4 0.002600 0.006677 -0.000359 0.029864 0.006510 0.002171
# 5 0.001564 0.003311 0.001323 0.006510 0.019654 0.004359
# 6 -0.004934 -0.002361 0.005084 0.002171 0.004359 0.041242
#
#
# Mechanical properties :
#
#
# Convention : Reuss Voigt Hill
#
# Bulk Modulus (GPa) = 28.34712 46.38868 37.36790
# Shear Modulus (GPa) = 30.93816 39.98142 35.45979
#
# Velocity S-wave (km/s) = 3.63162 4.12841 3.88796
# Velocity P-wave (km/s) = 5.44693 6.51921 6.00704
#
# Compressibility (1/GPa) = 0.03527695
#
# Stress axis : x y z
#
# Youngs Moduli (GPa) = 54.57888 48.30135 122.54893
#
# Poissons Ratio (x) = -0.07659 0.65182
# Poissons Ratio (y) = -0.08655 0.27220
# Poissons Ratio (z) = 0.29030 0.10728
#
# Static dielectric constant tensor:
#      x y z
#    x 1.970290 -0.012480 -0.014420 
#    y -0.012480 1.903180 0.026550 
#    z -0.014420 0.026550 1.880350 
# 
# From -- ./inp_files/255949.got.cif
#   From: 2010.05.17/outbox.cif.g08.bks.cpg/sg2_128_cif.got.tgz:255949.got - 2010.06.03 11:33:40.
