data_PCOD9051525
_publ_section_title
;
Structure prediction by ZEFSAII (Michael W. Deem and Ramdas Pophale) SiO2 
 PCOD9051525
Probable space group: P -1
;
_chemical_formula_sum "Si O2"
_cell_formula_units_Z 13
_cell_length_a 8.624842
_cell_length_b 4.977681
_cell_length_c 18.385174
_cell_angle_alpha 91.693767
_cell_angle_beta 142.681284
_cell_angle_gamma 90.662061
_cell_volume 477.505625
_symmetry_space_group_name_H-M "P -1"
_symmetry_group_IT_number 2
_symmetry_cell_setting 'triclinic'
loop_
_space_group_symop_operation_xyz
x,y,z
-x,-y,-z
loop_
_atom_site_type_symbol
_atom_site_label
_atom_site_fract_x
_atom_site_fract_y
_atom_site_fract_z
Si Si1 0.463189 0.593524 0.725820
Si Si2 0.995389 0.718965 0.878613
Si Si3 0.749305 0.725020 0.560289
Si Si4 0.546927 0.966795 0.899826
Si Si5 0.121591 0.251714 0.692565
Si Si6 0.442468 0.057866 0.362054
Si Si7 0.500000 0.500000 0.000000
O O1 0.473102 0.797502 0.799509
O O2 0.278668 0.345475 0.679983
O O3 0.382426 0.765751 0.627551
O O4 0.760162 0.535615 0.822514
O O5 0.837672 0.936934 0.777273
O O6 0.195620 0.573012 0.903483
O O7 0.179460 0.878546 0.005078
O O8 0.591273 0.777915 0.574670
O O9 0.923966 0.478154 0.633799
O O10 0.551866 0.774502 0.421215
O O11 0.952611 0.976910 0.625850
O O12 0.346982 0.206848 0.835928
O O13 0.532711 0.763035 0.958718
#
# Coordination Sequence:
#
# PCOD9051525 Si02
#       7
#     2   2   2   2   2   2   1
#     4  10  25  48  71 119 156 198 256 313 392 452
#     4  10  25  46  73 112 151 203 255 315 383 459
#     4  11  25  54  80 110 159 199 268 308 385 445
#     4  12  25  46  76 111 157 202 251 319 385 463
#     4  12  26  49  82 110 156 206 251 321 379 461
#     4   9  25  50  76 118 148 210 250 329 368 466
#     4  12  26  46  74 110 152 202 258 314 384 460
#
# _framework density 27.224807999999999
#
# number of rings (size 3 to 8) (size 9 to 14) (size 15 to 20)
#    0.923    0.308    1.538    2.769    2.154    8.615 
#    8.308    0.000    0.000    0.000    0.000    0.000 
#    0.000    0.000    0.000    0.000    0.000    0.000 
#
# Total GULP energy -72645.293373 kJ/mol
# GULP energy per Si atom -5588.099490 kJ/mol
# Density = 2.716284 g / cm^3
# Si number density = 27.224808 Si / 1000 Ang^3
#
#
#
# Elastic Constant Matrix: (Units=GPa)
#
#
# Indices 1 2 3 4 5 6 
#
# 1 121.6759 26.8701 40.9205 3.5940 1.9069 30.2351
# 2 26.8701 116.7703 63.2300 -14.7611 9.9484 5.5005
# 3 40.9205 63.2300 182.8995 -45.4907 23.9694 5.1939
# 4 3.5940 -14.7611 -45.4907 44.5191 5.0995 11.4439
# 5 1.9069 9.9484 23.9694 5.0995 53.2308 -5.9640
# 6 30.2351 5.5005 5.1939 11.4439 -5.9640 51.2027
#
#
#
# Elastic Compliance Matrix: (Units=1/GPa)
#
#
# Indices 1 2 3 4 5 6 
#
# 1 0.010730 -0.001217 -0.002564 -0.002605 0.000655 -0.005287
# 2 -0.001217 0.010716 -0.003223 0.000498 -0.000587 -0.000285
# 3 -0.002564 -0.003223 0.010790 0.011423 -0.005531 -0.002432
# 4 -0.002605 0.000498 0.011423 0.038032 -0.009831 -0.009319
# 5 0.000655 -0.000587 -0.005531 -0.009831 0.022876 0.005099
# 6 -0.005287 -0.000285 -0.002432 -0.009319 0.005099 0.025606
#
#
# Mechanical properties :
#
#
# Convention : Reuss Voigt Hill
#
# Bulk Modulus (GPa) = 54.85947 75.93188 65.39568
# Shear Modulus (GPa) = 36.01438 49.14551 42.57995
#
# Velocity S-wave (km/s) = 3.64105 4.25334 3.95905
# Velocity P-wave (km/s) = 6.15391 7.21613 6.70608
#
# Compressibility (1/GPa) = 0.01822839
#
# Stress axis : x y z
#
# Youngs Moduli (GPa) = 93.19844 93.32120 92.67540
#
# Poissons Ratio (x) = 0.11357 0.23757
# Poissons Ratio (y) = 0.11342 0.29871
# Poissons Ratio (z) = 0.23891 0.30079
#
# Static dielectric constant tensor:
#      x y z
#    x 1.240610 1.012090 0.472160 
#    y 1.012090 0.704080 -0.619090 
#    z 0.472160 -0.619090 1.821990 
# 
# From -- ./inp_files/584851.got.cif
#   From: 2010.05.17/outbox.cif.g08.bks.cpg/sg2_293_cif.got.tgz:584851.got - 2010.06.03 11:33:40.
