data_PCOD9051186
_publ_section_title
;
Structure prediction by ZEFSAII (Michael W. Deem and Ramdas Pophale) SiO2 
 PCOD9051186
Probable space group: P -1
;
_chemical_formula_sum "Si O2"
_cell_formula_units_Z 16
_cell_length_a 12.818028
_cell_length_b 11.822721
_cell_length_c 11.568536
_cell_angle_alpha 96.623658
_cell_angle_beta 140.001597
_cell_angle_gamma 112.189079
_cell_volume 765.121109
_symmetry_space_group_name_H-M "P -1"
_symmetry_group_IT_number 2
_symmetry_cell_setting 'triclinic'
loop_
_space_group_symop_operation_xyz
x,y,z
-x,-y,-z
loop_
_atom_site_type_symbol
_atom_site_label
_atom_site_fract_x
_atom_site_fract_y
_atom_site_fract_z
Si Si1 0.232220 0.478590 0.754736
Si Si2 0.880331 0.891742 0.668041
Si Si3 0.585949 0.918211 0.532828
Si Si4 0.220865 0.205467 0.686235
Si Si5 0.375301 0.171699 0.190298
Si Si6 0.111943 0.530530 0.420849
Si Si7 0.925251 0.359163 0.001931
Si Si8 0.247102 0.316661 0.235699
O O1 0.182039 0.317537 0.705097
O O2 0.135900 0.463847 0.544995
O O3 0.077353 0.468586 0.714248
O O4 0.505920 0.665073 0.018882
O O5 0.800374 0.979257 0.645236
O O6 0.760637 0.790592 0.437050
O O7 0.816474 0.788082 0.716362
O O8 0.162343 0.020107 0.912508
O O9 0.616909 0.880176 0.681986
O O10 0.500000 0.000000 0.500000
O O11 0.354692 0.764543 0.245452
O O12 0.000000 0.000000 0.500000
O O13 0.628783 0.286915 0.362885
O O14 0.304604 0.265239 0.170649
O O15 0.038052 0.425398 0.231464
O O16 0.036269 0.299713 0.037016
O O17 0.000000 0.500000 0.000000
O O18 0.500000 0.500000 0.500000
#
# Coordination Sequence:
#
# PCOD9051186 Si02
#       8
#     2   2   2   2   2   2   2   2
#     4  10  25  45  71  94 134 172 224 289 327 396
#     4  11  23  41  63  92 130 175 218 271 326 401
#     4  11  22  37  57  94 134 165 211 268 324 389
#     4  11  24  47  69 101 126 172 235 276 341 390
#     4  11  22  40  61  91 133 175 215 260 332 405
#     4  11  22  44  65  96 130 175 222 270 342 392
#     4  12  21  38  60  94 126 161 213 263 319 394
#     4  11  21  38  61  94 131 174 213 255 329 406
#
# _framework density 20.911721
#
# number of rings (size 3 to 8) (size 9 to 14) (size 15 to 20)
#    0.000    1.000    2.500    6.000    0.000    1.000 
#    4.500    6.875    0.000    0.000    0.000    0.000 
#    0.000    0.000    0.000    0.000    0.000    0.000 
#
# Total GULP energy -89157.576754 kJ/mol
# GULP energy per Si atom -5572.348547 kJ/mol
# Density = 2.086412 g / cm^3
# Si number density = 20.911721 Si / 1000 Ang^3
#
#
#
# Elastic Constant Matrix: (Units=GPa)
#
#
# Indices 1 2 3 4 5 6 
#
# 1 72.6038 28.2952 15.2743 -3.7023 22.5099 -17.3824
# 2 28.2952 61.2612 21.3369 -1.1786 8.3958 -22.3732
# 3 15.2743 21.3369 122.9480 6.1773 18.1323 -12.0227
# 4 -3.7023 -1.1786 6.1773 32.7716 -2.0514 5.9213
# 5 22.5099 8.3958 18.1323 -2.0514 31.8244 -4.6996
# 6 -17.3824 -22.3732 -12.0227 5.9213 -4.6996 24.9914
#
#
#
# Elastic Compliance Matrix: (Units=1/GPa)
#
#
# Indices 1 2 3 4 5 6 
#
# 1 0.021842 -0.005632 0.001050 -0.000251 -0.013367 0.008201
# 2 -0.005632 0.026699 -0.001968 -0.002843 0.000811 0.019864
# 3 0.001050 -0.001968 0.009586 -0.002675 -0.005385 0.003201
# 4 -0.000251 -0.002843 -0.002675 0.033113 0.002917 -0.011304
# 5 -0.013367 0.000811 -0.005385 0.002917 0.043373 -0.003696
# 6 0.008201 0.019864 0.003201 -0.011304 -0.003696 0.067024
#
#
# Mechanical properties :
#
#
# Convention : Reuss Voigt Hill
#
# Bulk Modulus (GPa) = 22.20889 42.95842 32.58366
# Shear Modulus (GPa) = 21.76304 30.71126 26.23715
#
# Velocity S-wave (km/s) = 3.22950 3.83641 3.54596
# Velocity P-wave (km/s) = 4.95476 6.34124 5.69039
#
# Compressibility (1/GPa) = 0.04502702
#
# Stress axis : x y z
#
# Youngs Moduli (GPa) = 45.78272 37.45455 104.31655
#
# Poissons Ratio (x) = 0.21094 -0.10951
# Poissons Ratio (y) = 0.25784 0.20531
# Poissons Ratio (z) = -0.04806 0.07372
#
# Static dielectric constant tensor:
#      x y z
#    x 1.784240 0.001890 -0.010010 
#    y 0.001890 1.836890 0.082700 
#    z -0.010010 0.082700 1.817680 
# 
# From -- ./inp_files/428483.got.cif
#   From: 2010.05.17/outbox.cif.g08.bks.cpg/sg2_215_cif.got.tgz:428483.got - 2010.06.03 11:33:40.
