data_PCOD9051551
_publ_section_title
;
Structure prediction by ZEFSAII (Michael W. Deem and Ramdas Pophale) SiO2 
 PCOD9051551
Probable space group: P -1
;
_chemical_formula_sum "Si O2"
_cell_formula_units_Z 13
_cell_length_a 14.233801
_cell_length_b 12.130060
_cell_length_c 8.397582
_cell_angle_alpha 111.160306
_cell_angle_beta 128.847990
_cell_angle_gamma 30.830314
_cell_volume 518.238445
_symmetry_space_group_name_H-M "P -1"
_symmetry_group_IT_number 2
_symmetry_cell_setting 'triclinic'
loop_
_space_group_symop_operation_xyz
x,y,z
-x,-y,-z
loop_
_atom_site_type_symbol
_atom_site_label
_atom_site_fract_x
_atom_site_fract_y
_atom_site_fract_z
Si Si1 0.828701 0.242949 0.029036
Si Si2 0.039780 0.097065 0.524466
Si Si3 0.000000 0.500000 0.500000
Si Si4 0.443519 0.392998 0.620289
Si Si5 0.419463 0.351995 0.224316
Si Si6 0.254661 0.238136 0.960986
Si Si7 0.466348 0.928279 0.292358
O O1 0.569105 0.396495 0.843473
O O2 0.772259 0.407325 0.952897
O O3 0.952020 0.173731 0.288278
O O4 0.000000 0.000000 0.000000
O O5 0.847967 0.346757 0.535421
O O6 0.326400 0.882804 0.724014
O O7 0.000000 0.000000 0.500000
O O8 0.051854 0.422920 0.706130
O O9 0.288875 0.284519 0.665629
O O10 0.493716 0.355664 0.466513
O O11 0.556913 0.177966 0.702790
O O12 0.306102 0.323548 0.133885
O O13 0.500000 0.000000 0.000000
O O14 0.249263 0.152808 0.059339
O O15 0.500000 0.000000 0.500000
#
# Coordination Sequence:
#
# PCOD9051551 Si02
#       7
#     2   2   1   2   2   2   2
#     4  12  26  47  75 110 148 191 237 306 372 432
#     4  12  27  46  76 107 146 194 245 301 365 435
#     4  10  26  48  70 102 146 190 246 294 366 418
#     4  12  26  47  74 110 146 193 247 299 366 441
#     4  12  26  50  73 105 149 190 245 305 365 432
#     4  10  25  46  75 104 146 193 241 301 360 440
#     4  11  25  47  72 108 145 190 247 298 362 436
#
# _framework density 25.084979000000001
#
# number of rings (size 3 to 8) (size 9 to 14) (size 15 to 20)
#    0.000    0.615    4.615    1.846    8.615    1.846 
#    2.769    0.000    0.000    0.000    0.000    0.000 
#    0.000    0.000    0.000    0.000    0.000    0.000 
#
# Total GULP energy -72597.147516 kJ/mol
# GULP energy per Si atom -5584.395963 kJ/mol
# Density = 2.502788 g / cm^3
# Si number density = 25.084979 Si / 1000 Ang^3
#
#
#
# Elastic Constant Matrix: (Units=GPa)
#
#
# Indices 1 2 3 4 5 6 
#
# 1 80.3971 22.0028 18.6890 -15.1794 -28.8591 23.3161
# 2 22.0028 82.5195 11.6260 -14.7081 0.1062 6.7817
# 3 18.6890 11.6260 129.8833 -26.5593 -35.2452 14.5326
# 4 -15.1794 -14.7081 -26.5593 37.0418 2.8553 -0.7476
# 5 -28.8591 0.1062 -35.2452 2.8553 48.8763 -17.1210
# 6 23.3161 6.7817 14.5326 -0.7476 -17.1210 49.8948
#
#
#
# Elastic Compliance Matrix: (Units=1/GPa)
#
#
# Indices 1 2 3 4 5 6 
#
# 1 0.020035 -0.003924 0.002754 0.007634 0.011417 -0.005599
# 2 -0.003924 0.014008 -0.000773 0.003647 -0.003461 -0.000978
# 3 0.002754 -0.000773 0.011738 0.008507 0.009125 -0.001342
# 4 0.007634 0.003647 0.008507 0.037044 0.007244 -0.003500
# 5 0.011417 -0.003461 0.009125 0.007244 0.034972 0.004586
# 6 -0.005599 -0.000978 -0.001342 -0.003500 0.004586 0.024704
#
#
# Mechanical properties :
#
#
# Convention : Reuss Voigt Hill
#
# Bulk Modulus (GPa) = 23.86898 44.15950 34.01424
# Shear Modulus (GPa) = 31.18113 43.19472 37.18793
#
# Velocity S-wave (km/s) = 3.52947 4.15412 3.85447
# Velocity P-wave (km/s) = 5.11327 6.37583 5.77913
#
# Compressibility (1/GPa) = 0.04189537
#
# Stress axis : x y z
#
# Youngs Moduli (GPa) = 49.91166 71.38557 85.19209
#
# Poissons Ratio (x) = 0.28012 -0.23462
# Poissons Ratio (y) = 0.19586 0.06587
# Poissons Ratio (z) = -0.13745 0.05519
#
# Static dielectric constant tensor:
#      x y z
#    x 2.005160 -0.027940 0.032070 
#    y -0.027940 1.983760 0.017680 
#    z 0.032070 0.017680 1.939460 
# 
# From -- ./inp_files/91133.got.cif
#   From: 2010.05.17/outbox.cif.g08.bks.cpg/sg2_46_cif.got.tgz:91133.got - 2010.06.03 11:33:40.
