data_PCOD9051007
_publ_section_title
;
Structure prediction by ZEFSAII (Michael W. Deem and Ramdas Pophale) SiO2 
 PCOD9051007
Probable space group: P -1
;
_chemical_formula_sum "Si O2"
_cell_formula_units_Z 12
_cell_length_a 5.226966
_cell_length_b 13.855564
_cell_length_c 11.979016
_cell_angle_alpha 44.094316
_cell_angle_beta 108.383951
_cell_angle_gamma 83.405185
_cell_volume 490.386337
_symmetry_space_group_name_H-M "P -1"
_symmetry_group_IT_number 2
_symmetry_cell_setting 'triclinic'
loop_
_space_group_symop_operation_xyz
x,y,z
-x,-y,-z
loop_
_atom_site_type_symbol
_atom_site_label
_atom_site_fract_x
_atom_site_fract_y
_atom_site_fract_z
Si Si1 0.127714 0.252398 0.314609
Si Si2 0.139084 0.116474 0.889833
Si Si3 0.293383 0.498195 0.119357
Si Si4 0.998020 0.064491 0.297772
Si Si5 0.909788 0.266895 0.497187
Si Si6 0.756037 0.759613 0.972168
O O1 0.143586 0.089507 0.411727
O O2 0.162787 0.252676 0.452109
O O3 0.321724 0.329340 0.227970
O O4 0.798452 0.383452 0.097810
O O5 0.144953 0.221889 0.905629
O O6 0.976175 0.232551 0.664403
O O7 0.500000 0.000000 0.000000
O O8 0.000000 0.000000 0.000000
O O9 0.607948 0.439706 0.280663
O O10 0.001624 0.587933 0.091815
O O11 0.617072 0.172593 0.142650
O O12 0.109440 0.885931 0.421777
O O13 0.161905 0.125978 0.183106
#
# Coordination Sequence:
#
# PCOD9051007 Si02
#       6
#     2   2   2   2   2   2
#     4  10  25  45  66 105 145 186 223 288 356 410
#     4  12  25  48  73 101 140 180 234 296 341 405
#     4  10  26  43  71 100 150 179 230 285 355 418
#     4  11  25  43  75  99 144 180 238 283 344 414
#     4  12  25  42  74 105 134 187 238 286 343 416
#     4  11  24  48  69 103 138 192 222 288 354 404
#
# _framework density 24.470500999999999
#
# number of rings (size 3 to 8) (size 9 to 14) (size 15 to 20)
#    0.000    1.000    3.333    1.000   16.333    1.333 
#    0.000    0.833    0.000    0.000    0.000    0.000 
#    0.000    0.000    0.000    0.000    0.000    0.000 
#
# Total GULP energy -66935.385360 kJ/mol
# GULP energy per Si atom -5577.948780 kJ/mol
# Density = 2.441480 g / cm^3
# Si number density = 24.470501 Si / 1000 Ang^3
#
#
#
# Elastic Constant Matrix: (Units=GPa)
#
#
# Indices 1 2 3 4 5 6 
#
# 1 117.2540 7.2223 29.1178 7.8474 5.6906 -2.9197
# 2 7.2223 91.8282 2.2379 32.3468 -1.1889 -3.4467
# 3 29.1178 2.2379 100.2594 34.2232 0.4378 -1.7003
# 4 7.8474 32.3468 34.2232 63.8826 -2.0239 -14.0770
# 5 5.6906 -1.1889 0.4378 -2.0239 51.3502 -10.3992
# 6 -2.9197 -3.4467 -1.7003 -14.0770 -10.3992 29.6679
#
#
#
# Elastic Compliance Matrix: (Units=1/GPa)
#
#
# Indices 1 2 3 4 5 6 
#
# 1 0.009341 -0.001066 -0.003088 0.001224 -0.000799 0.000919
# 2 -0.001066 0.014067 0.003133 -0.009327 -0.000539 -0.002906
# 3 -0.003088 0.003133 0.014026 -0.009636 -0.000899 -0.004023
# 4 0.001224 -0.009327 -0.009636 0.028409 0.003523 0.013199
# 5 -0.000799 -0.000539 -0.000899 0.003523 0.021524 0.009024
# 6 0.000919 -0.002906 -0.004023 0.013199 0.009024 0.042654
#
#
# Mechanical properties :
#
#
# Convention : Reuss Voigt Hill
#
# Bulk Modulus (GPa) = 28.25589 42.94417 35.60003
# Shear Modulus (GPa) = 34.75596 47.03104 40.89350
#
# Velocity S-wave (km/s) = 3.77280 4.38876 4.09239
# Velocity P-wave (km/s) = 5.52727 6.57792 6.07535
#
# Compressibility (1/GPa) = 0.03539085
#
# Stress axis : x y z
#
# Youngs Moduli (GPa) = 107.05845 71.08840 71.29718
#
# Poissons Ratio (x) = 0.07580 0.22014
# Poissons Ratio (y) = 0.11416 -0.22335
# Poissons Ratio (z) = 0.33056 -0.22269
#
# Static dielectric constant tensor:
#      x y z
#    x 2.055980 -0.044880 0.001810 
#    y -0.044880 2.050050 -0.028140 
#    z 0.001810 -0.028140 2.070630 
# 
# From -- ./inp_files/31701.got.cif
#   From: 2010.05.17/outbox.cif.g08.bks.cpg/sg2_16_cif.got.tgz:31701.got - 2010.06.03 11:33:40.
