data_PCOD9051939
_publ_section_title
;
Structure prediction by ZEFSAII (Michael W. Deem and Ramdas Pophale) SiO2 
 PCOD9051939
Probable space group: P -1
;
_chemical_formula_sum "Si O2"
_cell_formula_units_Z 12
_cell_length_a 9.368223
_cell_length_b 14.215678
_cell_length_c 4.907660
_cell_angle_alpha 107.913614
_cell_angle_beta 71.611179
_cell_angle_gamma 58.385950
_cell_volume 428.266863
_symmetry_space_group_name_H-M "P -1"
_symmetry_group_IT_number 2
_symmetry_cell_setting 'triclinic'
loop_
_space_group_symop_operation_xyz
x,y,z
-x,-y,-z
loop_
_atom_site_type_symbol
_atom_site_label
_atom_site_fract_x
_atom_site_fract_y
_atom_site_fract_z
Si Si1 0.343491 0.499835 0.907745
Si Si2 0.304261 0.783097 0.600543
Si Si3 0.668259 0.863107 0.101668
Si Si4 0.966952 0.440703 0.217043
Si Si5 0.900495 0.215922 0.779602
Si Si6 0.709587 0.027316 0.841276
O O1 0.460610 0.343822 0.748313
O O2 0.259942 0.506310 0.650215
O O3 0.500000 0.500000 0.000000
O O4 0.136928 0.659078 0.220034
O O5 0.172571 0.825524 0.449494
O O6 0.247003 0.727036 0.817373
O O7 0.259333 0.902114 0.895139
O O8 0.519178 0.852928 0.029742
O O9 0.500000 0.000000 0.500000
O O10 0.858129 0.723594 0.007317
O O11 0.733139 0.913287 0.883631
O O12 0.000000 0.500000 0.500000
O O13 0.000000 0.500000 0.000000
O O14 0.123856 0.070202 0.582353
#
# Coordination Sequence:
#
# PCOD9051939 Si02
#       6
#     2   2   2   2   2   2
#     4  10  25  48  79 110 157 203 262 321 396 460
#     4  11  25  44  73 109 147 197 253 316 382 462
#     4  11  28  47  78 107 155 208 255 326 391 466
#     4  12  30  51  82 116 159 207 269 327 395 473
#     4  11  25  44  73 109 150 198 250 317 386 457
#     4  11  26  46  73 111 153 200 261 316 394 467
#
# _framework density 28.019909999999999
#
# number of rings (size 3 to 8) (size 9 to 14) (size 15 to 20)
#    0.000    1.000    0.000    3.500   16.333    5.333 
#    0.000    0.000    0.000    0.000    0.000    0.000 
#    0.000    0.000    0.000    0.000    0.000    0.000 
#
# Total GULP energy -66904.454725 kJ/mol
# GULP energy per Si atom -5575.371227 kJ/mol
# Density = 2.795613 g / cm^3
# Si number density = 28.019910 Si / 1000 Ang^3
#
#
#
# Elastic Constant Matrix: (Units=GPa)
#
#
# Indices 1 2 3 4 5 6 
#
# 1 122.3806 51.5206 30.8826 2.0583 23.9520 -41.8516
# 2 51.5206 163.7901 50.6043 22.9855 -11.0674 -16.0220
# 3 30.8826 50.6043 107.5648 5.6964 19.0626 -1.4854
# 4 2.0583 22.9855 5.6964 59.6717 -12.4314 1.6971
# 5 23.9520 -11.0674 19.0626 -12.4314 44.4754 -1.6773
# 6 -41.8516 -16.0220 -1.4854 1.6971 -1.6773 58.0134
#
#
#
# Elastic Compliance Matrix: (Units=1/GPa)
#
#
# Indices 1 2 3 4 5 6 
#
# 1 0.014998 -0.004031 -0.000685 -0.000982 -0.008704 0.009466
# 2 -0.004031 0.009269 -0.004123 -0.001839 0.005721 -0.000234
# 3 -0.000685 -0.004123 0.012584 -0.000871 -0.006350 -0.001469
# 4 -0.000982 -0.001839 -0.000871 0.018805 0.005639 -0.001626
# 5 -0.008704 0.005721 -0.006350 0.005639 0.032740 -0.004080
# 6 0.009466 -0.000234 -0.001469 -0.001626 -0.004080 0.023894
#
#
# Mechanical properties :
#
#
# Convention : Reuss Voigt Hill
#
# Bulk Modulus (GPa) = 52.15256 73.30564 62.72910
# Shear Modulus (GPa) = 36.66832 49.81397 43.24115
#
# Velocity S-wave (km/s) = 3.62145 4.22098 3.93266
# Velocity P-wave (km/s) = 6.01163 7.06925 6.56178
#
# Compressibility (1/GPa) = 0.01917451
#
# Stress axis : x y z
#
# Youngs Moduli (GPa) = 66.67499 107.88797 79.46493
#
# Poissons Ratio (x) = 0.43485 0.05440
# Poissons Ratio (y) = 0.26874 0.32765
# Poissons Ratio (z) = 0.04565 0.44484
#
# Static dielectric constant tensor:
#      x y z
#    x 2.567180 0.176600 -0.121100 
#    y 0.176600 2.103800 -0.162480 
#    z -0.121100 -0.162480 2.262450 
# 
# From -- ./inp_files/40210.got.cif
#   From: 2010.05.17/outbox.cif.g08.bks.cpg/sg2_21_cif.got.tgz:40210.got - 2010.06.03 11:33:40.
