data_PCOD9051025
_publ_section_title
;
Structure prediction by ZEFSAII (Michael W. Deem and Ramdas Pophale) SiO2 
 PCOD9051025
Probable space group: P -1
;
_chemical_formula_sum "Si O2"
_cell_formula_units_Z 16
_cell_length_a 8.496976
_cell_length_b 13.358406
_cell_length_c 18.827503
_cell_angle_alpha 158.086000
_cell_angle_beta 67.371679
_cell_angle_gamma 119.123878
_cell_volume 681.962191
_symmetry_space_group_name_H-M "P -1"
_symmetry_group_IT_number 2
_symmetry_cell_setting 'triclinic'
loop_
_space_group_symop_operation_xyz
x,y,z
-x,-y,-z
loop_
_atom_site_type_symbol
_atom_site_label
_atom_site_fract_x
_atom_site_fract_y
_atom_site_fract_z
Si Si1 0.180454 0.368927 0.372803
Si Si2 0.304516 0.501836 0.062390
Si Si3 0.780965 0.052574 0.195643
Si Si4 0.790828 0.855027 0.628207
Si Si5 0.459521 0.934784 0.546142
Si Si6 0.401091 0.781354 0.009293
Si Si7 0.826317 0.778973 0.232970
Si Si8 0.479894 0.572518 0.719081
O O1 0.262149 0.720232 0.594948
O O2 0.140303 0.273537 0.399515
O O3 0.332777 0.258641 0.244497
O O4 0.998228 0.235000 0.268546
O O5 0.166015 0.409364 0.961044
O O6 0.235049 0.251330 0.967311
O O7 0.500000 0.500000 0.000000
O O8 0.362494 0.826665 0.290558
O O9 0.619980 0.950299 0.098195
O O10 0.653841 0.609277 0.439816
O O11 0.963614 0.030709 0.664059
O O12 0.692038 0.044706 0.810556
O O13 0.278028 0.011964 0.636946
O O14 0.500000 0.000000 0.500000
O O15 0.453110 0.631364 0.375181
O O16 0.303247 0.453656 0.842481
O O17 0.391408 0.730310 0.892603
#
# Coordination Sequence:
#
# PCOD9051025 Si02
#       8
#     2   2   2   2   2   2   2   2
#     4  11  25  44  70  98 133 188 233 281 335 398
#     4  10  17  34  69  93 123 167 213 285 337 383
#     4  11  21  42  72 100 129 172 243 285 331 399
#     4  12  27  46  67  98 145 189 223 271 346 417
#     4  11  21  41  69 100 135 168 226 292 343 392
#     4  12  25  45  69 102 138 179 226 284 349 407
#     4  11  22  42  68 101 130 176 228 278 344 403
#     4  12  26  46  69 102 142 181 226 283 340 410
#
# _framework density 23.461711000000001
#
# number of rings (size 3 to 8) (size 9 to 14) (size 15 to 20)
#    0.000    0.750    6.250    3.000    1.750    1.500 
#    2.250    0.000    0.000    0.000    0.000    0.000 
#    0.000    0.000    0.000    0.000    0.000    0.000 
#
# Total GULP energy -89268.031848 kJ/mol
# GULP energy per Si atom -5579.251990 kJ/mol
# Density = 2.340831 g / cm^3
# Si number density = 23.461711 Si / 1000 Ang^3
#
#
#
# Elastic Constant Matrix: (Units=GPa)
#
#
# Indices 1 2 3 4 5 6 
#
# 1 86.1766 20.3153 51.5748 3.3411 13.2817 17.9569
# 2 20.3153 67.9186 41.0557 -8.2615 6.7565 2.5758
# 3 51.5748 41.0557 92.8094 -5.9959 -3.7675 22.5504
# 4 3.3411 -8.2615 -5.9959 31.3768 -1.6276 -0.4385
# 5 13.2817 6.7565 -3.7675 -1.6276 39.1280 11.2160
# 6 17.9569 2.5758 22.5504 -0.4385 11.2160 24.5739
#
#
#
# Elastic Compliance Matrix: (Units=1/GPa)
#
#
# Indices 1 2 3 4 5 6 
#
# 1 0.020328 0.002197 -0.013189 -0.004561 -0.009044 0.001065
# 2 0.002197 0.024736 -0.016265 0.002821 -0.010994 0.015796
# 3 -0.013189 -0.016265 0.032911 0.003986 0.018415 -0.027193
# 4 -0.004561 0.002821 0.003986 0.034011 0.003295 -0.001518
# 5 -0.009044 -0.010994 0.018415 0.003295 0.040312 -0.027478
# 6 0.001065 0.015796 -0.027193 -0.001518 -0.027478 0.075728
#
#
# Mechanical properties :
#
#
# Convention : Reuss Voigt Hill
#
# Bulk Modulus (GPa) = 42.62370 52.53291 47.57830
# Shear Modulus (GPa) = 17.21988 27.94633 22.58310
#
# Velocity S-wave (km/s) = 2.71210 3.45504 3.10587
# Velocity P-wave (km/s) = 5.29284 6.19322 5.76065
#
# Compressibility (1/GPa) = 0.02346113
#
# Stress axis : x y z
#
# Youngs Moduli (GPa) = 49.19225 40.42637 30.38474
#
# Poissons Ratio (x) = -0.08880 0.40074
# Poissons Ratio (y) = -0.10805 0.49421
# Poissons Ratio (z) = 0.64879 0.65754
#
# Static dielectric constant tensor:
#      x y z
#    x 2.470670 0.293720 0.367930 
#    y 0.293720 2.090340 0.247300 
#    z 0.367930 0.247300 2.278690 
# 
# From -- ./inp_files/590529.got.cif
#   From: 2010.05.17/outbox.cif.g08.bks.cpg/sg2_296_cif.got.tgz:590529.got - 2010.06.03 11:33:40.
