data_PCOD9051846
_publ_section_title
;
Structure prediction by ZEFSAII (Michael W. Deem and Ramdas Pophale) SiO2 
 PCOD9051846
Probable space group: P -1
;
_chemical_formula_sum "Si O2"
_cell_formula_units_Z 16
_cell_length_a 8.656394
_cell_length_b 15.569470
_cell_length_c 6.562374
_cell_angle_alpha 68.993590
_cell_angle_beta 75.880832
_cell_angle_gamma 104.165507
_cell_volume 744.881561
_symmetry_space_group_name_H-M "P -1"
_symmetry_group_IT_number 2
_symmetry_cell_setting 'triclinic'
loop_
_space_group_symop_operation_xyz
x,y,z
-x,-y,-z
loop_
_atom_site_type_symbol
_atom_site_label
_atom_site_fract_x
_atom_site_fract_y
_atom_site_fract_z
Si Si1 0.541262 0.621137 0.001038
Si Si2 0.640801 0.586361 0.594645
Si Si3 0.451602 0.857558 0.460704
Si Si4 0.640863 0.764361 0.200509
Si Si5 0.273958 0.009673 0.427321
Si Si6 0.771621 0.363770 0.164018
Si Si7 0.953968 0.929462 0.880277
Si Si8 0.914438 0.531911 0.308636
O O1 0.496417 0.524668 0.239702
O O2 0.591372 0.718943 0.033211
O O3 0.680337 0.620060 0.789625
O O4 0.368489 0.610312 0.945728
O O5 0.583358 0.670357 0.447712
O O6 0.789400 0.579027 0.411796
O O7 0.550807 0.836191 0.253466
O O8 0.368755 0.939000 0.376232
O O9 0.309687 0.751940 0.657462
O O10 0.589378 0.902144 0.560729
O O11 0.844453 0.820795 0.089431
O O12 0.125622 0.946314 0.686076
O O13 0.176201 0.045464 0.253117
O O14 0.818730 0.434847 0.285626
O O15 0.942012 0.393438 0.946451
O O16 0.000000 0.000000 0.000000
O O17 0.000000 0.500000 0.500000
#
# Coordination Sequence:
#
# PCOD9051846 Si02
#       8
#     2   2   2   2   2   2   2   2
#     4  11  24  42  67  97 136 175 217 275 319 388
#     4  11  25  40  65  98 132 175 220 266 326 387
#     4  11  23  47  70 103 129 177 226 281 334 398
#     4  12  25  41  70 100 132 172 228 269 336 402
#     4  10  25  48  71  94 141 166 224 287 339 400
#     4  11  24  43  66  97 132 174 224 267 324 396
#     4  11  24  48  68 100 132 177 217 281 347 401
#     4  11  25  44  61  93 139 179 215 269 328 392
#
# _framework density 21.479925999999999
#
# number of rings (size 3 to 8) (size 9 to 14) (size 15 to 20)
#    0.000    1.000    3.750    1.875    5.250    0.500 
#    4.500    0.000    0.000    0.000    0.000    0.000 
#    0.000    0.000    0.000    0.000    0.000    0.000 
#
# Total GULP energy -89469.312883 kJ/mol
# GULP energy per Si atom -5591.832055 kJ/mol
# Density = 2.143104 g / cm^3
# Si number density = 21.479926 Si / 1000 Ang^3
#
#
#
# Elastic Constant Matrix: (Units=GPa)
#
#
# Indices 1 2 3 4 5 6 
#
# 1 68.8928 46.7485 26.8166 16.1544 -13.5304 3.8784
# 2 46.7485 149.1530 53.5269 26.2285 -17.4753 11.8118
# 3 26.8166 53.5269 96.6883 12.9545 -33.6914 6.0210
# 4 16.1544 26.2285 12.9545 42.0836 -1.9716 -8.9874
# 5 -13.5304 -17.4753 -33.6914 -1.9716 41.8730 7.4995
# 6 3.8784 11.8118 6.0210 -8.9874 7.4995 42.3227
#
#
#
# Elastic Compliance Matrix: (Units=1/GPa)
#
#
# Indices 1 2 3 4 5 6 
#
# 1 0.019927 -0.004417 -0.000867 -0.004917 0.004067 -0.002235
# 2 -0.004417 0.010435 -0.003698 -0.004285 0.000277 -0.002940
# 3 -0.000867 -0.003698 0.017973 -0.003231 0.013289 -0.004486
# 4 -0.004917 -0.004285 -0.003231 0.031119 -0.006271 0.009825
# 5 0.004067 0.000277 0.013289 -0.006271 0.037559 -0.010328
# 6 -0.002235 -0.002940 -0.004486 0.009825 -0.010328 0.029208
#
#
# Mechanical properties :
#
#
# Convention : Reuss Voigt Hill
#
# Bulk Modulus (GPa) = 32.92441 63.21313 48.06877
# Shear Modulus (GPa) = 28.68498 37.76531 33.22515
#
# Velocity S-wave (km/s) = 3.65832 4.19760 3.93720
# Velocity P-wave (km/s) = 5.76244 7.27914 6.56474
#
# Compressibility (1/GPa) = 0.03037260
#
# Stress axis : x y z
#
# Youngs Moduli (GPa) = 50.18298 95.83428 55.63894
#
# Poissons Ratio (x) = 0.42326 0.04821
# Poissons Ratio (y) = 0.22164 0.20575
# Poissons Ratio (z) = 0.04349 0.35440
#
# Static dielectric constant tensor:
#      x y z
#    x 1.791090 -0.002700 -0.008210 
#    y -0.002700 1.776120 0.003050 
#    z -0.008210 0.003050 1.809270 
# 
# From -- ./inp_files/37965.got.cif
#   From: 2010.05.17/outbox.cif.g08.bks.cpg/sg2_19_cif.got.tgz:37965.got - 2010.06.03 11:33:40.
