data_PCOD9051162
_publ_section_title
;
Structure prediction by ZEFSAII (Michael W. Deem and Ramdas Pophale) SiO2 
 PCOD9051162
Probable space group: P -1
;
_chemical_formula_sum "Si O2"
_cell_formula_units_Z 14
_cell_length_a 10.326012
_cell_length_b 10.616937
_cell_length_c 6.746187
_cell_angle_alpha 100.005358
_cell_angle_beta 117.815568
_cell_angle_gamma 110.153896
_cell_volume 562.037877
_symmetry_space_group_name_H-M "P -1"
_symmetry_group_IT_number 2
_symmetry_cell_setting 'triclinic'
loop_
_space_group_symop_operation_xyz
x,y,z
-x,-y,-z
loop_
_atom_site_type_symbol
_atom_site_label
_atom_site_fract_x
_atom_site_fract_y
_atom_site_fract_z
Si Si1 0.982049 0.053847 0.787425
Si Si2 0.210159 0.206231 0.675074
Si Si3 0.371254 0.484692 0.580285
Si Si4 0.797089 0.247123 0.245613
Si Si5 0.450672 0.198951 0.093539
Si Si6 0.668551 0.018393 0.729295
Si Si7 0.954499 0.474106 0.731051
O O1 0.813930 0.063459 0.686867
O O2 0.132579 0.198818 0.837107
O O3 0.946983 0.912467 0.593128
O O4 0.000000 0.000000 0.000000
O O5 0.302194 0.344328 0.635899
O O6 0.328994 0.138288 0.803388
O O7 0.500000 0.500000 0.500000
O O8 0.483721 0.629206 0.827265
O O9 0.207501 0.499386 0.402940
O O10 0.611151 0.180648 0.178381
O O11 0.909626 0.320711 0.545863
O O12 0.880818 0.399769 0.225047
O O13 0.759352 0.130434 0.009630
O O14 0.377810 0.135465 0.238983
O O15 0.500000 0.000000 0.500000
O O16 0.000000 0.500000 0.000000
#
# Coordination Sequence:
#
# PCOD9051162 Si02
#       7
#     2   2   2   2   2   2   2
#     4  11  25  48  72 106 146 185 248 299 366 437
#     4  11  25  46  74 102 147 193 237 308 361 433
#     4  11  26  44  75 107 141 192 246 294 372 435
#     4  10  25  45  71 105 144 187 248 292 371 433
#     4  11  24  47  68 105 148 185 241 301 362 435
#     4  12  26  44  77 108 144 197 244 302 367 440
#     4  10  25  49  71 104 147 189 241 306 364 437
#
# _framework density 24.909351999999998
#
# number of rings (size 3 to 8) (size 9 to 14) (size 15 to 20)
#    0.000    1.143    1.429    2.571    8.000    1.143 
#    7.714    0.000    0.000    0.000    0.000    0.000 
#    0.000    0.000    0.000    0.000    0.000    0.000 
#
# Total GULP energy -78012.883411 kJ/mol
# GULP energy per Si atom -5572.348815 kJ/mol
# Density = 2.485266 g / cm^3
# Si number density = 24.909352 Si / 1000 Ang^3
#
#
#
# Elastic Constant Matrix: (Units=GPa)
#
#
# Indices 1 2 3 4 5 6 
#
# 1 93.7559 43.4379 18.5340 -9.5638 -1.0758 31.0070
# 2 43.4379 157.1069 52.6243 -27.6103 0.7095 37.7436
# 3 18.5340 52.6243 161.4931 -14.5459 2.2205 -1.5302
# 4 -9.5638 -27.6103 -14.5459 48.1172 -3.3003 -3.8672
# 5 -1.0758 0.7095 2.2205 -3.3003 45.8622 -6.4814
# 6 31.0070 37.7436 -1.5302 -3.8672 -6.4814 40.8789
#
#
#
# Elastic Compliance Matrix: (Units=1/GPa)
#
#
# Indices 1 2 3 4 5 6 
#
# 1 0.014985 -0.000922 -0.001407 0.001103 -0.000988 -0.010619
# 2 -0.000922 0.010491 -0.003010 0.004146 -0.000993 -0.008865
# 3 -0.001407 -0.003010 0.007424 0.000598 0.000295 0.004227
# 4 0.001103 0.004146 0.000598 0.023473 0.001309 -0.002214
# 5 -0.000988 -0.000993 0.000295 0.001309 0.022638 0.005390
# 6 -0.010619 -0.008865 0.004227 -0.002214 0.005390 0.041505
#
#
# Mechanical properties :
#
#
# Convention : Reuss Voigt Hill
#
# Bulk Modulus (GPa) = 45.00041 71.28317 58.14179
# Shear Modulus (GPa) = 36.07453 46.82231 41.44842
#
# Velocity S-wave (km/s) = 3.80969 4.34026 4.08360
# Velocity P-wave (km/s) = 6.12018 7.33460 6.75474
#
# Compressibility (1/GPa) = 0.02222202
#
# Stress axis : x y z
#
# Youngs Moduli (GPa) = 66.73518 95.31975 134.69383
#
# Poissons Ratio (x) = 0.08792 0.18950
# Poissons Ratio (y) = 0.06155 0.40538
# Poissons Ratio (z) = 0.09389 0.28688
#
# Static dielectric constant tensor:
#      x y z
#    x 2.073670 -0.026630 0.015540 
#    y -0.026630 1.998590 0.053370 
#    z 0.015540 0.053370 2.051490 
# 
# From -- ./inp_files/71426.got.cif
#   From: 2010.05.17/outbox.cif.g08.bks.cpg/sg2_36_cif.got.tgz:71426.got - 2010.06.03 11:33:40.
