data_PCOD9051910
_publ_section_title
;
Structure prediction by ZEFSAII (Michael W. Deem and Ramdas Pophale) SiO2 
 PCOD9051910
Probable space group: P -1
;
_chemical_formula_sum "Si O2"
_cell_formula_units_Z 16
_cell_length_a 10.623531
_cell_length_b 11.405451
_cell_length_c 6.351508
_cell_angle_alpha 69.738037
_cell_angle_beta 108.868894
_cell_angle_gamma 94.944243
_cell_volume 682.878517
_symmetry_space_group_name_H-M "P -1"
_symmetry_group_IT_number 2
_symmetry_cell_setting 'triclinic'
loop_
_space_group_symop_operation_xyz
x,y,z
-x,-y,-z
loop_
_atom_site_type_symbol
_atom_site_label
_atom_site_fract_x
_atom_site_fract_y
_atom_site_fract_z
Si Si1 0.827464 0.747664 0.690310
Si Si2 0.854484 0.954507 0.910380
Si Si3 0.665488 0.852261 0.190458
Si Si4 0.444630 0.923644 0.723118
Si Si5 0.258427 0.789212 0.427087
Si Si6 0.715622 0.552535 0.044754
Si Si7 0.557286 0.440059 0.365622
Si Si8 0.947071 0.385486 0.394204
O O1 0.849711 0.882685 0.727563
O O2 0.702168 0.757999 0.457032
O O3 0.794928 0.666317 0.927185
O O4 0.944232 0.680430 0.658917
O O5 0.763226 0.081254 0.785509
O O6 0.801604 0.873844 0.124950
O O7 0.000000 0.000000 0.000000
O O8 0.613104 0.974223 0.211236
O O9 0.558416 0.839186 0.953771
O O10 0.326546 0.834477 0.650626
O O11 0.500000 0.000000 0.500000
O O12 0.368473 0.691235 0.461866
O O13 0.121859 0.718443 0.432811
O O14 0.572959 0.564489 0.847555
O O15 0.669091 0.528216 0.271986
O O16 0.823742 0.438429 0.150017
O O17 0.500000 0.500000 0.500000
O O18 0.000000 0.500000 0.500000
#
# Coordination Sequence:
#
# PCOD9051910 Si02
#       8
#     2   2   2   2   2   2   2   2
#     4  12  27  47  78 106 157 194 254 315 376 470
#     4  12  28  46  73 115 148 199 248 308 394 455
#     4  11  25  44  73 110 150 196 241 304 392 463
#     4  11  23  47  71 109 151 192 247 312 386 463
#     4  11  25  48  74 108 152 183 260 316 374 457
#     4  10  26  49  69 110 141 193 252 307 366 444
#     4  10  25  48  75 105 145 194 250 307 371 440
#     4  11  28  50  77 105 147 210 260 312 375 446
#
# _framework density 23.430226999999999
#
# number of rings (size 3 to 8) (size 9 to 14) (size 15 to 20)
#    0.000    1.000    2.500    1.125   12.250    2.000 
#    9.000    0.000    0.000    0.000    0.000    0.000 
#    0.000    0.000    0.000    0.000    0.000    0.000 
#
# Total GULP energy -89331.234755 kJ/mol
# GULP energy per Si atom -5583.202172 kJ/mol
# Density = 2.337690 g / cm^3
# Si number density = 23.430227 Si / 1000 Ang^3
#
#
#
# Elastic Constant Matrix: (Units=GPa)
#
#
# Indices 1 2 3 4 5 6 
#
# 1 107.5704 39.5738 25.8225 4.4470 -0.1813 -25.0641
# 2 39.5738 113.7416 43.5678 4.1071 -13.2096 -23.6211
# 3 25.8225 43.5678 72.0403 -15.0349 2.2749 -15.6014
# 4 4.4470 4.1071 -15.0349 35.4737 -5.8259 3.6926
# 5 -0.1813 -13.2096 2.2749 -5.8259 29.0373 0.9776
# 6 -25.0641 -23.6211 -15.6014 3.6926 0.9776 50.3255
#
#
#
# Elastic Compliance Matrix: (Units=1/GPa)
#
#
# Indices 1 2 3 4 5 6 
#
# 1 0.011879 -0.002372 -0.002464 -0.002959 -0.001550 0.004286
# 2 -0.002372 0.014261 -0.008143 -0.004120 0.006177 0.003170
# 3 -0.002464 -0.008143 0.022121 0.009933 -0.003498 0.001148
# 4 -0.002959 -0.004120 0.009933 0.034259 0.004301 -0.002926
# 5 -0.001550 0.006177 -0.003498 0.004301 0.038377 -0.000018
# 6 0.004286 0.003170 0.001148 -0.002926 -0.000018 0.024064
#
#
# Mechanical properties :
#
#
# Convention : Reuss Voigt Hill
#
# Bulk Modulus (GPa) = 44.83674 56.80896 50.82285
# Shear Modulus (GPa) = 28.03463 35.25986 31.64724
#
# Velocity S-wave (km/s) = 3.46282 3.88350 3.67918
# Velocity P-wave (km/s) = 5.93009 6.66389 6.30767
#
# Compressibility (1/GPa) = 0.02230314
#
# Stress axis : x y z
#
# Youngs Moduli (GPa) = 84.18366 70.12275 45.20661
#
# Poissons Ratio (x) = 0.16635 0.11137
# Poissons Ratio (y) = 0.19971 0.36810
# Poissons Ratio (z) = 0.20740 0.57098
#
# Static dielectric constant tensor:
#      x y z
#    x 1.881990 0.020100 0.045290 
#    y 0.020100 1.906040 -0.010490 
#    z 0.045290 -0.010490 1.886500 
# 
# From -- ./inp_files/69329.got.cif
#   From: 2010.05.17/outbox.cif.g08.bks.cpg/sg2_35_cif.got.tgz:69329.got - 2010.06.03 11:33:40.
