data_PCOD9051886
_publ_section_title
;
Structure prediction by ZEFSAII (Michael W. Deem and Ramdas Pophale) SiO2 
 PCOD9051886
Probable space group: P -1
;
_chemical_formula_sum "Si O2"
_cell_formula_units_Z 16
_cell_length_a 13.920367
_cell_length_b 8.870668
_cell_length_c 10.817930
_cell_angle_alpha 92.845332
_cell_angle_beta 33.840185
_cell_angle_gamma 103.363589
_cell_volume 698.330786
_symmetry_space_group_name_H-M "P -1"
_symmetry_group_IT_number 2
_symmetry_cell_setting 'triclinic'
loop_
_space_group_symop_operation_xyz
x,y,z
-x,-y,-z
loop_
_atom_site_type_symbol
_atom_site_label
_atom_site_fract_x
_atom_site_fract_y
_atom_site_fract_z
Si Si1 0.847025 0.078490 0.155449
Si Si2 0.555027 0.749039 0.397789
Si Si3 0.323165 0.827029 0.441236
Si Si4 0.500866 0.875296 0.885371
Si Si5 0.322159 0.509933 0.845083
Si Si6 0.661017 0.609293 0.663231
Si Si7 0.205676 0.605198 0.319493
Si Si8 0.997173 0.400350 0.870600
O O1 0.833478 0.155994 0.303868
O O2 0.661045 0.932150 0.323806
O O3 0.892625 0.215550 0.009996
O O4 0.000000 0.000000 0.000000
O O5 0.432393 0.745162 0.408801
O O6 0.430611 0.651141 0.638540
O O7 0.694562 0.655252 0.212960
O O8 0.236692 0.723272 0.409978
O O9 0.458137 0.005307 0.269056
O O10 0.653191 0.785852 0.714222
O O11 0.312432 0.728823 0.103318
O O12 0.500000 0.000000 0.000000
O O13 0.464075 0.526398 0.805146
O O14 0.128833 0.530476 0.077238
O O15 0.695366 0.517977 0.743398
O O16 0.817631 0.601354 0.396431
O O17 0.000000 0.500000 0.500000
O O18 0.000000 0.500000 0.000000
#
# Coordination Sequence:
#
# PCOD9051886 Si02
#       8
#     2   2   2   2   2   2   2   2
#     4  12  24  40  64 110 157 187 236 289 362 462
#     4  11  22  41  67 104 150 196 231 286 363 466
#     4  11  22  46  71 105 145 199 235 300 378 435
#     4  10  25  48  74 100 139 190 255 316 368 429
#     4  11  23  42  69 105 149 190 239 282 367 456
#     4  12  25  47  75 106 145 197 239 306 382 428
#     4  11  26  49  76 105 136 189 268 322 365 427
#     4  12  25  42  70 112 154 191 238 293 358 470
#
# _framework density 22.911778000000002
#
# number of rings (size 3 to 8) (size 9 to 14) (size 15 to 20)
#    0.000    0.750    2.500    6.000    3.500    0.000 
#    0.000    2.500    0.000    0.000    0.000    0.000 
#    0.000    0.000    0.000    0.000    0.000    0.000 
#
# Total GULP energy -89423.885482 kJ/mol
# GULP energy per Si atom -5588.992843 kJ/mol
# Density = 2.285963 g / cm^3
# Si number density = 22.911778 Si / 1000 Ang^3
#
#
#
# Elastic Constant Matrix: (Units=GPa)
#
#
# Indices 1 2 3 4 5 6 
#
# 1 102.9826 30.4786 33.5797 -4.3477 -17.1176 -0.8000
# 2 30.4786 144.8234 48.2387 5.1499 -9.6888 -1.0763
# 3 33.5797 48.2387 108.6494 10.0966 -4.4000 8.5831
# 4 -4.3477 5.1499 10.0966 66.6391 -12.5725 2.7047
# 5 -17.1176 -9.6888 -4.4000 -12.5725 32.5651 -0.9788
# 6 -0.8000 -1.0763 8.5831 2.7047 -0.9788 40.7356
#
#
#
# Elastic Compliance Matrix: (Units=1/GPa)
#
#
# Indices 1 2 3 4 5 6 
#
# 1 0.012386 -0.001116 -0.003376 0.002646 0.006771 0.000912
# 2 -0.001116 0.008375 -0.003391 0.000036 0.001489 0.000947
# 3 -0.003376 -0.003391 0.012069 -0.002063 -0.002028 -0.002611
# 4 0.002646 0.000036 -0.002063 0.016951 0.007654 -0.000454
# 5 0.006771 0.001489 -0.002028 0.007654 0.037421 0.000991
# 6 0.000912 0.000947 -0.002611 -0.000454 0.000991 0.025195
#
#
# Mechanical properties :
#
#
# Convention : Reuss Voigt Hill
#
# Bulk Modulus (GPa) = 58.60907 64.56105 61.58506
# Shear Modulus (GPa) = 37.35469 44.26518 40.80993
#
# Velocity S-wave (km/s) = 4.04217 4.40020 4.22498
# Velocity P-wave (km/s) = 6.88631 7.35221 7.12307
#
# Compressibility (1/GPa) = 0.01706221
#
# Stress axis : x y z
#
# Youngs Moduli (GPa) = 80.73621 119.40526 82.85800
#
# Poissons Ratio (x) = 0.13331 0.27974
# Poissons Ratio (y) = 0.09014 0.28098
# Poissons Ratio (z) = 0.27258 0.40492
#
# Static dielectric constant tensor:
#      x y z
#    x 1.893690 0.022970 0.010900 
#    y 0.022970 1.913020 0.015810 
#    z 0.010900 0.015810 1.910570 
# 
# From -- ./inp_files/447464.got.cif
#   From: 2010.05.17/outbox.cif.g08.bks.cpg/sg2_224_cif.got.tgz:447464.got - 2010.06.03 11:33:40.
