data_PCOD9051821
_publ_section_title
;
Structure prediction by ZEFSAII (Michael W. Deem and Ramdas Pophale) SiO2 
 PCOD9051821
Probable space group: P -1
;
_chemical_formula_sum "Si O2"
_cell_formula_units_Z 14
_cell_length_a 11.510683
_cell_length_b 11.132355
_cell_length_c 12.538242
_cell_angle_alpha 77.940167
_cell_angle_beta 102.883010
_cell_angle_gamma 34.540449
_cell_volume 625.084474
_symmetry_space_group_name_H-M "P -1"
_symmetry_group_IT_number 2
_symmetry_cell_setting 'triclinic'
loop_
_space_group_symop_operation_xyz
x,y,z
-x,-y,-z
loop_
_atom_site_type_symbol
_atom_site_label
_atom_site_fract_x
_atom_site_fract_y
_atom_site_fract_z
Si Si1 0.181572 0.000124 0.822148
Si Si2 0.187222 0.035750 0.586964
Si Si3 0.795054 0.739561 0.171088
Si Si4 0.413235 0.106809 0.340839
Si Si5 0.482529 0.452174 0.389894
Si Si6 0.396245 0.282404 0.703586
Si Si7 0.307221 0.785821 0.105194
O O1 0.244252 0.904879 0.731004
O O2 0.216693 0.113389 0.811854
O O3 0.841491 0.299636 0.723528
O O4 0.365886 0.758325 0.997079
O O5 0.852305 0.393995 0.453423
O O6 0.391170 0.963981 0.644739
O O7 0.275785 0.877127 0.528510
O O8 0.788149 0.637267 0.274696
O O9 0.076076 0.461492 0.206132
O O10 0.500000 0.000000 0.000000
O O11 0.500000 0.000000 0.500000
O O12 0.466690 0.933417 0.317518
O O13 0.500000 0.500000 0.500000
O O14 0.491860 0.533530 0.274702
O O15 0.645221 0.123496 0.848281
O O16 0.000000 0.000000 0.000000
#
# Coordination Sequence:
#
# PCOD9051821 Si02
#       7
#     2   2   2   2   2   2   2
#     4  11  23  46  70 101 148 188 242 298 365 439
#     4  12  25  43  76 110 142 193 243 312 365 433
#     4  12  24  44  70 108 150 186 236 303 371 441
#     4  12  25  43  73 111 149 191 238 310 375 434
#     4  11  26  47  74 102 143 194 249 300 361 434
#     4  12  25  44  76 109 144 188 252 297 375 440
#     4  10  25  48  69  99 147 197 242 298 356 441
#
# _framework density 22.396975000000001
#
# number of rings (size 3 to 8) (size 9 to 14) (size 15 to 20)
#    0.000    0.571    5.714    2.143    2.000    3.429 
#    5.143    4.286    0.000    0.000    0.000    0.000 
#    0.000    0.000    0.000    0.000    0.000    0.000 
#
# Total GULP energy -78187.211824 kJ/mol
# GULP energy per Si atom -5584.800845 kJ/mol
# Density = 2.234600 g / cm^3
# Si number density = 22.396975 Si / 1000 Ang^3
#
#
#
# Elastic Constant Matrix: (Units=GPa)
#
#
# Indices 1 2 3 4 5 6 
#
# 1 119.0753 31.2862 36.0624 16.3734 8.5891 -2.9719
# 2 31.2862 140.3195 48.9973 18.8778 9.3713 17.8758
# 3 36.0624 48.9973 109.8526 15.5054 -3.5164 -0.3014
# 4 16.3734 18.8778 15.5054 36.2246 -11.2215 3.0462
# 5 8.5891 9.3713 -3.5164 -11.2215 47.5889 7.5353
# 6 -2.9719 17.8758 -0.3014 3.0462 7.5353 35.6321
#
#
#
# Elastic Compliance Matrix: (Units=1/GPa)
#
#
# Indices 1 2 3 4 5 6 
#
# 1 0.010270 -0.000943 -0.002440 -0.004308 -0.003238 0.002362
# 2 -0.000943 0.009752 -0.003640 -0.003405 -0.002148 -0.004256
# 3 -0.002440 -0.003640 0.011826 -0.001774 0.001361 0.001586
# 4 -0.004308 -0.003405 -0.001774 0.035615 0.010332 -0.003896
# 5 -0.003238 -0.002148 0.001361 0.010332 0.025419 -0.005440
# 6 0.002362 -0.004256 0.001586 -0.003896 -0.005440 0.031894
#
#
# Mechanical properties :
#
#
# Convention : Reuss Voigt Hill
#
# Bulk Modulus (GPa) = 56.17373 66.88213 61.52793
# Shear Modulus (GPa) = 34.54164 40.74922 37.64543
#
# Velocity S-wave (km/s) = 3.93140 4.27008 4.10424
# Velocity P-wave (km/s) = 6.76338 7.36467 7.07042
#
# Compressibility (1/GPa) = 0.01780192
#
# Stress axis : x y z
#
# Youngs Moduli (GPa) = 97.37535 102.54778 84.56085
#
# Poissons Ratio (x) = 0.09669 0.20632
# Poissons Ratio (y) = 0.09181 0.30778
# Poissons Ratio (z) = 0.23758 0.37325
#
# Static dielectric constant tensor:
#      x y z
#    x 1.894300 0.007290 -0.075200 
#    y 0.007290 1.801300 0.004970 
#    z -0.075200 0.004970 1.890500 
# 
# From -- ./inp_files/371510.got.cif
#   From: 2010.05.17/outbox.cif.g08.bks.cpg/sg2_186_cif.got.tgz:371510.got - 2010.06.03 11:33:40.
