data_PCOD9051999
_publ_section_title
;
Structure prediction by ZEFSAII (Michael W. Deem and Ramdas Pophale) SiO2 
 PCOD9051999
Probable space group: P -1
;
_chemical_formula_sum "Si O2"
_cell_formula_units_Z 10
_cell_length_a 8.188052
_cell_length_b 14.592322
_cell_length_c 4.852780
_cell_angle_alpha 99.012301
_cell_angle_beta 95.733081
_cell_angle_gamma 139.942824
_cell_volume 345.803994
_symmetry_space_group_name_H-M "P -1"
_symmetry_group_IT_number 2
_symmetry_cell_setting 'triclinic'
loop_
_space_group_symop_operation_xyz
x,y,z
-x,-y,-z
loop_
_atom_site_type_symbol
_atom_site_label
_atom_site_fract_x
_atom_site_fract_y
_atom_site_fract_z
Si Si1 0.719350 0.262906 0.823767
Si Si2 0.776921 0.617629 0.268252
Si Si3 0.091232 0.122611 0.357104
Si Si4 0.290348 0.588106 0.493059
Si Si5 0.575717 0.936560 0.839669
O O1 0.713383 0.368186 0.793062
O O2 0.638608 0.221115 0.103706
O O3 0.989916 0.328776 0.840569
O O4 0.500623 0.112690 0.514553
O O5 0.882415 0.766916 0.430446
O O6 0.732065 0.529352 0.479549
O O7 0.500000 0.500000 0.000000
O O8 0.387302 0.246263 0.325382
O O9 0.000000 0.000000 0.500000
O O10 0.869632 0.039056 0.041480
O O11 0.000000 0.500000 0.500000
O O12 0.500000 0.000000 0.000000
#
# Coordination Sequence:
#
# PCOD9051999 Si02
#       5
#     2   2   2   2   2
#     4  11  26  50  76 116 154 216 257 336 390 485
#     4  11  27  46  76 113 160 211 268 326 403 481
#     4  12  26  47  79 118 154 211 269 335 394 479
#     4  10  25  49  73 111 159 210 260 325 401 478
#     4  12  26  46  80 114 164 197 271 329 405 458
#
# _framework density 28.918116000000001
#
# number of rings (size 3 to 8) (size 9 to 14) (size 15 to 20)
#    0.000    0.800    4.000    1.200    5.600    4.000 
#    0.000    7.000    0.000    0.000    0.000    0.000 
#    0.000    0.000    0.000    0.000    0.000    0.000 
#
# Total GULP energy -56047.552554 kJ/mol
# GULP energy per Si atom -5604.755255 kJ/mol
# Density = 2.885230 g / cm^3
# Si number density = 28.918116 Si / 1000 Ang^3
#
#
#
# Elastic Constant Matrix: (Units=GPa)
#
#
# Indices 1 2 3 4 5 6 
#
# 1 229.5895 89.3954 65.5419 27.0915 22.1145 0.4651
# 2 89.3954 215.4723 62.3537 16.5536 11.2364 -15.7401
# 3 65.5419 62.3537 181.5489 60.7716 34.3937 6.1541
# 4 27.0915 16.5536 60.7716 67.1454 9.2499 11.4109
# 5 22.1145 11.2364 34.3937 9.2499 54.7670 2.1448
# 6 0.4651 -15.7401 6.1541 11.4109 2.1448 66.4168
#
#
#
# Elastic Compliance Matrix: (Units=1/GPa)
#
#
# Indices 1 2 3 4 5 6 
#
# 1 0.005567 -0.001963 -0.000836 -0.000801 -0.001175 -0.000251
# 2 -0.001963 0.005979 -0.001647 0.000494 0.000459 0.001484
# 3 -0.000836 -0.001647 0.009644 -0.007438 -0.004129 0.000133
# 4 -0.000801 0.000494 -0.007438 0.022168 0.001268 -0.003038
# 5 -0.001175 0.000459 -0.004129 0.001268 0.021034 -0.000397
# 6 -0.000251 0.001484 0.000133 -0.003038 -0.000397 0.015932
#
#
# Mechanical properties :
#
#
# Convention : Reuss Voigt Hill
#
# Bulk Modulus (GPa) = 81.32969 117.91030 99.62000
# Shear Modulus (GPa) = 53.58177 64.95381 59.26779
#
# Velocity S-wave (km/s) = 4.30918 4.74448 4.53206
# Velocity P-wave (km/s) = 7.27625 8.41877 7.86828
#
# Compressibility (1/GPa) = 0.01229563
#
# Stress axis : x y z
#
# Youngs Moduli (GPa) = 179.63318 167.26306 103.69666
#
# Poissons Ratio (x) = 0.32836 0.08674
# Poissons Ratio (y) = 0.35265 0.17080
# Poissons Ratio (z) = 0.15025 0.27550
#
# Static dielectric constant tensor:
#      x y z
#    x 2.491800 -0.263190 -0.237910 
#    y -0.263190 2.501020 0.223220 
#    z -0.237910 0.223220 2.385490 
# 
# From -- ./inp_files/30143.got.cif
#   From: 2010.05.17/outbox.cif.g08.bks.cpg/sg2_16_cif.got.tgz:30143.got - 2010.06.03 11:33:40.
