data_PCOD9051389
_publ_section_title
;
Structure prediction by ZEFSAII (Michael W. Deem and Ramdas Pophale) SiO2 
 PCOD9051389
Probable space group: P -1
;
_chemical_formula_sum "Si O2"
_cell_formula_units_Z 13
_cell_length_a 8.794697
_cell_length_b 17.036183
_cell_length_c 19.395278
_cell_angle_alpha 16.148437
_cell_angle_beta 137.278377
_cell_angle_gamma 140.102165
_cell_volume 518.370231
_symmetry_space_group_name_H-M "P -1"
_symmetry_group_IT_number 2
_symmetry_cell_setting 'triclinic'
loop_
_space_group_symop_operation_xyz
x,y,z
-x,-y,-z
loop_
_atom_site_type_symbol
_atom_site_label
_atom_site_fract_x
_atom_site_fract_y
_atom_site_fract_z
Si Si1 0.289379 0.449449 0.419675
Si Si2 0.731247 0.943725 0.828097
Si Si3 0.651876 0.461009 0.784260
Si Si4 0.000000 0.500000 0.500000
Si Si5 0.750108 0.553083 0.882355
Si Si6 0.810380 0.116623 0.894873
Si Si7 0.075041 0.169270 0.154663
O O1 0.500000 0.500000 0.500000
O O2 0.351143 0.380068 0.422679
O O3 0.238829 0.756885 0.154623
O O4 0.065782 0.179860 0.594863
O O5 0.953336 0.963658 0.938566
O O6 0.782270 0.799994 0.895039
O O7 0.775670 0.295385 0.549692
O O8 0.471940 0.747127 0.929892
O O9 0.700391 0.664523 0.696629
O O10 0.412019 0.175823 0.947743
O O11 0.877663 0.337409 0.953406
O O12 0.854976 0.360531 0.643577
O O13 0.769529 0.741471 0.799297
O O14 0.000000 0.500000 0.000000
#
# Coordination Sequence:
#
# PCOD9051389 Si02
#       7
#     2   2   2   1   2   2   2
#     4  12  23  38  70 105 137 179 226 276 343 410
#     4  12  24  46  70 100 142 172 230 289 344 401
#     4  11  23  43  68 100 145 175 226 286 339 407
#     4  12  26  40  70 106 132 172 224 286 348 408
#     4  10  25  46  69  95 135 191 229 277 339 404
#     4  12  24  41  67 106 135 178 219 290 352 393
#     4  11  23  44  69  99 135 187 229 275 339 413
#
# _framework density 25.078600999999999
#
# number of rings (size 3 to 8) (size 9 to 14) (size 15 to 20)
#    0.000    0.615    6.154    2.308    0.000    0.615 
#    0.000    3.846    0.000    0.000    0.000    0.000 
#    0.000    0.000    0.000    0.000    0.000    0.000 
#
# Total GULP energy -72403.885397 kJ/mol
# GULP energy per Si atom -5569.529646 kJ/mol
# Density = 2.502152 g / cm^3
# Si number density = 25.078601 Si / 1000 Ang^3
#
#
#
# Elastic Constant Matrix: (Units=GPa)
#
#
# Indices 1 2 3 4 5 6 
#
# 1 127.2439 51.6462 7.0903 -2.6270 -16.3269 -9.3647
# 2 51.6462 168.8357 -1.5660 -9.3583 6.0180 -29.4751
# 3 7.0903 -1.5660 -20.7929 -7.8263 -6.2058 -1.5931
# 4 -2.6270 -9.3583 -7.8263 39.3783 -10.0852 -6.6714
# 5 -16.3269 6.0180 -6.2058 -10.0852 38.8966 -9.0389
# 6 -9.3647 -29.4751 -1.5931 -6.6714 -9.0389 53.6847
#
#
#
# Elastic Compliance Matrix: (Units=1/GPa)
#
#
# Indices 1 2 3 4 5 6 
#
# 1 0.009797 -0.002848 0.001114 0.001838 0.005518 0.001336
# 2 -0.002848 0.007521 -0.001905 0.001434 -0.001477 0.003505
# 3 0.001114 -0.001905 -0.039848 -0.011683 -0.009819 -0.005139
# 4 0.001838 0.001434 -0.011683 0.026106 0.006645 0.005124
# 5 0.005518 -0.001477 -0.009819 0.006645 0.029733 0.005692
# 6 0.001336 0.003505 -0.005139 0.005124 0.005692 0.022228
#
#
# Mechanical properties :
#
#
# Convention : Reuss Voigt Hill
#
# Bulk Modulus (GPa) = -33.54754 43.29196 4.87221
# Shear Modulus (GPa) = 94.55688 40.93301 67.74495
#
# Velocity S-wave (km/s) = 6.14704 4.04442 5.20305
# Velocity P-wave (km/s) = 6.08074 6.25378 6.16787
#
# Compressibility (1/GPa) = -0.02980844
#
# Stress axis : x y z
#
# Youngs Moduli (GPa) = 102.07126 132.96847 -25.09534
#
# Poissons Ratio (x) = 0.37872 0.02797
# Poissons Ratio (y) = 0.29072 -0.04782
# Poissons Ratio (z) = -0.11376 0.25335
#
# Static dielectric constant tensor:
#      x y z
#    x 1.884260 -0.095110 -0.281610 
#    y -0.095110 1.977870 0.001710 
#    z -0.281610 0.001710 1.611900 
# 
# From -- ./inp_files/561108.got.cif
#   From: 2010.05.17/outbox.cif.g08.bks.cpg/sg2_281_cif.got.tgz:561108.got - 2010.06.03 11:33:40.
