data_PCOD9051640
_publ_section_title
;
Structure prediction by ZEFSAII (Michael W. Deem and Ramdas Pophale) SiO2 
 PCOD9051640
Probable space group: P -1
;
_chemical_formula_sum "Si O2"
_cell_formula_units_Z 16
_cell_length_a 12.751145
_cell_length_b 26.045564
_cell_length_c 5.394262
_cell_angle_alpha 72.090627
_cell_angle_beta 63.008190
_cell_angle_gamma 24.499741
_cell_volume 634.441036
_symmetry_space_group_name_H-M "P -1"
_symmetry_group_IT_number 2
_symmetry_cell_setting 'triclinic'
loop_
_space_group_symop_operation_xyz
x,y,z
-x,-y,-z
loop_
_atom_site_type_symbol
_atom_site_label
_atom_site_fract_x
_atom_site_fract_y
_atom_site_fract_z
Si Si1 0.706674 0.866911 0.053087
Si Si2 0.136665 0.302696 0.040094
Si Si3 0.783163 0.626649 0.896371
Si Si4 0.460072 0.480979 0.820820
Si Si5 0.265026 0.990102 0.656014
Si Si6 0.137855 0.762156 0.993481
Si Si7 0.769415 0.182950 0.508795
Si Si8 0.455347 0.804380 0.598802
O O1 0.768205 0.798430 0.871206
O O2 0.988841 0.776591 0.981630
O O3 0.546304 0.902375 0.390936
O O4 0.500000 0.000000 0.000000
O O5 0.105444 0.358296 0.209415
O O6 0.384184 0.227151 0.729327
O O7 0.849540 0.415972 0.025627
O O8 0.481805 0.734643 0.175104
O O9 0.693918 0.663748 0.650744
O O10 0.000000 0.500000 0.000000
O O11 0.500000 0.500000 0.500000
O O12 0.682753 0.339428 0.829366
O O13 0.500000 0.500000 0.000000
O O14 0.103026 0.096697 0.858939
O O15 0.049256 0.074391 0.529603
O O16 0.343448 0.895650 0.777053
O O17 0.311013 0.727505 0.670952
O O18 0.790263 0.128859 0.353652
#
# Coordination Sequence:
#
# PCOD9051640 Si02
#       8
#     2   2   2   2   2   2   2   2
#     4  11  23  46  71 103 149 190 243 303 379 453
#     4  10  26  46  72 103 144 195 245 307 372 446
#     4  11  27  45  73 101 144 193 248 309 374 455
#     4  12  30  50  77 110 155 201 257 312 375 457
#     4  11  25  43  74 102 141 189 243 308 376 458
#     4  12  27  43  74 107 147 192 246 312 376 456
#     4  11  25  45  69 105 141 186 248 306 383 440
#     4  10  25  47  70 103 143 191 247 308 380 447
#
# _framework density 25.219049999999999
#
# number of rings (size 3 to 8) (size 9 to 14) (size 15 to 20)
#    0.000    1.000    2.500    1.500   12.250    4.000 
#    0.000    0.000    0.000    0.000    0.000    0.000 
#    0.000    0.000    0.000    0.000    0.000    0.000 
#
# Total GULP energy -89498.715852 kJ/mol
# GULP energy per Si atom -5593.669741 kJ/mol
# Density = 2.516165 g / cm^3
# Si number density = 25.219050 Si / 1000 Ang^3
#
#
#
# Elastic Constant Matrix: (Units=GPa)
#
#
# Indices 1 2 3 4 5 6 
#
# 1 146.6080 20.1466 36.6066 -11.3009 -20.3991 -10.0281
# 2 20.1466 111.8359 8.0279 -34.9549 -5.5769 -2.0079
# 3 36.6066 8.0279 56.0314 -17.9595 -13.7519 -3.2114
# 4 -11.3009 -34.9549 -17.9595 39.4764 -3.1157 -1.8921
# 5 -20.3991 -5.5769 -13.7519 -3.1157 37.4356 -1.8657
# 6 -10.0281 -2.0079 -3.2114 -1.8921 -1.8657 28.0251
#
#
#
# Elastic Compliance Matrix: (Units=1/GPa)
#
#
# Indices 1 2 3 4 5 6 
#
# 1 0.008736 -0.001134 -0.004769 -0.000312 0.002947 0.002674
# 2 -0.001134 0.013503 0.004547 0.014156 0.004358 0.002329
# 3 -0.004769 0.004547 0.028260 0.016482 0.010013 0.003637
# 4 -0.000312 0.014156 0.016482 0.046562 0.012205 0.006747
# 5 0.002947 0.004358 0.010013 0.012205 0.033941 0.005598
# 6 0.002674 0.002329 0.003637 0.006747 0.005598 0.038051
#
#
# Mechanical properties :
#
#
# Convention : Reuss Voigt Hill
#
# Bulk Modulus (GPa) = 20.92577 49.33749 35.13163
# Shear Modulus (GPa) = 26.63901 37.63369 32.13635
#
# Velocity S-wave (km/s) = 3.25361 3.86718 3.57359
# Velocity P-wave (km/s) = 4.73606 6.28858 5.56671
#
# Compressibility (1/GPa) = 0.04778797
#
# Stress axis : x y z
#
# Youngs Moduli (GPa) = 114.46485 74.05608 35.38552
#
# Poissons Ratio (x) = 0.08398 0.16874
# Poissons Ratio (y) = 0.12980 -0.16089
# Poissons Ratio (z) = 0.54583 -0.33671
#
# Static dielectric constant tensor:
#      x y z
#    x 2.042910 0.076060 0.071990 
#    y 0.076060 2.056580 0.014910 
#    z 0.071990 0.014910 2.003480 
# 
# From -- ./inp_files/84289.got.cif
#   From: 2010.05.17/outbox.cif.g08.bks.cpg/sg2_43_cif.got.tgz:84289.got - 2010.06.03 11:33:40.
