data_PCOD9051561
_publ_section_title
;
Structure prediction by ZEFSAII (Michael W. Deem and Ramdas Pophale) SiO2 
 PCOD9051561
Probable space group: P -1
;
_chemical_formula_sum "Si O2"
_cell_formula_units_Z 15
_cell_length_a 9.525135
_cell_length_b 16.287574
_cell_length_c 9.315410
_cell_angle_alpha 111.233007
_cell_angle_beta 104.575490
_cell_angle_gamma 26.448239
_cell_volume 590.737111
_symmetry_space_group_name_H-M "P -1"
_symmetry_group_IT_number 2
_symmetry_cell_setting 'triclinic'
loop_
_space_group_symop_operation_xyz
x,y,z
-x,-y,-z
loop_
_atom_site_type_symbol
_atom_site_label
_atom_site_fract_x
_atom_site_fract_y
_atom_site_fract_z
Si Si1 0.040085 0.952680 0.745055
Si Si2 0.836320 0.294630 0.528930
Si Si3 0.500000 0.000000 0.000000
Si Si4 0.394347 0.238198 0.309063
Si Si5 0.487939 0.714070 0.979535
Si Si6 0.208130 0.631115 0.113520
Si Si7 0.660831 0.808991 0.111298
Si Si8 0.863356 0.680896 0.407098
O O1 0.038919 0.865827 0.596730
O O2 0.248343 0.916941 0.707600
O O3 0.236390 0.827336 0.863138
O O4 0.700065 0.172399 0.848242
O O5 0.500000 0.500000 0.500000
O O6 0.796352 0.314934 0.704677
O O7 0.037981 0.270736 0.520308
O O8 0.327753 0.024879 0.099760
O O9 0.356496 0.173280 0.159048
O O10 0.342405 0.237607 0.459399
O O11 0.157340 0.450081 0.343855
O O12 0.676896 0.700946 0.993021
O O13 0.729882 0.504083 0.916807
O O14 0.833651 0.809469 0.088242
O O15 0.500000 0.500000 0.000000
O O16 0.700039 0.776150 0.269295
#
# Coordination Sequence:
#
# PCOD9051561 Si02
#       8
#     2   2   1   2   2   2   2   2
#     4  11  23  43  69 104 142 177 243 287 355 414
#     4  11  21  44  70  99 138 186 230 280 351 426
#     4  12  28  40  76 102 144 180 242 302 350 408
#     4  11  24  45  69 108 137 187 231 297 345 427
#     4  11  24  43  71 100 141 193 226 300 357 417
#     4  11  26  44  71 104 138 181 240 292 348 428
#     4  11  26  48  70 104 142 187 239 291 357 423
#     4  10  25  46  75  99 143 189 238 283 356 429
#
# _framework density 25.392005999999999
#
# number of rings (size 3 to 8) (size 9 to 14) (size 15 to 20)
#    0.000    1.067    4.000    1.200    5.600    2.667 
#    2.400    1.333    0.000    0.000    0.000    0.000 
#    0.000    0.000    0.000    0.000    0.000    0.000 
#
# Total GULP energy -83662.098583 kJ/mol
# GULP energy per Si atom -5577.473239 kJ/mol
# Density = 2.533421 g / cm^3
# Si number density = 25.392006 Si / 1000 Ang^3
#
#
#
# Elastic Constant Matrix: (Units=GPa)
#
#
# Indices 1 2 3 4 5 6 
#
# 1 124.5513 -0.2304 75.1136 -10.0521 -9.4507 7.6791
# 2 -0.2304 88.6510 43.2691 -17.3670 -4.4497 19.3199
# 3 75.1136 43.2691 199.3556 3.0976 0.7022 8.1009
# 4 -10.0521 -17.3670 3.0976 41.8556 7.2057 -7.0049
# 5 -9.4507 -4.4497 0.7022 7.2057 62.3115 5.0766
# 6 7.6791 19.3199 8.1009 -7.0049 5.0766 46.9079
#
#
#
# Elastic Compliance Matrix: (Units=1/GPa)
#
#
# Indices 1 2 3 4 5 6 
#
# 1 0.011872 0.004046 -0.005332 0.004230 0.001845 -0.002257
# 2 0.004046 0.016384 -0.004963 0.006928 0.001501 -0.005681
# 3 -0.005332 -0.004963 0.008118 -0.003601 -0.000926 0.001077
# 4 0.004230 0.006928 -0.003601 0.028709 -0.002274 0.001609
# 5 0.001845 0.001501 -0.000926 -0.002274 0.016948 -0.002934
# 6 -0.002257 -0.005681 0.001077 0.001609 -0.002934 0.024400
#
#
# Mechanical properties :
#
#
# Convention : Reuss Voigt Hill
#
# Bulk Modulus (GPa) = 41.88103 72.09582 56.98843
# Shear Modulus (GPa) = 39.40543 49.84204 44.62373
#
# Velocity S-wave (km/s) = 3.94367 4.43527 4.19668
# Velocity P-wave (km/s) = 6.10461 7.39484 6.78048
#
# Compressibility (1/GPa) = 0.02387716
#
# Stress axis : x y z
#
# Youngs Moduli (GPa) = 84.22879 61.03686 123.18703
#
# Poissons Ratio (x) = -0.24698 0.65684
# Poissons Ratio (y) = -0.34083 0.61134
# Poissons Ratio (z) = 0.44911 0.30291
#
# Static dielectric constant tensor:
#      x y z
#    x 2.373400 -0.275350 -0.122650 
#    y -0.275350 2.222180 -0.000260 
#    z -0.122650 -0.000260 2.115440 
# 
# From -- ./inp_files/203200.got.cif
#   From: 2010.05.17/outbox.cif.g08.bks.cpg/sg2_102_cif.got.tgz:203200.got - 2010.06.03 11:33:40.
