data_PCOD9051441
_publ_section_title
;
Structure prediction by ZEFSAII (Michael W. Deem and Ramdas Pophale) SiO2 
 PCOD9051441
Probable space group: P -1
;
_chemical_formula_sum "Si O2"
_cell_formula_units_Z 16
_cell_length_a 10.975727
_cell_length_b 11.483579
_cell_length_c 6.873238
_cell_angle_alpha 74.070235
_cell_angle_beta 97.169598
_cell_angle_gamma 129.824153
_cell_volume 638.260801
_symmetry_space_group_name_H-M "P -1"
_symmetry_group_IT_number 2
_symmetry_cell_setting 'triclinic'
loop_
_space_group_symop_operation_xyz
x,y,z
-x,-y,-z
loop_
_atom_site_type_symbol
_atom_site_label
_atom_site_fract_x
_atom_site_fract_y
_atom_site_fract_z
Si Si1 0.255542 0.197386 0.506810
Si Si2 0.215735 0.410086 0.142152
Si Si3 0.423606 0.585321 0.412057
Si Si4 0.825120 0.074884 0.617443
Si Si5 0.661764 0.111470 0.858203
Si Si6 0.872542 0.293732 0.185447
Si Si7 0.103729 0.181506 0.867873
Si Si8 0.812757 0.402890 0.461914
O O1 0.220338 0.302611 0.348516
O O2 0.432843 0.252381 0.531289
O O3 0.214658 0.190399 0.725725
O O4 0.160717 0.044965 0.425517
O O5 0.376074 0.575487 0.180121
O O6 0.062537 0.398798 0.152483
O O7 0.193569 0.319240 0.982414
O O8 0.500000 0.500000 0.500000
O O9 0.266786 0.520745 0.531634
O O10 0.683389 0.007441 0.772380
O O11 0.823140 0.164467 0.396545
O O12 0.979001 0.189317 0.728856
O O13 0.707214 0.246022 0.649681
O O14 0.793649 0.211704 0.005161
O O15 0.500000 0.000000 0.000000
O O16 0.807812 0.373053 0.243981
O O17 0.000000 0.000000 0.000000
O O18 0.000000 0.500000 0.500000
#
# Coordination Sequence:
#
# PCOD9051441 Si02
#       8
#     2   2   2   2   2   2   2   2
#     4  11  24  40  66 100 145 185 239 301 370 432
#     4  11  21  43  66 100 139 186 244 299 358 434
#     4  10  25  46  71 102 140 188 241 302 361 426
#     4  11  23  39  68  99 140 196 237 300 377 438
#     4  11  28  44  69 112 146 184 248 311 372 430
#     4  11  23  43  71  99 144 186 247 305 360 441
#     4  12  22  36  65 100 137 185 244 296 363 441
#     4  11  25  49  77 102 143 201 249 291 368 451
#
# _framework density 25.068125999999999
#
# number of rings (size 3 to 8) (size 9 to 14) (size 15 to 20)
#    0.000    1.000    5.000    1.125    3.500    2.000 
#    0.000    0.000    0.000    0.000    0.000    0.000 
#    0.000    0.000    0.000    0.000    0.000    0.000 
#
# Total GULP energy -89330.772165 kJ/mol
# GULP energy per Si atom -5583.173260 kJ/mol
# Density = 2.501107 g / cm^3
# Si number density = 25.068126 Si / 1000 Ang^3
#
#
#
# Elastic Constant Matrix: (Units=GPa)
#
#
# Indices 1 2 3 4 5 6 
#
# 1 140.2433 28.1243 57.5993 10.0629 -32.4043 8.2698
# 2 28.1243 56.6880 44.5342 8.4115 -11.6622 9.1185
# 3 57.5993 44.5342 167.5982 23.7943 -20.1788 1.8356
# 4 10.0629 8.4115 23.7943 58.8140 0.7786 -6.2096
# 5 -32.4043 -11.6622 -20.1788 0.7786 44.2358 11.5461
# 6 8.2698 9.1185 1.8356 -6.2096 11.5461 39.5952
#
#
#
# Elastic Compliance Matrix: (Units=1/GPa)
#
#
# Indices 1 2 3 4 5 6 
#
# 1 0.010255 -0.001036 -0.002134 -0.001279 0.007372 -0.004155
# 2 -0.001036 0.024801 -0.005224 -0.002078 0.005292 -0.007122
# 3 -0.002134 -0.005224 0.008499 -0.002267 0.000803 0.000665
# 4 -0.001279 -0.002078 -0.002267 0.019024 -0.004172 0.005051
# 5 0.007372 0.005292 0.000803 -0.004172 0.033274 -0.013153
# 6 -0.004155 -0.007122 0.000665 0.005051 -0.013153 0.032360
#
#
# Mechanical properties :
#
#
# Convention : Reuss Voigt Hill
#
# Bulk Modulus (GPa) = 37.35978 69.44948 53.40463
# Shear Modulus (GPa) = 32.48322 44.14711 38.31517
#
# Velocity S-wave (km/s) = 3.60362 4.20108 3.91377
# Velocity P-wave (km/s) = 5.67895 7.16216 6.46324
#
# Compressibility (1/GPa) = 0.02676675
#
# Stress axis : x y z
#
# Youngs Moduli (GPa) = 97.51258 40.32094 117.65536
#
# Poissons Ratio (x) = 0.04178 0.25111
# Poissons Ratio (y) = 0.10105 0.61460
# Poissons Ratio (z) = 0.20812 0.21063
#
# Static dielectric constant tensor:
#      x y z
#    x 2.081950 -0.052150 0.007830 
#    y -0.052150 2.279370 -0.014690 
#    z 0.007830 -0.014690 1.943820 
# 
# From -- ./inp_files/76126.got.cif
#   From: 2010.05.17/outbox.cif.g08.bks.cpg/sg2_39_cif.got.tgz:76126.got - 2010.06.03 11:33:40.
