data_PCOD9051337
_publ_section_title
;
Structure prediction by ZEFSAII (Michael W. Deem and Ramdas Pophale) SiO2 
 PCOD9051337
Probable space group: P -1
;
_chemical_formula_sum "Si O2"
_cell_formula_units_Z 15
_cell_length_a 8.804847
_cell_length_b 12.585880
_cell_length_c 9.507074
_cell_angle_alpha 122.817029
_cell_angle_beta 88.168340
_cell_angle_gamma 123.885510
_cell_volume 677.658617
_symmetry_space_group_name_H-M "P -1"
_symmetry_group_IT_number 2
_symmetry_cell_setting 'triclinic'
loop_
_space_group_symop_operation_xyz
x,y,z
-x,-y,-z
loop_
_atom_site_type_symbol
_atom_site_label
_atom_site_fract_x
_atom_site_fract_y
_atom_site_fract_z
Si Si1 0.104662 0.933412 0.880179
Si Si2 0.414046 0.722738 0.634742
Si Si3 0.500000 0.000000 0.000000
Si Si4 0.964261 0.154035 0.499970
Si Si5 0.786734 0.464117 0.233479
Si Si6 0.306646 0.139566 0.527784
Si Si7 0.377263 0.559984 0.079204
Si Si8 0.088437 0.411866 0.233544
O O1 0.107217 0.939993 0.714855
O O2 0.964510 0.741159 0.789912
O O3 0.322975 0.016122 0.993770
O O4 0.000000 0.000000 0.000000
O O5 0.380707 0.619809 0.701307
O O6 0.606085 0.811251 0.595668
O O7 0.230455 0.578364 0.439892
O O8 0.403448 0.863016 0.778999
O O9 0.047511 0.339276 0.613449
O O10 0.148853 0.168516 0.557769
O O11 0.798115 0.043343 0.544700
O O12 0.888942 0.382581 0.187133
O O13 0.697653 0.427499 0.056350
O O14 0.482098 0.266829 0.720515
O O15 0.197571 0.437061 0.103166
O O16 0.500000 0.500000 0.000000
#
# Coordination Sequence:
#
# PCOD9051337 Si02
#       8
#     2   2   1   2   2   2   2   2
#     4  12  27  46  76 111 149 198 248 308 372 442
#     4  11  24  47  73 102 145 193 245 309 362 448
#     4  12  26  46  72 112 150 180 252 308 366 436
#     4  11  24  45  73 101 147 199 239 301 376 439
#     4  12  23  45  76 101 143 191 242 298 373 432
#     4  10  25  46  67 106 151 187 247 304 369 441
#     4  11  25  43  70 108 141 186 244 307 358 441
#     4  11  25  49  72 102 150 191 245 300 376 446
#
# _framework density 22.135038999999999
#
# number of rings (size 3 to 8) (size 9 to 14) (size 15 to 20)
#    0.000    0.800    4.000    2.400    3.733    2.667 
#    2.400    2.000    0.000    0.000    0.000    0.000 
#    0.000    0.000    0.000    0.000    0.000    0.000 
#
# Total GULP energy -83645.648459 kJ/mol
# GULP energy per Si atom -5576.376564 kJ/mol
# Density = 2.208466 g / cm^3
# Si number density = 22.135039 Si / 1000 Ang^3
#
#
#
# Elastic Constant Matrix: (Units=GPa)
#
#
# Indices 1 2 3 4 5 6 
#
# 1 71.0284 7.9606 10.6075 6.2841 2.0045 4.6046
# 2 7.9606 121.8583 14.9819 -7.8211 -8.8893 23.4787
# 3 10.6075 14.9819 82.3552 -8.1307 3.7144 2.3031
# 4 6.2841 -7.8211 -8.1307 34.9492 -13.1633 -10.3965
# 5 2.0045 -8.8893 3.7144 -13.1633 28.4529 -0.5088
# 6 4.6046 23.4787 2.3031 -10.3965 -0.5088 34.5594
#
#
#
# Elastic Compliance Matrix: (Units=1/GPa)
#
#
# Indices 1 2 3 4 5 6 
#
# 1 0.015310 -0.000773 -0.002144 -0.005789 -0.003775 -0.003169
# 2 -0.000773 0.010019 -0.001565 0.001776 0.004103 -0.006005
# 3 -0.002144 -0.001565 0.013012 0.003323 -0.000473 0.001474
# 4 -0.005789 0.001776 0.003323 0.042104 0.020228 0.012307
# 5 -0.003775 0.004103 -0.000473 0.020228 0.046194 0.004512
# 6 -0.003169 -0.006005 0.001474 0.012307 0.004512 0.037108
#
#
# Mechanical properties :
#
#
# Convention : Reuss Voigt Hill
#
# Bulk Modulus (GPa) = 34.04006 38.03799 36.03902
# Shear Modulus (GPa) = 27.39677 35.70510 31.55094
#
# Velocity S-wave (km/s) = 3.52193 4.02065 3.77952
# Velocity P-wave (km/s) = 5.65247 6.22703 5.94669
#
# Compressibility (1/GPa) = 0.02937715
#
# Stress axis : x y z
#
# Youngs Moduli (GPa) = 65.31745 99.80576 76.85501
#
# Poissons Ratio (x) = 0.07714 0.16478
# Poissons Ratio (y) = 0.05048 0.12027
# Poissons Ratio (z) = 0.14004 0.15619
#
# Static dielectric constant tensor:
#      x y z
#    x 1.757420 -0.030930 0.065770 
#    y -0.030930 1.748980 0.119380 
#    z 0.065770 0.119380 1.729720 
# 
# From -- ./inp_files/172968.got.cif
#   From: 2010.05.17/outbox.cif.g08.bks.cpg/sg2_87_cif.got.tgz:172968.got - 2010.06.03 11:33:40.
