data_PCOD9051260
_publ_section_title
;
Structure prediction by ZEFSAII (Michael W. Deem and Ramdas Pophale) SiO2 
 PCOD9051260
Probable space group: P -1
;
_chemical_formula_sum "Si O2"
_cell_formula_units_Z 16
_cell_length_a 14.650528
_cell_length_b 9.677373
_cell_length_c 9.205260
_cell_angle_alpha 123.462973
_cell_angle_beta 144.530203
_cell_angle_gamma 67.812550
_cell_volume 624.872658
_symmetry_space_group_name_H-M "P -1"
_symmetry_group_IT_number 2
_symmetry_cell_setting 'triclinic'
loop_
_space_group_symop_operation_xyz
x,y,z
-x,-y,-z
loop_
_atom_site_type_symbol
_atom_site_label
_atom_site_fract_x
_atom_site_fract_y
_atom_site_fract_z
Si Si1 0.629255 0.385492 0.558577
Si Si2 0.110206 0.179272 0.664653
Si Si3 0.580246 0.173358 0.774218
Si Si4 0.574612 0.964497 0.923293
Si Si5 0.148090 0.755417 0.066731
Si Si6 0.869575 0.609962 0.449976
Si Si7 0.027856 0.152857 0.844437
Si Si8 0.687621 0.596751 0.484431
O O1 0.500000 0.500000 0.500000
O O2 0.546890 0.197727 0.381131
O O3 0.788972 0.405684 0.872980
O O4 0.667774 0.438392 0.474339
O O5 0.188437 0.308839 0.721069
O O6 0.021357 0.238190 0.725538
O O7 0.988779 0.040500 0.340157
O O8 0.256621 0.096328 0.869182
O O9 0.739143 0.208402 0.905404
O O10 0.469049 0.315544 0.688295
O O11 0.500000 0.000000 0.500000
O O12 0.591489 0.119656 0.925154
O O13 0.500000 0.000000 0.000000
O O14 0.118507 0.851051 0.234421
O O15 0.976786 0.745572 0.766693
O O16 0.741065 0.539465 0.361712
O O17 0.000000 0.500000 0.500000
O O18 0.183662 0.258953 0.183837
#
# Coordination Sequence:
#
# PCOD9051260 Si02
#       8
#     2   2   2   2   2   2   2   2
#     4  12  24  46  73 107 143 191 240 295 361 430
#     4  11  25  46  71 105 149 187 235 301 365 426
#     4  12  24  45  74 109 139 183 246 299 354 429
#     4  12  27  46  75 108 147 189 241 303 365 429
#     4  11  26  44  73 103 142 188 241 291 360 430
#     4  11  29  45  69 104 148 188 242 295 358 430
#     4  10  25  45  74 103 143 190 236 294 362 436
#     4  11  26  47  77 105 144 194 240 300 359 433
#
# _framework density 25.605215999999999
#
# number of rings (size 3 to 8) (size 9 to 14) (size 15 to 20)
#    0.000    0.750    2.500    3.000   12.250    3.000 
#    0.000    1.875    0.000    0.000    0.000    0.000 
#    0.000    0.000    0.000    0.000    0.000    0.000 
#
# Total GULP energy -89344.554090 kJ/mol
# GULP energy per Si atom -5584.034631 kJ/mol
# Density = 2.554694 g / cm^3
# Si number density = 25.605216 Si / 1000 Ang^3
#
#
#
# Elastic Constant Matrix: (Units=GPa)
#
#
# Indices 1 2 3 4 5 6 
#
# 1 228.4889 48.0607 32.1504 -10.9803 -23.4578 41.4026
# 2 48.0607 98.1673 35.3941 -24.9173 -7.0694 49.2827
# 3 32.1504 35.3941 73.5837 -7.0521 -9.2780 7.7951
# 4 -10.9803 -24.9173 -7.0521 41.8290 3.1881 -10.4038
# 5 -23.4578 -7.0694 -9.2780 3.1881 41.9041 -6.2934
# 6 41.4026 49.2827 7.7951 -10.4038 -6.2934 49.1447
#
#
#
# Elastic Compliance Matrix: (Units=1/GPa)
#
#
# Indices 1 2 3 4 5 6 
#
# 1 0.005598 0.000369 -0.001873 0.000094 0.002098 -0.004500
# 2 0.000369 0.029346 -0.010835 0.009359 -0.001901 -0.026283
# 3 -0.001873 -0.010835 0.018818 -0.001633 0.002837 0.009477
# 4 0.000094 0.009359 -0.001633 0.028505 -0.001402 -0.003351
# 5 0.002098 -0.001901 0.002837 -0.001402 0.025859 0.002703
# 6 -0.004500 -0.026283 0.009477 -0.003351 0.002703 0.048630
#
#
# Mechanical properties :
#
#
# Convention : Reuss Voigt Hill
#
# Bulk Modulus (GPa) = 34.38443 70.16117 52.27280
# Shear Modulus (GPa) = 26.16053 45.55121 35.85587
#
# Velocity S-wave (km/s) = 3.19985 4.22237 3.74616
# Velocity P-wave (km/s) = 5.20672 7.15764 6.25866
#
# Compressibility (1/GPa) = 0.02908293
#
# Stress axis : x y z
#
# Youngs Moduli (GPa) = 178.63762 34.07618 53.14200
#
# Poissons Ratio (x) = -0.01257 0.09954
# Poissons Ratio (y) = -0.06592 0.57581
# Poissons Ratio (z) = 0.33459 0.36922
#
# Static dielectric constant tensor:
#      x y z
#    x 0.831370 -1.048050 -0.540970 
#    y -1.048050 1.098740 -0.421110 
#    z -0.540970 -0.421110 1.941570 
# 
# From -- ./inp_files/299412.got.cif
#   From: 2010.05.17/outbox.cif.g08.bks.cpg/sg2_150_cif.got.tgz:299412.got - 2010.06.03 11:33:40.
