data_PCOD9051462
_publ_section_title
;
Structure prediction by ZEFSAII (Michael W. Deem and Ramdas Pophale) SiO2 
 PCOD9051462
Probable space group: P -1
;
_chemical_formula_sum "Si O2"
_cell_formula_units_Z 16
_cell_length_a 15.929301
_cell_length_b 8.434882
_cell_length_c 11.059314
_cell_angle_alpha 89.993395
_cell_angle_beta 54.921673
_cell_angle_gamma 134.533808
_cell_volume 626.514079
_symmetry_space_group_name_H-M "P -1"
_symmetry_group_IT_number 2
_symmetry_cell_setting 'triclinic'
loop_
_space_group_symop_operation_xyz
x,y,z
-x,-y,-z
loop_
_atom_site_type_symbol
_atom_site_label
_atom_site_fract_x
_atom_site_fract_y
_atom_site_fract_z
Si Si1 0.478830 0.657405 0.039483
Si Si2 0.699190 0.168823 0.298564
Si Si3 0.776768 0.589098 0.981964
Si Si4 0.522907 0.329701 0.675608
Si Si5 0.567881 0.736000 0.590350
Si Si6 0.954217 0.256556 0.389718
Si Si7 0.933017 0.751628 0.217306
Si Si8 0.071083 0.751189 0.330931
O O1 0.323679 0.502907 0.065509
O O2 0.433479 0.622299 0.218030
O O3 0.500000 0.500000 0.000000
O O4 0.705361 0.018416 0.833886
O O5 0.876980 0.530424 0.174500
O O6 0.500000 0.000000 0.500000
O O7 0.653108 0.029137 0.207441
O O8 0.690080 0.999196 0.390957
O O9 0.903936 0.607835 0.835405
O O10 0.589808 0.348893 0.225316
O O11 0.931103 0.914983 0.918905
O O12 0.464239 0.425314 0.667835
O O13 0.721010 0.537761 0.439938
O O14 0.735733 0.904943 0.545642
O O15 0.006151 0.270667 0.482486
O O16 0.939286 0.424845 0.411682
O O17 0.053904 0.838836 0.230339
#
# Coordination Sequence:
#
# PCOD9051462 Si02
#       8
#     2   2   2   2   2   2   2   2
#     4  12  22  39  68 104 141 175 224 279 343 410
#     4  10  25  46  71  96 137 187 233 284 342 401
#     4  12  25  41  72 108 140 177 228 283 345 412
#     4  11  23  42  72 100 137 188 227 282 345 401
#     4  12  22  46  71 101 135 181 231 285 337 409
#     4  11  24  40  67 102 140 185 225 282 349 404
#     4  11  22  41  69 101 138 184 228 278 342 410
#     4  11  22  41  62 101 146 181 226 281 342 412
#
# _framework density 25.538132000000001
#
# number of rings (size 3 to 8) (size 9 to 14) (size 15 to 20)
#    0.000    0.750    6.250    1.125    0.000    3.500 
#    0.000    5.000    5.500    0.000    0.000    0.000 
#    0.000    0.000    0.000    0.000    0.000    0.000 
#
# Total GULP energy -89345.536805 kJ/mol
# GULP energy per Si atom -5584.096050 kJ/mol
# Density = 2.548001 g / cm^3
# Si number density = 25.538132 Si / 1000 Ang^3
#
#
#
# Elastic Constant Matrix: (Units=GPa)
#
#
# Indices 1 2 3 4 5 6 
#
# 1 62.7028 28.9538 13.2511 4.8544 3.8731 7.9860
# 2 28.9538 150.2660 29.8008 10.6562 8.8549 10.3362
# 3 13.2511 29.8008 86.8444 -0.5325 -9.8875 1.4480
# 4 4.8544 10.6562 -0.5325 16.7281 -0.5194 2.6682
# 5 3.8731 8.8549 -9.8875 -0.5194 33.8016 1.0245
# 6 7.9860 10.3362 1.4480 2.6682 1.0245 24.7113
#
#
#
# Elastic Compliance Matrix: (Units=1/GPa)
#
#
# Indices 1 2 3 4 5 6 
#
# 1 0.018480 -0.002489 -0.002141 -0.003210 -0.002008 -0.004376
# 2 -0.002489 0.008288 -0.002768 -0.004425 -0.002706 -0.001910
# 3 -0.002141 -0.002768 0.013358 0.002874 0.004905 0.000553
# 4 -0.003210 -0.004425 0.002874 0.064428 0.003490 -0.004382
# 5 -0.002008 -0.002706 0.004905 0.003490 0.032018 -0.000211
# 6 -0.004376 -0.001910 0.000553 -0.004382 -0.000211 0.043130
#
#
# Mechanical properties :
#
#
# Convention : Reuss Voigt Hill
#
# Bulk Modulus (GPa) = 39.47801 49.31386 44.39593
# Shear Modulus (GPa) = 24.63765 30.23537 27.43651
#
# Velocity S-wave (km/s) = 3.10940 3.44456 3.28126
# Velocity P-wave (km/s) = 5.32758 5.93058 5.63715
#
# Compressibility (1/GPa) = 0.02533056
#
# Stress axis : x y z
#
# Youngs Moduli (GPa) = 54.11260 120.65692 74.86109
#
# Poissons Ratio (x) = 0.30034 0.16027
# Poissons Ratio (y) = 0.13470 0.20718
# Poissons Ratio (z) = 0.11585 0.33392
#
# Static dielectric constant tensor:
#      x y z
#    x 2.051800 0.034910 0.031790 
#    y 0.034910 2.297160 -0.115350 
#    z 0.031790 -0.115350 2.076980 
# 
# From -- ./inp_files/400010.got.cif
#   From: 2010.05.17/outbox.cif.g08.bks.cpg/sg2_201_cif.got.tgz:400010.got - 2010.06.03 11:33:40.
