data_PCOD9051213
_publ_section_title
;
Structure prediction by ZEFSAII (Michael W. Deem and Ramdas Pophale) SiO2 
 PCOD9051213
Probable space group: P -1
;
_chemical_formula_sum "Si O2"
_cell_formula_units_Z 13
_cell_length_a 5.331971
_cell_length_b 11.031605
_cell_length_c 12.721443
_cell_angle_alpha 126.323755
_cell_angle_beta 86.148576
_cell_angle_gamma 115.196475
_cell_volume 527.654941
_symmetry_space_group_name_H-M "P -1"
_symmetry_group_IT_number 2
_symmetry_cell_setting 'triclinic'
loop_
_space_group_symop_operation_xyz
x,y,z
-x,-y,-z
loop_
_atom_site_type_symbol
_atom_site_label
_atom_site_fract_x
_atom_site_fract_y
_atom_site_fract_z
Si Si1 0.209260 0.874879 0.383727
Si Si2 0.500000 0.500000 0.500000
Si Si3 0.763301 0.430924 0.880887
Si Si4 0.617263 0.709864 0.987583
Si Si5 0.172146 0.161020 0.433381
Si Si6 0.928481 0.111950 0.198153
Si Si7 0.608191 0.312611 0.230039
O O1 0.211216 0.704530 0.262425
O O2 0.942693 0.829102 0.444288
O O3 0.500000 0.000000 0.500000
O O4 0.197227 0.987444 0.344570
O O5 0.458061 0.329308 0.478099
O O6 0.700220 0.470263 0.388187
O O7 0.478791 0.325910 0.906615
O O8 0.755495 0.587019 0.902199
O O9 0.000000 0.500000 0.000000
O O10 0.806503 0.913146 0.074517
O O11 0.369369 0.651300 0.876353
O O12 0.947255 0.139706 0.337499
O O13 0.746716 0.193328 0.194148
O O14 0.261921 0.217092 0.209910
#
# Coordination Sequence:
#
# PCOD9051213 Si02
#       7
#     2   1   2   2   2   2   2
#     4  11  25  45  78 102 145 198 246 305 374 453
#     4  10  26  44  70 108 146 186 244 308 368 434
#     4  11  27  43  72 103 144 192 242 311 362 435
#     4  11  26  44  68 104 143 182 251 293 368 437
#     4  10  25  45  72 106 145 185 251 300 377 438
#     4  11  25  47  73 105 141 197 234 308 366 452
#     4  11  27  44  75 104 147 190 243 298 379 437
#
# _framework density 24.637315999999998
#
# number of rings (size 3 to 8) (size 9 to 14) (size 15 to 20)
#    0.000    1.231    0.000    2.769   17.231    4.923 
#    0.000    0.000    0.000    0.000    0.000    0.000 
#    0.000    0.000    0.000    0.000    0.000    0.000 
#
# Total GULP energy -72511.142623 kJ/mol
# GULP energy per Si atom -5577.780202 kJ/mol
# Density = 2.458124 g / cm^3
# Si number density = 24.637316 Si / 1000 Ang^3
#
#
#
# Elastic Constant Matrix: (Units=GPa)
#
#
# Indices 1 2 3 4 5 6 
#
# 1 89.0429 47.0149 13.4317 10.3982 -4.4067 -34.0407
# 2 47.0149 152.1612 34.2504 3.5265 -9.6932 -42.0231
# 3 13.4317 34.2504 100.2734 14.7051 -15.3722 -24.7827
# 4 10.3982 3.5265 14.7051 43.8378 -9.7970 -7.8760
# 5 -4.4067 -9.6932 -15.3722 -9.7970 33.5916 -3.6173
# 6 -34.0407 -42.0231 -24.7827 -7.8760 -3.6173 57.1215
#
#
#
# Elastic Compliance Matrix: (Units=1/GPa)
#
#
# Indices 1 2 3 4 5 6 
#
# 1 0.015874 -0.002889 0.001424 -0.002138 0.002116 0.007792
# 2 -0.002889 0.009274 -0.001427 0.001912 0.002731 0.004918
# 3 0.001424 -0.001427 0.012785 -0.002309 0.005531 0.005378
# 4 -0.002138 0.001912 -0.002309 0.026115 0.007174 0.003186
# 5 0.002116 0.002731 0.005531 0.007174 0.036424 0.008966
# 6 0.007792 0.004918 0.005378 0.003186 0.008966 0.029109
#
#
# Mechanical properties :
#
#
# Convention : Reuss Voigt Hill
#
# Bulk Modulus (GPa) = 31.10459 58.98574 45.04517
# Shear Modulus (GPa) = 34.22755 43.36221 38.79488
#
# Velocity S-wave (km/s) = 3.73132 4.19981 3.97248
# Velocity P-wave (km/s) = 5.58713 6.89286 6.27406
#
# Compressibility (1/GPa) = 0.03214959
#
# Stress axis : x y z
#
# Youngs Moduli (GPa) = 62.99489 107.82994 78.21595
#
# Poissons Ratio (x) = 0.31155 -0.11139
# Poissons Ratio (y) = 0.18201 0.11159
# Poissons Ratio (z) = -0.08971 0.15384
#
# Static dielectric constant tensor:
#      x y z
#    x 2.013510 0.074120 0.011190 
#    y 0.074120 1.975180 -0.034480 
#    z 0.011190 -0.034480 2.069480 
# 
# From -- ./inp_files/35883.got.cif
#   From: 2010.05.17/outbox.cif.g08.bks.cpg/sg2_18_cif.got.tgz:35883.got - 2010.06.03 11:33:40.
