data_PCOD9051674
_publ_section_title
;
Structure prediction by ZEFSAII (Michael W. Deem and Ramdas Pophale) SiO2 
 PCOD9051674
Probable space group: P -1
;
_chemical_formula_sum "Si O2"
_cell_formula_units_Z 16
_cell_length_a 9.254648
_cell_length_b 8.167024
_cell_length_c 13.547326
_cell_angle_alpha 89.003387
_cell_angle_beta 70.813583
_cell_angle_gamma 130.330303
_cell_volume 698.563985
_symmetry_space_group_name_H-M "P -1"
_symmetry_group_IT_number 2
_symmetry_cell_setting 'triclinic'
loop_
_space_group_symop_operation_xyz
x,y,z
-x,-y,-z
loop_
_atom_site_type_symbol
_atom_site_label
_atom_site_fract_x
_atom_site_fract_y
_atom_site_fract_z
Si Si1 0.841373 0.647871 0.910872
Si Si2 0.495158 0.414868 0.642740
Si Si3 0.052128 0.570408 0.209814
Si Si4 0.415551 0.242290 0.088870
Si Si5 0.479439 0.898576 0.239127
Si Si6 0.845073 0.668331 0.400172
Si Si7 0.162767 0.856413 0.991040
Si Si8 0.315028 0.093124 0.332826
O O1 0.981529 0.644053 0.805677
O O2 0.689764 0.657023 0.886435
O O3 0.991313 0.819914 0.962205
O O4 0.663268 0.415307 0.013014
O O5 0.481886 0.255308 0.724131
O O6 0.668278 0.491457 0.521440
O O7 0.267759 0.279001 0.644050
O O8 0.579846 0.659328 0.655886
O O9 0.278021 0.734221 0.213035
O O10 0.903001 0.560491 0.316432
O O11 0.060288 0.664305 0.099635
O O12 0.347541 0.118324 0.207735
O O13 0.304435 0.078667 0.022878
O O14 0.675425 0.098500 0.125106
O O15 0.425245 0.998788 0.332251
O O16 0.060616 0.889144 0.402817
#
# Coordination Sequence:
#
# PCOD9051674 Si02
#       8
#     2   2   2   2   2   2   2   2
#     4  11  25  36  64  99 132 187 218 264 339 404
#     4  11  26  48  71  99 134 177 227 287 332 397
#     4  11  22  44  65  96 138 175 219 283 326 398
#     4  11  23  41  60 100 142 168 224 273 329 402
#     4  11  24  43  70 102 136 178 224 276 334 404
#     4  10  25  47  71  98 135 171 229 285 334 394
#     4  12  23  40  64  96 140 173 218 271 331 398
#     4  11  24  43  73  96 135 181 217 281 342 397
#
# _framework density 22.904132000000001
#
# number of rings (size 3 to 8) (size 9 to 14) (size 15 to 20)
#    0.000    1.000    3.750    3.000    7.000    2.000 
#    0.000    3.750    0.000    0.000    0.000    0.000 
#    0.000    0.000    0.000    0.000    0.000    0.000 
#
# Total GULP energy -89291.489247 kJ/mol
# GULP energy per Si atom -5580.718078 kJ/mol
# Density = 2.285200 g / cm^3
# Si number density = 22.904132 Si / 1000 Ang^3
#
#
#
# Elastic Constant Matrix: (Units=GPa)
#
#
# Indices 1 2 3 4 5 6 
#
# 1 -19.9426 18.8999 -19.2719 31.8423 14.3169 -30.6439
# 2 18.8999 76.0320 9.7535 14.9836 -13.1394 -7.5542
# 3 -19.2719 9.7535 39.9262 31.9092 -3.3385 -17.1336
# 4 31.8423 14.9836 31.9092 6.1954 -13.3861 1.4322
# 5 14.3169 -13.1394 -3.3385 -13.3861 28.9090 4.8017
# 6 -30.6439 -7.5542 -17.1336 1.4322 4.8017 35.7260
#
#
#
# Elastic Compliance Matrix: (Units=1/GPa)
#
#
# Indices 1 2 3 4 5 6 
#
# 1 0.015862 -0.008045 -0.017921 0.035559 0.002630 0.001531
# 2 -0.008045 0.018652 0.004814 -0.016398 0.005547 -0.000736
# 3 -0.017921 0.004814 0.021871 -0.009866 0.009816 -0.004788
# 4 0.035559 -0.016398 -0.009866 0.049521 -0.006799 0.021231
# 5 0.002630 0.005547 0.009816 -0.006799 0.033139 0.003954
# 6 0.001531 -0.000736 -0.004788 0.021231 0.003954 0.025469
#
#
# Mechanical properties :
#
#
# Convention : Reuss Voigt Hill
#
# Bulk Modulus (GPa) = 71.02014 12.75319 41.88667
# Shear Modulus (GPa) = 23.63944 19.94170 21.79057
#
# Velocity S-wave (km/s) = 3.21612 2.95389 3.08779
# Velocity P-wave (km/s) = 6.69822 4.14899 5.57137
#
# Compressibility (1/GPa) = 0.01408051
#
# Stress axis : x y z
#
# Youngs Moduli (GPa) = 63.04413 53.61438 45.72327
#
# Poissons Ratio (x) = 0.43134 0.81939
# Poissons Ratio (y) = 0.50720 -0.22010
# Poissons Ratio (z) = 1.12979 -0.25809
#
# Static dielectric constant tensor:
#      x y z
#    x 1.938940 -0.080320 -0.024420 
#    y -0.080320 2.008050 -0.010450 
#    z -0.024420 -0.010450 1.832550 
# 
# From -- ./inp_files/492951.got.cif
#   From: 2010.05.17/outbox.cif.g08.bks.cpg/sg2_247_cif.got.tgz:492951.got - 2010.06.03 11:33:40.
