data_PCOD9051819
_publ_section_title
;
Structure prediction by ZEFSAII (Michael W. Deem and Ramdas Pophale) SiO2 
 PCOD9051819
Probable space group: P -1
;
_chemical_formula_sum "Si O2"
_cell_formula_units_Z 14
_cell_length_a 14.426652
_cell_length_b 7.718933
_cell_length_c 9.627494
_cell_angle_alpha 48.552055
_cell_angle_beta 47.237809
_cell_angle_gamma 56.593667
_cell_volume 579.936128
_symmetry_space_group_name_H-M "P -1"
_symmetry_group_IT_number 2
_symmetry_cell_setting 'triclinic'
loop_
_space_group_symop_operation_xyz
x,y,z
-x,-y,-z
loop_
_atom_site_type_symbol
_atom_site_label
_atom_site_fract_x
_atom_site_fract_y
_atom_site_fract_z
Si Si1 0.598689 0.464374 0.599756
Si Si2 0.590006 0.628207 0.932840
Si Si3 0.584523 0.135846 0.532748
Si Si4 0.846779 0.250931 0.822813
Si Si5 0.987541 0.873844 0.728966
Si Si6 0.119927 0.510681 0.600084
Si Si7 0.855727 0.029655 0.209038
O O1 0.613236 0.319406 0.521183
O O2 0.545699 0.739819 0.476152
O O3 0.737381 0.430172 0.549216
O O4 0.484332 0.367819 0.847898
O O5 0.727192 0.457246 0.868862
O O6 0.588578 0.885688 0.734935
O O7 0.500000 0.500000 0.000000
O O8 0.702463 0.119214 0.318267
O O9 0.851074 0.996518 0.873041
O O10 0.086796 0.918850 0.726105
O O11 0.902960 0.170684 0.958164
O O12 0.925415 0.363082 0.566366
O O13 0.028111 0.607586 0.771355
O O14 0.000000 0.000000 0.500000
O O15 0.138201 0.238827 0.696518
#
# Coordination Sequence:
#
# PCOD9051819 Si02
#       7
#     2   2   2   2   2   2   2
#     4  11  23  42  65  99 140 175 230 275 336 405
#     4  12  23  40  65  98 135 173 224 275 335 406
#     4  11  24  40  67 100 135 184 221 280 338 402
#     4  11  24  42  67 102 132 175 224 282 334 402
#     4  10  25  48  69  97 138 175 228 284 333 410
#     4  11  24  44  72  99 135 183 221 279 343 399
#     4  12  23  44  71  99 136 176 228 281 338 403
#
# _framework density 24.140588999999999
#
# number of rings (size 3 to 8) (size 9 to 14) (size 15 to 20)
#    0.000    0.857    5.714    0.857    2.000    4.000 
#    0.000    4.286    0.000    0.000    0.000    0.000 
#    0.000    0.000    0.000    0.000    0.000    0.000 
#
# Total GULP energy -78095.322142 kJ/mol
# GULP energy per Si atom -5578.237296 kJ/mol
# Density = 2.408564 g / cm^3
# Si number density = 24.140589 Si / 1000 Ang^3
#
#
#
# Elastic Constant Matrix: (Units=GPa)
#
#
# Indices 1 2 3 4 5 6 
#
# 1 91.2409 21.1518 22.4401 -15.1444 20.9456 -0.0435
# 2 21.1518 141.4259 33.5218 2.8457 12.3630 5.1179
# 3 22.4401 33.5218 88.4790 7.8467 25.6842 -3.4718
# 4 -15.1444 2.8457 7.8467 35.1018 -4.1638 11.0356
# 5 20.9456 12.3630 25.6842 -4.1638 38.2446 -3.6108
# 6 -0.0435 5.1179 -3.4718 11.0356 -3.6108 34.3101
#
#
#
# Elastic Compliance Matrix: (Units=1/GPa)
#
#
# Indices 1 2 3 4 5 6 
#
# 1 0.014188 -0.001135 -0.002355 0.007009 -0.005329 -0.002866
# 2 -0.001135 0.007959 -0.002689 -0.000111 -0.000295 -0.001456
# 3 -0.002355 -0.002689 0.016290 -0.006530 -0.009192 0.003179
# 4 0.007009 -0.000111 -0.006530 0.037245 0.003481 -0.012249
# 5 -0.005329 -0.000295 -0.009192 0.003481 0.035880 0.001763
# 6 -0.002866 -0.001456 0.003179 -0.012249 0.001763 0.033806
#
#
# Mechanical properties :
#
#
# Convention : Reuss Voigt Hill
#
# Bulk Modulus (GPa) = 38.34700 52.81924 45.58312
# Shear Modulus (GPa) = 30.04454 37.80010 33.92232
#
# Velocity S-wave (km/s) = 3.53167 3.96135 3.75266
# Velocity P-wave (km/s) = 5.70522 6.54602 6.14003
#
# Compressibility (1/GPa) = 0.02607766
#
# Stress axis : x y z
#
# Youngs Moduli (GPa) = 70.48340 125.64882 61.38593
#
# Poissons Ratio (x) = 0.14263 0.14458
# Poissons Ratio (y) = 0.08001 0.16508
# Poissons Ratio (z) = 0.16601 0.33789
#
# Static dielectric constant tensor:
#      x y z
#    x 1.925270 -0.115020 -0.046630 
#    y -0.115020 2.244230 0.067330 
#    z -0.046630 0.067330 1.977730 
# 
# From -- ./inp_files/426002.got.cif
#   From: 2010.05.17/outbox.cif.g08.bks.cpg/sg2_214_cif.got.tgz:426002.got - 2010.06.03 11:33:40.
