data_PCOD9051839
_publ_section_title
;
Structure prediction by ZEFSAII (Michael W. Deem and Ramdas Pophale) SiO2 
 PCOD9051839
Probable space group: P -1
;
_chemical_formula_sum "Si O2"
_cell_formula_units_Z 16
_cell_length_a 14.960671
_cell_length_b 19.925444
_cell_length_c 7.974485
_cell_angle_alpha 81.105180
_cell_angle_beta 117.434468
_cell_angle_gamma 153.560891
_cell_volume 711.715123
_symmetry_space_group_name_H-M "P -1"
_symmetry_group_IT_number 2
_symmetry_cell_setting 'triclinic'
loop_
_space_group_symop_operation_xyz
x,y,z
-x,-y,-z
loop_
_atom_site_type_symbol
_atom_site_label
_atom_site_fract_x
_atom_site_fract_y
_atom_site_fract_z
Si Si1 0.383791 0.469374 0.073983
Si Si2 0.091368 0.423842 0.738207
Si Si3 0.305819 0.164612 0.061126
Si Si4 0.057058 0.109606 0.424088
Si Si5 0.880254 0.347668 0.938933
Si Si6 0.019473 0.124525 0.894332
Si Si7 0.157164 0.770888 0.746566
Si Si8 0.791957 0.054744 0.395319
O O1 0.644714 0.668113 0.333998
O O2 0.500000 0.500000 0.000000
O O3 0.180771 0.403054 0.865892
O O4 0.185803 0.289762 0.073768
O O5 0.399374 0.653704 0.860155
O O6 0.958108 0.370290 0.812442
O O7 0.888391 0.295572 0.445702
O O8 0.289532 0.105200 0.227993
O O9 0.242865 0.203598 0.024711
O O10 0.002012 0.945437 0.797416
O O11 0.800285 0.000293 0.288103
O O12 0.000000 0.000000 0.500000
O O13 0.530217 0.128828 0.751249
O O14 0.985845 0.362715 0.173108
O O15 0.000000 0.500000 0.000000
O O16 0.939614 0.112220 0.658456
O O17 0.046761 0.777595 0.610936
O O18 0.500000 0.000000 0.000000
#
# Coordination Sequence:
#
# PCOD9051839 Si02
#       8
#     2   2   2   2   2   2   2   2
#     4  12  21  42  73 101 143 189 234 293 368 435
#     4  12  23  47  76 101 147 194 238 304 368 429
#     4  11  25  41  69 107 144 185 240 292 366 433
#     4  12  21  40  71 104 141 184 236 297 359 432
#     4  11  28  46  70 108 139 190 251 303 360 434
#     4  11  23  44  68 103 142 191 228 293 367 427
#     4  10  25  48  71 104 144 192 247 301 359 437
#     4  11  22  45  70  94 149 184 228 304 350 424
#
# _framework density 22.480906000000001
#
# number of rings (size 3 to 8) (size 9 to 14) (size 15 to 20)
#    0.000    0.750    6.250    0.750    1.750    4.000 
#    6.750    0.000    0.000    0.750    0.000    0.000 
#    0.000    0.000    0.000    0.000    0.000    0.000 
#
# Total GULP energy -89217.975784 kJ/mol
# GULP energy per Si atom -5576.123486 kJ/mol
# Density = 2.242974 g / cm^3
# Si number density = 22.480906 Si / 1000 Ang^3
#
#
#
# Elastic Constant Matrix: (Units=GPa)
#
#
# Indices 1 2 3 4 5 6 
#
# 1 116.3655 48.8066 34.0198 -3.9007 -19.0411 -2.5568
# 2 48.8066 173.9973 44.3427 -10.6393 -3.5806 -27.0900
# 3 34.0198 44.3427 102.4281 4.2017 -21.0707 -8.5279
# 4 -3.9007 -10.6393 4.2017 33.3278 -6.8865 -1.9580
# 5 -19.0411 -3.5806 -21.0707 -6.8865 30.9372 4.8069
# 6 -2.5568 -27.0900 -8.5279 -1.9580 4.8069 38.8299
#
#
#
# Elastic Compliance Matrix: (Units=1/GPa)
#
#
# Indices 1 2 3 4 5 6 
#
# 1 0.011292 -0.002923 -0.001436 0.001753 0.006383 -0.002313
# 2 -0.002923 0.008220 -0.002877 0.002316 -0.003133 0.005415
# 3 -0.001436 -0.002877 0.013046 -0.001208 0.007433 -0.000217
# 4 0.001753 0.002316 -0.001208 0.032776 0.007479 0.002193
# 5 0.006383 -0.003133 0.007433 0.007479 0.043414 -0.005130
# 6 -0.002313 0.005415 -0.000217 0.002193 -0.005130 0.030077
#
#
# Mechanical properties :
#
#
# Convention : Reuss Voigt Hill
#
# Bulk Modulus (GPa) = 55.29023 71.90325 63.59674
# Shear Modulus (GPa) = 31.38231 38.32710 34.85470
#
# Velocity S-wave (km/s) = 3.74030 4.13349 3.94180
# Velocity P-wave (km/s) = 6.58034 7.40504 7.00483
#
# Compressibility (1/GPa) = 0.01808638
#
# Stress axis : x y z
#
# Youngs Moduli (GPa) = 88.55941 121.64814 76.65255
#
# Poissons Ratio (x) = 0.35556 0.11011
# Poissons Ratio (y) = 0.25885 0.22049
# Poissons Ratio (z) = 0.12722 0.34992
#
# Static dielectric constant tensor:
#      x y z
#    x 2.331370 -1.743990 0.181110 
#    y -1.743990 8.012100 -0.849330 
#    z 0.181110 -0.849330 2.088820 
# 
# From -- ./inp_files/317674.got.cif
#   From: 2010.05.17/outbox.cif.g08.bks.cpg/sg2_159_cif.got.tgz:317674.got - 2010.06.03 11:33:40.
