data_PCOD9051192
_publ_section_title
;
Structure prediction by ZEFSAII (Michael W. Deem and Ramdas Pophale) SiO2 
 PCOD9051192
Probable space group: P -1
;
_chemical_formula_sum "Si O2"
_cell_formula_units_Z 16
_cell_length_a 9.036498
_cell_length_b 18.178795
_cell_length_c 11.159896
_cell_angle_alpha 131.631952
_cell_angle_beta 98.665437
_cell_angle_gamma 42.224966
_cell_volume 675.653841
_symmetry_space_group_name_H-M "P -1"
_symmetry_group_IT_number 2
_symmetry_cell_setting 'triclinic'
loop_
_space_group_symop_operation_xyz
x,y,z
-x,-y,-z
loop_
_atom_site_type_symbol
_atom_site_label
_atom_site_fract_x
_atom_site_fract_y
_atom_site_fract_z
Si Si1 0.239131 0.617165 0.002467
Si Si2 0.786172 0.751049 0.518423
Si Si3 0.627300 0.534986 0.584270
Si Si4 0.189956 0.921649 0.054998
Si Si5 0.871846 0.468168 0.919079
Si Si6 0.562838 0.904370 0.026755
Si Si7 0.851752 0.114139 0.733399
Si Si8 0.256559 0.449238 0.632336
O O1 0.045161 0.654160 0.098185
O O2 0.089088 0.803905 0.147450
O O3 0.500000 0.500000 0.000000
O O4 0.363410 0.477564 0.760802
O O5 0.708027 0.681121 0.455606
O O6 0.027698 0.654479 0.540177
O O7 0.963432 0.660787 0.319390
O O8 0.499558 0.982174 0.752845
O O9 0.500000 0.500000 0.500000
O O10 0.600541 0.617492 0.552153
O O11 0.440092 0.692857 0.837316
O O12 0.345070 0.936502 0.059503
O O13 0.052527 0.998292 0.255300
O O14 0.000000 0.000000 0.000000
O O15 0.511112 0.687674 0.106191
O O16 0.000000 0.500000 0.000000
O O17 0.899460 0.671641 0.816617
O O18 0.500000 0.000000 0.000000
O O19 0.000000 0.000000 0.500000
#
# Coordination Sequence:
#
# PCOD9051192 Si02
#       8
#     2   2   2   2   2   2   2   2
#     4  10  25  45  71  99 142 191 243 293 365 437
#     4  12  24  46  73 102 145 185 241 298 370 432
#     4  12  24  43  73  99 144 193 233 301 368 423
#     4  12  27  47  70 111 150 189 250 303 362 448
#     4  11  23  47  74 103 137 193 247 303 365 441
#     4  12  26  44  74 109 146 187 241 301 370 440
#     4  11  26  48  72 103 152 193 244 307 372 443
#     4  12  24  47  72 105 147 187 239 305 362 439
#
# _framework density 23.680764
#
# number of rings (size 3 to 8) (size 9 to 14) (size 15 to 20)
#    0.000    0.500    5.000    2.625    5.250    3.000 
#    0.000    1.250    0.000    0.000    0.000    0.000 
#    0.000    0.000    0.000    0.000    0.000    0.000 
#
# Total GULP energy -89528.907415 kJ/mol
# GULP energy per Si atom -5595.556713 kJ/mol
# Density = 2.362687 g / cm^3
# Si number density = 23.680764 Si / 1000 Ang^3
#
#
#
# Elastic Constant Matrix: (Units=GPa)
#
#
# Indices 1 2 3 4 5 6 
#
# 1 145.5847 38.1665 50.5848 -5.8014 14.4085 6.3781
# 2 38.1665 88.6323 25.0931 -15.7935 -9.3071 2.1018
# 3 50.5848 25.0931 160.3980 -21.6849 -8.6950 8.6830
# 4 -5.8014 -15.7935 -21.6849 37.2417 9.8348 -2.1510
# 5 14.4085 -9.3071 -8.6950 9.8348 45.3039 -12.2828
# 6 6.3781 2.1018 8.6830 -2.1510 -12.2828 38.3909
#
#
#
# Elastic Compliance Matrix: (Units=1/GPa)
#
#
# Indices 1 2 3 4 5 6 
#
# 1 0.009303 -0.003825 -0.002540 -0.000533 -0.004743 -0.002309
# 2 -0.003825 0.014127 -0.000293 0.004385 0.003458 0.001280
# 3 -0.002540 -0.000293 0.007670 0.003575 0.001255 -0.000695
# 4 -0.000533 0.004385 0.003575 0.032099 -0.005458 -0.000908
# 5 -0.004743 0.003458 0.001255 -0.005458 0.028163 0.009019
# 6 -0.002309 0.001280 -0.000695 -0.000908 0.009019 0.029353
#
#
# Mechanical properties :
#
#
# Convention : Reuss Voigt Hill
#
# Bulk Modulus (GPa) = 56.22677 69.14487 62.68582
# Shear Modulus (GPa) = 35.72469 42.90535 39.31502
#
# Velocity S-wave (km/s) = 3.88828 4.26117 4.07899
# Velocity P-wave (km/s) = 6.62974 7.31247 6.97946
#
# Compressibility (1/GPa) = 0.01778512
#
# Stress axis : x y z
#
# Youngs Moduli (GPa) = 107.48696 70.78712 130.37512
#
# Poissons Ratio (x) = 0.27079 0.33111
# Poissons Ratio (y) = 0.41118 0.03815
# Poissons Ratio (z) = 0.27298 0.02071
#
# Static dielectric constant tensor:
#      x y z
#    x 1.862970 -0.021210 -0.033220 
#    y -0.021210 2.027960 0.040670 
#    z -0.033220 0.040670 1.988820 
# 
# From -- ./inp_files/405603.got.cif
#   From: 2010.05.17/outbox.cif.g08.bks.cpg/sg2_203_cif.got.tgz:405603.got - 2010.06.03 11:33:40.
