data_PCOD9051835
_publ_section_title
;
Structure prediction by ZEFSAII (Michael W. Deem and Ramdas Pophale) SiO2 
 PCOD9051835
Probable space group: P -1
;
_chemical_formula_sum "Si O2"
_cell_formula_units_Z 16
_cell_length_a 9.188755
_cell_length_b 11.075935
_cell_length_c 8.214619
_cell_angle_alpha 99.665139
_cell_angle_beta 61.201641
_cell_angle_gamma 92.878690
_cell_volume 721.780607
_symmetry_space_group_name_H-M "P -1"
_symmetry_group_IT_number 2
_symmetry_cell_setting 'triclinic'
loop_
_space_group_symop_operation_xyz
x,y,z
-x,-y,-z
loop_
_atom_site_type_symbol
_atom_site_label
_atom_site_fract_x
_atom_site_fract_y
_atom_site_fract_z
Si Si1 0.017943 0.312495 0.894740
Si Si2 0.703990 0.771678 0.500395
Si Si3 0.578069 0.124895 0.915809
Si Si4 0.852085 0.963184 0.686379
Si Si5 0.417244 0.873001 0.475389
Si Si6 0.584124 0.622785 0.802651
Si Si7 0.943956 0.121587 0.159915
Si Si8 0.255268 0.495642 0.992716
O O1 0.132301 0.229639 0.697044
O O2 0.870051 0.386318 0.899438
O O3 0.151841 0.404727 0.917808
O O4 0.947741 0.235970 0.064237
O O5 0.722924 0.891904 0.628937
O O6 0.537556 0.777215 0.484401
O O7 0.694449 0.654702 0.595783
O O8 0.569052 0.145149 0.730132
O O9 0.770615 0.087335 0.833530
O O10 0.501601 0.246467 0.066108
O O11 0.500000 0.000000 0.000000
O O12 0.917559 0.874063 0.772585
O O13 0.000000 0.000000 0.500000
O O14 0.232957 0.880881 0.653010
O O15 0.500000 0.000000 0.500000
O O16 0.693330 0.565271 0.877063
O O17 0.430077 0.536251 0.832811
O O18 0.000000 0.000000 0.000000
#
# Coordination Sequence:
#
# PCOD9051835 Si02
#       8
#     2   2   2   2   2   2   2   2
#     4  11  25  46  69 100 134 177 223 283 334 393
#     4  12  25  41  70 100 137 175 224 279 336 403
#     4  12  25  41  71 101 140 176 217 278 341 404
#     4  12  24  42  61 106 143 176 216 268 345 411
#     4  12  23  42  60 100 142 178 216 264 334 414
#     4  11  24  46  70  99 130 181 228 276 331 399
#     4  12  27  41  70 101 140 177 219 278 344 399
#     4  10  25  48  70  91 132 181 234 274 329 392
#
# _framework density 22.167401999999999
#
# number of rings (size 3 to 8) (size 9 to 14) (size 15 to 20)
#    0.000    0.500    3.750    3.750    8.750    1.000 
#    0.000    5.000    0.000    0.000    0.000    0.000 
#    0.000    0.000    0.000    0.000    0.000    0.000 
#
# Total GULP energy -89470.693622 kJ/mol
# GULP energy per Si atom -5591.918351 kJ/mol
# Density = 2.211695 g / cm^3
# Si number density = 22.167402 Si / 1000 Ang^3
#
#
#
# Elastic Constant Matrix: (Units=GPa)
#
#
# Indices 1 2 3 4 5 6 
#
# 1 127.0747 29.1195 28.0161 -10.4314 -1.4452 -23.0481
# 2 29.1195 78.1247 20.5584 -17.5956 6.4525 -13.9253
# 3 28.0161 20.5584 104.9032 -18.1994 -3.7988 -2.8493
# 4 -10.4314 -17.5956 -18.1994 37.8716 -8.2066 -0.7969
# 5 -1.4452 6.4525 -3.7988 -8.2066 22.9437 -1.3949
# 6 -23.0481 -13.9253 -2.8493 -0.7969 -1.3949 41.7838
#
#
#
# Elastic Compliance Matrix: (Units=1/GPa)
#
#
# Indices 1 2 3 4 5 6 
#
# 1 0.009715 -0.002192 -0.001759 0.001270 0.001670 0.004588
# 2 -0.002192 0.016279 -0.001603 0.005692 -0.002695 0.004125
# 3 -0.001759 -0.001603 0.011327 0.005070 0.003998 -0.000502
# 4 0.001270 0.005692 0.005070 0.034499 0.011902 0.003999
# 5 0.001670 -0.002695 0.003998 0.011902 0.049499 0.002175
# 6 0.004588 0.004125 -0.000502 0.003999 0.002175 0.027953
#
#
# Mechanical properties :
#
#
# Convention : Reuss Voigt Hill
#
# Bulk Modulus (GPa) = 38.14974 51.72119 44.93546
# Shear Modulus (GPa) = 29.56496 36.01372 32.78934
#
# Velocity S-wave (km/s) = 3.65597 4.03504 3.85017
# Velocity P-wave (km/s) = 5.92188 6.71502 6.33088
#
# Compressibility (1/GPa) = 0.02621250
#
# Stress axis : x y z
#
# Youngs Moduli (GPa) = 102.93230 61.42963 88.28204
#
# Poissons Ratio (x) = 0.13466 0.15533
# Poissons Ratio (y) = 0.22564 0.14150
# Poissons Ratio (z) = 0.18110 0.09846
#
# Static dielectric constant tensor:
#      x y z
#    x 1.842910 -0.017140 -0.012300 
#    y -0.017140 1.881200 -0.027430 
#    z -0.012300 -0.027430 1.883930 
# 
# From -- ./inp_files/179958.got.cif
#   From: 2010.05.17/outbox.cif.g08.bks.cpg/sg2_90_cif.got.tgz:179958.got - 2010.06.03 11:33:40.
