data_PCOD9051979
_publ_section_title
;
Structure prediction by ZEFSAII (Michael W. Deem and Ramdas Pophale) SiO2 
 PCOD9051979
Probable space group: P -1
;
_chemical_formula_sum "Si O2"
_cell_formula_units_Z 12
_cell_length_a 15.735238
_cell_length_b 6.537419
_cell_length_c 12.163780
_cell_angle_alpha 95.041326
_cell_angle_beta 25.672784
_cell_angle_gamma 82.733909
_cell_volume 474.716140
_symmetry_space_group_name_H-M "P -1"
_symmetry_group_IT_number 2
_symmetry_cell_setting 'triclinic'
loop_
_space_group_symop_operation_xyz
x,y,z
-x,-y,-z
loop_
_atom_site_type_symbol
_atom_site_label
_atom_site_fract_x
_atom_site_fract_y
_atom_site_fract_z
Si Si1 0.821692 0.298423 0.975741
Si Si2 0.616941 0.630413 0.581845
Si Si3 0.282744 0.252806 0.748170
Si Si4 0.081480 0.870854 0.783572
Si Si5 0.468638 0.777788 0.005707
Si Si6 0.182941 0.580080 0.260780
O O1 0.628505 0.228074 0.176692
O O2 0.724935 0.513019 0.183986
O O3 0.846588 0.386211 0.832636
O O4 0.036221 0.067127 0.756583
O O5 0.756285 0.695898 0.335421
O O6 0.603753 0.681152 0.728419
O O7 0.683912 0.356224 0.486532
O O8 0.500000 0.000000 0.500000
O O9 0.083189 0.240246 0.044781
O O10 0.000000 0.000000 0.000000
O O11 0.585869 0.622372 0.968667
O O12 0.225652 0.792205 0.269136
O O13 0.500000 0.000000 0.000000
O O14 0.000000 0.500000 0.500000
#
# Coordination Sequence:
#
# PCOD9051979 Si02
#       6
#     2   2   2   2   2   2
#     4  11  25  47  70 102 144 189 239 301 377 435
#     4  11  24  47  72 103 147 187 240 306 368 442
#     4  12  24  41  71 105 144 185 232 298 369 449
#     4  12  25  43  68 107 146 186 241 294 370 451
#     4  10  25  50  74 108 148 197 251 310 375 444
#     4  10  25  49  72 107 143 192 256 308 366 444
#
# _framework density 25.278262999999999
#
# number of rings (size 3 to 8) (size 9 to 14) (size 15 to 20)
#    0.000    1.000    3.333    2.000    4.667    0.667 
#   12.000    0.000    0.000    0.000    0.000    0.000 
#    0.000    0.000    0.000    0.000    0.000    0.000 
#
# Total GULP energy -66998.957839 kJ/mol
# GULP energy per Si atom -5583.246487 kJ/mol
# Density = 2.522073 g / cm^3
# Si number density = 25.278263 Si / 1000 Ang^3
#
#
#
# Elastic Constant Matrix: (Units=GPa)
#
#
# Indices 1 2 3 4 5 6 
#
# 1 134.4954 77.4859 36.1153 -2.0718 16.6375 -24.5607
# 2 77.4859 140.6727 39.1166 -4.8599 13.5965 -27.9852
# 3 36.1153 39.1166 60.9116 -23.5493 -2.2785 -7.9902
# 4 -2.0718 -4.8599 -23.5493 56.0811 -0.4230 -7.2816
# 5 16.6375 13.5965 -2.2785 -0.4230 46.5211 -3.8608
# 6 -24.5607 -27.9852 -7.9902 -7.2816 -3.8608 61.4246
#
#
#
# Elastic Compliance Matrix: (Units=1/GPa)
#
#
# Indices 1 2 3 4 5 6 
#
# 1 0.012107 -0.004814 -0.004655 -0.001734 -0.003030 0.001646
# 2 -0.004814 0.011728 -0.004717 -0.000818 -0.001729 0.002599
# 3 -0.004655 -0.004717 0.026682 0.010791 0.004533 0.001025
# 4 -0.001734 -0.000818 0.010791 0.022649 0.001854 0.003139
# 5 -0.003030 -0.001729 0.004533 0.001854 0.023346 0.000278
# 6 0.001646 0.002599 0.001025 0.003139 0.000278 0.018645
#
#
# Mechanical properties :
#
#
# Convention : Reuss Voigt Hill
#
# Bulk Modulus (GPa) = 45.15547 71.27948 58.21747
# Shear Modulus (GPa) = 33.13177 45.02950 39.08063
#
# Velocity S-wave (km/s) = 3.62426 4.22519 3.93621
# Velocity P-wave (km/s) = 5.95112 7.21541 6.61354
#
# Compressibility (1/GPa) = 0.02214571
#
# Stress axis : x y z
#
# Youngs Moduli (GPa) = 82.59371 85.26538 37.47835
#
# Poissons Ratio (x) = 0.41049 0.17445
# Poissons Ratio (y) = 0.39763 0.17679
# Poissons Ratio (z) = 0.38444 0.40220
#
# Static dielectric constant tensor:
#      x y z
#    x 2.054020 0.174940 -0.111130 
#    y 0.174940 2.296550 -0.140660 
#    z -0.111130 -0.140660 2.179220 
# 
# From -- ./inp_files/77633.got.cif
#   From: 2010.05.17/outbox.cif.g08.bks.cpg/sg2_39_cif.got.tgz:77633.got - 2010.06.03 11:33:40.
