data_PCOD9051713
_publ_section_title
;
Structure prediction by ZEFSAII (Michael W. Deem and Ramdas Pophale) SiO2 
 PCOD9051713
Probable space group: P -1
;
_chemical_formula_sum "Si O2"
_cell_formula_units_Z 13
_cell_length_a 20.880096
_cell_length_b 14.995220
_cell_length_c 12.148769
_cell_angle_alpha 27.444431
_cell_angle_beta 150.625517
_cell_angle_gamma 160.289149
_cell_volume 575.231965
_symmetry_space_group_name_H-M "P -1"
_symmetry_group_IT_number 2
_symmetry_cell_setting 'triclinic'
loop_
_space_group_symop_operation_xyz
x,y,z
-x,-y,-z
loop_
_atom_site_type_symbol
_atom_site_label
_atom_site_fract_x
_atom_site_fract_y
_atom_site_fract_z
Si Si1 0.239434 0.417956 0.480372
Si Si2 0.500000 0.000000 0.000000
Si Si3 0.708620 0.286906 0.550144
Si Si4 0.960649 0.216770 0.104249
Si Si5 0.748822 0.497020 0.976677
Si Si6 0.014320 0.247310 0.738253
Si Si7 0.356699 0.176715 0.479874
O O1 0.307347 0.579068 0.520997
O O2 0.422128 0.601704 0.471214
O O3 0.072542 0.358500 0.233177
O O4 0.155523 0.111876 0.706458
O O5 0.568358 0.160442 0.048378
O O6 0.344761 0.011505 0.741699
O O7 0.844918 0.529809 0.393403
O O8 0.500000 0.000000 0.500000
O O9 0.819587 0.227410 0.836628
O O10 0.133048 0.379885 0.095008
O O11 0.686164 0.648951 0.741648
O O12 0.891429 0.582393 0.193125
O O13 0.794244 0.052249 0.589390
O O14 0.000000 0.000000 0.000000
#
# Coordination Sequence:
#
# PCOD9051713 Si02
#       7
#     2   1   2   2   2   2   2
#     4  11  26  48  72 106 144 193 232 297 364 423
#     4  12  24  38  72 104 142 176 234 298 348 422
#     4  12  29  48  73 108 146 191 241 293 359 434
#     4  11  26  48  74 103 146 189 236 302 353 432
#     4  11  25  47  71 107 138 186 239 294 360 416
#     4  10  25  47  73 102 144 190 236 299 346 425
#     4  11  25  45  74 104 140 187 240 294 354 426
#
# _framework density 22.599578000000001
#
# number of rings (size 3 to 8) (size 9 to 14) (size 15 to 20)
#    0.000    0.923    1.538    3.692    8.615    1.846 
#    5.538    0.000    0.000    0.000    0.000    0.000 
#    0.000    0.000    0.000    0.000    0.000    0.000 
#
# Total GULP energy -72458.062319 kJ/mol
# GULP energy per Si atom -5573.697101 kJ/mol
# Density = 2.254814 g / cm^3
# Si number density = 22.599578 Si / 1000 Ang^3
#
#
#
# Elastic Constant Matrix: (Units=GPa)
#
#
# Indices 1 2 3 4 5 6 
#
# 1 42.9612 27.3418 -2.2409 -2.5902 -6.8508 -22.3677
# 2 27.3418 158.9160 63.1621 27.7836 -0.4997 -38.5601
# 3 -2.2409 63.1621 127.9516 20.7479 -0.7492 -7.2305
# 4 -2.5902 27.7836 20.7479 50.9703 -6.4381 -17.1749
# 5 -6.8508 -0.4997 -0.7492 -6.4381 42.1901 0.6809
# 6 -22.3677 -38.5601 -7.2305 -17.1749 0.6809 54.8204
#
#
#
# Elastic Compliance Matrix: (Units=1/GPa)
#
#
# Indices 1 2 3 4 5 6 
#
# 1 0.035812 -0.005417 0.002625 0.009296 0.006991 0.013973
# 2 -0.005417 0.010438 -0.004554 -0.003076 -0.001364 0.003584
# 3 0.002625 -0.004554 0.010363 -0.002044 0.000267 -0.001409
# 4 0.009296 -0.003076 -0.002044 0.026507 0.005327 0.009598
# 5 0.006991 -0.001364 0.000267 0.005327 0.025586 0.003279
# 6 0.013973 0.003584 -0.001409 0.009598 0.003279 0.029244
#
#
# Mechanical properties :
#
#
# Convention : Reuss Voigt Hill
#
# Bulk Modulus (GPa) = 23.85578 56.26165 40.05872
# Shear Modulus (GPa) = 30.00908 45.70056 37.85482
#
# Velocity S-wave (km/s) = 3.64793 4.50175 4.09714
# Velocity P-wave (km/s) = 5.32184 7.20903 6.33609
#
# Compressibility (1/GPa) = 0.04191856
#
# Stress axis : x y z
#
# Youngs Moduli (GPa) = 27.92385 95.80454 96.49861
#
# Poissons Ratio (x) = 0.51901 -0.25328
# Poissons Ratio (y) = 0.15128 0.43947
# Poissons Ratio (z) = -0.07329 0.43631
#
# Static dielectric constant tensor:
#      x y z
#    x 1.828660 0.062690 -0.043120 
#    y 0.062690 1.974730 -0.086490 
#    z -0.043120 -0.086490 1.895960 
# 
# From -- ./inp_files/471876.got.cif
#   From: 2010.05.17/outbox.cif.g08.bks.cpg/sg2_236_cif.got.tgz:471876.got - 2010.06.03 11:33:40.
