data_PCOD9051501
_publ_section_title
;
Structure prediction by ZEFSAII (Michael W. Deem and Ramdas Pophale) SiO2 
 PCOD9051501
Probable space group: P -1
;
_chemical_formula_sum "Si O2"
_cell_formula_units_Z 15
_cell_length_a 13.642580
_cell_length_b 9.339761
_cell_length_c 9.378061
_cell_angle_alpha 112.833271
_cell_angle_beta 31.893166
_cell_angle_gamma 115.056976
_cell_volume 570.901069
_symmetry_space_group_name_H-M "P -1"
_symmetry_group_IT_number 2
_symmetry_cell_setting 'triclinic'
loop_
_space_group_symop_operation_xyz
x,y,z
-x,-y,-z
loop_
_atom_site_type_symbol
_atom_site_label
_atom_site_fract_x
_atom_site_fract_y
_atom_site_fract_z
Si Si1 0.002352 0.815571 0.459987
Si Si2 0.646109 0.848303 0.527727
Si Si3 0.371653 0.756696 0.092285
Si Si4 0.065350 0.938349 0.045076
Si Si5 0.547285 0.884886 0.229341
Si Si6 0.500000 0.500000 0.500000
Si Si7 0.353396 0.408406 0.033434
Si Si8 0.138224 0.648687 0.946945
O O1 0.821491 0.698019 0.708043
O O2 0.173323 0.810425 0.355529
O O3 0.060110 0.729050 0.212492
O O4 0.000000 0.000000 0.500000
O O5 0.649013 0.673271 0.399635
O O6 0.854944 0.902066 0.355462
O O7 0.499603 0.830130 0.831846
O O8 0.573472 0.973464 0.556576
O O9 0.485374 0.821847 0.120214
O O10 0.318693 0.565028 0.056407
O O11 0.147080 0.779484 0.862926
O O12 0.235302 0.038901 0.967194
O O13 0.000000 0.000000 0.000000
O O14 0.543271 0.708405 0.231845
O O15 0.331455 0.599335 0.726907
O O16 0.500000 0.500000 0.000000
O O17 0.000000 0.500000 0.000000
#
# Coordination Sequence:
#
# PCOD9051501 Si02
#       8
#     2   2   2   2   2   1   2   2
#     4  12  26  49  86 122 169 213 282 344 428 511
#     4  12  26  48  81 116 160 216 274 339 418 507
#     4  11  25  48  81 120 156 215 268 348 429 486
#     4  12  29  51  72 116 161 216 277 338 412 494
#     4  11  26  49  78 117 158 212 269 335 426 493
#     4  12  24  50  78 114 162 210 284 330 410 504
#     4  10  25  46  72 124 167 206 260 345 416 496
#     4  12  27  49  79 115 158 221 273 340 413 500
#
# _framework density 26.274253999999999
#
# number of rings (size 3 to 8) (size 9 to 14) (size 15 to 20)
#    0.000    0.533    4.000    2.400    7.467    3.200 
#    7.200    0.000    0.000    0.000    0.000    0.000 
#    0.000    0.000    0.000    0.000    0.000    0.000 
#
# Total GULP energy -83536.315203 kJ/mol
# GULP energy per Si atom -5569.087680 kJ/mol
# Density = 2.621445 g / cm^3
# Si number density = 26.274254 Si / 1000 Ang^3
#
#
#
# Elastic Constant Matrix: (Units=GPa)
#
#
# Indices 1 2 3 4 5 6 
#
# 1 147.6496 69.7551 68.8457 -7.2475 -42.8268 12.7770
# 2 69.7551 242.0766 82.8072 39.7500 -16.1452 -0.4461
# 3 68.8457 82.8072 153.5866 -0.5144 -46.3923 -8.3663
# 4 -7.2475 39.7500 -0.5144 60.1412 -4.3859 -15.8095
# 5 -42.8268 -16.1452 -46.3923 -4.3859 64.4146 -4.3175
# 6 12.7770 -0.4461 -8.3663 -15.8095 -4.3175 50.4414
#
#
#
# Elastic Compliance Matrix: (Units=1/GPa)
#
#
# Indices 1 2 3 4 5 6 
#
# 1 0.010653 -0.002539 -0.001940 0.002871 0.005131 -0.001704
# 2 -0.002539 0.006784 -0.003565 -0.005539 -0.003058 -0.001886
# 3 -0.001940 -0.003565 0.011557 0.003796 0.006676 0.004138
# 4 0.002871 -0.005539 0.003796 0.023035 0.005328 0.007529
# 5 0.005131 -0.003058 0.006676 0.005328 0.023573 0.003468
# 6 -0.001704 -0.001886 0.004138 0.007529 0.003468 0.023583
#
#
# Mechanical properties :
#
#
# Convention : Reuss Voigt Hill
#
# Bulk Modulus (GPa) = 77.47336 109.56987 93.52161
# Shear Modulus (GPa) = 41.81511 56.45976 49.13743
#
# Velocity S-wave (km/s) = 3.99367 4.64061 4.32924
# Velocity P-wave (km/s) = 7.12856 8.39682 7.78855
#
# Compressibility (1/GPa) = 0.01290766
#
# Stress axis : x y z
#
# Youngs Moduli (GPa) = 93.86747 147.40782 86.52524
#
# Poissons Ratio (x) = 0.37421 0.16787
# Poissons Ratio (y) = 0.23829 0.30844
# Poissons Ratio (z) = 0.18211 0.52547
#
# Static dielectric constant tensor:
#      x y z
#    x 2.207650 -0.082130 0.088500 
#    y -0.082130 2.184890 -0.007710 
#    z 0.088500 -0.007710 2.178500 
# 
# From -- ./inp_files/446265.got.cif
#   From: 2010.05.17/outbox.cif.g08.bks.cpg/sg2_224_cif.got.tgz:446265.got - 2010.06.03 11:33:40.
