data_PCOD9051113
_publ_section_title
;
Structure prediction by ZEFSAII (Michael W. Deem and Ramdas Pophale) SiO2 
 PCOD9051113
Probable space group: P -1
;
_chemical_formula_sum "Si O2"
_cell_formula_units_Z 14
_cell_length_a 6.444665
_cell_length_b 6.025404
_cell_length_c 19.808798
_cell_angle_alpha 128.362187
_cell_angle_beta 93.921940
_cell_angle_gamma 82.649816
_cell_volume 598.123645
_symmetry_space_group_name_H-M "P -1"
_symmetry_group_IT_number 2
_symmetry_cell_setting 'triclinic'
loop_
_space_group_symop_operation_xyz
x,y,z
-x,-y,-z
loop_
_atom_site_type_symbol
_atom_site_label
_atom_site_fract_x
_atom_site_fract_y
_atom_site_fract_z
Si Si1 0.853164 0.845648 0.667878
Si Si2 0.732616 0.729843 0.100157
Si Si3 0.207724 0.779598 0.469590
Si Si4 0.808271 0.317481 0.239730
Si Si5 0.506382 0.884290 0.369804
Si Si6 0.946963 0.430154 0.813214
Si Si7 0.604352 0.679386 0.941829
O O1 0.851504 0.536833 0.574619
O O2 0.991442 0.743529 0.717514
O O3 0.612369 0.978409 0.673315
O O4 0.952832 0.144802 0.713597
O O5 0.564849 0.535745 0.087891
O O6 0.948311 0.663093 0.131460
O O7 0.671029 0.056995 0.181262
O O8 0.748193 0.678034 0.011456
O O9 0.336824 0.800738 0.406147
O O10 0.358914 0.885615 0.549980
O O11 0.000000 0.000000 0.500000
O O12 0.662565 0.602523 0.307731
O O13 0.914077 0.354791 0.177369
O O14 0.722681 0.582622 0.857505
O O15 0.500000 0.000000 0.000000
#
# Coordination Sequence:
#
# PCOD9051113 Si02
#       7
#     2   2   2   2   2   2   2
#     4  11  25  44  73 102 143 187 237 287 357 420
#     4  10  25  45  70 101 140 190 231 290 359 418
#     4  11  24  49  70 106 143 185 241 295 347 426
#     4  11  25  48  71 107 148 182 242 297 353 426
#     4  11  26  45  74 102 141 193 233 294 358 417
#     4  11  26  45  69 105 142 186 232 302 347 420
#     4  11  25  45  72 104 140 186 239 290 354 429
#
# _framework density 23.406533
#
# number of rings (size 3 to 8) (size 9 to 14) (size 15 to 20)
#    0.000    1.143    1.429    2.571    6.000    8.571 
#    0.000    0.000    0.000    0.000    0.000    0.000 
#    0.000    0.000    0.000    0.000    0.000    0.000 
#
# Total GULP energy -78105.156272 kJ/mol
# GULP energy per Si atom -5578.939734 kJ/mol
# Density = 2.335326 g / cm^3
# Si number density = 23.406533 Si / 1000 Ang^3
#
#
#
# Elastic Constant Matrix: (Units=GPa)
#
#
# Indices 1 2 3 4 5 6 
#
# 1 84.8274 50.6370 59.1581 4.4426 -2.8323 -16.3820
# 2 50.6370 95.5719 61.0127 34.7124 -3.8811 -15.1519
# 3 59.1581 61.0127 115.8250 35.3745 7.7505 7.5962
# 4 4.4426 34.7124 35.3745 41.1301 4.6839 14.3686
# 5 -2.8323 -3.8811 7.7505 4.6839 54.0577 -6.3956
# 6 -16.3820 -15.1519 7.5962 14.3686 -6.3956 44.6767
#
#
#
# Elastic Compliance Matrix: (Units=1/GPa)
#
#
# Indices 1 2 3 4 5 6 
#
# 1 0.028429 -0.012121 -0.013886 0.017841 0.001436 0.003142
# 2 -0.012121 0.034221 -0.003889 -0.031737 0.007388 0.019087
# 3 -0.013886 -0.003889 0.021904 -0.011103 -0.004030 -0.007141
# 4 0.017841 -0.031737 -0.011103 0.068685 -0.008741 -0.025675
# 5 0.001436 0.007388 -0.004030 -0.008741 0.021577 0.009617
# 6 0.003142 0.019087 -0.007141 -0.025675 0.009617 0.040857
#
#
# Mechanical properties :
#
#
# Convention : Reuss Voigt Hill
#
# Bulk Modulus (GPa) = 40.38534 70.87108 55.62821
# Shear Modulus (GPa) = 17.62303 36.33398 26.97851
#
# Velocity S-wave (km/s) = 2.74690 3.94420 3.39869
# Velocity P-wave (km/s) = 5.22991 7.14747 6.26252
#
# Compressibility (1/GPa) = 0.02476146
#
# Stress axis : x y z
#
# Youngs Moduli (GPa) = 35.17582 29.22145 45.65438
#
# Poissons Ratio (x) = 0.35419 0.63396
# Poissons Ratio (y) = 0.42636 0.17756
# Poissons Ratio (z) = 0.48845 0.11365
#
# Static dielectric constant tensor:
#      x y z
#    x 1.881250 -0.029570 0.007970 
#    y -0.029570 1.894250 -0.012780 
#    z 0.007970 -0.012780 1.886450 
# 
# From -- ./inp_files/10256.got.cif
#   From: 2010.05.17/outbox.cif.g08.bks.cpg/sg2_6_cif.got.tgz:10256.got - 2010.06.03 11:33:40.
