data_PCOD9051467
_publ_section_title
;
Structure prediction by ZEFSAII (Michael W. Deem and Ramdas Pophale) SiO2 
 PCOD9051467
Probable space group: P -1
;
_chemical_formula_sum "Si O2"
_cell_formula_units_Z 16
_cell_length_a 9.717799
_cell_length_b 32.206921
_cell_length_c 6.684432
_cell_angle_alpha 48.258839
_cell_angle_beta 46.963294
_cell_angle_gamma 29.103812
_cell_volume 729.430080
_symmetry_space_group_name_H-M "P -1"
_symmetry_group_IT_number 2
_symmetry_cell_setting 'triclinic'
loop_
_space_group_symop_operation_xyz
x,y,z
-x,-y,-z
loop_
_atom_site_type_symbol
_atom_site_label
_atom_site_fract_x
_atom_site_fract_y
_atom_site_fract_z
Si Si1 0.658162 0.134328 0.070174
Si Si2 0.285170 0.224608 0.762946
Si Si3 0.309890 0.580590 0.670042
Si Si4 0.395172 0.109593 0.718338
Si Si5 0.708139 0.964845 0.215111
Si Si6 0.374808 0.285758 0.154590
Si Si7 0.346096 0.611130 0.960918
Si Si8 0.652673 0.589737 0.050168
O O1 0.611121 0.096896 0.403058
O O2 0.519312 0.221461 0.030648
O O3 0.481614 0.159870 0.961632
O O4 0.996213 0.071419 0.895001
O O5 0.215812 0.194128 0.760215
O O6 0.457434 0.232985 0.442820
O O7 0.979493 0.316009 0.859127
O O8 0.307903 0.622145 0.727499
O O9 0.487899 0.573343 0.351212
O O10 0.977675 0.641240 0.749794
O O11 0.520214 0.514263 0.138296
O O12 0.227579 0.107160 0.738990
O O13 0.556672 0.036679 0.962325
O O14 0.500000 0.000000 0.500000
O O15 0.431589 0.337127 0.974495
O O16 0.533665 0.618320 0.849467
O O17 0.000000 0.500000 0.000000
#
# Coordination Sequence:
#
# PCOD9051467 Si02
#       8
#     2   2   2   2   2   2   2   2
#     4  11  25  45  70 100 137 176 221 275 336 406
#     4  11  23  43  68  97 135 178 219 275 335 389
#     4  11  23  44  65  90 137 177 229 280 328 392
#     4  10  25  46  72 100 137 174 223 268 339 400
#     4  11  25  47  74 105 136 172 219 274 338 409
#     4  11  24  42  63  99 131 176 225 278 331 394
#     4  11  23  41  67  93 133 178 225 278 332 386
#     4  12  24  40  66  94 129 180 230 279 332 390
#
# _framework density 21.934933000000001
#
# number of rings (size 3 to 8) (size 9 to 14) (size 15 to 20)
#    0.000    1.000    3.750    2.250    1.750    7.500 
#    4.500    0.000    0.000    0.000    0.000    0.000 
#    0.000    0.000    0.000    0.000    0.000    0.000 
#
# Total GULP energy -89425.720499 kJ/mol
# GULP energy per Si atom -5589.107531 kJ/mol
# Density = 2.188501 g / cm^3
# Si number density = 21.934933 Si / 1000 Ang^3
#
#
#
# Elastic Constant Matrix: (Units=GPa)
#
#
# Indices 1 2 3 4 5 6 
#
# 1 100.6412 -1.4601 28.6024 1.9640 16.7498 1.0732
# 2 -1.4601 35.9649 20.7887 5.8721 0.0884 -2.1519
# 3 28.6024 20.7887 96.1106 4.0155 17.9276 -8.1112
# 4 1.9640 5.8721 4.0155 28.3228 7.6578 0.3435
# 5 16.7498 0.0884 17.9276 7.6578 36.2997 3.1926
# 6 1.0732 -2.1519 -8.1112 0.3435 3.1926 45.2620
#
#
#
# Elastic Compliance Matrix: (Units=1/GPa)
#
#
# Indices 1 2 3 4 5 6 
#
# 1 0.011521 0.002318 -0.003291 0.000192 -0.003694 -0.000494
# 2 0.002318 0.034054 -0.008646 -0.007255 0.004671 -0.000260
# 3 -0.003291 -0.008646 0.014579 0.001608 -0.006238 0.002707
# 4 0.000192 -0.007255 0.001608 0.039034 -0.009124 0.000286
# 5 -0.003694 0.004671 -0.006238 -0.009124 0.034526 -0.003174
# 6 -0.000494 -0.000260 0.002707 0.000286 -0.003174 0.022800
#
#
# Mechanical properties :
#
#
# Convention : Reuss Voigt Hill
#
# Bulk Modulus (GPa) = 24.43940 36.50877 30.47409
# Shear Modulus (GPa) = 26.40043 34.29594 30.34819
#
# Velocity S-wave (km/s) = 3.47303 3.95844 3.72365
# Velocity P-wave (km/s) = 5.22001 6.12965 5.69303
#
# Compressibility (1/GPa) = 0.04091753
#
# Stress axis : x y z
#
# Youngs Moduli (GPa) = 86.79445 29.36508 68.59163
#
# Poissons Ratio (x) = -0.06807 0.22573
# Poissons Ratio (y) = -0.20121 0.59303
# Poissons Ratio (z) = 0.28563 0.25389
#
# Static dielectric constant tensor:
#      x y z
#    x 1.810020 0.041600 0.027350 
#    y 0.041600 1.804380 -0.016290 
#    z 0.027350 -0.016290 1.836700 
# 
# From -- ./inp_files/56838.got.cif
#   From: 2010.05.17/outbox.cif.g08.bks.cpg/sg2_29_cif.got.tgz:56838.got - 2010.06.03 11:33:40.
