data_PCOD9051404
_publ_section_title
;
Structure prediction by ZEFSAII (Michael W. Deem and Ramdas Pophale) SiO2 
 PCOD9051404
Probable space group: P -1
;
_chemical_formula_sum "Si O2"
_cell_formula_units_Z 14
_cell_length_a 8.550012
_cell_length_b 17.424949
_cell_length_c 11.805519
_cell_angle_alpha 42.724727
_cell_angle_beta 126.578889
_cell_angle_gamma 147.497393
_cell_volume 639.870252
_symmetry_space_group_name_H-M "P -1"
_symmetry_group_IT_number 2
_symmetry_cell_setting 'triclinic'
loop_
_space_group_symop_operation_xyz
x,y,z
-x,-y,-z
loop_
_atom_site_type_symbol
_atom_site_label
_atom_site_fract_x
_atom_site_fract_y
_atom_site_fract_z
Si Si1 0.718423 0.693481 0.850512
Si Si2 0.774297 0.544300 0.614118
Si Si3 0.482964 0.212365 0.965661
Si Si4 0.119664 0.673119 0.396093
Si Si5 0.003886 0.149592 0.964218
Si Si6 0.880976 0.220516 0.274476
Si Si7 0.324343 0.102344 0.494790
O O1 0.556685 0.739210 0.695221
O O2 0.904199 0.725453 0.792079
O O3 0.500000 0.500000 0.000000
O O4 0.925865 0.819566 0.906642
O O5 0.500000 0.500000 0.500000
O O6 0.665976 0.371983 0.787923
O O7 0.005372 0.647520 0.500871
O O8 0.926235 0.658403 0.668140
O O9 0.263067 0.198393 0.955542
O O10 0.678700 0.229505 0.122441
O O11 0.289625 0.040470 0.996337
O O12 0.007931 0.725359 0.213563
O O13 0.468707 0.823315 0.388838
O O14 0.000000 0.500000 0.500000
O O15 0.698752 0.028396 0.434015
O O16 0.000000 0.000000 0.500000
#
# Coordination Sequence:
#
# PCOD9051404 Si02
#       7
#     2   2   2   2   2   2   2
#     4  11  25  43  72 102 140 183 233 293 345 419
#     4  12  28  45  72 104 143 186 235 298 356 419
#     4  11  25  47  69 105 144 184 233 293 350 427
#     4  12  27  47  73 105 142 187 240 293 356 424
#     4  11  25  46  72 104 142 186 237 285 356 416
#     4  11  26  47  71  99 144 187 235 284 360 421
#     4  10  25  46  70 102 141 188 233 293 352 424
#
# _framework density 21.879434
#
# number of rings (size 3 to 8) (size 9 to 14) (size 15 to 20)
#    0.000    0.857    2.857    2.143   12.000    2.286 
#    0.000    0.000    0.000    0.000    0.000    0.000 
#    0.000    0.000    0.000    0.000    0.000    0.000 
#
# Total GULP energy -78345.497138 kJ/mol
# GULP energy per Si atom -5596.106938 kJ/mol
# Density = 2.182964 g / cm^3
# Si number density = 21.879434 Si / 1000 Ang^3
#
#
#
# Elastic Constant Matrix: (Units=GPa)
#
#
# Indices 1 2 3 4 5 6 
#
# 1 35.5011 8.1660 0.3868 14.6798 11.2112 -1.6442
# 2 8.1660 84.1158 -1.7886 15.4534 20.4214 -5.5681
# 3 0.3868 -1.7886 98.9028 2.8176 44.2765 3.2493
# 4 14.6798 15.4534 2.8176 51.8579 -2.3116 2.0662
# 5 11.2112 20.4214 44.2765 -2.3116 48.1888 6.0199
# 6 -1.6442 -5.5681 3.2493 2.0662 6.0199 36.9854
#
#
#
# Elastic Compliance Matrix: (Units=1/GPa)
#
#
# Indices 1 2 3 4 5 6 
#
# 1 0.040207 0.004713 0.009981 -0.014547 -0.021970 0.006009
# 2 0.004713 0.017476 0.007853 -0.007928 -0.016764 0.005322
# 3 0.009981 0.007853 0.022485 -0.007782 -0.027248 0.004520
# 4 -0.014547 -0.007928 -0.007782 0.027103 0.015850 -0.005251
# 5 -0.021970 -0.016764 -0.027248 0.015850 0.060237 -0.011796
# 6 0.006009 0.005322 0.004520 -0.005251 -0.011796 0.029922
#
#
# Mechanical properties :
#
#
# Convention : Reuss Voigt Hill
#
# Bulk Modulus (GPa) = 7.98319 25.78311 16.88315
# Shear Modulus (GPa) = 25.76111 41.52343 33.64227
#
# Velocity S-wave (km/s) = 3.43507 4.36113 3.92550
# Velocity P-wave (km/s) = 4.40336 6.09665 5.31783
#
# Compressibility (1/GPa) = 0.12526322
#
# Stress axis : x y z
#
# Youngs Moduli (GPa) = 24.87118 57.21994 44.47331
#
# Poissons Ratio (x) = -0.26969 -0.44387
# Poissons Ratio (y) = -0.11722 -0.34926
# Poissons Ratio (z) = -0.24823 -0.44936
#
# Static dielectric constant tensor:
#      x y z
#    x 1.814350 0.036110 -0.046140 
#    y 0.036110 1.810980 -0.015040 
#    z -0.046140 -0.015040 2.001090 
# 
# From -- ./inp_files/157471.got.cif
#   From: 2010.05.17/outbox.cif.g08.bks.cpg/sg2_79_cif.got.tgz:157471.got - 2010.06.03 11:33:40.
