data_PCOD9051805
_publ_section_title
;
Structure prediction by ZEFSAII (Michael W. Deem and Ramdas Pophale) SiO2 
 PCOD9051805
Probable space group: P -1
;
_chemical_formula_sum "Si O2"
_cell_formula_units_Z 14
_cell_length_a 10.763649
_cell_length_b 13.261410
_cell_length_c 10.451174
_cell_angle_alpha 58.908453
_cell_angle_beta 106.595747
_cell_angle_gamma 149.685181
_cell_volume 598.910687
_symmetry_space_group_name_H-M "P -1"
_symmetry_group_IT_number 2
_symmetry_cell_setting 'triclinic'
loop_
_space_group_symop_operation_xyz
x,y,z
-x,-y,-z
loop_
_atom_site_type_symbol
_atom_site_label
_atom_site_fract_x
_atom_site_fract_y
_atom_site_fract_z
Si Si1 0.475565 0.258163 0.257039
Si Si2 0.796799 0.513818 0.678990
Si Si3 0.022356 0.013865 0.845492
Si Si4 0.591551 0.474387 0.394796
Si Si5 0.193158 0.975640 0.598262
Si Si6 0.271915 0.973947 0.891418
Si Si7 0.047885 0.498768 0.869254
O O1 0.635186 0.471094 0.262029
O O2 0.673002 0.344836 0.168319
O O3 0.238652 0.136386 0.195129
O O4 0.334170 0.061951 0.448272
O O5 0.741644 0.513969 0.519278
O O6 0.891811 0.700451 0.668104
O O7 0.014052 0.583912 0.712290
O O8 0.539296 0.246635 0.837986
O O9 0.285251 0.299366 0.699197
O O10 0.055250 0.905740 0.882686
O O11 0.000000 0.000000 0.000000
O O12 0.288098 0.185797 0.512992
O O13 0.302466 0.984601 0.740437
O O14 0.172136 0.774616 0.051326
O O15 0.000000 0.500000 0.000000
#
# Coordination Sequence:
#
# PCOD9051805 Si02
#       7
#     2   2   2   2   2   2   2
#     4  10  25  48  67 104 141 178 237 284 352 407
#     4  11  22  46  72 102 140 183 236 281 350 411
#     4  12  26  44  73 103 145 184 228 289 352 424
#     4   9  21  46  67 105 134 180 235 281 346 407
#     4   9  21  45  69 103 137 181 233 282 346 405
#     4  11  26  45  71 107 139 187 235 284 350 411
#     4  12  26  46  72 101 147 187 229 292 348 415
#
# _framework density 23.375772000000001
#
# number of rings (size 3 to 8) (size 9 to 14) (size 15 to 20)
#    0.857    0.571    2.857    1.286    2.000    7.429 
#    2.571    0.000    0.000    0.000    0.000    0.000 
#    0.000    0.000    0.000    0.000    0.000    0.000 
#
# Total GULP energy -78108.839315 kJ/mol
# GULP energy per Si atom -5579.202808 kJ/mol
# Density = 2.332257 g / cm^3
# Si number density = 23.375772 Si / 1000 Ang^3
#
#
#
# Elastic Constant Matrix: (Units=GPa)
#
#
# Indices 1 2 3 4 5 6 
#
# 1 103.2689 44.2951 26.3362 -2.8049 11.7879 -5.4787
# 2 44.2951 144.3536 38.6564 -8.4318 13.0917 -10.9990
# 3 26.3362 38.6564 84.0314 -4.8726 19.2304 -19.9659
# 4 -2.8049 -8.4318 -4.8726 44.6771 -9.7977 5.4959
# 5 11.7879 13.0917 19.2304 -9.7977 40.3374 -4.2935
# 6 -5.4787 -10.9990 -19.9659 5.4959 -4.2935 27.8663
#
#
#
# Elastic Compliance Matrix: (Units=1/GPa)
#
#
# Indices 1 2 3 4 5 6 
#
# 1 0.011611 -0.002923 -0.002078 -0.000332 -0.001592 -0.000539
# 2 -0.002923 0.008712 -0.002818 0.001010 -0.000321 0.000596
# 3 -0.002078 -0.002818 0.017651 -0.001363 -0.006112 0.010453
# 4 -0.000332 0.001010 -0.001363 0.024238 0.005825 -0.004527
# 5 -0.001592 -0.000321 -0.006112 0.005825 0.029538 -0.001417
# 6 -0.000539 0.000596 0.010453 -0.004527 -0.001417 0.044179
#
#
# Mechanical properties :
#
#
# Convention : Reuss Voigt Hill
#
# Bulk Modulus (GPa) = 44.76660 61.13658 52.95159
# Shear Modulus (GPa) = 31.44401 37.40057 34.42229
#
# Velocity S-wave (km/s) = 3.67161 4.00430 3.84156
# Velocity P-wave (km/s) = 6.09645 6.89854 6.50986
#
# Compressibility (1/GPa) = 0.02233808
#
# Stress axis : x y z
#
# Youngs Moduli (GPa) = 86.12535 114.77795 56.65350
#
# Poissons Ratio (x) = 0.33545 0.11770
# Poissons Ratio (y) = 0.25171 0.15966
# Poissons Ratio (z) = 0.17893 0.32346
#
# Static dielectric constant tensor:
#      x y z
#    x 1.876050 -0.001900 -0.023900 
#    y -0.001900 1.974140 -0.033800 
#    z -0.023900 -0.033800 1.920930 
# 
# From -- ./inp_files/386948.got.cif
#   From: 2010.05.17/outbox.cif.g08.bks.cpg/sg2_194_cif.got.tgz:386948.got - 2010.06.03 11:33:40.
