data_PCOD9051006
_publ_section_title
;
Structure prediction by ZEFSAII (Michael W. Deem and Ramdas Pophale) SiO2 
 PCOD9051006
Probable space group: P -1
;
_chemical_formula_sum "Si O2"
_cell_formula_units_Z 14
_cell_length_a 9.685219
_cell_length_b 8.029036
_cell_length_c 12.741106
_cell_angle_alpha 128.632146
_cell_angle_beta 72.014815
_cell_angle_gamma 132.856127
_cell_volume 555.636628
_symmetry_space_group_name_H-M "P -1"
_symmetry_group_IT_number 2
_symmetry_cell_setting 'triclinic'
loop_
_space_group_symop_operation_xyz
x,y,z
-x,-y,-z
loop_
_atom_site_type_symbol
_atom_site_label
_atom_site_fract_x
_atom_site_fract_y
_atom_site_fract_z
Si Si1 0.872636 0.366771 0.874069
Si Si2 0.648968 0.537722 0.902215
Si Si3 0.484445 0.846921 0.837606
Si Si4 0.531863 0.666420 0.336010
Si Si5 0.052042 0.915169 0.556004
Si Si6 0.120804 0.629492 0.716562
Si Si7 0.883575 0.796725 0.756320
O O1 0.780538 0.509114 0.926983
O O2 0.995364 0.435662 0.770428
O O3 0.692953 0.041797 0.811595
O O4 0.000000 0.500000 0.000000
O O5 0.509685 0.286660 0.752199
O O6 0.786083 0.800499 0.889073
O O7 0.500000 0.500000 0.000000
O O8 0.425385 0.547746 0.758485
O O9 0.335420 0.816755 0.782917
O O10 0.500000 0.000000 0.000000
O O11 0.317117 0.480653 0.358247
O O12 0.725581 0.944867 0.446366
O O13 0.925077 0.580765 0.446576
O O14 0.004158 0.995511 0.706728
O O15 0.000000 0.000000 0.500000
O O16 0.032321 0.768554 0.757596
#
# Coordination Sequence:
#
# PCOD9051006 Si02
#       7
#     2   2   2   2   2   2   2
#     4  11  24  43  69 102 136 178 233 281 348 412
#     4   9  21  46  68  98 140 177 224 284 346 408
#     4  12  24  42  70  98 143 179 228 291 344 410
#     4  10  25  45  66 105 140 179 236 282 344 406
#     4  12  25  45  73  99 143 182 237 287 337 417
#     4  11  25  45  68 103 135 188 225 284 352 406
#     4   9  25  45  68 104 136 181 234 284 344 410
#
# _framework density 25.196323
#
# number of rings (size 3 to 8) (size 9 to 14) (size 15 to 20)
#    0.857    0.571    2.857    1.286    4.000    2.286 
#    0.000    2.143    0.000    0.000    0.000    0.000 
#    0.000    0.000    0.000    0.000    0.000    0.000 
#
# Total GULP energy -78182.070410 kJ/mol
# GULP energy per Si atom -5584.433601 kJ/mol
# Density = 2.513898 g / cm^3
# Si number density = 25.196323 Si / 1000 Ang^3
#
#
#
# Elastic Constant Matrix: (Units=GPa)
#
#
# Indices 1 2 3 4 5 6 
#
# 1 153.4923 39.0891 47.1752 -9.0857 39.9579 19.8642
# 2 39.0891 111.2181 43.0629 -29.4288 12.9735 12.7957
# 3 47.1752 43.0629 71.4695 -11.1497 14.4397 6.0423
# 4 -9.0857 -29.4288 -11.1497 46.5837 12.2621 13.4511
# 5 39.9579 12.9735 14.4397 12.2621 54.2301 4.0313
# 6 19.8642 12.7957 6.0423 13.4511 4.0313 48.9099
#
#
#
# Elastic Compliance Matrix: (Units=1/GPa)
#
#
# Indices 1 2 3 4 5 6 
#
# 1 0.010615 0.000787 -0.004859 0.004687 -0.007434 -0.004593
# 2 0.000787 0.015603 -0.006649 0.011481 -0.004665 -0.006353
# 3 -0.004859 -0.006649 0.021151 -0.000314 -0.000481 0.001226
# 4 0.004687 0.011481 -0.000314 0.037141 -0.013476 -0.013972
# 5 -0.007434 -0.004665 -0.000481 -0.013476 0.027784 0.005716
# 6 -0.004593 -0.006353 0.001226 -0.013972 0.005716 0.027193
#
#
# Mechanical properties :
#
#
# Convention : Reuss Voigt Hill
#
# Bulk Modulus (GPa) = 38.57402 66.09268 52.33335
# Shear Modulus (GPa) = 29.48591 43.73493 36.61042
#
# Velocity S-wave (km/s) = 3.42460 4.17077 3.81597
# Velocity P-wave (km/s) = 5.56595 7.03433 6.34278
#
# Compressibility (1/GPa) = 0.02592418
#
# Stress axis : x y z
#
# Youngs Moduli (GPa) = 94.20273 64.09195 47.28016
#
# Poissons Ratio (x) = -0.05041 0.22974
# Poissons Ratio (y) = -0.07409 0.31439
# Poissons Ratio (z) = 0.45775 0.42618
#
# Static dielectric constant tensor:
#      x y z
#    x 2.017190 -0.001580 -0.059680 
#    y -0.001580 2.139460 0.030960 
#    z -0.059680 0.030960 2.033910 
# 
# From -- ./inp_files/383230.got.cif
#   From: 2010.05.17/outbox.cif.g08.bks.cpg/sg2_192_cif.got.tgz:383230.got - 2010.06.03 11:33:40.
