data_PCOD9051648
_publ_section_title
;
Structure prediction by ZEFSAII (Michael W. Deem and Ramdas Pophale) SiO2 
 PCOD9051648
Probable space group: P -1
;
_chemical_formula_sum "Si O2"
_cell_formula_units_Z 12
_cell_length_a 5.409809
_cell_length_b 8.716581
_cell_length_c 14.619711
_cell_angle_alpha 44.547890
_cell_angle_beta 101.705970
_cell_angle_gamma 99.778378
_cell_volume 473.234520
_symmetry_space_group_name_H-M "P -1"
_symmetry_group_IT_number 2
_symmetry_cell_setting 'triclinic'
loop_
_space_group_symop_operation_xyz
x,y,z
-x,-y,-z
loop_
_atom_site_type_symbol
_atom_site_label
_atom_site_fract_x
_atom_site_fract_y
_atom_site_fract_z
Si Si1 0.736588 0.471188 0.096039
Si Si2 0.499993 0.525102 0.726133
Si Si3 0.984728 0.604193 0.356829
Si Si4 0.863264 0.168192 0.984500
Si Si5 0.851464 0.023765 0.230043
Si Si6 0.203705 0.166335 0.493425
O O1 0.633996 0.428191 0.207816
O O2 0.905197 0.267491 0.167746
O O3 0.906827 0.688516 0.017152
O O4 0.500000 0.500000 0.000000
O O5 0.301798 0.404935 0.694648
O O6 0.698845 0.341625 0.845501
O O7 0.567833 0.763938 0.586291
O O8 0.000000 0.500000 0.500000
O O9 0.111848 0.418915 0.385605
O O10 0.057965 0.858590 0.274578
O O11 0.710071 0.070368 0.102539
O O12 0.000000 0.000000 0.000000
O O13 0.746681 0.909005 0.365515
O O14 0.000000 0.000000 0.500000
#
# Coordination Sequence:
#
# PCOD9051648 Si02
#       6
#     2   2   2   2   2   2
#     4  12  27  45  72 110 147 193 248 299 369 439
#     4  12  25  47  74 103 152 192 242 308 370 434
#     4  10  25  47  70 109 146 192 246 297 368 442
#     4  12  27  47  74 108 149 195 250 305 367 440
#     4  11  24  46  71 104 149 187 242 305 360 433
#     4  11  25  46  73 106 145 191 247 302 363 441
#
# _framework density 25.357406000000001
#
# number of rings (size 3 to 8) (size 9 to 14) (size 15 to 20)
#    0.000    0.667    1.667    5.500    4.667    6.667 
#    3.000    0.000    0.000    0.000    0.000    0.000 
#    0.000    0.000    0.000    0.000    0.000    0.000 
#
# Total GULP energy -66910.609257 kJ/mol
# GULP energy per Si atom -5575.884105 kJ/mol
# Density = 2.529969 g / cm^3
# Si number density = 25.357406 Si / 1000 Ang^3
#
#
#
# Elastic Constant Matrix: (Units=GPa)
#
#
# Indices 1 2 3 4 5 6 
#
# 1 51.0780 44.9686 44.0179 9.6258 -1.2535 1.9285
# 2 44.9686 174.6699 86.3093 -22.6873 1.1733 -21.6802
# 3 44.0179 86.3093 204.5040 32.8221 -23.2945 -10.3132
# 4 9.6258 -22.6873 32.8221 81.2440 -11.3318 11.7569
# 5 -1.2535 1.1733 -23.2945 -11.3318 49.3382 4.0416
# 6 1.9285 -21.6802 -10.3132 11.7569 4.0416 42.7602
#
#
#
# Elastic Compliance Matrix: (Units=1/GPa)
#
#
# Indices 1 2 3 4 5 6 
#
# 1 0.029278 -0.007048 -0.003081 -0.003679 -0.001017 -0.004530
# 2 -0.007048 0.010309 -0.003517 0.004422 -0.001365 0.003610
# 3 -0.003081 -0.003517 0.007991 -0.003589 0.002872 0.000999
# 4 -0.003679 0.004422 -0.003589 0.016167 0.002074 -0.003099
# 5 -0.001017 -0.001365 0.002872 0.002074 0.022323 -0.002633
# 6 -0.004530 0.003610 0.000999 -0.003099 -0.002633 0.026762
#
#
# Mechanical properties :
#
#
# Convention : Reuss Voigt Hill
#
# Bulk Modulus (GPa) = 49.29695 86.76037 68.02866
# Shear Modulus (GPa) = 34.04050 51.66555 42.85302
#
# Velocity S-wave (km/s) = 3.66789 4.51876 4.11537
# Velocity P-wave (km/s) = 6.11727 7.84314 7.03334
#
# Compressibility (1/GPa) = 0.02028523
#
# Stress axis : x y z
#
# Youngs Moduli (GPa) = 34.15576 97.00246 125.14320
#
# Poissons Ratio (x) = 0.68371 0.38556
# Poissons Ratio (y) = 0.24074 0.44011
# Poissons Ratio (z) = 0.10523 0.34114
#
# Static dielectric constant tensor:
#      x y z
#    x 2.266200 -0.167550 -0.011970 
#    y -0.167550 2.063200 -0.041800 
#    z -0.011970 -0.041800 2.029350 
# 
# From -- ./inp_files/37880.got.cif
#   From: 2010.05.17/outbox.cif.g08.bks.cpg/sg2_19_cif.got.tgz:37880.got - 2010.06.03 11:33:40.
