data_PCOD9051273
_publ_section_title
;
Structure prediction by ZEFSAII (Michael W. Deem and Ramdas Pophale) SiO2 
 PCOD9051273
Probable space group: P -1
;
_chemical_formula_sum "Si O2"
_cell_formula_units_Z 11
_cell_length_a 16.333441
_cell_length_b 11.383352
_cell_length_c 6.814412
_cell_angle_alpha 106.785887
_cell_angle_beta 114.480658
_cell_angle_gamma 22.164830
_cell_volume 418.060648
_symmetry_space_group_name_H-M "P -1"
_symmetry_group_IT_number 2
_symmetry_cell_setting 'triclinic'
loop_
_space_group_symop_operation_xyz
x,y,z
-x,-y,-z
loop_
_atom_site_type_symbol
_atom_site_label
_atom_site_fract_x
_atom_site_fract_y
_atom_site_fract_z
Si Si1 0.531992 0.224158 0.800468
Si Si2 0.293365 0.158036 0.877818
Si Si3 0.159902 0.899537 0.499596
Si Si4 0.500000 0.500000 0.000000
Si Si5 0.628049 0.596494 0.684173
Si Si6 0.031600 0.215364 0.161705
O O1 0.402940 0.325674 0.538100
O O2 0.706122 0.115096 0.836922
O O3 0.377549 0.511784 0.913856
O O4 0.679932 0.942370 0.936488
O O5 0.054678 0.534572 0.790060
O O6 0.381353 0.948851 0.706283
O O7 0.500000 0.000000 0.000000
O O8 0.311728 0.766814 0.758708
O O9 0.036828 0.148716 0.348062
O O10 0.000000 0.000000 0.500000
O O11 0.675117 0.393594 0.616701
O O12 0.846006 0.383791 0.912806
#
# Coordination Sequence:
#
# PCOD9051273 Si02
#       6
#     2   2   2   1   2   2
#     4  11  25  45  71 104 140 185 230 288 342 417
#     4  10  25  46  70 103 144 183 230 284 349 416
#     4  11  25  44  73 102 140 185 233 289 342 414
#     4  10  26  42  72 102 140 176 234 284 350 396
#     4  10  25  45  74  97 144 183 228 284 351 406
#     4  11  25  44  70 106 137 184 235 284 350 408
#
# _framework density 26.311973999999999
#
# number of rings (size 3 to 8) (size 9 to 14) (size 15 to 20)
#    0.000    1.455    0.000    2.182   15.273    5.091 
#    3.273    0.000    0.000    0.000    0.000    0.000 
#    0.000    0.000    0.000    0.000    0.000    0.000 
#
# Total GULP energy -61372.378175 kJ/mol
# GULP energy per Si atom -5579.307107 kJ/mol
# Density = 2.625209 g / cm^3
# Si number density = 26.311974 Si / 1000 Ang^3
#
#
#
# Elastic Constant Matrix: (Units=GPa)
#
#
# Indices 1 2 3 4 5 6 
#
# 1 136.8161 24.9904 77.8210 -6.4786 -35.9417 2.2381
# 2 24.9904 72.9958 42.2517 13.6488 -15.1825 14.5828
# 3 77.8210 42.2517 249.9591 -5.1821 -26.0076 5.9905
# 4 -6.4786 13.6488 -5.1821 30.3843 4.2344 -12.0280
# 5 -35.9417 -15.1825 -26.0076 4.2344 60.5631 -16.0936
# 6 2.2381 14.5828 5.9905 -12.0280 -16.0936 48.6176
#
#
#
# Elastic Compliance Matrix: (Units=1/GPa)
#
#
# Indices 1 2 3 4 5 6 
#
# 1 0.010577 -0.002451 -0.002336 0.003466 0.005249 0.003131
# 2 -0.002451 0.020719 -0.002690 -0.013949 0.001216 -0.008819
# 3 -0.002336 -0.002690 0.005230 0.001893 0.000273 0.000829
# 4 0.003466 -0.013949 0.001893 0.046270 0.000205 0.015306
# 5 0.005249 0.001216 0.000273 0.000205 0.021796 0.006626
# 6 0.003131 -0.008819 0.000829 0.015306 0.006626 0.028948
#
#
# Mechanical properties :
#
#
# Convention : Reuss Voigt Hill
#
# Bulk Modulus (GPa) = 46.35623 83.32193 64.83908
# Shear Modulus (GPa) = 32.11632 48.89353 40.50492
#
# Velocity S-wave (km/s) = 3.49749 4.31539 3.92779
# Velocity P-wave (km/s) = 5.82805 7.52102 6.72800
#
# Compressibility (1/GPa) = 0.02157207
#
# Stress axis : x y z
#
# Youngs Moduli (GPa) = 94.54226 48.26591 191.18772
#
# Poissons Ratio (x) = 0.11829 0.44657
# Poissons Ratio (y) = 0.23171 0.51438
# Poissons Ratio (z) = 0.22083 0.12986
#
# Static dielectric constant tensor:
#      x y z
#    x 2.035530 -0.223030 -0.097890 
#    y -0.223030 1.356670 -0.378170 
#    z -0.097890 -0.378170 1.861140 
# 
# From -- ./inp_files/300787.got.cif
#   From: 2010.05.17/outbox.cif.g08.bks.cpg/sg2_151_cif.got.tgz:300787.got - 2010.06.03 11:33:40.
