data_PCOD9051913
_publ_section_title
;
Structure prediction by ZEFSAII (Michael W. Deem and Ramdas Pophale) SiO2 
 PCOD9051913
Probable space group: P -1
;
_chemical_formula_sum "Si O2"
_cell_formula_units_Z 14
_cell_length_a 18.274732
_cell_length_b 12.304815
_cell_length_c 9.124777
_cell_angle_alpha 37.044001
_cell_angle_beta 50.243123
_cell_angle_gamma 30.288941
_cell_volume 615.048648
_symmetry_space_group_name_H-M "P -1"
_symmetry_group_IT_number 2
_symmetry_cell_setting 'triclinic'
loop_
_space_group_symop_operation_xyz
x,y,z
-x,-y,-z
loop_
_atom_site_type_symbol
_atom_site_label
_atom_site_fract_x
_atom_site_fract_y
_atom_site_fract_z
Si Si1 0.630318 0.415777 0.508534
Si Si2 0.139916 0.202898 0.216645
Si Si3 0.241782 0.421043 0.995151
Si Si4 0.963676 0.376203 0.515247
Si Si5 0.043082 0.196252 0.914075
Si Si6 0.335294 0.288483 0.356954
Si Si7 0.636067 0.392971 0.859982
O O1 0.500000 0.500000 0.500000
O O2 0.675457 0.538077 0.239914
O O3 0.592064 0.512823 0.622573
O O4 0.761072 0.077788 0.699319
O O5 0.060791 0.189312 0.453271
O O6 0.236619 0.233469 0.121304
O O7 0.000000 0.500000 0.000000
O O8 0.304901 0.306370 0.203793
O O9 0.070537 0.727903 0.909697
O O10 0.005447 0.525213 0.317305
O O11 0.787498 0.630813 0.471787
O O12 0.009303 0.194647 0.791928
O O13 0.214995 0.934299 0.998154
O O14 0.317212 0.517973 0.185321
O O15 0.500000 0.000000 0.500000
O O16 0.500000 0.500000 0.000000
#
# Coordination Sequence:
#
# PCOD9051913 Si02
#       7
#     2   2   2   2   2   2   2
#     4  12  29  47  72 108 147 193 242 306 371 436
#     4  11  26  45  75 105 149 190 242 304 367 439
#     4  10  25  48  75 108 141 190 241 303 365 429
#     4   9  20  39  68 100 133 183 233 288 354 421
#     4   9  20  41  70  99 134 177 237 293 344 424
#     4  11  25  43  72 103 142 192 240 294 361 435
#     4  12  27  44  69 101 142 186 240 298 359 435
#
# _framework density 22.762426999999999
#
# number of rings (size 3 to 8) (size 9 to 14) (size 15 to 20)
#    0.000    1.429    0.000    4.286   10.000    4.000 
#    0.000    0.000    0.000    0.000    0.000    0.000 
#    0.000    0.000    0.000    0.000    0.000    0.000 
#
# Total GULP energy -78108.475093 kJ/mol
# GULP energy per Si atom -5579.176792 kJ/mol
# Density = 2.271062 g / cm^3
# Si number density = 22.762427 Si / 1000 Ang^3
#
#
#
# Elastic Constant Matrix: (Units=GPa)
#
#
# Indices 1 2 3 4 5 6 
#
# 1 109.2542 28.7153 31.5891 10.2380 -4.3066 -1.2605
# 2 28.7153 111.3730 40.0367 22.7865 7.0622 -14.4714
# 3 31.5891 40.0367 53.0322 18.1890 -21.3071 -3.1823
# 4 10.2380 22.7865 18.1890 45.6479 -7.4547 -6.9504
# 5 -4.3066 7.0622 -21.3071 -7.4547 35.1625 -0.4407
# 6 -1.2605 -14.4714 -3.1823 -6.9504 -0.4407 42.7881
#
#
#
# Elastic Compliance Matrix: (Units=1/GPa)
#
#
# Indices 1 2 3 4 5 6 
#
# 1 0.011405 0.000413 -0.008723 0.000032 -0.003968 -0.000209
# 2 0.000413 0.017612 -0.018218 -0.003519 -0.015224 0.003885
# 3 -0.008723 -0.018218 0.052786 -0.004964 0.033488 -0.002954
# 4 0.000032 -0.003519 -0.004964 0.026612 0.003380 0.002799
# 5 -0.003968 -0.015224 0.033488 0.003380 0.051999 -0.001691
# 6 -0.000209 0.003885 -0.002954 0.002799 -0.001691 0.024896
#
#
# Mechanical properties :
#
#
# Convention : Reuss Voigt Hill
#
# Bulk Modulus (GPa) = 34.78714 52.70463 43.74588
# Shear Modulus (GPa) = 20.16553 36.27426 28.21989
#
# Velocity S-wave (km/s) = 2.97966 3.99633 3.52484
# Velocity P-wave (km/s) = 5.21092 6.67073 5.98550
#
# Compressibility (1/GPa) = 0.02874626
#
# Stress axis : x y z
#
# Youngs Moduli (GPa) = 87.68356 56.78046 18.94442
#
# Poissons Ratio (x) = -0.02346 0.16525
# Poissons Ratio (y) = -0.03623 0.34514
# Poissons Ratio (z) = 0.76485 1.03445
#
# Static dielectric constant tensor:
#      x y z
#    x 2.004150 -0.138970 0.002420 
#    y -0.138970 2.114760 0.188170 
#    z 0.002420 0.188170 1.759880 
# 
# From -- ./inp_files/332703.got.cif
#   From: 2010.05.17/outbox.cif.g08.bks.cpg/sg2_167_cif.got.tgz:332703.got - 2010.06.03 11:33:40.
