data_PCOD9051303
_publ_section_title
;
Structure prediction by ZEFSAII (Michael W. Deem and Ramdas Pophale) SiO2 
 PCOD9051303
Probable space group: P -1
;
_chemical_formula_sum "Si O2"
_cell_formula_units_Z 14
_cell_length_a 6.137658
_cell_length_b 4.951145
_cell_length_c 29.107122
_cell_angle_alpha 97.220307
_cell_angle_beta 43.967126
_cell_angle_gamma 104.468421
_cell_volume 592.667438
_symmetry_space_group_name_H-M "P -1"
_symmetry_group_IT_number 2
_symmetry_cell_setting 'triclinic'
loop_
_space_group_symop_operation_xyz
x,y,z
-x,-y,-z
loop_
_atom_site_type_symbol
_atom_site_label
_atom_site_fract_x
_atom_site_fract_y
_atom_site_fract_z
Si Si1 0.423462 0.082181 0.761118
Si Si2 0.738705 0.367213 0.994222
Si Si3 0.328045 0.421050 0.431281
Si Si4 0.606337 0.002215 0.431240
Si Si5 0.404548 0.384823 0.861385
Si Si6 0.341736 0.020186 0.124932
Si Si7 0.696668 0.602441 0.673640
O O1 0.532825 0.242756 0.795489
O O2 0.611750 0.287039 0.697847
O O3 0.488153 0.776680 0.738108
O O4 0.041068 0.049078 0.815412
O O5 0.016551 0.308173 0.917485
O O6 0.500000 0.500000 0.000000
O O7 0.500406 0.128355 0.054310
O O8 0.000000 0.500000 0.000000
O O9 0.359315 0.131766 0.442117
O O10 0.366035 0.403721 0.371057
O O11 0.000000 0.500000 0.500000
O O12 0.599835 0.685737 0.412802
O O13 0.942017 0.213274 0.373904
O O14 0.500000 0.000000 0.500000
O O15 0.527425 0.717314 0.854704
O O16 0.526143 0.243033 0.884261
#
# Coordination Sequence:
#
# PCOD9051303 Si02
#       7
#     2   2   2   2   2   2   2
#     4  12  28  45  74 100 152 194 240 296 366 458
#     4  10  25  45  79 115 150 198 262 325 383 449
#     4  12  26  45  76 105 142 182 236 303 370 436
#     4  12  26  45  76 105 142 182 236 303 370 436
#     4  11  26  47  74 107 148 194 250 307 373 441
#     4  11  26  47  74 107 148 194 250 307 373 441
#     4  12  28  46  70 111 140 190 246 296 368 447
#
# _framework density 23.622015999999999
#
# number of rings (size 3 to 8) (size 9 to 14) (size 15 to 20)
#    0.000    0.571    1.429    4.714   12.000    7.429 
#    0.000    0.000    0.000    0.000    0.000    0.000 
#    0.000    0.000    0.000    0.000    0.000    0.000 
#
# Total GULP energy -78295.204613 kJ/mol
# GULP energy per Si atom -5592.514615 kJ/mol
# Density = 2.356825 g / cm^3
# Si number density = 23.622016 Si / 1000 Ang^3
#
#
#
# Elastic Constant Matrix: (Units=GPa)
#
#
# Indices 1 2 3 4 5 6 
#
# 1 74.7736 1.6317 29.7340 -8.5386 -6.4434 -2.8289
# 2 1.6317 78.1750 -5.7510 -3.3349 -5.8373 9.0764
# 3 29.7340 -5.7510 85.6713 -6.1761 1.4002 3.5468
# 4 -8.5386 -3.3349 -6.1761 53.6596 9.2963 0.0414
# 5 -6.4434 -5.8373 1.4002 9.2963 57.0092 -4.9878
# 6 -2.8289 9.0764 3.5468 0.0414 -4.9878 51.2563
#
#
#
# Elastic Compliance Matrix: (Units=1/GPa)
#
#
# Indices 1 2 3 4 5 6 
#
# 1 0.015997 -0.000729 -0.005583 0.001553 0.001755 0.001568
# 2 -0.000729 0.013277 0.001279 0.000698 0.000923 -0.002391
# 3 -0.005583 0.001279 0.013852 0.000984 -0.001141 -0.001605
# 4 0.001553 0.000698 0.000984 0.019560 -0.003003 -0.000414
# 5 0.001755 0.000923 -0.001141 -0.003003 0.018510 0.001816
# 6 0.001568 -0.002391 -0.001605 -0.000414 0.001816 0.020308
#
#
# Mechanical properties :
#
#
# Convention : Reuss Voigt Hill
#
# Bulk Modulus (GPa) = 30.24832 32.20546 31.22689
# Shear Modulus (GPa) = 40.78553 46.58537 43.68545
#
# Velocity S-wave (km/s) = 4.15973 4.44567 4.30508
# Velocity P-wave (km/s) = 5.99200 6.32576 6.16114
#
# Compressibility (1/GPa) = 0.03305969
#
# Stress axis : x y z
#
# Youngs Moduli (GPa) = 62.50995 75.31620 72.19138
#
# Poissons Ratio (x) = 0.05494 0.40304
# Poissons Ratio (y) = 0.04560 -0.09231
# Poissons Ratio (z) = 0.34898 -0.09631
#
# Static dielectric constant tensor:
#      x y z
#    x 1.938400 0.044240 0.009380 
#    y 0.044240 1.866170 -0.006930 
#    z 0.009380 -0.006930 2.062530 
# 
# From -- ./inp_files/614709.got.cif
#   From: 2010.05.17/outbox.cif.g08.bks.cpg/sg2_308_cif.got.tgz:614709.got - 2010.06.03 11:33:40.
