data_PCOD9051474
_publ_section_title
;
Structure prediction by ZEFSAII (Michael W. Deem and Ramdas Pophale) SiO2 
 PCOD9051474
Probable space group: P -1
;
_chemical_formula_sum "Si O2"
_cell_formula_units_Z 16
_cell_length_a 5.421688
_cell_length_b 14.853512
_cell_length_c 12.449830
_cell_angle_alpha 55.441805
_cell_angle_beta 117.907436
_cell_angle_gamma 88.054023
_cell_volume 665.037870
_symmetry_space_group_name_H-M "P -1"
_symmetry_group_IT_number 2
_symmetry_cell_setting 'triclinic'
loop_
_space_group_symop_operation_xyz
x,y,z
-x,-y,-z
loop_
_atom_site_type_symbol
_atom_site_label
_atom_site_fract_x
_atom_site_fract_y
_atom_site_fract_z
Si Si1 0.676553 0.271794 0.762596
Si Si2 0.945199 0.576426 0.543821
Si Si3 0.608059 0.323523 0.377211
Si Si4 0.671913 0.085206 0.486834
Si Si5 0.642318 0.868026 0.068238
Si Si6 0.436267 0.639185 0.893576
Si Si7 0.938754 0.433706 0.836740
Si Si8 0.277467 0.870353 0.785698
O O1 0.419803 0.350574 0.571048
O O2 0.503187 0.208008 0.840970
O O3 0.772245 0.356942 0.801952
O O4 0.990053 0.184925 0.828675
O O5 0.069644 0.483306 0.729694
O O6 0.000000 0.500000 0.500000
O O7 0.121441 0.662035 0.513117
O O8 0.545741 0.204756 0.452281
O O9 0.720409 0.317747 0.281386
O O10 0.308492 0.446228 0.242398
O O11 0.676630 0.119070 0.339442
O O12 0.500000 0.000000 0.500000
O O13 0.992863 0.995766 0.663953
O O14 0.533839 0.865044 0.925356
O O15 0.500000 0.000000 0.000000
O O16 0.245511 0.742309 0.871262
O O17 0.500000 0.500000 0.000000
O O18 0.778187 0.634720 0.981026
#
# Coordination Sequence:
#
# PCOD9051474 Si02
#       8
#     2   2   2   2   2   2   2   2
#     4  12  28  48  77 107 157 204 253 317 378 450
#     4  12  26  46  69 106 157 195 255 306 386 459
#     4  11  26  43  72 110 142 202 247 313 381 469
#     4  10  25  47  73 105 146 195 253 317 384 454
#     4  12  29  52  76 112 148 207 262 313 376 452
#     4  11  23  44  72 106 147 187 250 310 391 452
#     4  12  25  44  74 108 148 194 246 316 388 455
#     4  10  25  46  72 103 147 190 251 310 382 443
#
# _framework density 24.058782000000001
#
# number of rings (size 3 to 8) (size 9 to 14) (size 15 to 20)
#    0.000    0.750    3.750    1.875    8.750    1.000 
#    0.000    0.000    0.000    0.000    0.000    0.000 
#    0.000    0.000    0.000    0.000    0.000    0.000 
#
# Total GULP energy -89411.854623 kJ/mol
# GULP energy per Si atom -5588.240914 kJ/mol
# Density = 2.400402 g / cm^3
# Si number density = 24.058782 Si / 1000 Ang^3
#
#
#
# Elastic Constant Matrix: (Units=GPa)
#
#
# Indices 1 2 3 4 5 6 
#
# 1 92.0991 27.6931 20.7208 -9.9307 16.5864 2.4600
# 2 27.6931 181.6592 16.2802 -17.4996 9.8489 2.1140
# 3 20.7208 16.2802 82.1490 -2.0506 26.0008 3.3091
# 4 -9.9307 -17.4996 -2.0506 38.9799 2.5114 4.8834
# 5 16.5864 9.8489 26.0008 2.5114 35.6723 -8.7846
# 6 2.4600 2.1140 3.3091 4.8834 -8.7846 42.9410
#
#
#
# Elastic Compliance Matrix: (Units=1/GPa)
#
#
# Indices 1 2 3 4 5 6 
#
# 1 0.012893 -0.001221 -0.001055 0.003312 -0.005647 -0.002129
# 2 -0.001221 0.006045 -0.000438 0.002543 -0.001138 -0.000716
# 3 -0.001055 -0.000438 0.016753 0.001737 -0.012709 -0.004006
# 4 0.003312 0.002543 0.001737 0.028809 -0.006796 -0.005115
# 5 -0.005647 -0.001138 -0.012709 -0.006796 0.043427 0.011016
# 6 -0.002129 -0.000716 -0.004006 -0.005115 0.011016 0.026589
#
#
# Mechanical properties :
#
#
# Convention : Reuss Voigt Hill
#
# Bulk Modulus (GPa) = 33.04196 53.92171 43.48184
# Shear Modulus (GPa) = 33.32650 42.93285 38.12967
#
# Velocity S-wave (km/s) = 3.72588 4.22891 3.98534
# Velocity P-wave (km/s) = 5.68095 6.80486 6.26815
#
# Compressibility (1/GPa) = 0.03026455
#
# Stress axis : x y z
#
# Youngs Moduli (GPa) = 77.56072 165.42229 59.69152
#
# Poissons Ratio (x) = 0.20199 0.06295
# Poissons Ratio (y) = 0.09471 0.02613
# Poissons Ratio (z) = 0.08179 0.07240
#
# Static dielectric constant tensor:
#      x y z
#    x 1.946260 -0.017230 -0.103070 
#    y -0.017230 1.973540 -0.082210 
#    z -0.103070 -0.082210 1.923860 
# 
# From -- ./inp_files/80462.got.cif
#   From: 2010.05.17/outbox.cif.g08.bks.cpg/sg2_41_cif.got.tgz:80462.got - 2010.06.03 11:33:40.
