data_PCOD9051659
_publ_section_title
;
Structure prediction by ZEFSAII (Michael W. Deem and Ramdas Pophale) SiO2 
 PCOD9051659
Probable space group: P -1
;
_chemical_formula_sum "Si O2"
_cell_formula_units_Z 16
_cell_length_a 19.798061
_cell_length_b 11.907095
_cell_length_c 9.013616
_cell_angle_alpha 45.004218
_cell_angle_beta 30.440661
_cell_angle_gamma 36.923991
_cell_volume 645.630030
_symmetry_space_group_name_H-M "P -1"
_symmetry_group_IT_number 2
_symmetry_cell_setting 'triclinic'
loop_
_space_group_symop_operation_xyz
x,y,z
-x,-y,-z
loop_
_atom_site_type_symbol
_atom_site_label
_atom_site_fract_x
_atom_site_fract_y
_atom_site_fract_z
Si Si1 0.894944 0.322484 0.364715
Si Si2 0.360065 0.266146 0.674833
Si Si3 0.176093 0.214368 0.731040
Si Si4 0.642625 0.531481 0.230018
Si Si5 0.728589 0.213957 0.572430
Si Si6 0.110675 0.573780 0.388664
Si Si7 0.518035 0.149582 0.201592
Si Si8 0.117463 0.073546 0.690262
O O1 0.782716 0.538209 0.310091
O O2 0.836662 0.192778 0.526308
O O3 0.880611 0.336230 0.556581
O O4 0.070939 0.235573 0.051302
O O5 0.392303 0.301184 0.749163
O O6 0.505451 0.210834 0.339353
O O7 0.360858 0.072848 0.846415
O O8 0.078070 0.417234 0.649397
O O9 0.346593 0.184204 0.461541
O O10 0.185700 0.072408 0.721925
O O11 0.500000 0.500000 0.500000
O O12 0.749150 0.354201 0.299457
O O13 0.733962 0.518135 0.921396
O O14 0.760306 0.054761 0.546074
O O15 0.563975 0.271223 0.903905
O O16 0.976079 0.725625 0.397158
O O17 0.000000 0.000000 0.000000
#
# Coordination Sequence:
#
# PCOD9051659 Si02
#       8
#     2   2   2   2   2   2   2   2
#     4  11  25  49  76 102 144 190 243 285 357 434
#     4  10  25  47  71 103 149 183 237 294 354 427
#     4  12  26  48  75 106 142 192 240 295 356 428
#     4  11  25  43  69 101 144 191 233 285 363 426
#     4  11  26  47  72 105 147 187 233 295 360 425
#     4  12  26  44  74 107 137 192 240 295 355 420
#     4  11  26  45  77 108 142 186 239 297 359 413
#     4  12  25  48  69 105 146 181 239 299 354 417
#
# _framework density 24.781994000000001
#
# number of rings (size 3 to 8) (size 9 to 14) (size 15 to 20)
#    0.000    0.750    3.750    2.250    7.000    3.000 
#    2.250    0.000    0.000    0.000    0.000    0.000 
#    0.000    0.000    0.000    0.000    0.000    0.000 
#
# Total GULP energy -89407.284296 kJ/mol
# GULP energy per Si atom -5587.955269 kJ/mol
# Density = 2.472559 g / cm^3
# Si number density = 24.781994 Si / 1000 Ang^3
#
#
#
# Elastic Constant Matrix: (Units=GPa)
#
#
# Indices 1 2 3 4 5 6 
#
# 1 152.2992 21.6532 58.0510 30.3527 23.4982 39.7132
# 2 21.6532 58.4347 8.8628 15.2753 8.5728 10.3609
# 3 58.0510 8.8628 161.6216 18.6611 31.5658 26.4584
# 4 30.3527 15.2753 18.6611 27.4217 7.0435 17.2416
# 5 23.4982 8.5728 31.5658 7.0435 43.5961 7.5689
# 6 39.7132 10.3609 26.4584 17.2416 7.5689 45.1185
#
#
#
# Elastic Compliance Matrix: (Units=1/GPa)
#
#
# Indices 1 2 3 4 5 6 
#
# 1 0.010176 -0.000724 -0.001635 -0.005890 -0.002306 -0.005195
# 2 -0.000724 0.020363 0.000862 -0.010382 -0.002534 -0.000152
# 3 -0.001635 0.000862 0.008163 -0.001721 -0.004552 -0.002125
# 4 -0.005890 -0.010382 -0.001721 0.058765 -0.000641 -0.013772
# 5 -0.002306 -0.002534 -0.004552 -0.000641 0.027932 0.000840
# 6 -0.005195 -0.000152 -0.002125 -0.013772 0.000840 0.033139
#
#
# Mechanical properties :
#
#
# Convention : Reuss Voigt Hill
#
# Bulk Modulus (GPa) = 28.00424 61.05439 44.52931
# Shear Modulus (GPa) = 28.82933 42.14649 35.48791
#
# Velocity S-wave (km/s) = 3.41444 4.12842 3.78829
# Velocity P-wave (km/s) = 5.18356 6.88587 6.09444
#
# Compressibility (1/GPa) = 0.03570888
#
# Stress axis : x y z
#
# Youngs Moduli (GPa) = 98.26973 49.10779 122.50963
#
# Poissons Ratio (x) = 0.03555 0.20025
# Poissons Ratio (y) = 0.07114 -0.10560
# Poissons Ratio (z) = 0.16063 -0.04233
#
# Static dielectric constant tensor:
#      x y z
#    x 2.115550 -0.039630 -0.020690 
#    y -0.039630 2.112020 0.034990 
#    z -0.020690 0.034990 1.926840 
# 
# From -- ./inp_files/345920.got.cif
#   From: 2010.05.17/outbox.cif.g08.bks.cpg/sg2_173_cif.got.tgz:345920.got - 2010.06.03 11:33:40.
