data_PCOD9051318
_publ_section_title
;
Structure prediction by ZEFSAII (Michael W. Deem and Ramdas Pophale) SiO2 
 PCOD9051318
Probable space group: P -1
;
_chemical_formula_sum "Si O2"
_cell_formula_units_Z 15
_cell_length_a 8.352311
_cell_length_b 15.460307
_cell_length_c 12.260510
_cell_angle_alpha 142.152269
_cell_angle_beta 142.535886
_cell_angle_gamma 42.003423
_cell_volume 561.422037
_symmetry_space_group_name_H-M "P -1"
_symmetry_group_IT_number 2
_symmetry_cell_setting 'triclinic'
loop_
_space_group_symop_operation_xyz
x,y,z
-x,-y,-z
loop_
_atom_site_type_symbol
_atom_site_label
_atom_site_fract_x
_atom_site_fract_y
_atom_site_fract_z
Si Si1 0.500000 0.500000 0.000000
Si Si2 0.951891 0.416830 0.669907
Si Si3 0.143986 0.838405 0.174686
Si Si4 0.190577 0.103570 0.736655
Si Si5 0.106443 0.846192 0.739531
Si Si6 0.596016 0.851323 0.599441
Si Si7 0.300319 0.458542 0.566796
Si Si8 0.665620 0.635722 0.924483
O O1 0.261886 0.669678 0.032416
O O2 0.749458 0.575943 0.198167
O O3 0.742395 0.499740 0.540811
O O4 0.850495 0.518004 0.822406
O O5 0.942693 0.247951 0.485162
O O6 0.398073 0.874764 0.410318
O O7 0.905325 0.850151 0.146626
O O8 0.006904 0.977729 0.161844
O O9 0.489056 0.993406 0.758008
O O10 0.175712 0.261077 0.831051
O O11 0.000000 0.000000 0.500000
O O12 0.909835 0.815181 0.696292
O O13 0.420403 0.761606 0.856466
O O14 0.556141 0.712773 0.504037
O O15 0.500578 0.544155 0.813670
O O16 0.000000 0.500000 0.500000
#
# Coordination Sequence:
#
# PCOD9051318 Si02
#       8
#     1   2   2   2   2   2   2   2
#     4  12  22  44  70 100 134 182 248 288 350 414
#     4  11  24  42  73 104 138 186 242 293 350 424
#     4  11  24  45  68 100 137 190 236 291 350 424
#     4  10  25  46  65  97 143 183 235 292 357 416
#     4  11  23  43  72 101 142 183 237 291 352 426
#     4  11  23  44  66  98 147 186 227 292 361 413
#     4  11  21  44  70 103 146 182 230 298 356 418
#     4  11  24  45  70 109 137 189 243 288 355 428
#
# _framework density 26.717869
#
# number of rings (size 3 to 8) (size 9 to 14) (size 15 to 20)
#    0.000    1.067    5.333    2.000    3.733    2.133 
#    4.800    2.667    0.000    0.000    0.000    0.000 
#    0.000    0.000    0.000    0.000    0.000    0.000 
#
# Total GULP energy -83759.887259 kJ/mol
# GULP energy per Si atom -5583.992484 kJ/mol
# Density = 2.665706 g / cm^3
# Si number density = 26.717869 Si / 1000 Ang^3
#
#
#
# Elastic Constant Matrix: (Units=GPa)
#
#
# Indices 1 2 3 4 5 6 
#
# 1 83.8792 29.7308 43.8759 18.8777 6.6183 -34.3811
# 2 29.7308 166.9540 59.7963 46.2628 -7.2910 -8.7141
# 3 43.8759 59.7963 152.0751 42.5959 6.2582 -5.5397
# 4 18.8777 46.2628 42.5959 70.2791 -1.5678 1.1831
# 5 6.6183 -7.2910 6.2582 -1.5678 45.3879 -1.5397
# 6 -34.3811 -8.7141 -5.5397 1.1831 -1.5397 30.1641
#
#
#
# Elastic Compliance Matrix: (Units=1/GPa)
#
#
# Indices 1 2 3 4 5 6 
#
# 1 0.029920 -0.000262 -0.005833 -0.004944 -0.002651 0.033015
# 2 -0.000262 0.008012 -0.001941 -0.004026 0.001518 0.001895
# 3 -0.005833 -0.001941 0.009703 -0.002970 -0.001084 -0.005366
# 4 -0.004944 -0.004026 -0.002970 0.020164 0.000906 -0.008089
# 5 -0.002651 0.001518 -0.001084 0.000906 0.022787 -0.001655
# 6 0.033015 0.001895 -0.005366 -0.008089 -0.001655 0.070577
#
#
# Mechanical properties :
#
#
# Convention : Reuss Voigt Hill
#
# Bulk Modulus (GPa) = 31.68121 74.41271 53.04696
# Shear Modulus (GPa) = 26.63052 47.13323 36.88188
#
# Velocity S-wave (km/s) = 3.16053 4.20469 3.71943
# Velocity P-wave (km/s) = 5.02016 7.17525 6.19218
#
# Compressibility (1/GPa) = 0.03156445
#
# Stress axis : x y z
#
# Youngs Moduli (GPa) = 33.42260 124.81160 103.06304
#
# Poissons Ratio (x) = 0.03264 0.60115
# Poissons Ratio (y) = 0.00874 0.20002
# Poissons Ratio (z) = 0.19495 0.24223
#
# Static dielectric constant tensor:
#      x y z
#    x 2.073860 -0.030770 0.057930 
#    y -0.030770 1.941090 -0.005230 
#    z 0.057930 -0.005230 2.180350 
# 
# From -- ./inp_files/507361.got.cif
#   From: 2010.05.17/outbox.cif.g08.bks.cpg/sg2_254_cif.got.tgz:507361.got - 2010.06.03 11:33:40.
