data_PCOD9051851
_publ_section_title
;
Structure prediction by ZEFSAII (Michael W. Deem and Ramdas Pophale) SiO2 
 PCOD9051851
Probable space group: P -1
;
_chemical_formula_sum "Si O2"
_cell_formula_units_Z 14
_cell_length_a 8.115726
_cell_length_b 13.761478
_cell_length_c 16.917985
_cell_angle_alpha 157.945049
_cell_angle_beta 52.352382
_cell_angle_gamma 124.409385
_cell_volume 561.758060
_symmetry_space_group_name_H-M "P -1"
_symmetry_group_IT_number 2
_symmetry_cell_setting 'triclinic'
loop_
_space_group_symop_operation_xyz
x,y,z
-x,-y,-z
loop_
_atom_site_type_symbol
_atom_site_label
_atom_site_fract_x
_atom_site_fract_y
_atom_site_fract_z
Si Si1 0.260086 0.521568 0.612811
Si Si2 0.355403 0.212798 0.910959
Si Si3 0.671257 0.343127 0.137727
Si Si4 0.239286 0.126740 0.063272
Si Si5 0.759577 0.225949 0.700183
Si Si6 0.861268 0.690798 0.236159
Si Si7 0.012853 0.126990 0.284491
O O1 0.500000 0.500000 0.500000
O O2 0.279360 0.477874 0.667323
O O3 0.092100 0.342345 0.484632
O O4 0.200793 0.819988 0.843232
O O5 0.591024 0.172889 0.779865
O O6 0.287392 0.197405 0.011445
O O7 0.298522 0.503761 0.119498
O O8 0.217890 0.988974 0.739801
O O9 0.452750 0.202603 0.101820
O O10 0.672878 0.517252 0.190938
O O11 0.846168 0.121762 0.920052
O O12 0.073235 0.219728 0.247819
O O13 0.983453 0.262858 0.701580
O O14 0.779729 0.972412 0.447188
O O15 0.000000 0.500000 0.000000
#
# Coordination Sequence:
#
# PCOD9051851 Si02
#       7
#     2   2   2   2   2   2   2
#     4  11  21  39  69 104 141 188 244 291 355 427
#     4  11  24  47  71 109 156 190 232 304 378 434
#     4  11  22  41  72 105 137 188 244 304 350 425
#     4  11  23  40  69 107 147 188 239 297 357 442
#     4  10  25  48  72 102 147 189 244 302 365 434
#     4  11  24  47  77 107 132 190 257 304 355 427
#     4  11  22  43  68 103 151 187 237 293 362 437
#
# _framework density 24.921759000000002
#
# number of rings (size 3 to 8) (size 9 to 14) (size 15 to 20)
#    0.000    1.143    4.286    2.143    2.000    2.857 
#    0.000   13.571    0.000    0.000    0.000    0.000 
#    0.000    0.000    0.000    0.000    0.000    0.000 
#
# Total GULP energy -78256.344317 kJ/mol
# GULP energy per Si atom -5589.738880 kJ/mol
# Density = 2.486504 g / cm^3
# Si number density = 24.921759 Si / 1000 Ang^3
#
#
#
# Elastic Constant Matrix: (Units=GPa)
#
#
# Indices 1 2 3 4 5 6 
#
# 1 66.7451 32.6199 20.2104 12.7705 28.7126 15.7785
# 2 32.6199 139.2979 48.2817 11.3885 22.7419 13.9897
# 3 20.2104 48.2817 151.2203 2.3747 26.1679 -5.2500
# 4 12.7705 11.3885 2.3747 20.3412 4.5540 5.6865
# 5 28.7126 22.7419 26.1679 4.5540 42.6854 2.1511
# 6 15.7785 13.9897 -5.2500 5.6865 2.1511 42.5843
#
#
#
# Elastic Compliance Matrix: (Units=1/GPa)
#
#
# Indices 1 2 3 4 5 6 
#
# 1 0.025963 -0.002047 -0.000348 -0.009873 -0.014758 -0.006927
# 2 -0.002047 0.009190 -0.002406 -0.002614 -0.001658 -0.002124
# 3 -0.000348 -0.002406 0.008115 0.000881 -0.003653 0.001987
# 4 -0.009873 -0.002614 0.000881 0.057241 0.001543 -0.003096
# 5 -0.014758 -0.001658 -0.003653 0.001543 0.036134 0.003531
# 6 -0.006927 -0.002124 0.001987 -0.003096 0.003531 0.027227
#
#
# Mechanical properties :
#
#
# Convention : Reuss Voigt Hill
#
# Bulk Modulus (GPa) = 29.70414 62.16528 45.93471
# Shear Modulus (GPa) = 27.07162 38.19892 32.63527
#
# Velocity S-wave (km/s) = 3.29943 3.91929 3.62264
# Velocity P-wave (km/s) = 5.14391 6.74384 5.99747
#
# Compressibility (1/GPa) = 0.03366534
#
# Stress axis : x y z
#
# Youngs Moduli (GPa) = 38.51590 108.81275 123.22968
#
# Poissons Ratio (x) = 0.22275 0.04288
# Poissons Ratio (y) = 0.07885 0.29654
# Poissons Ratio (z) = 0.01340 0.26185
#
# Static dielectric constant tensor:
#      x y z
#    x 2.007020 -0.048240 0.053780 
#    y -0.048240 1.971880 0.001590 
#    z 0.053780 0.001590 2.184570 
# 
# From -- ./inp_files/340287.got.cif
#   From: 2010.05.17/outbox.cif.g08.bks.cpg/sg2_171_cif.got.tgz:340287.got - 2010.06.03 11:33:40.
