data_PCOD9051718
_publ_section_title
;
Structure prediction by ZEFSAII (Michael W. Deem and Ramdas Pophale) SiO2 
 PCOD9051718
Probable space group: P -1
;
_chemical_formula_sum "Si O2"
_cell_formula_units_Z 14
_cell_length_a 5.028754
_cell_length_b 8.992836
_cell_length_c 21.970212
_cell_angle_alpha 41.040743
_cell_angle_beta 83.994233
_cell_angle_gamma 100.569400
_cell_volume 594.120991
_symmetry_space_group_name_H-M "P -1"
_symmetry_group_IT_number 2
_symmetry_cell_setting 'triclinic'
loop_
_space_group_symop_operation_xyz
x,y,z
-x,-y,-z
loop_
_atom_site_type_symbol
_atom_site_label
_atom_site_fract_x
_atom_site_fract_y
_atom_site_fract_z
Si Si1 0.413750 0.232480 0.436610
Si Si2 0.071498 0.261772 0.087221
Si Si3 0.915350 0.930920 0.624093
Si Si4 0.748952 0.254170 0.608971
Si Si5 0.776603 0.761837 0.043279
Si Si6 0.858086 0.551773 0.842972
Si Si7 0.795142 0.758124 0.306136
O O1 0.232264 0.229789 0.381589
O O2 0.677082 0.494908 0.356771
O O3 0.500000 0.000000 0.500000
O O4 0.195353 0.160114 0.521394
O O5 0.220100 0.342143 0.125114
O O6 0.217834 0.209096 0.039368
O O7 0.822539 0.992354 0.192090
O O8 0.000000 0.500000 0.000000
O O9 0.972034 0.762875 0.724934
O O10 0.705916 0.042175 0.626375
O O11 0.448514 0.269035 0.629028
O O12 0.000000 0.500000 0.500000
O O13 0.899907 0.198909 0.682486
O O14 0.444256 0.667178 0.102477
O O15 0.897512 0.551021 0.118178
O O16 0.000000 0.000000 0.000000
#
# Coordination Sequence:
#
# PCOD9051718 Si02
#       7
#     2   2   2   2   2   2   2
#     4  11  27  46  70 105 149 192 230 299 361 435
#     4  10  25  47  73 104 143 186 242 297 353 414
#     4  11  26  44  70 103 146 186 239 289 364 430
#     4  12  25  45  72 105 140 183 243 293 347 430
#     4  11  26  47  71 106 140 184 238 299 353 422
#     4  11  25  45  73 101 139 188 234 292 360 418
#     4  12  27  45  72 106 140 192 239 294 358 422
#
# _framework density 23.564225
#
# number of rings (size 3 to 8) (size 9 to 14) (size 15 to 20)
#    0.000    0.857    2.857    2.143   12.000    2.286 
#    0.000    0.000    0.000    0.000    0.000    0.000 
#    0.000    0.000    0.000    0.000    0.000    0.000 
#
# Total GULP energy -78316.287415 kJ/mol
# GULP energy per Si atom -5594.020530 kJ/mol
# Density = 2.351059 g / cm^3
# Si number density = 23.564225 Si / 1000 Ang^3
#
#
#
# Elastic Constant Matrix: (Units=GPa)
#
#
# Indices 1 2 3 4 5 6 
#
# 1 65.1953 8.4422 7.8728 3.3704 -0.3402 7.7637
# 2 8.4422 94.3642 54.3300 -8.2086 4.3710 8.8944
# 3 7.8728 54.3300 132.9211 -2.1098 7.5784 18.0262
# 4 3.3704 -8.2086 -2.1098 38.3714 6.1574 1.4712
# 5 -0.3402 4.3710 7.5784 6.1574 30.1043 -2.5272
# 6 7.7637 8.8944 18.0262 1.4712 -2.5272 34.4004
#
#
#
# Elastic Compliance Matrix: (Units=1/GPa)
#
#
# Indices 1 2 3 4 5 6 
#
# 1 0.015970 -0.001263 -0.000054 -0.001627 0.000446 -0.003147
# 2 -0.001263 0.014308 -0.005543 0.003120 -0.001397 -0.000746
# 3 -0.000054 -0.005543 0.010484 -0.000095 -0.002168 -0.004204
# 4 -0.001627 0.003120 -0.000095 0.027962 -0.006339 -0.002051
# 5 0.000446 -0.001397 -0.002168 -0.006339 0.035628 0.004285
# 6 -0.003147 -0.000746 -0.004204 -0.002051 0.004285 0.032578
#
#
# Mechanical properties :
#
#
# Convention : Reuss Voigt Hill
#
# Bulk Modulus (GPa) = 36.98016 48.19673 42.58845
# Shear Modulus (GPa) = 31.31568 35.36426 33.33997
#
# Velocity S-wave (km/s) = 3.64943 3.87817 3.76554
# Velocity P-wave (km/s) = 5.78664 6.36799 6.08426
#
# Compressibility (1/GPa) = 0.02704153
#
# Stress axis : x y z
#
# Youngs Moduli (GPa) = 62.61819 69.89053 95.38000
#
# Poissons Ratio (x) = 0.08828 0.00516
# Poissons Ratio (y) = 0.07910 0.52871
# Poissons Ratio (z) = 0.00339 0.38741
#
# Static dielectric constant tensor:
#      x y z
#    x 1.898220 0.001230 0.016630 
#    y 0.001230 1.929550 -0.003420 
#    z 0.016630 -0.003420 1.900170 
# 
# From -- ./inp_files/55451.got.cif
#   From: 2010.05.17/outbox.cif.g08.bks.cpg/sg2_28_cif.got.tgz:55451.got - 2010.06.03 11:33:40.
