data_PCOD9051660
_publ_section_title
;
Structure prediction by ZEFSAII (Michael W. Deem and Ramdas Pophale) SiO2 
 PCOD9051660
Probable space group: P -1
;
_chemical_formula_sum "Si O2"
_cell_formula_units_Z 14
_cell_length_a 11.278623
_cell_length_b 9.242375
_cell_length_c 13.626910
_cell_angle_alpha 52.158917
_cell_angle_beta 34.720715
_cell_angle_gamma 67.611067
_cell_volume 614.447053
_symmetry_space_group_name_H-M "P -1"
_symmetry_group_IT_number 2
_symmetry_cell_setting 'triclinic'
loop_
_space_group_symop_operation_xyz
x,y,z
-x,-y,-z
loop_
_atom_site_type_symbol
_atom_site_label
_atom_site_fract_x
_atom_site_fract_y
_atom_site_fract_z
Si Si1 0.510279 0.788926 0.608055
Si Si2 0.290932 0.824837 0.213354
Si Si3 0.266066 0.787748 0.468860
Si Si4 0.276831 0.546680 0.157843
Si Si5 0.646727 0.709270 0.340664
Si Si6 0.063247 0.603811 0.083533
Si Si7 0.143286 0.138454 0.486039
O O1 0.627566 0.722321 0.464770
O O2 0.663951 0.805422 0.590434
O O3 0.500000 0.000000 0.500000
O O4 0.265995 0.656634 0.849102
O O5 0.288857 0.739470 0.360096
O O6 0.294012 0.670833 0.192053
O O7 0.095159 0.918587 0.283314
O O8 0.500000 0.000000 0.000000
O O9 0.504769 0.834981 0.335903
O O10 0.092257 0.614251 0.715084
O O11 0.186599 0.976956 0.454562
O O12 0.179218 0.637853 0.096745
O O13 0.133007 0.332688 0.360670
O O14 0.500000 0.500000 0.000000
O O15 0.500000 0.500000 0.500000
O O16 0.892453 0.728355 0.134053
#
# Coordination Sequence:
#
# PCOD9051660 Si02
#       7
#     2   2   2   2   2   2   2
#     4  12  26  47  73 107 140 192 243 297 366 427
#     4  12  28  42  72 110 144 191 241 298 368 429
#     4  11  25  48  69 106 147 192 239 303 362 431
#     4  12  25  45  74 106 144 190 239 298 367 433
#     4  10  25  47  71 104 146 186 247 296 355 433
#     4  11  26  46  79 101 147 194 243 298 367 426
#     4  12  25  46  72 102 149 183 244 298 361 432
#
# _framework density 22.784714000000001
#
# number of rings (size 3 to 8) (size 9 to 14) (size 15 to 20)
#    0.000    0.571    4.286    2.571    6.000    4.000 
#    0.000    0.000    0.000    0.000    0.000    0.000 
#    0.000    0.000    0.000    0.000    0.000    0.000 
#
# Total GULP energy -78234.928031 kJ/mol
# GULP energy per Si atom -5588.209145 kJ/mol
# Density = 2.273286 g / cm^3
# Si number density = 22.784714 Si / 1000 Ang^3
#
#
#
# Elastic Constant Matrix: (Units=GPa)
#
#
# Indices 1 2 3 4 5 6 
#
# 1 78.5933 13.5972 13.8766 19.4760 -14.9551 -15.5067
# 2 13.5972 102.2525 -5.4981 14.6122 -5.4388 4.5184
# 3 13.8766 -5.4981 70.7403 9.2539 -31.7899 -20.9374
# 4 19.4760 14.6122 9.2539 40.2750 -11.2929 -2.6305
# 5 -14.9551 -5.4388 -31.7899 -11.2929 36.1010 11.8073
# 6 -15.5067 4.5184 -20.9374 -2.6305 11.8073 39.2943
#
#
#
# Elastic Compliance Matrix: (Units=1/GPa)
#
#
# Indices 1 2 3 4 5 6 
#
# 1 0.016061 -0.001281 0.000663 -0.006163 0.003343 0.005422
# 2 -0.001281 0.010721 0.002168 -0.003166 0.002510 -0.001549
# 3 0.000663 0.002168 0.025740 -0.000762 0.020578 0.007493
# 4 -0.006163 -0.003166 -0.000762 0.030867 0.006752 -0.002436
# 5 0.003343 0.002510 0.020578 0.006752 0.050597 -0.002756
# 6 0.005422 -0.001549 0.007493 -0.002436 -0.002756 0.032424
#
#
# Mechanical properties :
#
#
# Convention : Reuss Voigt Hill
#
# Bulk Modulus (GPa) = 17.97834 32.83749 25.40792
# Shear Modulus (GPa) = 27.49497 38.44142 32.96819
#
# Velocity S-wave (km/s) = 3.47757 4.11196 3.80800
# Velocity P-wave (km/s) = 4.90228 6.08175 5.52358
#
# Compressibility (1/GPa) = 0.05562248
#
# Stress axis : x y z
#
# Youngs Moduli (GPa) = 62.26091 93.27468 38.85056
#
# Poissons Ratio (x) = 0.11950 -0.02577
# Poissons Ratio (y) = 0.07977 -0.08423
# Poissons Ratio (z) = -0.04129 -0.20224
#
# Static dielectric constant tensor:
#      x y z
#    x 1.779610 -0.107450 -0.049540 
#    y -0.107450 1.778550 0.017580 
#    z -0.049540 0.017580 1.821190 
# 
# From -- ./inp_files/514983.got.cif
#   From: 2010.05.17/outbox.cif.g08.bks.cpg/sg2_258_cif.got.tgz:514983.got - 2010.06.03 11:33:40.
