data_PCOD9051757
_publ_section_title
;
Structure prediction by ZEFSAII (Michael W. Deem and Ramdas Pophale) SiO2 
 PCOD9051757
Probable space group: P -1
;
_chemical_formula_sum "Si O2"
_cell_formula_units_Z 16
_cell_length_a 22.693480
_cell_length_b 11.589618
_cell_length_c 5.491349
_cell_angle_alpha 117.372939
_cell_angle_beta 61.805808
_cell_angle_gamma 147.505561
_cell_volume 678.078166
_symmetry_space_group_name_H-M "P -1"
_symmetry_group_IT_number 2
_symmetry_cell_setting 'triclinic'
loop_
_space_group_symop_operation_xyz
x,y,z
-x,-y,-z
loop_
_atom_site_type_symbol
_atom_site_label
_atom_site_fract_x
_atom_site_fract_y
_atom_site_fract_z
Si Si1 0.563460 0.442730 0.586855
Si Si2 0.566339 0.757296 0.854269
Si Si3 0.235117 0.833569 0.866046
Si Si4 0.763777 0.662960 0.138759
Si Si5 0.956235 0.042057 0.444045
Si Si6 0.187143 0.529332 0.330948
Si Si7 0.953459 0.534769 0.808662
Si Si8 0.178525 0.013850 0.982028
O O1 0.587095 0.634364 0.713332
O O2 0.485608 0.294670 0.358579
O O3 0.675469 0.537936 0.405132
O O4 0.511216 0.332628 0.845580
O O5 0.679104 0.010588 0.932686
O O6 0.248754 0.726091 0.576266
O O7 0.107139 0.629725 0.008291
O O8 0.243834 0.980692 0.838443
O O9 0.890800 0.868259 0.186679
O O10 0.749878 0.506295 0.875276
O O11 0.754740 0.774536 0.091699
O O12 0.858961 0.982358 0.686047
O O13 0.064596 0.298510 0.444470
O O14 0.000000 0.000000 0.500000
O O15 0.149932 0.544400 0.173564
O O16 0.000000 0.500000 0.500000
O O17 0.057384 0.791583 0.892308
#
# Coordination Sequence:
#
# PCOD9051757 Si02
#       8
#     2   2   2   2   2   2   2   2
#     4  10  25  47  75 106 139 178 251 308 359 426
#     4  10  25  48  75 105 138 183 245 312 361 419
#     4  12  27  42  70 101 141 189 230 296 366 419
#     4  12  27  42  71 102 140 189 234 296 363 415
#     4  12  23  41  65 100 144 185 236 281 349 431
#     4  12  25  43  63 102 146 187 228 287 354 445
#     4  12  24  41  64 102 146 184 235 282 349 439
#     4  12  24  40  67 101 140 182 238 286 349 433
#
# _framework density 23.596102999999999
#
# number of rings (size 3 to 8) (size 9 to 14) (size 15 to 20)
#    0.000    0.500    5.000    3.000   10.500    0.000 
#    0.000    1.250    0.000    0.000    0.000    0.000 
#    0.000    0.000    0.000    0.000    0.000    0.000 
#
# Total GULP energy -89556.472127 kJ/mol
# GULP energy per Si atom -5597.279508 kJ/mol
# Density = 2.354240 g / cm^3
# Si number density = 23.596103 Si / 1000 Ang^3
#
#
#
# Elastic Constant Matrix: (Units=GPa)
#
#
# Indices 1 2 3 4 5 6 
#
# 1 64.4691 40.1504 30.5924 14.8105 -5.6272 -12.8117
# 2 40.1504 99.0932 51.4505 22.7883 -6.1256 8.6517
# 3 30.5924 51.4505 136.9254 18.1223 -24.0248 2.7289
# 4 14.8105 22.7883 18.1223 57.4349 8.4329 4.0543
# 5 -5.6272 -6.1256 -24.0248 8.4329 36.2042 7.2866
# 6 -12.8117 8.6517 2.7289 4.0543 7.2866 36.7098
#
#
#
# Elastic Compliance Matrix: (Units=1/GPa)
#
#
# Indices 1 2 3 4 5 6 
#
# 1 0.025414 -0.009668 -0.002043 -0.002792 -0.000758 0.011758
# 2 -0.009668 0.017221 -0.003594 -0.002871 0.001118 -0.007070
# 3 -0.002043 -0.003594 0.010698 -0.002335 0.007081 -0.001809
# 4 -0.002792 -0.002871 -0.002335 0.021134 -0.007184 -0.001032
# 5 -0.000758 0.001118 0.007081 -0.007184 0.035537 -0.007315
# 6 0.011758 -0.007070 -0.001809 -0.001032 -0.007315 0.034711
#
#
# Mechanical properties :
#
#
# Convention : Reuss Voigt Hill
#
# Bulk Modulus (GPa) = 44.00841 60.54157 52.27499
# Shear Modulus (GPa) = 27.33750 37.95608 32.64679
#
# Velocity S-wave (km/s) = 3.40746 4.01505 3.72367
# Velocity P-wave (km/s) = 5.84570 6.87076 6.37885
#
# Compressibility (1/GPa) = 0.02272293
#
# Stress axis : x y z
#
# Youngs Moduli (GPa) = 39.34900 58.06751 93.47827
#
# Poissons Ratio (x) = 0.56138 0.19099
# Poissons Ratio (y) = 0.38041 0.33596
# Poissons Ratio (z) = 0.08040 0.20869
#
# Static dielectric constant tensor:
#      x y z
#    x 1.941060 -0.035650 0.075720 
#    y -0.035650 1.906060 -0.028260 
#    z 0.075720 -0.028260 1.960300 
# 
# From -- ./inp_files/123765.got.cif
#   From: 2010.05.17/outbox.cif.g08.bks.cpg/sg2_62_cif.got.tgz:123765.got - 2010.06.03 11:33:40.
