data_PCOD9051783
_publ_section_title
;
Structure prediction by ZEFSAII (Michael W. Deem and Ramdas Pophale) SiO2 
 PCOD9051783
Probable space group: P -1
;
_chemical_formula_sum "Si O2"
_cell_formula_units_Z 16
_cell_length_a 12.929487
_cell_length_b 4.968899
_cell_length_c 9.280204
_cell_angle_alpha 100.308765
_cell_angle_beta 78.907889
_cell_angle_gamma 106.618047
_cell_volume 555.744471
_symmetry_space_group_name_H-M "P -1"
_symmetry_group_IT_number 2
_symmetry_cell_setting 'triclinic'
loop_
_space_group_symop_operation_xyz
x,y,z
-x,-y,-z
loop_
_atom_site_type_symbol
_atom_site_label
_atom_site_fract_x
_atom_site_fract_y
_atom_site_fract_z
Si Si1 0.714851 0.355732 0.277636
Si Si2 0.324459 0.399869 0.384124
Si Si3 0.041785 0.786448 0.109655
Si Si4 0.061850 0.903065 0.609098
Si Si5 0.445576 0.170743 0.994846
Si Si6 0.782111 0.870229 0.094921
Si Si7 0.469893 0.982470 0.332559
Si Si8 0.859796 0.402960 0.673813
O O1 0.714740 0.523471 0.441046
O O2 0.746475 0.573714 0.158057
O O3 0.788858 0.133360 0.229363
O O4 0.592498 0.165120 0.270841
O O5 0.425738 0.637556 0.311687
O O6 0.225659 0.411184 0.306061
O O7 0.370492 0.131337 0.365197
O O8 0.108220 0.047822 0.018828
O O9 0.980670 0.613429 0.657859
O O10 0.136651 0.743979 0.189261
O O11 0.000000 0.500000 0.000000
O O12 0.050533 0.131064 0.757031
O O13 0.153205 0.808525 0.480249
O O14 0.000000 0.000000 0.500000
O O15 0.539848 0.023025 0.888618
O O16 0.322693 0.122718 0.975855
O O17 0.500000 0.500000 0.000000
O O18 0.500000 0.000000 0.500000
#
# Coordination Sequence:
#
# PCOD9051783 Si02
#       8
#     2   2   2   2   2   2   2   2
#     4  11  24  49  70 110 158 200 250 313 393 453
#     4  12  25  43  79 111 152 197 261 320 373 473
#     4  11  27  51  78 112 153 208 261 328 392 478
#     4   9  22  48  78 105 152 188 256 325 401 461
#     4  11  23  42  70 105 153 202 245 314 384 453
#     4  11  26  47  73 111 153 201 262 311 386 475
#     4  11  24  43  72 113 147 204 254 310 384 456
#     4  10  25  47  76 117 146 200 259 327 401 460
#
# _framework density 28.790209000000001
#
# number of rings (size 3 to 8) (size 9 to 14) (size 15 to 20)
#    0.000    1.250    0.000    5.250    7.000    4.500 
#    4.500    0.000    0.000    0.000    0.000    0.000 
#    0.000    0.000    0.000    0.000    0.000    0.000 
#
# Total GULP energy -89520.380078 kJ/mol
# GULP energy per Si atom -5595.023755 kJ/mol
# Density = 2.872468 g / cm^3
# Si number density = 28.790209 Si / 1000 Ang^3
#
#
#
# Elastic Constant Matrix: (Units=GPa)
#
#
# Indices 1 2 3 4 5 6 
#
# 1 181.7208 65.2085 58.1470 5.0472 -16.5747 -9.4154
# 2 65.2085 157.2315 37.3993 -25.0435 -25.6945 2.8771
# 3 58.1470 37.3993 145.0099 5.4382 -27.5195 -3.2322
# 4 5.0472 -25.0435 5.4382 55.7814 -6.0160 -9.9597
# 5 -16.5747 -25.6945 -27.5195 -6.0160 43.5464 4.6336
# 6 -9.4154 2.8771 -3.2322 -9.9597 4.6336 67.1295
#
#
#
# Elastic Compliance Matrix: (Units=1/GPa)
#
#
# Indices 1 2 3 4 5 6 
#
# 1 0.007274 -0.002873 -0.002218 -0.001652 -0.000645 0.000836
# 2 -0.002873 0.009240 -0.000523 0.004895 0.004750 -0.000426
# 3 -0.002218 -0.000523 0.008756 -0.000461 0.004342 -0.000235
# 4 -0.001652 0.004895 -0.000461 0.021244 0.004651 0.002367
# 5 -0.000645 0.004750 0.004342 0.004651 0.029057 -0.001401
# 6 0.000836 -0.000426 -0.000235 0.002367 -0.001401 0.015469
#
#
# Mechanical properties :
#
#
# Convention : Reuss Voigt Hill
#
# Bulk Modulus (GPa) = 71.20955 89.49688 80.35322
# Shear Modulus (GPa) = 46.75246 54.83863 50.79555
#
# Velocity S-wave (km/s) = 4.03414 4.36910 4.20495
# Velocity P-wave (km/s) = 6.81811 7.52366 7.17956
#
# Compressibility (1/GPa) = 0.01404306
#
# Stress axis : x y z
#
# Youngs Moduli (GPa) = 137.47846 108.22987 114.20429
#
# Poissons Ratio (x) = 0.31096 0.25326
# Poissons Ratio (y) = 0.39499 0.05968
# Poissons Ratio (z) = 0.30487 0.05656
#
# Static dielectric constant tensor:
#      x y z
#    x 2.237710 0.041490 -0.342920 
#    y 0.041490 2.376920 -0.361660 
#    z -0.342920 -0.361660 3.515260 
# 
# From -- ./inp_files/289051.got.cif
#   From: 2010.05.17/outbox.cif.g08.bks.cpg/sg2_145_cif.got.tgz:289051.got - 2010.06.03 11:33:40.
