data_PCOD9051434
_publ_section_title
;
Structure prediction by ZEFSAII (Michael W. Deem and Ramdas Pophale) SiO2 
 PCOD9051434
Probable space group: P -1
;
_chemical_formula_sum "Si O2"
_cell_formula_units_Z 16
_cell_length_a 12.591333
_cell_length_b 11.899286
_cell_length_c 6.491686
_cell_angle_alpha 127.668580
_cell_angle_beta 97.915149
_cell_angle_gamma 92.394737
_cell_volume 752.661512
_symmetry_space_group_name_H-M "P -1"
_symmetry_group_IT_number 2
_symmetry_cell_setting 'triclinic'
loop_
_space_group_symop_operation_xyz
x,y,z
-x,-y,-z
loop_
_atom_site_type_symbol
_atom_site_label
_atom_site_fract_x
_atom_site_fract_y
_atom_site_fract_z
Si Si1 0.206581 0.352677 0.100203
Si Si2 0.031273 0.249556 0.266026
Si Si3 0.088400 0.601818 0.270889
Si Si4 0.095890 0.096008 0.503703
Si Si5 0.522428 0.898059 0.702438
Si Si6 0.838643 0.178556 0.809611
Si Si7 0.392262 0.818668 0.184146
Si Si8 0.548932 0.662347 0.759395
O O1 0.143544 0.306941 0.245505
O O2 0.186123 0.514325 0.237055
O O3 0.331760 0.337812 0.117280
O O4 0.142708 0.244748 0.793830
O O5 0.054228 0.132756 0.309440
O O6 0.976329 0.364524 0.507891
O O7 0.940694 0.200818 0.015061
O O8 0.128006 0.744833 0.311612
O O9 0.000000 0.500000 0.000000
O O10 0.186786 0.993201 0.412793
O O11 0.000000 0.000000 0.500000
O O12 0.425856 0.830060 0.446530
O O13 0.563890 0.765911 0.678309
O O14 0.592613 0.017204 0.711287
O O15 0.500000 0.000000 0.000000
O O16 0.735125 0.240732 0.937112
O O17 0.469429 0.729525 0.973260
O O18 0.500000 0.500000 0.500000
#
# Coordination Sequence:
#
# PCOD9051434 Si02
#       8
#     2   2   2   2   2   2   2   2
#     4  12  28  44  72  99 144 186 228 289 344 410
#     4  12  24  43  72 102 140 181 230 271 361 412
#     4  12  24  47  65 103 142 180 230 284 343 421
#     4  12  24  46  67 110 143 174 230 290 345 415
#     4   9  22  47  70  96 133 179 238 290 343 408
#     4  12  27  41  74 103 141 183 227 286 349 423
#     4  10  25  46  71 101 137 184 232 290 354 404
#     4  11  28  48  68 104 141 185 241 286 340 417
#
# _framework density 21.257895999999999
#
# number of rings (size 3 to 8) (size 9 to 14) (size 15 to 20)
#    0.000    0.750    5.000    0.750   10.500    1.500 
#    0.000    0.000    0.000    0.000    0.000    0.000 
#    0.000    0.000    0.000    0.000    0.000    0.000 
#
# Total GULP energy -89338.673122 kJ/mol
# GULP energy per Si atom -5583.667070 kJ/mol
# Density = 2.120951 g / cm^3
# Si number density = 21.257896 Si / 1000 Ang^3
#
#
#
# Elastic Constant Matrix: (Units=GPa)
#
#
# Indices 1 2 3 4 5 6 
#
# 1 148.8861 36.7215 34.8384 -2.9024 -16.5825 -8.7920
# 2 36.7215 116.3488 34.5950 -6.3532 -3.2652 -28.0355
# 3 34.8384 34.5950 99.4114 1.1900 -12.8161 -3.7873
# 4 -2.9024 -6.3532 1.1900 36.4323 -5.1005 -1.4401
# 5 -16.5825 -3.2652 -12.8161 -5.1005 29.7397 5.8071
# 6 -8.7920 -28.0355 -3.7873 -1.4401 5.8071 24.1113
#
#
#
# Elastic Compliance Matrix: (Units=1/GPa)
#
#
# Indices 1 2 3 4 5 6 
#
# 1 0.008005 -0.002015 -0.001647 0.000848 0.003784 -0.000544
# 2 -0.002015 0.014548 -0.004292 0.002589 -0.004187 0.016669
# 3 -0.001647 -0.004292 0.012579 -0.000804 0.004836 -0.004828
# 4 0.000848 0.002589 -0.000804 0.028789 0.004605 0.003804
# 5 0.003784 -0.004187 0.004836 0.004605 0.040535 -0.012216
# 6 -0.000544 0.016669 -0.004828 0.003804 -0.012216 0.063069
#
#
# Mechanical properties :
#
#
# Convention : Reuss Voigt Hill
#
# Bulk Modulus (GPa) = 52.02074 64.10624 58.06349
# Shear Modulus (GPa) = 26.33788 35.28940 30.81364
#
# Velocity S-wave (km/s) = 3.52372 4.07880 3.81138
# Velocity P-wave (km/s) = 6.40935 7.23907 6.83681
#
# Compressibility (1/GPa) = 0.01922310
#
# Stress axis : x y z
#
# Youngs Moduli (GPa) = 124.92401 68.73989 79.49647
#
# Poissons Ratio (x) = 0.13853 0.13093
# Poissons Ratio (y) = 0.25175 0.34120
# Poissons Ratio (z) = 0.20575 0.29503
#
# Static dielectric constant tensor:
#      x y z
#    x 1.808800 -0.022700 -0.041650 
#    y -0.022700 1.780390 0.020350 
#    z -0.041650 0.020350 1.826950 
# 
# From -- ./inp_files/72336.got.cif
#   From: 2010.05.17/outbox.cif.g08.bks.cpg/sg2_37_cif.got.tgz:72336.got - 2010.06.03 11:33:40.
