data_PCOD9051699
_publ_section_title
;
Structure prediction by ZEFSAII (Michael W. Deem and Ramdas Pophale) SiO2 
 PCOD9051699
Probable space group: P -1
;
_chemical_formula_sum "Si O2"
_cell_formula_units_Z 11
_cell_length_a 11.144304
_cell_length_b 10.161733
_cell_length_c 8.974835
_cell_angle_alpha 44.828134
_cell_angle_beta 65.297726
_cell_angle_gamma 38.827182
_cell_volume 427.896172
_symmetry_space_group_name_H-M "P -1"
_symmetry_group_IT_number 2
_symmetry_cell_setting 'triclinic'
loop_
_space_group_symop_operation_xyz
x,y,z
-x,-y,-z
loop_
_atom_site_type_symbol
_atom_site_label
_atom_site_fract_x
_atom_site_fract_y
_atom_site_fract_z
Si Si1 0.865939 0.067747 0.648094
Si Si2 0.424116 0.966767 0.818026
Si Si3 0.687984 0.506142 0.625583
Si Si4 0.016746 0.670236 0.151635
Si Si5 0.500000 0.500000 0.000000
Si Si6 0.781692 0.767891 0.827030
O O1 0.735550 0.364687 0.555724
O O2 0.742124 0.024340 0.682177
O O3 0.000000 0.000000 0.500000
O O4 0.007748 0.837181 0.893576
O O5 0.623306 0.786902 0.958142
O O6 0.418299 0.181620 0.581684
O O7 0.469284 0.755013 0.849925
O O8 0.209441 0.159932 0.847848
O O9 0.897832 0.331936 0.741102
O O10 0.578707 0.471774 0.813055
O O11 0.164539 0.348950 0.276905
O O12 0.000000 0.500000 0.000000
#
# Coordination Sequence:
#
# PCOD9051699 Si02
#       6
#     2   2   2   2   1   2
#     4  11  25  46  76 114 158 208 254 314 399 466
#     4  12  26  47  78 114 155 201 263 323 390 457
#     4  12  26  49  80 119 151 206 265 325 383 465
#     4  11  24  49  78 112 158 203 261 325 381 459
#     4  12  26  46  76 118 156 200 262 328 386 456
#     4  10  25  47  72 107 156 203 250 317 388 461
#
# _framework density 25.707173000000001
#
# number of rings (size 3 to 8) (size 9 to 14) (size 15 to 20)
#    0.000    0.727    3.636    2.727    0.000    5.091 
#    0.000    0.000    0.000    0.000    0.000    0.000 
#    0.000    0.000    0.000    0.000    0.000    0.000 
#
# Total GULP energy -61352.908275 kJ/mol
# GULP energy per Si atom -5577.537116 kJ/mol
# Density = 2.564866 g / cm^3
# Si number density = 25.707173 Si / 1000 Ang^3
#
#
#
# Elastic Constant Matrix: (Units=GPa)
#
#
# Indices 1 2 3 4 5 6 
#
# 1 127.3328 91.4647 33.3303 -2.7452 -16.4067 43.0908
# 2 91.4647 175.3512 30.1157 10.3140 -15.5065 33.5832
# 3 33.3303 30.1157 75.8462 8.5305 -23.9026 4.3257
# 4 -2.7452 10.3140 8.5305 46.1109 3.1832 -9.3223
# 5 -16.4067 -15.5065 -23.9026 3.1832 27.9730 -14.8518
# 6 43.0908 33.5832 4.3257 -9.3223 -14.8518 57.3623
#
#
#
# Elastic Compliance Matrix: (Units=1/GPa)
#
#
# Indices 1 2 3 4 5 6 
#
# 1 0.016431 -0.006358 -0.005500 0.001879 -0.003473 -0.008800
# 2 -0.006358 0.009500 -0.000261 -0.002718 0.001138 -0.000912
# 3 -0.005500 -0.000261 0.021964 -0.004268 0.019605 0.007011
# 4 0.001879 -0.002718 -0.004268 0.024178 -0.005160 0.003095
# 5 -0.003473 0.001138 0.019605 -0.005160 0.059688 0.015079
# 6 -0.008800 -0.000912 0.007011 0.003095 0.015079 0.028456
#
#
# Mechanical properties :
#
#
# Convention : Reuss Voigt Hill
#
# Bulk Modulus (GPa) = 42.27310 76.48352 59.37831
# Shear Modulus (GPa) = 25.99527 41.19723 33.59625
#
# Velocity S-wave (km/s) = 3.18340 4.00754 3.61900
# Velocity P-wave (km/s) = 5.47648 7.15753 6.37268
#
# Compressibility (1/GPa) = 0.02365570
#
# Stress axis : x y z
#
# Youngs Moduli (GPa) = 60.85900 105.26723 45.52916
#
# Poissons Ratio (x) = 0.66934 0.25041
# Poissons Ratio (y) = 0.38697 0.01190
# Poissons Ratio (z) = 0.33472 0.02750
#
# Static dielectric constant tensor:
#      x y z
#    x 2.154610 -0.110640 0.140470 
#    y -0.110640 2.158010 -0.136640 
#    z 0.140470 -0.136640 2.099190 
# 
# From -- ./inp_files/261263.got.cif
#   From: 2010.05.17/outbox.cif.g08.bks.cpg/sg2_131_cif.got.tgz:261263.got - 2010.06.03 11:33:40.
