data_PCOD9051262
_publ_section_title
;
Structure prediction by ZEFSAII (Michael W. Deem and Ramdas Pophale) SiO2 
 PCOD9051262
Probable space group: P -1
;
_chemical_formula_sum "Si O2"
_cell_formula_units_Z 14
_cell_length_a 9.114779
_cell_length_b 8.153058
_cell_length_c 11.431826
_cell_angle_alpha 106.882515
_cell_angle_beta 125.035575
_cell_angle_gamma 50.250034
_cell_volume 530.822137
_symmetry_space_group_name_H-M "P -1"
_symmetry_group_IT_number 2
_symmetry_cell_setting 'triclinic'
loop_
_space_group_symop_operation_xyz
x,y,z
-x,-y,-z
loop_
_atom_site_type_symbol
_atom_site_label
_atom_site_fract_x
_atom_site_fract_y
_atom_site_fract_z
Si Si1 0.975565 0.830542 0.515889
Si Si2 0.627942 0.206826 0.061965
Si Si3 0.626116 0.950689 0.195058
Si Si4 0.342552 0.439753 0.464615
Si Si5 0.742056 0.049076 0.685168
Si Si6 0.179114 0.297695 0.170559
Si Si7 0.749403 0.344084 0.928296
O O1 0.190767 0.596286 0.532268
O O2 0.767403 0.865862 0.359795
O O3 0.926047 0.889886 0.640313
O O4 0.000000 0.000000 0.500000
O O5 0.495217 0.431063 0.116811
O O6 0.438542 0.199871 0.909095
O O7 0.739322 0.004323 0.158325
O O8 0.774620 0.206944 0.026453
O O9 0.389121 0.184635 0.156229
O O10 0.500000 0.500000 0.500000
O O11 0.509958 0.198848 0.538578
O O12 0.186230 0.455516 0.292919
O O13 0.749285 0.904663 0.758336
O O14 0.762866 0.220161 0.794367
O O15 0.943693 0.375182 0.024760
#
# Coordination Sequence:
#
# PCOD9051262 Si02
#       7
#     2   2   2   2   2   2   2
#     4  12  27  45  77 110 149 196 250 305 378 439
#     4  10  25  45  74 104 151 196 256 305 372 441
#     4  11  24  46  72 110 150 196 251 312 366 442
#     4  12  27  51  77 109 148 200 251 306 374 449
#     4  12  27  47  75 110 156 192 245 311 369 447
#     4  12  26  48  74 110 154 196 251 310 375 436
#     4  11  26  46  75 110 149 200 249 308 376 440
#
# _framework density 26.374182000000001
#
# number of rings (size 3 to 8) (size 9 to 14) (size 15 to 20)
#    0.000    0.571    4.286    1.714    6.000    3.429 
#    0.000    0.000    0.000    0.000    0.000    0.000 
#    0.000    0.000    0.000    0.000    0.000    0.000 
#
# Total GULP energy -78578.425769 kJ/mol
# GULP energy per Si atom -5612.744698 kJ/mol
# Density = 2.631415 g / cm^3
# Si number density = 26.374182 Si / 1000 Ang^3
#
#
#
# Elastic Constant Matrix: (Units=GPa)
#
#
# Indices 1 2 3 4 5 6 
#
# 1 113.7100 23.7830 33.1933 9.0391 -7.1902 -6.9881
# 2 23.7830 103.7428 24.2522 26.1620 -6.7245 -23.6503
# 3 33.1933 24.2522 156.0692 39.2535 15.1007 -13.0715
# 4 9.0391 26.1620 39.2535 50.3822 -2.7623 -11.7138
# 5 -7.1902 -6.7245 15.1007 -2.7623 43.8120 3.2941
# 6 -6.9881 -23.6503 -13.0715 -11.7138 3.2941 54.4800
#
#
#
# Elastic Compliance Matrix: (Units=1/GPa)
#
#
# Indices 1 2 3 4 5 6 
#
# 1 0.009911 -0.001867 -0.002311 0.001116 0.002206 0.000013
# 2 -0.001867 0.012314 0.000001 -0.005088 0.000965 0.003954
# 3 -0.002311 0.000001 0.009016 -0.006671 -0.003958 0.000672
# 4 0.001116 -0.005088 -0.006671 0.028179 0.003313 0.002192
# 5 0.002206 0.000965 -0.003958 0.003313 0.024987 -0.001046
# 6 0.000013 0.003954 0.000672 0.002192 -0.001046 0.020769
#
#
# Mechanical properties :
#
#
# Convention : Reuss Voigt Hill
#
# Bulk Modulus (GPa) = 43.69314 59.55321 51.62317
# Shear Modulus (GPa) = 41.26818 49.22108 45.24463
#
# Velocity S-wave (km/s) = 3.95994 4.32471 4.14634
# Velocity P-wave (km/s) = 6.12461 6.89686 6.52217
#
# Compressibility (1/GPa) = 0.02288689
#
# Stress axis : x y z
#
# Youngs Moduli (GPa) = 100.89837 81.20754 110.91670
#
# Poissons Ratio (x) = 0.15165 0.25629
# Poissons Ratio (y) = 0.18842 -0.00012
# Poissons Ratio (z) = 0.23315 -0.00009
#
# Static dielectric constant tensor:
#      x y z
#    x 1.945340 0.026360 -0.010230 
#    y 0.026360 2.017990 0.022730 
#    z -0.010230 0.022730 2.032690 
# 
# From -- ./inp_files/383014.got.cif
#   From: 2010.05.17/outbox.cif.g08.bks.cpg/sg2_192_cif.got.tgz:383014.got - 2010.06.03 11:33:40.
