data_PCOD9051518
_publ_section_title
;
Structure prediction by ZEFSAII (Michael W. Deem and Ramdas Pophale) SiO2 
 PCOD9051518
Probable space group: P -1
;
_chemical_formula_sum "Si O2"
_cell_formula_units_Z 11
_cell_length_a 5.324542
_cell_length_b 17.918477
_cell_length_c 5.609532
_cell_angle_alpha 109.835785
_cell_angle_beta 91.489567
_cell_angle_gamma 62.223744
_cell_volume 439.780080
_symmetry_space_group_name_H-M "P -1"
_symmetry_group_IT_number 2
_symmetry_cell_setting 'triclinic'
loop_
_space_group_symop_operation_xyz
x,y,z
-x,-y,-z
loop_
_atom_site_type_symbol
_atom_site_label
_atom_site_fract_x
_atom_site_fract_y
_atom_site_fract_z
Si Si1 0.755061 0.493031 0.835447
Si Si2 0.490444 0.180573 0.686922
Si Si3 0.913904 0.707761 0.584723
Si Si4 0.357084 0.051701 0.810800
Si Si5 0.000000 0.000000 0.500000
Si Si6 0.442736 0.689527 0.845743
O O1 0.608958 0.580859 0.759064
O O2 0.898236 0.395509 0.611244
O O3 0.500000 0.500000 0.000000
O O4 0.000000 0.500000 0.000000
O O5 0.210102 0.221733 0.558001
O O6 0.413056 0.135309 0.860492
O O7 0.548045 0.261488 0.856887
O O8 0.762116 0.096917 0.477200
O O9 0.632637 0.712222 0.697414
O O10 0.124841 0.723116 0.779486
O O11 0.500000 0.000000 0.500000
O O12 0.049115 0.059800 0.777920
O O13 0.500000 0.000000 0.000000
#
# Coordination Sequence:
#
# PCOD9051518 Si02
#       6
#     2   2   2   2   1   2
#     4  12  24  48  80 112 161 205 254 320 396 475
#     4  11  28  46  75 109 153 201 270 327 400 472
#     4  12  28  48  77 115 157 203 265 318 401 473
#     4  10  25  46  73 107 146 201 262 336 404 477
#     4  10  26  48  76 104 154 200 270 334 406 468
#     4  12  28  47  80 112 158 208 258 326 395 480
#
# _framework density 25.012502000000001
#
# number of rings (size 3 to 8) (size 9 to 14) (size 15 to 20)
#    0.000    0.727    1.818    3.273   10.182    2.909 
#    0.000    0.000    0.000    0.000    0.000    0.000 
#    0.000    0.000    0.000    0.000    0.000    0.000 
#
# Total GULP energy -61313.290091 kJ/mol
# GULP energy per Si atom -5573.935463 kJ/mol
# Density = 2.495557 g / cm^3
# Si number density = 25.012502 Si / 1000 Ang^3
#
#
#
# Elastic Constant Matrix: (Units=GPa)
#
#
# Indices 1 2 3 4 5 6 
#
# 1 130.4026 28.3085 34.2087 -18.6676 25.8854 -6.0228
# 2 28.3085 153.4984 26.5644 -13.9153 7.6201 -18.3932
# 3 34.2087 26.5644 68.9854 -0.2268 17.0836 -12.5997
# 4 -18.6676 -13.9153 -0.2268 65.5399 -14.5614 -3.1878
# 5 25.8854 7.6201 17.0836 -14.5614 54.8449 -10.3650
# 6 -6.0228 -18.3932 -12.5997 -3.1878 -10.3650 42.3514
#
#
#
# Elastic Compliance Matrix: (Units=1/GPa)
#
#
# Indices 1 2 3 4 5 6 
#
# 1 0.009685 -0.000889 -0.003874 0.001882 -0.002878 -0.000724
# 2 -0.000889 0.007502 -0.002179 0.001705 0.001051 0.002869
# 3 -0.003874 -0.002179 0.018715 -0.002180 -0.003711 0.002999
# 4 0.001882 0.001705 -0.002180 0.017326 0.004685 0.002810
# 5 -0.002878 0.001051 -0.003711 0.004685 0.022765 0.004867
# 6 -0.000724 0.002869 0.002999 0.002810 0.004867 0.027050
#
#
# Mechanical properties :
#
#
# Convention : Reuss Voigt Hill
#
# Bulk Modulus (GPa) = 45.41413 59.00549 52.20981
# Shear Modulus (GPa) = 40.23660 50.13422 45.18541
#
# Velocity S-wave (km/s) = 4.01516 4.48187 4.25492
# Velocity P-wave (km/s) = 6.30011 7.10102 6.71252
#
# Compressibility (1/GPa) = 0.02201958
#
# Stress axis : x y z
#
# Youngs Moduli (GPa) = 103.25263 133.29969 53.43326
#
# Poissons Ratio (x) = 0.11851 0.20698
# Poissons Ratio (y) = 0.09180 0.11641
# Poissons Ratio (z) = 0.39995 0.29040
#
# Static dielectric constant tensor:
#      x y z
#    x 2.100390 0.171820 -0.122080 
#    y 0.171820 2.280920 -0.118940 
#    z -0.122080 -0.118940 2.134550 
# 
# From -- ./inp_files/4231.got.cif
#   From: 2010.05.17/outbox.cif.g08.bks.cpg/sg2_3_cif.got.tgz:4231.got - 2010.06.03 11:33:40.
