data_PCOD9051234
_publ_section_title
;
Structure prediction by ZEFSAII (Michael W. Deem and Ramdas Pophale) SiO2 
 PCOD9051234
Probable space group: P -1
;
_chemical_formula_sum "Si O2"
_cell_formula_units_Z 10
_cell_length_a 9.256244
_cell_length_b 10.553684
_cell_length_c 4.848769
_cell_angle_alpha 99.665636
_cell_angle_beta 65.019201
_cell_angle_gamma 71.554253
_cell_volume 381.432595
_symmetry_space_group_name_H-M "P -1"
_symmetry_group_IT_number 2
_symmetry_cell_setting 'triclinic'
loop_
_space_group_symop_operation_xyz
x,y,z
-x,-y,-z
loop_
_atom_site_type_symbol
_atom_site_label
_atom_site_fract_x
_atom_site_fract_y
_atom_site_fract_z
Si Si1 0.822993 0.836389 0.678704
Si Si2 0.686339 0.452362 0.182364
Si Si3 0.207516 0.432195 0.366222
Si Si4 0.130851 0.835293 0.775720
Si Si5 0.352085 0.977158 0.444227
O O1 0.011099 0.796813 0.641633
O O2 0.733653 0.734732 0.790559
O O3 0.677269 0.002655 0.860587
O O4 0.815915 0.860877 0.359391
O O5 0.500000 0.500000 0.500000
O O6 0.773554 0.535621 0.321384
O O7 0.794848 0.284879 0.095803
O O8 0.693766 0.500722 0.883529
O O9 0.000000 0.500000 0.500000
O O10 0.300971 0.852436 0.522662
O O11 0.500000 0.000000 0.500000
O O12 0.000000 0.000000 0.000000
#
# Coordination Sequence:
#
# PCOD9051234 Si02
#       5
#     2   2   2   2   2
#     4  11  24  44  70 100 139 186 240 288 354 429
#     4  12  28  48  72 111 147 189 237 306 362 420
#     4  12  26  46  77 101 146 191 245 293 357 437
#     4  10  25  45  73 101 144 188 242 287 357 431
#     4  11  25  44  69 103 138 185 234 300 356 420
#
# _framework density 26.216951999999999
#
# number of rings (size 3 to 8) (size 9 to 14) (size 15 to 20)
#    0.000    0.800    2.000    3.600   11.200    3.200 
#    0.000    0.000    0.000    0.000    0.000    0.000 
#    0.000    0.000    0.000    0.000    0.000    0.000 
#
# Total GULP energy -55673.744324 kJ/mol
# GULP energy per Si atom -5567.374432 kJ/mol
# Density = 2.615728 g / cm^3
# Si number density = 26.216952 Si / 1000 Ang^3
#
#
#
# Elastic Constant Matrix: (Units=GPa)
#
#
# Indices 1 2 3 4 5 6 
#
# 1 102.5962 11.6995 18.9362 -14.6914 -14.3321 4.4075
# 2 11.6995 123.8755 45.1996 -43.5754 1.9895 2.5510
# 3 18.9362 45.1996 114.6430 -29.1907 -4.2638 -3.8841
# 4 -14.6914 -43.5754 -29.1907 57.7481 1.8160 -7.5578
# 5 -14.3321 1.9895 -4.2638 1.8160 33.9388 -0.2962
# 6 4.4075 2.5510 -3.8841 -7.5578 -0.2962 32.9291
#
#
#
# Elastic Compliance Matrix: (Units=1/GPa)
#
#
# Indices 1 2 3 4 5 6 
#
# 1 0.010892 0.000034 -0.001205 0.001904 0.004335 -0.001127
# 2 0.000034 0.011757 -0.002741 0.007604 -0.001422 0.000494
# 3 -0.001205 -0.002741 0.011006 0.003486 0.000870 0.002480
# 4 0.001904 0.007604 0.003486 0.026043 -0.000549 0.005540
# 5 0.004335 -0.001422 0.000870 -0.000549 0.031515 -0.000210
# 6 -0.001127 0.000494 0.002480 0.005540 -0.000210 0.032043
#
#
# Mechanical properties :
#
#
# Convention : Reuss Voigt Hill
#
# Bulk Modulus (GPa) = 38.71099 54.75391 46.73245
# Shear Modulus (GPa) = 35.79335 42.60848 39.20092
#
# Velocity S-wave (km/s) = 3.69897 4.03578 3.87104
# Velocity P-wave (km/s) = 5.74812 6.53047 6.15174
#
# Compressibility (1/GPa) = 0.02583246
#
# Stress axis : x y z
#
# Youngs Moduli (GPa) = 91.81079 85.05516 90.85657
#
# Poissons Ratio (x) = -0.00291 0.10946
# Poissons Ratio (y) = -0.00315 0.24904
# Poissons Ratio (z) = 0.11061 0.23314
#
# Static dielectric constant tensor:
#      x y z
#    x 2.084490 0.065970 -0.124660 
#    y 0.065970 2.154590 0.109790 
#    z -0.124660 0.109790 2.205810 
# 
# From -- ./inp_files/22940.got.cif
#   From: 2010.05.17/outbox.cif.g08.bks.cpg/sg2_12_cif.got.tgz:22940.got - 2010.06.03 11:33:40.
