data_PCOD9051488
_publ_section_title
;
Structure prediction by ZEFSAII (Michael W. Deem and Ramdas Pophale) SiO2 
 PCOD9051488
Probable space group: P -1
;
_chemical_formula_sum "Si O2"
_cell_formula_units_Z 12
_cell_length_a 7.190067
_cell_length_b 14.087970
_cell_length_c 7.801308
_cell_angle_alpha 88.980409
_cell_angle_beta 76.971222
_cell_angle_gamma 140.268132
_cell_volume 468.342659
_symmetry_space_group_name_H-M "P -1"
_symmetry_group_IT_number 2
_symmetry_cell_setting 'triclinic'
loop_
_space_group_symop_operation_xyz
x,y,z
-x,-y,-z
loop_
_atom_site_type_symbol
_atom_site_label
_atom_site_fract_x
_atom_site_fract_y
_atom_site_fract_z
Si Si1 0.136456 0.827201 0.073065
Si Si2 0.771224 0.659111 0.821355
Si Si3 0.767201 0.310460 0.393043
Si Si4 0.281501 0.169413 0.786815
Si Si5 0.876978 0.398142 0.858682
Si Si6 0.216611 0.126429 0.295982
O O1 0.089119 0.700426 0.140912
O O2 0.029116 0.792667 0.901211
O O3 0.500000 0.000000 0.000000
O O4 0.981067 0.982438 0.827024
O O5 0.711789 0.732384 0.725519
O O6 0.947949 0.650872 0.669132
O O7 0.500000 0.500000 0.000000
O O8 0.533622 0.222040 0.602828
O O9 0.914397 0.471937 0.334342
O O10 0.546244 0.206684 0.272903
O O11 0.515092 0.278824 0.895202
O O12 0.109229 0.200822 0.778075
O O13 0.000000 0.500000 0.000000
O O14 0.000000 0.000000 0.500000
#
# Coordination Sequence:
#
# PCOD9051488 Si02
#       6
#     2   2   2   2   2   2
#     4  12  27  44  73 112 147 193 254 313 379 452
#     4  12  25  43  76 110 148 198 253 309 380 449
#     4  11  25  47  73 108 151 196 252 311 378 455
#     4  11  27  45  72 108 151 198 250 315 377 449
#     4  12  26  46  74 108 151 199 249 312 381 449
#     4  10  25  46  72 107 153 200 245 309 388 450
#
# _framework density 25.622264999999999
#
# number of rings (size 3 to 8) (size 9 to 14) (size 15 to 20)
#    0.000    0.667    1.667    4.500    2.333    7.333 
#    0.000    0.000    0.000    0.000    0.000    0.000 
#    0.000    0.000    0.000    0.000    0.000    0.000 
#
# Total GULP energy -67065.702943 kJ/mol
# GULP energy per Si atom -5588.808579 kJ/mol
# Density = 2.556395 g / cm^3
# Si number density = 25.622265 Si / 1000 Ang^3
#
#
#
# Elastic Constant Matrix: (Units=GPa)
#
#
# Indices 1 2 3 4 5 6 
#
# 1 203.6466 48.9494 33.2480 -11.9387 0.2135 -14.9296
# 2 48.9494 174.6333 38.8041 1.3125 7.7114 17.5488
# 3 33.2480 38.8041 63.5242 -4.1779 -8.6738 2.4309
# 4 -11.9387 1.3125 -4.1779 46.7848 2.1070 6.8028
# 5 0.2135 7.7114 -8.6738 2.1070 46.1576 -8.3429
# 6 -14.9296 17.5488 2.4309 6.8028 -8.3429 58.0976
#
#
#
# Elastic Compliance Matrix: (Units=1/GPa)
#
#
# Indices 1 2 3 4 5 6 
#
# 1 0.005789 -0.001330 -0.002211 0.001042 0.000070 0.001870
# 2 -0.001330 0.007389 -0.004077 -0.000406 -0.002466 -0.002710
# 3 -0.002211 -0.004077 0.020059 0.001091 0.004472 0.000339
# 4 0.001042 -0.000406 0.001091 0.022154 -0.001181 -0.002419
# 5 0.000070 -0.002466 0.004472 -0.001181 0.023715 0.004120
# 6 0.001870 -0.002710 0.000339 -0.002419 0.004120 0.019372
#
#
# Mechanical properties :
#
#
# Convention : Reuss Voigt Hill
#
# Bulk Modulus (GPa) = 55.55223 75.97858 65.76541
# Shear Modulus (GPa) = 41.76523 51.59486 46.68005
#
# Velocity S-wave (km/s) = 4.04175 4.49226 4.27295
# Velocity P-wave (km/s) = 6.59616 7.52496 7.07581
#
# Compressibility (1/GPa) = 0.01800108
#
# Stress axis : x y z
#
# Youngs Moduli (GPa) = 172.73230 135.32887 49.85245
#
# Poissons Ratio (x) = 0.18004 0.11021
# Poissons Ratio (y) = 0.22980 0.20326
# Poissons Ratio (z) = 0.38188 0.55177
#
# Static dielectric constant tensor:
#      x y z
#    x 2.040870 0.006860 0.006700 
#    y 0.006860 2.048980 0.078750 
#    z 0.006700 0.078750 2.189740 
# 
# From -- ./inp_files/212516.got.cif
#   From: 2010.05.17/outbox.cif.g08.bks.cpg/sg2_107_cif.got.tgz:212516.got - 2010.06.03 11:33:40.
