data_PCOD9051109
_publ_section_title
;
Structure prediction by ZEFSAII (Michael W. Deem and Ramdas Pophale) SiO2 
 PCOD9051109
Probable space group: P -1
;
_chemical_formula_sum "Si O2"
_cell_formula_units_Z 16
_cell_length_a 8.972475
_cell_length_b 11.772680
_cell_length_c 8.510662
_cell_angle_alpha 112.061299
_cell_angle_beta 77.363631
_cell_angle_gamma 114.736107
_cell_volume 754.684929
_symmetry_space_group_name_H-M "P -1"
_symmetry_group_IT_number 2
_symmetry_cell_setting 'triclinic'
loop_
_space_group_symop_operation_xyz
x,y,z
-x,-y,-z
loop_
_atom_site_type_symbol
_atom_site_label
_atom_site_fract_x
_atom_site_fract_y
_atom_site_fract_z
Si Si1 0.005026 0.469808 0.167841
Si Si2 0.937531 0.850616 0.742227
Si Si3 0.310138 0.386737 0.140468
Si Si4 0.195440 0.936001 0.187523
Si Si5 0.530926 0.892444 0.548381
Si Si6 0.047495 0.280176 0.652479
Si Si7 0.598103 0.653167 0.248313
Si Si8 0.760920 0.192301 0.181901
O O1 0.165466 0.437600 0.150712
O O2 0.005533 0.599804 0.323566
O O3 0.847201 0.344284 0.189756
O O4 0.000000 0.500000 0.000000
O O5 0.774769 0.736529 0.789962
O O6 0.960364 0.813992 0.539528
O O7 0.093862 0.847011 0.797787
O O8 0.913568 0.988165 0.821459
O O9 0.456060 0.511821 0.243676
O O10 0.376292 0.342391 0.943677
O O11 0.074049 0.803550 0.228354
O O12 0.310999 0.030518 0.341003
O O13 0.294178 0.895153 0.007877
O O14 0.555286 0.775708 0.383168
O O15 0.379668 0.832013 0.671282
O O16 0.500000 0.000000 0.500000
O O17 0.231347 0.336744 0.706842
#
# Coordination Sequence:
#
# PCOD9051109 Si02
#       8
#     2   2   2   2   2   2   2   2
#     4  11  22  45  73 100 133 177 229 283 337 406
#     4  11  25  43  72 100 133 176 231 284 336 409
#     4  10  25  45  70 101 131 183 221 285 340 399
#     4  12  25  47  70  98 139 181 229 277 347 404
#     4  12  29  45  68 103 141 183 225 287 337 406
#     4  12  24  43  72  99 133 181 227 281 340 403
#     4  11  25  46  65  98 137 175 231 269 347 400
#     4  11  26  45  70 103 135 183 228 278 345 404
#
# _framework density 21.200901999999999
#
# number of rings (size 3 to 8) (size 9 to 14) (size 15 to 20)
#    0.000    0.750    3.750    2.625    8.750    2.500 
#    0.000    0.000    0.000    0.000    0.000    0.000 
#    0.000    0.000    0.000    0.000    0.000    0.000 
#
# Total GULP energy -89585.840461 kJ/mol
# GULP energy per Si atom -5599.115029 kJ/mol
# Density = 2.115265 g / cm^3
# Si number density = 21.200902 Si / 1000 Ang^3
#
#
#
# Elastic Constant Matrix: (Units=GPa)
#
#
# Indices 1 2 3 4 5 6 
#
# 1 98.9215 103.6849 7.5842 -9.1031 -15.4925 37.2953
# 2 103.6849 186.8718 14.1937 -15.2590 -30.4055 33.9138
# 3 7.5842 14.1937 123.9987 21.9947 -20.7144 -13.0683
# 4 -9.1031 -15.2590 21.9947 42.2517 0.1583 -10.8781
# 5 -15.4925 -30.4055 -20.7144 0.1583 40.4357 -1.0366
# 6 37.2953 33.9138 -13.0683 -10.8781 -1.0366 53.6020
#
#
#
# Elastic Compliance Matrix: (Units=1/GPa)
#
#
# Indices 1 2 3 4 5 6 
#
# 1 0.029549 -0.014259 -0.001296 -0.001225 -0.000370 -0.012110
# 2 -0.014259 0.013997 -0.000159 0.002465 0.005012 0.001624
# 3 -0.001296 -0.000159 0.010082 -0.004947 0.004633 0.002546
# 4 -0.001225 0.002465 -0.004947 0.027829 -0.001164 0.003712
# 5 -0.000370 0.005012 0.004633 -0.001164 0.030699 -0.001427
# 6 -0.012110 0.001624 0.002546 0.003712 -0.001427 0.027401
#
#
# Mechanical properties :
#
#
# Convention : Reuss Voigt Hill
#
# Bulk Modulus (GPa) = 45.04495 73.41306 59.22901
# Shear Modulus (GPa) = 28.02912 46.21316 37.12114
#
# Velocity S-wave (km/s) = 3.63998 4.67387 4.18894
# Velocity P-wave (km/s) = 6.24169 7.98932 7.16896
#
# Compressibility (1/GPa) = 0.02220004
#
# Stress axis : x y z
#
# Youngs Moduli (GPa) = 33.84170 71.44256 99.18861
#
# Poissons Ratio (x) = 1.01873 0.12854
# Poissons Ratio (y) = 0.48257 0.01575
# Poissons Ratio (z) = 0.04386 0.01134
#
# Static dielectric constant tensor:
#      x y z
#    x 1.747470 -0.002770 0.006630 
#    y -0.002770 1.734680 0.003140 
#    z 0.006630 0.003140 1.765070 
# 
# From -- ./inp_files/189896.got.cif
#   From: 2010.05.17/outbox.cif.g08.bks.cpg/sg2_95_cif.got.tgz:189896.got - 2010.06.03 11:33:40.
