data_PCOD9051968
_publ_section_title
;
Structure prediction by ZEFSAII (Michael W. Deem and Ramdas Pophale) SiO2 
 PCOD9051968
Probable space group: P -1
;
_chemical_formula_sum "Si O2"
_cell_formula_units_Z 15
_cell_length_a 7.976532
_cell_length_b 13.364917
_cell_length_c 9.351636
_cell_angle_alpha 43.434167
_cell_angle_beta 71.798109
_cell_angle_gamma 68.936477
_cell_volume 637.563102
_symmetry_space_group_name_H-M "P -1"
_symmetry_group_IT_number 2
_symmetry_cell_setting 'triclinic'
loop_
_space_group_symop_operation_xyz
x,y,z
-x,-y,-z
loop_
_atom_site_type_symbol
_atom_site_label
_atom_site_fract_x
_atom_site_fract_y
_atom_site_fract_z
Si Si1 0.682425 0.560820 0.410290
Si Si2 0.516996 0.141939 0.444169
Si Si3 0.553343 0.138047 0.761673
Si Si4 0.030774 0.492022 0.832885
Si Si5 0.823323 0.252976 0.093255
Si Si6 0.853088 0.237968 0.777747
Si Si7 0.111330 0.184126 0.542674
Si Si8 0.000000 0.000000 0.500000
O O1 0.500000 0.500000 0.500000
O O2 0.611297 0.718631 0.340354
O O3 0.782904 0.589262 0.206818
O O4 0.812530 0.420186 0.597022
O O5 0.608194 0.100961 0.618957
O O6 0.634318 0.242196 0.227834
O O7 0.310940 0.212809 0.451772
O O8 0.500000 0.000000 0.500000
O O9 0.713221 0.184398 0.762223
O O10 0.500000 0.000000 0.000000
O O11 0.019567 0.661520 0.618194
O O12 0.000000 0.500000 0.000000
O O13 0.873183 0.413556 0.901024
O O14 0.971080 0.161122 0.257185
O O15 0.825775 0.193192 0.993626
O O16 0.047900 0.160180 0.745240
O O17 0.083056 0.066594 0.553151
#
# Coordination Sequence:
#
# PCOD9051968 Si02
#       8
#     2   2   2   2   2   2   2   1
#     4   9  23  45  73 102 145 189 244 296 351 441
#     4  12  27  48  71 109 146 190 247 304 368 435
#     4  11  25  46  76 106 146 191 243 302 363 430
#     4  11  25  44  73 110 143 193 244 300 376 426
#     4  12  27  46  73 108 146 188 244 305 368 441
#     4  10  25  49  71 104 144 192 245 293 371 437
#     4  11  26  47  75 104 146 191 244 303 362 442
#     4  12  24  48  74 102 148 190 236 302 364 440
#
# _framework density 23.527085
#
# number of rings (size 3 to 8) (size 9 to 14) (size 15 to 20)
#    0.000    1.067    2.667    1.600    7.467    7.467 
#    0.000    0.000    0.000    0.000    0.000    0.000 
#    0.000    0.000    0.000    0.000    0.000    0.000 
#
# Total GULP energy -83551.478584 kJ/mol
# GULP energy per Si atom -5570.098572 kJ/mol
# Density = 2.347354 g / cm^3
# Si number density = 23.527085 Si / 1000 Ang^3
#
#
#
# Elastic Constant Matrix: (Units=GPa)
#
#
# Indices 1 2 3 4 5 6 
#
# 1 88.5456 51.4479 37.5071 29.7712 -29.0544 13.0068
# 2 51.4479 123.9114 60.1838 21.1638 -11.2028 21.3291
# 3 37.5071 60.1838 119.2023 29.8653 -19.1158 9.5366
# 4 29.7712 21.1638 29.8653 63.3401 1.8863 -1.2505
# 5 -29.0544 -11.2028 -19.1158 1.8863 51.9735 4.9642
# 6 13.0068 21.3291 9.5366 -1.2505 4.9642 41.3510
#
#
#
# Elastic Compliance Matrix: (Units=1/GPa)
#
#
# Indices 1 2 3 4 5 6 
#
# 1 0.022647 -0.005984 0.000774 -0.009503 0.012574 -0.006012
# 2 -0.005984 0.013318 -0.005068 0.000742 -0.002026 -0.003553
# 3 0.000774 -0.005068 0.012696 -0.004809 0.004301 -0.001219
# 4 -0.009503 0.000742 -0.004809 0.022626 -0.008257 0.005391
# 5 0.012574 -0.002026 0.004301 -0.008257 0.028437 -0.007566
# 6 -0.006012 -0.003553 -0.001219 0.005391 -0.007566 0.029259
#
#
# Mechanical properties :
#
#
# Convention : Reuss Voigt Hill
#
# Bulk Modulus (GPa) = 35.58070 69.99300 52.78685
# Shear Modulus (GPa) = 31.46460 43.50096 37.48278
#
# Velocity S-wave (km/s) = 3.66099 4.30463 3.99579
# Velocity P-wave (km/s) = 5.74687 7.38384 6.61618
#
# Compressibility (1/GPa) = 0.02810513
#
# Stress axis : x y z
#
# Youngs Moduli (GPa) = 44.15580 75.08731 78.76219
#
# Poissons Ratio (x) = 0.44932 -0.06094
# Poissons Ratio (y) = 0.26423 0.39915
# Poissons Ratio (z) = -0.03416 0.38053
#
# Static dielectric constant tensor:
#      x y z
#    x 1.949160 -0.035880 -0.006810 
#    y -0.035880 1.929670 0.061250 
#    z -0.006810 0.061250 1.893220 
# 
# From -- ./inp_files/174060.got.cif
#   From: 2010.05.17/outbox.cif.g08.bks.cpg/sg2_88_cif.got.tgz:174060.got - 2010.06.03 11:33:40.
