data_PCOD9051471
_publ_section_title
;
Structure prediction by ZEFSAII (Michael W. Deem and Ramdas Pophale) SiO2 
 PCOD9051471
Probable space group: P -1
;
_chemical_formula_sum "Si O2"
_cell_formula_units_Z 16
_cell_length_a 19.940414
_cell_length_b 16.988949
_cell_length_c 11.776119
_cell_angle_alpha 157.792934
_cell_angle_beta 43.421868
_cell_angle_gamma 149.335720
_cell_volume 716.405561
_symmetry_space_group_name_H-M "P -1"
_symmetry_group_IT_number 2
_symmetry_cell_setting 'triclinic'
loop_
_space_group_symop_operation_xyz
x,y,z
-x,-y,-z
loop_
_atom_site_type_symbol
_atom_site_label
_atom_site_fract_x
_atom_site_fract_y
_atom_site_fract_z
Si Si1 0.841555 0.771213 0.439560
Si Si2 0.265073 0.091584 0.539519
Si Si3 0.112274 0.495620 0.332780
Si Si4 0.305387 0.790926 0.273688
Si Si5 0.969957 0.828248 0.577560
Si Si6 0.356283 0.173008 0.281775
Si Si7 0.582427 0.416280 0.815250
Si Si8 0.244529 0.606761 0.553700
O O1 0.854219 0.677855 0.420371
O O2 0.778112 0.904107 0.705182
O O3 0.737617 0.492052 0.108712
O O4 0.000000 0.000000 0.500000
O O5 0.337848 0.155186 0.416080
O O6 0.284112 0.930926 0.388749
O O7 0.333504 0.400159 0.928648
O O8 0.099375 0.884942 0.453173
O O9 0.199245 0.671946 0.347647
O O10 0.212667 0.638114 0.508787
O O11 0.000000 0.500000 0.500000
O O12 0.033305 0.153481 0.958501
O O13 0.463489 0.055168 0.479897
O O14 0.896884 0.629099 0.513889
O O15 0.500000 0.500000 0.500000
O O16 0.345516 0.921415 0.914756
O O17 0.687601 0.514012 0.715259
O O18 0.500000 0.500000 0.000000
#
# Coordination Sequence:
#
# PCOD9051471 Si02
#       8
#     2   2   2   2   2   2   2   2
#     4  12  24  45  69 104 144 186 243 296 360 425
#     4  11  24  47  74 105 141 197 238 296 364 440
#     4  12  25  40  67 106 143 179 233 300 357 416
#     4  11  25  44  72 100 142 191 241 288 358 435
#     4  12  25  44  74 103 148 185 246 297 366 431
#     4  12  28  48  73 107 149 191 248 301 361 435
#     4  10  25  46  72 102 141 188 240 292 364 434
#     4  12  27  44  73 109 141 190 241 302 360 426
#
# _framework density 22.333717
#
# number of rings (size 3 to 8) (size 9 to 14) (size 15 to 20)
#    0.000    0.500    3.750    3.375    7.000    3.500 
#    0.000    4.375    0.000    0.000    0.000    0.000 
#    0.000    0.000    0.000    0.000    0.000    0.000 
#
# Total GULP energy -89578.489956 kJ/mol
# GULP energy per Si atom -5598.655622 kJ/mol
# Density = 2.228288 g / cm^3
# Si number density = 22.333717 Si / 1000 Ang^3
#
#
#
# Elastic Constant Matrix: (Units=GPa)
#
#
# Indices 1 2 3 4 5 6 
#
# 1 87.1807 32.0342 12.1243 -10.9904 8.7391 -16.7557
# 2 32.0342 126.1725 39.6672 -12.4158 7.2871 -23.4373
# 3 12.1243 39.6672 94.4522 -9.6807 21.9096 -14.1728
# 4 -10.9904 -12.4158 -9.6807 39.9458 1.1473 2.1453
# 5 8.7391 7.2871 21.9096 1.1473 34.5937 -7.3049
# 6 -16.7557 -23.4373 -14.1728 2.1453 -7.3049 41.5518
#
#
#
# Elastic Compliance Matrix: (Units=1/GPa)
#
#
# Indices 1 2 3 4 5 6 
#
# 1 0.013676 -0.002591 0.000839 0.003042 -0.002761 0.003698
# 2 -0.002591 0.010512 -0.003728 0.001401 0.001560 0.003815
# 3 0.000839 -0.003728 0.014504 0.002743 -0.008372 0.001569
# 4 0.003042 0.001401 0.002743 0.027021 -0.003498 0.000943
# 5 -0.002761 0.001560 -0.008372 -0.003498 0.035394 0.003314
# 6 0.003698 0.003815 0.001569 0.000943 0.003314 0.028779
#
#
# Mechanical properties :
#
#
# Convention : Reuss Voigt Hill
#
# Bulk Modulus (GPa) = 36.05673 52.82852 44.44262
# Shear Modulus (GPa) = 33.31351 38.15022 35.73187
#
# Velocity S-wave (km/s) = 3.86634 4.13751 4.00422
# Velocity P-wave (km/s) = 6.00925 6.82135 6.42814
#
# Compressibility (1/GPa) = 0.02773408
#
# Stress axis : x y z
#
# Youngs Moduli (GPa) = 73.11813 95.13052 68.94632
#
# Poissons Ratio (x) = 0.24645 -0.05788
# Poissons Ratio (y) = 0.18942 0.25703
# Poissons Ratio (z) = -0.06138 0.35465
#
# Static dielectric constant tensor:
#      x y z
#    x 1.842200 0.017150 -0.013310 
#    y 0.017150 1.806150 0.015920 
#    z -0.013310 0.015920 1.865270 
# 
# From -- ./inp_files/472539.got.cif
#   From: 2010.05.17/outbox.cif.g08.bks.cpg/sg2_237_cif.got.tgz:472539.got - 2010.06.03 11:33:40.
