data_PCOD9051284
_publ_section_title
;
Structure prediction by ZEFSAII (Michael W. Deem and Ramdas Pophale) SiO2 
 PCOD9051284
Probable space group: P -1
;
_chemical_formula_sum "Si O2"
_cell_formula_units_Z 10
_cell_length_a 12.282090
_cell_length_b 9.168084
_cell_length_c 14.217092
_cell_angle_alpha 149.978193
_cell_angle_beta 32.196813
_cell_angle_gamma 128.713722
_cell_volume 390.714622
_symmetry_space_group_name_H-M "P -1"
_symmetry_group_IT_number 2
_symmetry_cell_setting 'triclinic'
loop_
_space_group_symop_operation_xyz
x,y,z
-x,-y,-z
loop_
_atom_site_type_symbol
_atom_site_label
_atom_site_fract_x
_atom_site_fract_y
_atom_site_fract_z
Si Si1 0.963386 0.052629 0.691099
Si Si2 0.366764 0.169648 0.419419
Si Si3 0.570328 0.677699 0.326435
Si Si4 0.830648 0.476512 0.413279
Si Si5 0.124027 0.145516 0.168449
O O1 0.210765 0.975172 0.431805
O O2 0.867522 0.798080 0.586860
O O3 0.955963 0.053987 0.811253
O O4 0.799784 0.400643 0.970484
O O5 0.398922 0.255800 0.550055
O O6 0.239802 0.478485 0.619292
O O7 0.610070 0.980094 0.092197
O O8 0.377341 0.544614 0.391294
O O9 0.500000 0.000000 0.500000
O O10 0.043914 0.194817 0.146250
O O11 0.000000 0.500000 0.500000
#
# Coordination Sequence:
#
# PCOD9051284 Si02
#       5
#     2   2   2   2   2
#     4  11  25  50  75 109 152 196 246 304 365 447
#     4  12  26  47  76 112 150 191 250 307 369 435
#     4  12  27  48  76 110 154 197 244 306 376 436
#     4  11  25  48  78 106 148 195 248 304 365 436
#     4  10  25  45  75 110 148 189 246 304 370 432
#
# _framework density 25.59413
#
# number of rings (size 3 to 8) (size 9 to 14) (size 15 to 20)
#    0.000    0.800    2.000    3.600    5.600    4.000 
#    0.000    0.000    0.000    0.000    0.000    0.000 
#    0.000    0.000    0.000    0.000    0.000    0.000 
#
# Total GULP energy -56044.598278 kJ/mol
# GULP energy per Si atom -5604.459828 kJ/mol
# Density = 2.553588 g / cm^3
# Si number density = 25.594130 Si / 1000 Ang^3
#
#
#
# Elastic Constant Matrix: (Units=GPa)
#
#
# Indices 1 2 3 4 5 6 
#
# 1 150.6311 62.3191 40.0782 16.9610 -21.3805 -29.6740
# 2 62.3191 162.6018 66.0773 -14.1614 -25.4976 -7.2156
# 3 40.0782 66.0773 114.6630 -1.5510 -32.8557 -14.0601
# 4 16.9610 -14.1614 -1.5510 53.9011 -4.5513 -13.5097
# 5 -21.3805 -25.4976 -32.8557 -4.5513 44.0600 10.3815
# 6 -29.6740 -7.2156 -14.0601 -13.5097 10.3815 56.3113
#
#
#
# Elastic Compliance Matrix: (Units=1/GPa)
#
#
# Indices 1 2 3 4 5 6 
#
# 1 0.009300 -0.003203 -0.000732 -0.002842 0.001009 0.003439
# 2 -0.003203 0.009476 -0.003977 0.003271 0.001529 -0.000964
# 3 -0.000732 -0.003977 0.013479 0.000496 0.007146 0.001272
# 4 -0.002842 0.003271 0.000496 0.021455 0.002208 0.003786
# 5 0.001009 0.001529 0.007146 0.002208 0.030224 -0.002530
# 6 0.003439 -0.000964 0.001272 0.003786 -0.002530 0.021140
#
#
# Mechanical properties :
#
#
# Convention : Reuss Voigt Hill
#
# Bulk Modulus (GPa) = 60.86447 84.98278 72.92362
# Shear Modulus (GPa) = 39.56500 48.14922 43.85711
#
# Velocity S-wave (km/s) = 3.93601 4.34206 4.14401
# Velocity P-wave (km/s) = 6.66997 7.64291 7.17295
#
# Compressibility (1/GPa) = 0.01642995
#
# Stress axis : x y z
#
# Youngs Moduli (GPa) = 107.53208 105.53504 74.18833
#
# Poissons Ratio (x) = 0.33806 0.05431
# Poissons Ratio (y) = 0.34446 0.29503
# Poissons Ratio (z) = 0.07872 0.41970
#
# Static dielectric constant tensor:
#      x y z
#    x 2.155300 0.012560 0.017560 
#    y 0.012560 1.967670 0.025880 
#    z 0.017560 0.025880 1.961730 
# 
# From -- ./inp_files/144280.got.cif
#   From: 2010.05.17/outbox.cif.g08.bks.cpg/sg2_73_cif.got.tgz:144280.got - 2010.06.03 11:33:40.
