data_PCOD9051892
_publ_section_title
;
Structure prediction by ZEFSAII (Michael W. Deem and Ramdas Pophale) SiO2 
 PCOD9051892
Probable space group: P -1
;
_chemical_formula_sum "Si O2"
_cell_formula_units_Z 14
_cell_length_a 11.920371
_cell_length_b 8.767411
_cell_length_c 18.047743
_cell_angle_alpha 131.392582
_cell_angle_beta 29.195014
_cell_angle_gamma 114.217271
_cell_volume 614.132080
_symmetry_space_group_name_H-M "P -1"
_symmetry_group_IT_number 2
_symmetry_cell_setting 'triclinic'
loop_
_space_group_symop_operation_xyz
x,y,z
-x,-y,-z
loop_
_atom_site_type_symbol
_atom_site_label
_atom_site_fract_x
_atom_site_fract_y
_atom_site_fract_z
Si Si1 0.723456 0.070258 0.383739
Si Si2 0.957206 0.567537 0.286940
Si Si3 0.948429 0.413819 0.921282
Si Si4 0.616475 0.772244 0.701925
Si Si5 0.911342 0.031142 0.645122
Si Si6 0.358358 0.607853 0.338878
Si Si7 0.058032 0.066126 0.067074
O O1 0.647569 0.293793 0.544898
O O2 0.799100 0.105946 0.271201
O O3 0.500000 0.000000 0.500000
O O4 0.973326 0.852621 0.200802
O O5 0.773178 0.668971 0.499568
O O6 0.882837 0.577870 0.244295
O O7 0.109654 0.721908 0.244106
O O8 0.090782 0.295190 0.131509
O O9 0.642159 0.548107 0.125033
O O10 0.000000 0.500000 0.000000
O O11 0.685596 0.607156 0.681276
O O12 0.665786 0.982950 0.769075
O O13 0.318053 0.862205 0.883003
O O14 0.000000 0.000000 0.500000
O O15 0.136642 0.816293 0.489343
O O16 0.000000 0.000000 0.000000
#
# Coordination Sequence:
#
# PCOD9051892 Si02
#       7
#     2   2   2   2   2   2   2
#     4  12  25  44  69 105 145 190 238 290 364 433
#     4  11  26  45  72 107 148 190 239 297 362 422
#     4  12  25  42  70 109 141 194 237 291 367 431
#     4  11  26  49  72 105 147 188 248 298 361 429
#     4  10  25  48  74 104 141 195 242 304 362 420
#     4  12  24  47  71 100 148 183 247 300 350 433
#     4  12  28  45  73 111 146 190 240 298 365 438
#
# _framework density 22.796396999999999
#
# number of rings (size 3 to 8) (size 9 to 14) (size 15 to 20)
#    0.000    0.571    5.714    1.286    6.000    1.143 
#    2.571    1.429    0.000    0.000    0.000    0.000 
#    0.000    0.000    0.000    0.000    0.000    0.000 
#
# Total GULP energy -77982.788683 kJ/mol
# GULP energy per Si atom -5570.199192 kJ/mol
# Density = 2.274451 g / cm^3
# Si number density = 22.796397 Si / 1000 Ang^3
#
#
#
# Elastic Constant Matrix: (Units=GPa)
#
#
# Indices 1 2 3 4 5 6 
#
# 1 83.2789 31.1912 40.0692 -15.5578 5.5435 -6.0616
# 2 31.1912 124.2501 29.2747 -1.5864 6.8066 -2.6458
# 3 40.0692 29.2747 92.5942 -6.7775 6.3960 -0.4288
# 4 -15.5578 -1.5864 -6.7775 35.3586 2.6678 7.2883
# 5 5.5435 6.8066 6.3960 2.6678 35.3776 -6.1595
# 6 -6.0616 -2.6458 -0.4288 7.2883 -6.1595 36.1172
#
#
#
# Elastic Compliance Matrix: (Units=1/GPa)
#
#
# Indices 1 2 3 4 5 6 
#
# 1 0.017276 -0.002731 -0.006061 0.006182 -0.001352 0.001149
# 2 -0.002731 0.009184 -0.001740 -0.001110 -0.000895 0.000265
# 3 -0.006061 -0.001740 0.014097 0.000340 -0.001517 -0.001305
# 4 0.006182 -0.001110 0.000340 0.032664 -0.004390 -0.006380
# 5 -0.001352 -0.000895 -0.001517 -0.004390 0.030254 0.005735
# 6 0.001149 0.000265 -0.001305 -0.006380 0.005735 0.030150
#
#
# Mechanical properties :
#
#
# Convention : Reuss Voigt Hill
#
# Bulk Modulus (GPa) = 51.30424 55.68815 53.49619
# Shear Modulus (GPa) = 31.01996 34.67655 32.84825
#
# Velocity S-wave (km/s) = 3.69282 3.90441 3.80009
# Velocity P-wave (km/s) = 6.38254 6.69384 6.54004
#
# Compressibility (1/GPa) = 0.01949157
#
# Stress axis : x y z
#
# Youngs Moduli (GPa) = 57.88498 108.88049 70.93955
#
# Poissons Ratio (x) = 0.29738 0.42998
# Poissons Ratio (y) = 0.15810 0.12344
# Poissons Ratio (z) = 0.35085 0.18946
#
# Static dielectric constant tensor:
#      x y z
#    x 1.887010 -0.012210 0.006830 
#    y -0.012210 2.083110 0.029750 
#    z 0.006830 0.029750 1.862310 
# 
# From -- ./inp_files/293933.got.cif
#   From: 2010.05.17/outbox.cif.g08.bks.cpg/sg2_147_cif.got.tgz:293933.got - 2010.06.03 11:33:40.
