data_PCOD9051355
_publ_section_title
;
Structure prediction by ZEFSAII (Michael W. Deem and Ramdas Pophale) SiO2 
 PCOD9051355
Probable space group: P -1
;
_chemical_formula_sum "Si O2"
_cell_formula_units_Z 16
_cell_length_a 7.816540
_cell_length_b 13.643959
_cell_length_c 8.827840
_cell_angle_alpha 103.670368
_cell_angle_beta 109.614137
_cell_angle_gamma 44.316322
_cell_volume 619.557617
_symmetry_space_group_name_H-M "P -1"
_symmetry_group_IT_number 2
_symmetry_cell_setting 'triclinic'
loop_
_space_group_symop_operation_xyz
x,y,z
-x,-y,-z
loop_
_atom_site_type_symbol
_atom_site_label
_atom_site_fract_x
_atom_site_fract_y
_atom_site_fract_z
Si Si1 0.091714 0.232969 0.405740
Si Si2 0.999859 0.807407 0.942178
Si Si3 0.842746 0.977385 0.244440
Si Si4 0.367852 0.451914 0.656781
Si Si5 0.725019 0.214227 0.458753
Si Si6 0.694558 0.819747 0.259179
Si Si7 0.531642 0.691247 0.043505
Si Si8 0.821386 0.428271 0.853425
O O1 0.912532 0.397359 0.381780
O O2 0.907993 0.225623 0.438227
O O3 0.322391 0.170976 0.561526
O O4 0.161685 0.156387 0.239169
O O5 0.268767 0.742607 0.940214
O O6 0.059635 0.684408 0.014679
O O7 0.905564 0.928359 0.073263
O O8 0.710544 0.926451 0.243048
O O9 0.109950 0.882518 0.379844
O O10 0.692779 0.133974 0.305710
O O11 0.466597 0.356627 0.502117
O O12 0.399516 0.377107 0.793357
O O13 0.571732 0.464061 0.740536
O O14 0.517624 0.815289 0.110085
O O15 0.969070 0.661843 0.246424
O O16 0.733013 0.569985 0.940316
#
# Coordination Sequence:
#
# PCOD9051355 Si02
#       8
#     2   2   2   2   2   2   2   2
#     4  11  20  33  57  87 110 135 182 234 273 313
#     4  10  18  34  60  79 108 141 189 225 259 319
#     4   9  19  38  56  75 108 151 190 214 260 332
#     4  11  18  33  57  83 111 135 186 223 269 320
#     4  10  19  33  59  80 105 145 190 224 262 314
#     4  10  22  34  54  82 116 142 180 219 279 324
#     4  11  19  33  55  85 110 147 178 219 276 328
#     4  10  17  35  52  79 108 153 173 217 262 340
#
# _framework density 25.824877999999998
#
# number of rings (size 3 to 8) (size 9 to 14) (size 15 to 20)
#    0.000    1.750    7.500    1.500    0.000    1.000 
#    0.000    0.625    2.750    0.750    0.000    0.000 
#    0.000    0.000    0.000    0.000    0.000    0.000 
#
# Total GULP energy -89656.448578 kJ/mol
# GULP energy per Si atom -5603.528036 kJ/mol
# Density = 2.576610 g / cm^3
# Si number density = 25.824878 Si / 1000 Ang^3
#
#
#
# Elastic Constant Matrix: (Units=GPa)
#
#
# Indices 1 2 3 4 5 6 
#
# 1 33.4347 17.5297 10.9538 -0.8596 7.1396 -5.0848
# 2 17.5297 85.0833 52.6290 30.3011 1.8070 -1.1143
# 3 10.9538 52.6290 150.5282 47.6704 -9.1154 -4.6623
# 4 -0.8596 30.3011 47.6704 45.5127 1.4433 4.0049
# 5 7.1396 1.8070 -9.1154 1.4433 18.5010 10.2040
# 6 -5.0848 -1.1143 -4.6623 4.0049 10.2040 27.3625
#
#
#
# Elastic Compliance Matrix: (Units=1/GPa)
#
#
# Indices 1 2 3 4 5 6 
#
# 1 0.045679 -0.009807 -0.004980 0.012095 -0.029062 0.016308
# 2 -0.009807 0.018928 -0.002647 -0.010009 0.001804 -0.000711
# 3 -0.004980 -0.002647 0.011997 -0.011119 0.009447 -0.000884
# 4 0.012095 -0.010009 -0.011119 0.041031 -0.011364 -0.001822
# 5 -0.029062 0.001804 0.009447 -0.011364 0.090346 -0.035746
# 6 0.016308 -0.000711 -0.000884 -0.001822 -0.035746 0.052994
#
#
# Mechanical properties :
#
#
# Convention : Reuss Voigt Hill
#
# Bulk Modulus (GPa) = 23.96053 47.91903 35.93978
# Shear Modulus (GPa) = 16.14164 30.80415 23.47290
#
# Velocity S-wave (km/s) = 2.50280 3.45745 3.01811
# Velocity P-wave (km/s) = 4.20122 5.87659 5.10806
#
# Compressibility (1/GPa) = 0.04173530
#
# Stress axis : x y z
#
# Youngs Moduli (GPa) = 21.89167 52.83123 83.35263
#
# Poissons Ratio (x) = 0.51814 0.41511
# Poissons Ratio (y) = 0.21470 0.22065
# Poissons Ratio (z) = 0.10902 0.13985
#
# Static dielectric constant tensor:
#      x y z
#    x 2.022870 0.017230 0.011240 
#    y 0.017230 2.028000 -0.003780 
#    z 0.011240 -0.003780 2.031420 
# 
# From -- ./inp_files/203265.got.cif
#   From: 2010.05.17/outbox.cif.g08.bks.cpg/sg2_102_cif.got.tgz:203265.got - 2010.06.03 11:33:40.
