data_PCOD9051749
_publ_section_title
;
Structure prediction by ZEFSAII (Michael W. Deem and Ramdas Pophale) SiO2 
 PCOD9051749
Probable space group: P -1
;
_chemical_formula_sum "Si O2"
_cell_formula_units_Z 16
_cell_length_a 18.841768
_cell_length_b 9.512927
_cell_length_c 12.744309
_cell_angle_alpha 50.849079
_cell_angle_beta 37.217596
_cell_angle_gamma 28.462387
_cell_volume 639.477030
_symmetry_space_group_name_H-M "P -1"
_symmetry_group_IT_number 2
_symmetry_cell_setting 'triclinic'
loop_
_space_group_symop_operation_xyz
x,y,z
-x,-y,-z
loop_
_atom_site_type_symbol
_atom_site_label
_atom_site_fract_x
_atom_site_fract_y
_atom_site_fract_z
Si Si1 0.619484 0.748349 0.712979
Si Si2 0.290347 0.204369 0.198824
Si Si3 0.820454 0.595840 0.128300
Si Si4 0.169283 0.646214 0.982270
Si Si5 0.725447 0.749094 0.376273
Si Si6 0.661153 0.238261 0.164586
Si Si7 0.139943 0.887031 0.224522
Si Si8 0.217819 0.890034 0.359512
O O1 0.677037 0.810741 0.709642
O O2 0.756284 0.635842 0.507913
O O3 0.389067 0.041789 0.814449
O O4 0.677468 0.480805 0.810502
O O5 0.239657 0.065049 0.294109
O O6 0.148292 0.526535 0.157186
O O7 0.500000 0.000000 0.000000
O O8 0.821767 0.472627 0.081717
O O9 0.809427 0.518845 0.292453
O O10 0.193157 0.905386 0.039154
O O11 0.000000 0.500000 0.000000
O O12 0.334947 0.585927 0.849784
O O13 0.000000 0.000000 0.000000
O O14 0.500000 0.000000 0.500000
O O15 0.742651 0.947950 0.255027
O O16 0.426646 0.521311 0.285009
O O17 0.948468 0.001509 0.424657
O O18 0.161439 0.980703 0.259897
#
# Coordination Sequence:
#
# PCOD9051749 Si02
#       8
#     2   2   2   2   2   2   2   2
#     4  11  23  52  76 117 162 205 274 332 397 493
#     4  12  23  50  85 117 156 221 276 328 413 491
#     4  11  24  47  77 109 154 213 264 320 405 486
#     4  12  27  48  77 120 160 206 278 331 412 484
#     4  10  25  47  74 111 158 208 262 323 406 477
#     4  12  24  52  77 111 167 211 269 343 405 484
#     4  11  26  47  77 121 159 204 278 339 405 477
#     4  11  25  45  77 119 159 209 275 340 401 485
#
# _framework density 25.020447000000001
#
# number of rings (size 3 to 8) (size 9 to 14) (size 15 to 20)
#    0.000    0.750    3.750    2.625    1.750    2.500 
#   20.250    3.125    0.000    0.000    0.000    0.000 
#    0.000    0.000    0.000    0.000    0.000    0.000 
#
# Total GULP energy -89314.231592 kJ/mol
# GULP energy per Si atom -5582.139474 kJ/mol
# Density = 2.496350 g / cm^3
# Si number density = 25.020447 Si / 1000 Ang^3
#
#
#
# Elastic Constant Matrix: (Units=GPa)
#
#
# Indices 1 2 3 4 5 6 
#
# 1 191.0191 25.9392 61.2904 -2.6627 5.3422 21.2336
# 2 25.9392 96.0137 26.8169 -17.3807 -12.9688 -5.6785
# 3 61.2904 26.8169 126.2947 -4.7426 9.2109 1.1434
# 4 -2.6627 -17.3807 -4.7426 52.3485 1.9773 -1.7575
# 5 5.3422 -12.9688 9.2109 1.9773 37.8141 -0.8268
# 6 21.2336 -5.6785 1.1434 -1.7575 -0.8268 43.7872
#
#
#
# Elastic Compliance Matrix: (Units=1/GPa)
#
#
# Indices 1 2 3 4 5 6 
#
# 1 0.006754 -0.001404 -0.002910 -0.000472 -0.000777 -0.003415
# 2 -0.001404 0.013000 -0.002326 0.003932 0.005077 0.002681
# 3 -0.002910 -0.002326 0.010027 0.000121 -0.002818 0.000799
# 4 -0.000472 0.003932 0.000121 0.020435 0.000351 0.001562
# 5 -0.000777 0.005077 -0.002818 0.000351 0.029000 0.001670
# 6 -0.003415 0.002681 0.000799 0.001562 0.001670 0.024915
#
#
# Mechanical properties :
#
#
# Convention : Reuss Voigt Hill
#
# Bulk Modulus (GPa) = 60.60007 71.26892 65.93449
# Shear Modulus (GPa) = 40.67975 46.74203 43.71089
#
# Velocity S-wave (km/s) = 4.03657 4.32690 4.18426
# Velocity P-wave (km/s) = 6.78218 7.31498 7.05361
#
# Compressibility (1/GPa) = 0.01650163
#
# Stress axis : x y z
#
# Youngs Moduli (GPa) = 148.05708 76.92118 99.73345
#
# Poissons Ratio (x) = 0.10802 0.29019
# Poissons Ratio (y) = 0.20792 0.23196
# Poissons Ratio (z) = 0.43080 0.17890
#
# Static dielectric constant tensor:
#      x y z
#    x 2.101250 -0.028330 0.076000 
#    y -0.028330 2.794850 0.808010 
#    z 0.076000 0.808010 2.993820 
# 
# From -- ./inp_files/461989.got.cif
#   From: 2010.05.17/outbox.cif.g08.bks.cpg/sg2_231_cif.got.tgz:461989.got - 2010.06.03 11:33:40.
