data_PCOD9051371
_publ_section_title
;
Structure prediction by ZEFSAII (Michael W. Deem and Ramdas Pophale) SiO2 
 PCOD9051371
Probable space group: P -1
;
_chemical_formula_sum "Si O2"
_cell_formula_units_Z 14
_cell_length_a 8.266167
_cell_length_b 14.673002
_cell_length_c 11.233921
_cell_angle_alpha 49.611750
_cell_angle_beta 147.185854
_cell_angle_gamma 117.498387
_cell_volume 550.966066
_symmetry_space_group_name_H-M "P -1"
_symmetry_group_IT_number 2
_symmetry_cell_setting 'triclinic'
loop_
_space_group_symop_operation_xyz
x,y,z
-x,-y,-z
loop_
_atom_site_type_symbol
_atom_site_label
_atom_site_fract_x
_atom_site_fract_y
_atom_site_fract_z
Si Si1 0.289264 0.098503 0.703474
Si Si2 0.160709 0.112940 0.015861
Si Si3 0.301621 0.554897 0.162897
Si Si4 0.597597 0.409526 0.249917
Si Si5 0.279344 0.272440 0.745194
Si Si6 0.245795 0.036498 0.471261
Si Si7 0.970458 0.719043 0.009733
O O1 0.283053 0.228890 0.647962
O O2 0.366756 0.091439 0.619331
O O3 0.969746 0.056673 0.551102
O O4 0.500000 0.000000 0.000000
O O5 0.978291 0.231903 0.869309
O O6 0.463822 0.055112 0.324238
O O7 0.261868 0.158929 0.914383
O O8 0.000000 0.000000 0.000000
O O9 0.537220 0.463123 0.301321
O O10 0.417490 0.676049 0.084656
O O11 0.000000 0.500000 0.000000
O O12 0.218820 0.606006 0.205050
O O13 0.362666 0.316847 0.171285
O O14 0.956653 0.361427 0.493333
O O15 0.500000 0.500000 0.000000
O O16 0.059147 0.154779 0.189603
#
# Coordination Sequence:
#
# PCOD9051371 Si02
#       7
#     2   2   2   2   2   2   2
#     4  11  23  42  70 110 142 189 234 287 352 443
#     4  12  25  42  70 111 149 187 234 285 356 457
#     4  10  25  46  69 101 136 179 249 306 350 412
#     4  11  25  48  71  98 137 189 251 304 356 423
#     4  12  24  44  76 101 143 192 241 292 375 421
#     4  11  24  41  70 106 153 181 235 287 349 441
#     4  11  24  44  70 102 147 190 229 299 367 408
#
# _framework density 25.409915000000002
#
# number of rings (size 3 to 8) (size 9 to 14) (size 15 to 20)
#    0.000    0.857    1.429    5.143    6.000    0.000 
#    0.000    3.571    0.000    0.000    0.000    0.000 
#    0.000    0.000    0.000    0.000    0.000    0.000 
#
# Total GULP energy -78070.781840 kJ/mol
# GULP energy per Si atom -5576.484417 kJ/mol
# Density = 2.535208 g / cm^3
# Si number density = 25.409915 Si / 1000 Ang^3
#
#
#
# Elastic Constant Matrix: (Units=GPa)
#
#
# Indices 1 2 3 4 5 6 
#
# 1 103.5969 54.8261 31.4797 -0.9302 19.2077 -25.8307
# 2 54.8261 165.2050 -5.7265 12.9133 18.0079 -1.6940
# 3 31.4797 -5.7265 74.1516 -16.1136 16.3403 -7.2769
# 4 -0.9302 12.9133 -16.1136 26.1183 -1.4566 11.6388
# 5 19.2077 18.0079 16.3403 -1.4566 43.8108 -1.9254
# 6 -25.8307 -1.6940 -7.2769 11.6388 -1.9254 77.4488
#
#
#
# Elastic Compliance Matrix: (Units=1/GPa)
#
#
# Indices 1 2 3 4 5 6 
#
# 1 0.016086 -0.004992 -0.007011 -0.003682 -0.002284 0.005093
# 2 -0.004992 0.008224 0.002669 -0.002305 -0.002305 -0.000945
# 3 -0.007011 0.002669 0.020112 0.011552 -0.005239 -0.002257
# 4 -0.003682 -0.002305 0.011552 0.049826 -0.000429 -0.007691
# 5 -0.002284 -0.002305 -0.005239 -0.000429 0.026689 -0.000576
# 6 0.005093 -0.000945 -0.002257 -0.007691 -0.000576 0.015519
#
#
# Mechanical properties :
#
#
# Convention : Reuss Voigt Hill
#
# Bulk Modulus (GPa) = 38.83140 56.01245 47.42192
# Shear Modulus (GPa) = 30.54176 46.96718 38.75447
#
# Velocity S-wave (km/s) = 3.47069 4.30394 3.90958
# Velocity P-wave (km/s) = 5.60144 6.84032 6.25164
#
# Compressibility (1/GPa) = 0.02575235
#
# Stress axis : x y z
#
# Youngs Moduli (GPa) = 62.16651 121.59298 49.72138
#
# Poissons Ratio (x) = 0.60705 0.34862
# Poissons Ratio (y) = 0.31036 -0.13271
# Poissons Ratio (z) = 0.43587 -0.32453
#
# Static dielectric constant tensor:
#      x y z
#    x 1.861980 -0.145570 0.027830 
#    y -0.145570 1.937110 0.014160 
#    z 0.027830 0.014160 2.039490 
# 
# From -- ./inp_files/323628.got.cif
#   From: 2010.05.17/outbox.cif.g08.bks.cpg/sg2_162_cif.got.tgz:323628.got - 2010.06.03 11:33:40.
