data_PCOD9051542
_publ_section_title
;
Structure prediction by ZEFSAII (Michael W. Deem and Ramdas Pophale) SiO2 
 PCOD9051542
Probable space group: P -1
;
_chemical_formula_sum "Si O2"
_cell_formula_units_Z 12
_cell_length_a 22.227205
_cell_length_b 14.643624
_cell_length_c 5.819420
_cell_angle_alpha 112.267318
_cell_angle_beta 56.774649
_cell_angle_gamma 159.405409
_cell_volume 496.214745
_symmetry_space_group_name_H-M "P -1"
_symmetry_group_IT_number 2
_symmetry_cell_setting 'triclinic'
loop_
_space_group_symop_operation_xyz
x,y,z
-x,-y,-z
loop_
_atom_site_type_symbol
_atom_site_label
_atom_site_fract_x
_atom_site_fract_y
_atom_site_fract_z
Si Si1 0.105522 0.618282 0.642956
Si Si2 0.001887 0.206701 0.941632
Si Si3 0.688098 0.495894 0.776104
Si Si4 0.693401 0.673352 0.280266
Si Si5 0.383537 0.149734 0.716737
Si Si6 0.284068 0.661276 0.142653
O O1 0.147663 0.555868 0.490997
O O2 0.000000 0.500000 0.500000
O O3 0.302377 0.949572 0.557433
O O4 0.000000 0.500000 0.000000
O O5 0.129853 0.304515 0.590205
O O6 0.165467 0.493612 0.989526
O O7 0.902510 0.010979 0.169915
O O8 0.804026 0.011370 0.060177
O O9 0.457485 0.208242 0.865242
O O10 0.680170 0.398268 0.881492
O O11 0.727137 0.650215 0.963194
O O12 0.500000 0.500000 0.500000
O O13 0.601008 0.480327 0.480548
O O14 0.500000 0.000000 0.000000
#
# Coordination Sequence:
#
# PCOD9051542 Si02
#       6
#     2   2   2   2   2   2
#     4  12  27  48  80 111 156 208 262 316 390 467
#     4  11  25  48  73 107 148 200 249 319 387 464
#     4  12  26  45  74 108 148 195 256 318 388 463
#     4  10  25  46  74 107 150 193 253 314 391 463
#     4  11  26  47  75 109 149 199 255 313 389 459
#     4  12  28  48  73 108 155 197 260 319 392 460
#
# _framework density 24.183078999999999
#
# number of rings (size 3 to 8) (size 9 to 14) (size 15 to 20)
#    0.000    0.667    1.667    4.500    4.667   10.667 
#    0.000    0.000    0.000    0.000    0.000    0.000 
#    0.000    0.000    0.000    0.000    0.000    0.000 
#
# Total GULP energy -67098.957925 kJ/mol
# GULP energy per Si atom -5591.579827 kJ/mol
# Density = 2.412804 g / cm^3
# Si number density = 24.183079 Si / 1000 Ang^3
#
#
#
# Elastic Constant Matrix: (Units=GPa)
#
#
# Indices 1 2 3 4 5 6 
#
# 1 123.8968 41.1520 43.2715 3.5043 -17.5777 16.8858
# 2 41.1520 103.3823 26.9476 -7.2731 -15.2276 4.5789
# 3 43.2715 26.9476 161.4535 4.9974 -24.1054 0.8713
# 4 3.5043 -7.2731 4.9974 41.5213 -17.7824 -1.0600
# 5 -17.5777 -15.2276 -24.1054 -17.7824 33.1602 4.2860
# 6 16.8858 4.5789 0.8713 -1.0600 4.2860 42.4549
#
#
#
# Elastic Compliance Matrix: (Units=1/GPa)
#
#
# Indices 1 2 3 4 5 6 
#
# 1 0.010836 -0.003089 -0.001823 0.000230 0.003680 -0.004305
# 2 -0.003089 0.012400 -0.000401 0.005339 0.006711 -0.000645
# 3 -0.001823 -0.000401 0.007446 0.001309 0.004945 0.000149
# 4 0.000230 0.005339 0.001309 0.034289 0.022181 -0.002077
# 5 0.003680 0.006711 0.004945 0.022181 0.051576 -0.006942
# 6 -0.004305 -0.000645 0.000149 -0.002077 -0.006942 0.025982
#
#
# Mechanical properties :
#
#
# Convention : Reuss Voigt Hill
#
# Bulk Modulus (GPa) = 49.86360 67.94164 58.90262
# Shear Modulus (GPa) = 31.28090 41.91805 36.59948
#
# Velocity S-wave (km/s) = 3.60043 4.16788 3.89451
# Velocity P-wave (km/s) = 6.16021 7.16361 6.68077
#
# Compressibility (1/GPa) = 0.02005471
#
# Stress axis : x y z
#
# Youngs Moduli (GPa) = 92.28125 80.64607 134.29458
#
# Poissons Ratio (x) = 0.24915 0.24483
# Poissons Ratio (y) = 0.28510 0.05391
# Poissons Ratio (z) = 0.16824 0.03237
#
# Static dielectric constant tensor:
#      x y z
#    x 1.943860 -0.014630 0.006750 
#    y -0.014630 1.938300 -0.057600 
#    z 0.006750 -0.057600 1.979010 
# 
# From -- ./inp_files/45915.got.cif
#   From: 2010.05.17/outbox.cif.g08.bks.cpg/sg2_23_cif.got.tgz:45915.got - 2010.06.03 11:33:40.
