data_PCOD9051049
_publ_section_title
;
Structure prediction by ZEFSAII (Michael W. Deem and Ramdas Pophale) SiO2 
 PCOD9051049
Probable space group: P -1
;
_chemical_formula_sum "Si O2"
_cell_formula_units_Z 12
_cell_length_a 12.567420
_cell_length_b 5.279174
_cell_length_c 9.427009
_cell_angle_alpha 104.719266
_cell_angle_beta 85.838329
_cell_angle_gamma 116.699319
_cell_volume 539.790633
_symmetry_space_group_name_H-M "P -1"
_symmetry_group_IT_number 2
_symmetry_cell_setting 'triclinic'
loop_
_space_group_symop_operation_xyz
x,y,z
-x,-y,-z
loop_
_atom_site_type_symbol
_atom_site_label
_atom_site_fract_x
_atom_site_fract_y
_atom_site_fract_z
Si Si1 0.463566 0.997940 0.304103
Si Si2 0.805894 0.561408 0.267926
Si Si3 0.971727 0.179089 0.903456
Si Si4 0.691122 0.857382 0.837341
Si Si5 0.668273 0.862888 0.155755
Si Si6 0.660758 0.435269 0.521394
O O1 0.550195 0.849689 0.238434
O O2 0.373784 0.856679 0.423962
O O3 0.383233 0.966580 0.171379
O O4 0.557071 0.319303 0.395773
O O5 0.939040 0.756848 0.228387
O O6 0.729162 0.701031 0.216311
O O7 0.781222 0.558333 0.437523
O O8 0.755910 0.215345 0.184941
O O9 0.833427 0.021831 0.854662
O O10 0.000000 0.500000 0.000000
O O11 0.000000 0.000000 0.000000
O O12 0.662534 0.650279 0.674044
O O13 0.649028 0.736306 0.980952
#
# Coordination Sequence:
#
# PCOD9051049 Si02
#       6
#     2   2   2   2   2   2
#     4  10  25  45  68 105 143 188 223 290 352 414
#     4  11  24  48  69 103 138 192 222 288 354 404
#     4  12  25  48  73 101 140 180 234 296 341 405
#     4  12  25  42  74 105 134 187 238 286 343 416
#     4  11  25  43  75  99 144 180 238 283 344 414
#     4  10  26  43  71  98 150 181 228 287 351 420
#
# _framework density 22.230837999999999
#
# number of rings (size 3 to 8) (size 9 to 14) (size 15 to 20)
#    0.000    1.000    3.333    1.000   16.333    1.333 
#    0.000    0.833    0.000    0.000    0.000    0.000 
#    0.000    0.000    0.000    0.000    0.000    0.000 
#
# Total GULP energy -67008.096040 kJ/mol
# GULP energy per Si atom -5584.008003 kJ/mol
# Density = 2.218024 g / cm^3
# Si number density = 22.230838 Si / 1000 Ang^3
#
#
#
# Elastic Constant Matrix: (Units=GPa)
#
#
# Indices 1 2 3 4 5 6 
#
# 1 93.3960 41.1648 42.1174 0.8438 -2.7020 13.9288
# 2 41.1648 103.5097 32.6882 -8.0624 -2.2636 2.2507
# 3 42.1174 32.6882 103.9516 -0.3003 -23.9894 13.7621
# 4 0.8438 -8.0624 -0.3003 34.5092 12.7807 -15.1524
# 5 -2.7020 -2.2636 -23.9894 12.7807 49.7514 -8.3964
# 6 13.9288 2.2507 13.7621 -15.1524 -8.3964 41.2986
#
#
#
# Elastic Compliance Matrix: (Units=1/GPa)
#
#
# Indices 1 2 3 4 5 6 
#
# 1 0.015657 -0.004987 -0.004481 -0.003209 -0.001558 -0.005010
# 2 -0.004987 0.012860 -0.002905 0.005341 -0.001863 0.003530
# 3 -0.004481 -0.002905 0.014442 -0.004586 0.007199 -0.003362
# 4 -0.003209 0.005341 -0.004586 0.040647 -0.010020 0.015196
# 5 -0.001558 -0.001863 0.007199 -0.010020 0.025947 -0.000173
# 6 -0.005010 0.003530 -0.003362 0.015196 -0.000173 0.032372
#
#
# Mechanical properties :
#
#
# Convention : Reuss Voigt Hill
#
# Bulk Modulus (GPa) = 54.90600 59.19980 57.05290
# Shear Modulus (GPa) = 28.94491 37.43765 33.19128
#
# Velocity S-wave (km/s) = 3.61226 4.10816 3.86816
# Velocity P-wave (km/s) = 6.49228 7.01356 6.75795
#
# Compressibility (1/GPa) = 0.01821295
#
# Stress axis : x y z
#
# Youngs Moduli (GPa) = 63.86988 77.76000 69.24126
#
# Poissons Ratio (x) = 0.38776 0.31028
# Poissons Ratio (y) = 0.31849 0.20117
# Poissons Ratio (z) = 0.28621 0.22592
#
# Static dielectric constant tensor:
#      x y z
#    x 1.874740 -0.070030 -0.025030 
#    y -0.070030 1.932040 -0.000360 
#    z -0.025030 -0.000360 1.813130 
# 
# From -- ./inp_files/28993.got.cif
#   From: 2010.05.17/outbox.cif.g08.bks.cpg/sg2_15_cif.got.tgz:28993.got - 2010.06.03 11:33:40.
