data_PCOD9051277
_publ_section_title
;
Structure prediction by ZEFSAII (Michael W. Deem and Ramdas Pophale) SiO2 
 PCOD9051277
Probable space group: P -1
;
_chemical_formula_sum "Si O2"
_cell_formula_units_Z 12
_cell_length_a 6.041075
_cell_length_b 5.131348
_cell_length_c 20.614356
_cell_angle_alpha 92.215073
_cell_angle_beta 119.002140
_cell_angle_gamma 106.206695
_cell_volume 525.038866
_symmetry_space_group_name_H-M "P -1"
_symmetry_group_IT_number 2
_symmetry_cell_setting 'triclinic'
loop_
_space_group_symop_operation_xyz
x,y,z
-x,-y,-z
loop_
_atom_site_type_symbol
_atom_site_label
_atom_site_fract_x
_atom_site_fract_y
_atom_site_fract_z
Si Si1 0.537302 0.340356 0.275512
Si Si2 0.301498 0.625847 0.840672
Si Si3 0.231267 0.371452 0.010190
Si Si4 0.260620 0.069407 0.628741
Si Si5 0.958037 0.965747 0.139925
Si Si6 0.673484 0.808709 0.510923
O O1 0.720262 0.341716 0.238727
O O2 0.597816 0.658729 0.305940
O O3 0.607420 0.163895 0.341000
O O4 0.235865 0.176110 0.208203
O O5 0.104553 0.329475 0.835425
O O6 0.255397 0.884190 0.871881
O O7 0.599530 0.633338 0.901829
O O8 0.069586 0.107765 0.940845
O O9 0.500000 0.500000 0.000000
O O10 0.000000 0.500000 0.000000
O O11 0.271034 0.172429 0.557653
O O12 0.942801 0.920485 0.592923
O O13 0.500000 0.500000 0.500000
O O14 0.500000 0.000000 0.500000
#
# Coordination Sequence:
#
# PCOD9051277 Si02
#       6
#     2   2   2   2   2   2
#     4  12  26  42  72  96 150 178 230 298 358 434
#     4  11  26  45  68 102 139 190 243 301 368 433
#     4  10  25  45  75 103 144 194 260 317 369 439
#     4  11  26  44  66 111 132 182 236 285 350 438
#     4  11  26  45  68 102 139 190 243 301 368 433
#     4  11  24  45  74  98 140 181 228 285 349 427
#
# _framework density 22.855452
#
# number of rings (size 3 to 8) (size 9 to 14) (size 15 to 20)
#    0.000    1.000    0.000    4.500   11.667   11.333 
#    0.000    0.000    0.000    0.000    0.000    0.000 
#    0.000    0.000    0.000    0.000    0.000    0.000 
#
# Total GULP energy -67045.869241 kJ/mol
# GULP energy per Si atom -5587.155770 kJ/mol
# Density = 2.280343 g / cm^3
# Si number density = 22.855452 Si / 1000 Ang^3
#
#
#
# Elastic Constant Matrix: (Units=GPa)
#
#
# Indices 1 2 3 4 5 6 
#
# 1 73.5889 21.2020 13.1198 13.4779 7.4816 -8.7881
# 2 21.2020 118.6773 10.4771 14.8906 -0.8314 7.6685
# 3 13.1198 10.4771 78.9262 14.2898 15.8294 14.4005
# 4 13.4779 14.8906 14.2898 50.5603 0.1083 0.7510
# 5 7.4816 -0.8314 15.8294 0.1083 43.5197 5.3834
# 6 -8.7881 7.6685 14.4005 0.7510 5.3834 50.0046
#
#
#
# Elastic Compliance Matrix: (Units=1/GPa)
#
#
# Indices 1 2 3 4 5 6 
#
# 1 0.015992 -0.002588 -0.002008 -0.002989 -0.002569 0.004107
# 2 -0.002588 0.009285 -0.000306 -0.001933 0.000969 -0.001866
# 3 -0.002008 -0.000306 0.015422 -0.003661 -0.004744 -0.004181
# 4 -0.002989 -0.001933 -0.003661 0.022171 0.001715 0.000308
# 5 -0.002569 0.000969 -0.004744 0.001715 0.025406 -0.001995
# 6 0.004107 -0.001866 -0.004181 0.000308 -0.001995 0.022420
#
#
# Mechanical properties :
#
#
# Convention : Reuss Voigt Hill
#
# Bulk Modulus (GPa) = 32.36859 40.08779 36.22819
# Shear Modulus (GPa) = 38.22673 43.90982 41.06827
#
# Velocity S-wave (km/s) = 4.09411 4.38790 4.24355
# Velocity P-wave (km/s) = 6.04500 6.57642 6.31630
#
# Compressibility (1/GPa) = 0.03089414
#
# Stress axis : x y z
#
# Youngs Moduli (GPa) = 62.53266 107.69513 64.84417
#
# Poissons Ratio (x) = 0.27872 0.13019
# Poissons Ratio (y) = 0.16184 0.01987
# Poissons Ratio (z) = 0.12555 0.03301
#
# Static dielectric constant tensor:
#      x y z
#    x 1.940940 0.067780 -0.034150 
#    y 0.067780 1.852590 -0.025280 
#    z -0.034150 -0.025280 1.880180 
# 
# From -- ./inp_files/581199.got.cif
#   From: 2010.05.17/outbox.cif.g08.bks.cpg/sg2_291_cif.got.tgz:581199.got - 2010.06.03 11:33:40.
