data_PCOD9051128
_publ_section_title
;
Structure prediction by ZEFSAII (Michael W. Deem and Ramdas Pophale) SiO2 
 PCOD9051128
Probable space group: P -1
;
_chemical_formula_sum "Si O2"
_cell_formula_units_Z 14
_cell_length_a 6.902242
_cell_length_b 11.983885
_cell_length_c 7.676536
_cell_angle_alpha 104.655768
_cell_angle_beta 94.257998
_cell_angle_gamma 88.713706
_cell_volume 612.610055
_symmetry_space_group_name_H-M "P -1"
_symmetry_group_IT_number 2
_symmetry_cell_setting 'triclinic'
loop_
_space_group_symop_operation_xyz
x,y,z
-x,-y,-z
loop_
_atom_site_type_symbol
_atom_site_label
_atom_site_fract_x
_atom_site_fract_y
_atom_site_fract_z
Si Si1 0.307323 0.727925 0.867670
Si Si2 0.403456 0.108493 0.940125
Si Si3 0.932193 0.925834 0.304117
Si Si4 0.980920 0.533386 0.806812
Si Si5 0.394034 0.381292 0.405189
Si Si6 0.101810 0.291729 0.587486
Si Si7 0.949315 0.872789 0.816573
O O1 0.167712 0.617274 0.831652
O O2 0.448381 0.702404 0.704883
O O3 0.157894 0.831576 0.876858
O O4 0.458260 0.781765 0.038443
O O5 0.297370 0.063246 0.742886
O O6 0.224497 0.147297 0.068953
O O7 0.500000 0.000000 0.000000
O O8 0.953569 0.789800 0.286378
O O9 0.000000 0.000000 0.500000
O O10 0.043179 0.993945 0.187068
O O11 0.995843 0.413644 0.652772
O O12 0.786528 0.593098 0.733541
O O13 0.000000 0.500000 0.000000
O O14 0.500000 0.500000 0.500000
O O15 0.317549 0.331897 0.564826
O O16 0.067197 0.208611 0.387399
#
# Coordination Sequence:
#
# PCOD9051128 Si02
#       7
#     2   2   2   2   2   2   2
#     4  12  24  43  77 101 141 184 247 285 358 419
#     4  12  25  43  77 106 137 192 246 289 355 430
#     4  10  25  45  70 103 147 183 232 298 362 418
#     4  12  28  45  72 108 149 187 234 304 362 413
#     4  12  24  46  75 103 140 195 246 285 354 437
#     4  11  23  44  72 102 147 190 232 290 360 417
#     4  11  23  47  73 103 143 191 236 295 359 420
#
# _framework density 22.853034999999998
#
# number of rings (size 3 to 8) (size 9 to 14) (size 15 to 20)
#    0.000    0.571    5.714    1.714    4.000    1.714 
#    0.000    7.857    0.000    0.000    0.000    0.000 
#    0.000    0.000    0.000    0.000    0.000    0.000 
#
# Total GULP energy -78011.769132 kJ/mol
# GULP energy per Si atom -5572.269224 kJ/mol
# Density = 2.280102 g / cm^3
# Si number density = 22.853035 Si / 1000 Ang^3
#
#
#
# Elastic Constant Matrix: (Units=GPa)
#
#
# Indices 1 2 3 4 5 6 
#
# 1 122.6970 59.4491 35.9359 7.9321 3.4269 11.7673
# 2 59.4491 160.6355 37.1723 9.3312 -5.7497 18.8326
# 3 35.9359 37.1723 64.1079 10.6008 4.4714 -2.7632
# 4 7.9321 9.3312 10.6008 41.2919 7.8757 -4.6786
# 5 3.4269 -5.7497 4.4714 7.8757 46.6192 18.2855
# 6 11.7673 18.8326 -2.7632 -4.6786 18.2855 53.8625
#
#
#
# Elastic Compliance Matrix: (Units=1/GPa)
#
#
# Indices 1 2 3 4 5 6 
#
# 1 0.011038 -0.002795 -0.004558 -0.000524 0.000048 -0.001730
# 2 -0.002795 0.008795 -0.003679 -0.001619 0.003475 -0.003974
# 3 -0.004558 -0.003679 0.021136 -0.002586 -0.003393 0.004294
# 4 -0.000524 -0.001619 -0.002586 0.027170 -0.006511 0.005118
# 5 0.000048 0.003475 -0.003393 -0.006511 0.027769 -0.011392
# 6 -0.001730 -0.003974 0.004294 0.005118 -0.011392 0.024865
#
#
# Mechanical properties :
#
#
# Convention : Reuss Voigt Hill
#
# Bulk Modulus (GPa) = 52.89524 68.06166 60.47845
# Shear Modulus (GPa) = 33.52558 42.68026 38.10292
#
# Velocity S-wave (km/s) = 3.83431 4.32626 4.08769
# Velocity P-wave (km/s) = 6.54207 7.40286 6.98573
#
# Compressibility (1/GPa) = 0.01890529
#
# Stress axis : x y z
#
# Youngs Moduli (GPa) = 90.59741 113.69511 47.31261
#
# Poissons Ratio (x) = 0.31782 0.21564
# Poissons Ratio (y) = 0.25325 0.17406
# Poissons Ratio (z) = 0.41292 0.41828
#
# Static dielectric constant tensor:
#      x y z
#    x 1.964690 0.104860 0.062250 
#    y 0.104860 1.953550 -0.016330 
#    z 0.062250 -0.016330 1.969160 
# 
# From -- ./inp_files/131801.got.cif
#   From: 2010.05.17/outbox.cif.g08.bks.cpg/sg2_66_cif.got.tgz:131801.got - 2010.06.03 11:33:40.
