data_PCOD9051264
_publ_section_title
;
Structure prediction by ZEFSAII (Michael W. Deem and Ramdas Pophale) SiO2 
 PCOD9051264
Probable space group: P -1
;
_chemical_formula_sum "Si O2"
_cell_formula_units_Z 12
_cell_length_a 7.641898
_cell_length_b 4.865103
_cell_length_c 21.330762
_cell_angle_alpha 74.618081
_cell_angle_beta 40.215888
_cell_angle_gamma 85.370107
_cell_volume 484.158652
_symmetry_space_group_name_H-M "P -1"
_symmetry_group_IT_number 2
_symmetry_cell_setting 'triclinic'
loop_
_space_group_symop_operation_xyz
x,y,z
-x,-y,-z
loop_
_atom_site_type_symbol
_atom_site_label
_atom_site_fract_x
_atom_site_fract_y
_atom_site_fract_z
Si Si1 0.641627 0.379725 0.063386
Si Si2 0.688915 0.826808 0.592102
Si Si3 0.834589 0.362690 0.795163
Si Si4 0.564810 0.588451 0.202322
Si Si5 0.455206 0.375416 0.588991
Si Si6 0.105823 0.986782 0.078061
O O1 0.743375 0.118982 0.017743
O O2 0.789134 0.669639 0.968886
O O3 0.312616 0.377494 0.155470
O O4 0.710756 0.448505 0.113435
O O5 0.571835 0.664677 0.697752
O O6 0.675780 0.572681 0.560922
O O7 0.497076 0.047612 0.607151
O O8 0.000000 0.000000 0.500000
O O9 0.672840 0.287113 0.777841
O O10 0.798915 0.144785 0.876529
O O11 0.155866 0.421279 0.689863
O O12 0.786245 0.831260 0.162921
O O13 0.500000 0.500000 0.500000
#
# Coordination Sequence:
#
# PCOD9051264 Si02
#       6
#     2   2   2   2   2   2
#     4  10  26  42  72 102 150 194 242 294 352 432
#     4  12  27  51  78 108 148 191 244 312 372 442
#     4  10  25  45  74 106 145 189 246 292 367 424
#     4  10  25  45  74 106 145 189 246 292 367 424
#     4  12  27  51  78 108 148 191 244 312 372 442
#     4  12  22  48  66 106 150 194 242 294 352 422
#
# _framework density 24.785264999999999
#
# number of rings (size 3 to 8) (size 9 to 14) (size 15 to 20)
#    1.000    0.000    1.667    4.000    2.333    2.667 
#    3.000    0.000    0.000    0.000    0.000    0.000 
#    0.000    0.000    0.000    0.000    0.000    0.000 
#
# Total GULP energy -67181.505669 kJ/mol
# GULP energy per Si atom -5598.458806 kJ/mol
# Density = 2.472885 g / cm^3
# Si number density = 24.785265 Si / 1000 Ang^3
#
#
#
# Elastic Constant Matrix: (Units=GPa)
#
#
# Indices 1 2 3 4 5 6 
#
# 1 122.8011 13.9834 44.1288 -8.3545 14.3961 -15.9365
# 2 13.9834 82.2163 13.9174 -14.8522 3.1250 -12.0698
# 3 44.1288 13.9174 155.4192 -18.4439 14.9256 -16.9451
# 4 -8.3545 -14.8522 -18.4439 31.1624 -10.9594 3.1280
# 5 14.3961 3.1250 14.9256 -10.9594 65.1770 2.0933
# 6 -15.9365 -12.0698 -16.9451 3.1280 2.0933 40.8283
#
#
#
# Elastic Compliance Matrix: (Units=1/GPa)
#
#
# Indices 1 2 3 4 5 6 
#
# 1 0.009564 -0.000794 -0.002190 0.000041 -0.001652 0.002671
# 2 -0.000794 0.013890 0.000042 0.006257 0.000445 0.003312
# 3 -0.002190 0.000042 0.007783 0.003551 -0.000773 0.002155
# 4 0.000041 0.006257 0.003551 0.039095 0.005449 0.000065
# 5 -0.001652 0.000445 -0.000773 0.005449 0.016848 -0.002115
# 6 0.002671 0.003312 0.002155 0.000065 -0.002115 0.027513
#
#
# Mechanical properties :
#
#
# Convention : Reuss Voigt Hill
#
# Bulk Modulus (GPa) = 39.44036 56.05511 47.74774
# Shear Modulus (GPa) = 38.75213 46.66067 42.70640
#
# Velocity S-wave (km/s) = 3.95842 4.34360 4.15547
# Velocity P-wave (km/s) = 6.06955 6.91529 6.50618
#
# Compressibility (1/GPa) = 0.02535474
#
# Stress axis : x y z
#
# Youngs Moduli (GPa) = 104.56383 71.99211 128.48840
#
# Poissons Ratio (x) = 0.05714 0.28135
# Poissons Ratio (y) = 0.08299 -0.00544
# Poissons Ratio (z) = 0.22896 -0.00305
#
# Static dielectric constant tensor:
#      x y z
#    x 2.019120 0.003950 -0.071740 
#    y 0.003950 2.205760 -0.329170 
#    z -0.071740 -0.329170 2.392170 
# 
# From -- ./inp_files/605442.got.cif
#   From: 2010.05.17/outbox.cif.g08.bks.cpg/sg2_303_cif.got.tgz:605442.got - 2010.06.03 11:33:40.
