data_PCOD9051515
_publ_section_title
;
Structure prediction by ZEFSAII (Michael W. Deem and Ramdas Pophale) SiO2 
 PCOD9051515
Probable space group: P -1
;
_chemical_formula_sum "Si O2"
_cell_formula_units_Z 16
_cell_length_a 15.885225
_cell_length_b 11.435201
_cell_length_c 9.230903
_cell_angle_alpha 27.060076
_cell_angle_beta 114.579968
_cell_angle_gamma 106.206811
_cell_volume 676.579949
_symmetry_space_group_name_H-M "P -1"
_symmetry_group_IT_number 2
_symmetry_cell_setting 'triclinic'
loop_
_space_group_symop_operation_xyz
x,y,z
-x,-y,-z
loop_
_atom_site_type_symbol
_atom_site_label
_atom_site_fract_x
_atom_site_fract_y
_atom_site_fract_z
Si Si1 0.064378 0.714313 0.842012
Si Si2 0.382805 0.880190 0.551717
Si Si3 0.901008 0.230889 0.505406
Si Si4 0.585917 0.647870 0.425423
Si Si5 0.728318 0.509341 0.221130
Si Si6 0.779086 0.458093 0.619307
Si Si7 0.486729 0.059560 0.676046
Si Si8 0.081628 0.269127 0.739468
O O1 0.124143 0.728147 0.724332
O O2 0.130530 0.672802 0.076315
O O3 0.000000 0.000000 0.500000
O O4 0.000000 0.500000 0.000000
O O5 0.431590 0.876643 0.747038
O O6 0.319817 0.668380 0.722431
O O7 0.460795 0.816232 0.549673
O O8 0.328879 0.188193 0.151179
O O9 0.834885 0.472396 0.277450
O O10 0.014087 0.197783 0.642343
O O11 0.887414 0.969373 0.864114
O O12 0.500000 0.500000 0.500000
O O13 0.690802 0.504403 0.612996
O O14 0.580711 0.745090 0.479466
O O15 0.562264 0.891661 0.026137
O O16 0.737631 0.363550 0.545356
O O17 0.825169 0.679938 0.328650
O O18 0.000000 0.500000 0.500000
#
# Coordination Sequence:
#
# PCOD9051515 Si02
#       8
#     2   2   2   2   2   2   2   2
#     4  12  29  50  73 113 157 204 260 322 395 468
#     4  11  26  46  76 108 148 198 254 312 381 451
#     4  11  26  42  72 108 147 196 251 321 374 467
#     4  11  25  48  73 113 154 202 256 311 398 463
#     4  12  26  44  74 113 145 195 261 304 382 463
#     4  12  25  48  79 108 159 209 258 325 396 465
#     4  10  25  46  73 105 152 196 247 324 374 457
#     4  11  22  45  74 104 148 195 255 314 388 454
#
# _framework density 23.648351000000002
#
# number of rings (size 3 to 8) (size 9 to 14) (size 15 to 20)
#    0.000    0.750    3.750    2.250    5.250    2.000 
#    4.500    0.000    0.000    0.000    0.000    0.000 
#    0.000    0.000    0.000    0.000    0.000    0.000 
#
# Total GULP energy -89352.056160 kJ/mol
# GULP energy per Si atom -5584.503510 kJ/mol
# Density = 2.359453 g / cm^3
# Si number density = 23.648351 Si / 1000 Ang^3
#
#
#
# Elastic Constant Matrix: (Units=GPa)
#
#
# Indices 1 2 3 4 5 6 
#
# 1 119.7468 32.8818 5.9634 -10.2840 4.8229 -0.6732
# 2 32.8818 107.6121 24.9075 13.7832 1.7195 -10.0013
# 3 5.9634 24.9075 95.1868 13.5898 6.0134 -7.7287
# 4 -10.2840 13.7832 13.5898 39.5166 -0.5659 -2.9700
# 5 4.8229 1.7195 6.0134 -0.5659 28.6588 2.4770
# 6 -0.6732 -10.0013 -7.7287 -2.9700 2.4770 52.6430
#
#
#
# Elastic Compliance Matrix: (Units=1/GPa)
#
#
# Indices 1 2 3 4 5 6 
#
# 1 0.009661 -0.003390 -0.000191 0.003723 -0.001285 -0.000278
# 2 -0.003390 0.011477 -0.002090 -0.004045 0.000103 0.001597
# 3 -0.000191 -0.002090 0.011798 -0.003319 -0.002493 0.001263
# 4 0.003723 -0.004045 -0.003319 0.028868 0.000850 0.000381
# 5 -0.001285 0.000103 -0.002493 0.000850 0.035816 -0.002000
# 6 -0.000278 0.001597 0.001263 0.000381 -0.002000 0.019597
#
#
# Mechanical properties :
#
#
# Convention : Reuss Voigt Hill
#
# Bulk Modulus (GPa) = 46.30868 50.00570 48.15719
# Shear Modulus (GPa) = 36.83018 41.41654 39.12336
#
# Velocity S-wave (km/s) = 3.95068 4.18945 4.07182
# Velocity P-wave (km/s) = 6.35887 6.67783 6.52030
#
# Compressibility (1/GPa) = 0.02159422
#
# Stress axis : x y z
#
# Youngs Moduli (GPa) = 103.50590 87.12954 84.75721
#
# Poissons Ratio (x) = 0.29537 0.01620
# Poissons Ratio (y) = 0.35089 0.17715
# Poissons Ratio (z) = 0.01979 0.18211
#
# Static dielectric constant tensor:
#      x y z
#    x 1.955020 0.072210 0.005190 
#    y 0.072210 2.029010 0.018230 
#    z 0.005190 0.018230 1.934560 
# 
# From -- ./inp_files/56529.got.cif
#   From: 2010.05.17/outbox.cif.g08.bks.cpg/sg2_29_cif.got.tgz:56529.got - 2010.06.03 11:33:40.
