data_PCOD9051908
_publ_section_title
;
Structure prediction by ZEFSAII (Michael W. Deem and Ramdas Pophale) SiO2 
 PCOD9051908
Probable space group: P -1
;
_chemical_formula_sum "Si O2"
_cell_formula_units_Z 10
_cell_length_a 9.337941
_cell_length_b 7.804698
_cell_length_c 6.672265
_cell_angle_alpha 92.062034
_cell_angle_beta 62.486038
_cell_angle_gamma 111.279685
_cell_volume 396.736945
_symmetry_space_group_name_H-M "P -1"
_symmetry_group_IT_number 2
_symmetry_cell_setting 'triclinic'
loop_
_space_group_symop_operation_xyz
x,y,z
-x,-y,-z
loop_
_atom_site_type_symbol
_atom_site_label
_atom_site_fract_x
_atom_site_fract_y
_atom_site_fract_z
Si Si1 0.179470 0.249388 0.403495
Si Si2 0.652257 0.951640 0.990652
Si Si3 0.071901 0.654175 0.637613
Si Si4 0.571650 0.388092 0.610644
Si Si5 0.997139 0.802498 0.068114
O O1 0.269115 0.124830 0.244704
O O2 0.325557 0.457874 0.281541
O O3 0.990268 0.193761 0.417297
O O4 0.136207 0.255045 0.664897
O O5 0.804819 0.137288 0.980667
O O6 0.580194 0.791020 0.200436
O O7 0.500000 0.000000 0.000000
O O8 0.270857 0.680479 0.555351
O O9 0.000000 0.500000 0.500000
O O10 0.968687 0.645909 0.912049
O O11 0.500000 0.500000 0.500000
O O12 0.000000 0.000000 0.000000
#
# Coordination Sequence:
#
# PCOD9051908 Si02
#       5
#     2   2   2   2   2
#     4  11  25  50  73 105 154 201 253 302 376 462
#     4  12  27  46  76 114 157 192 248 320 384 435
#     4  10  25  48  75 104 148 198 256 296 376 452
#     4  11  26  47  73 110 151 196 251 310 379 441
#     4  12  25  45  79 108 148 199 255 312 371 446
#
# _framework density 25.205621000000001
#
# number of rings (size 3 to 8) (size 9 to 14) (size 15 to 20)
#    0.000    0.800    2.000    3.600    5.600    4.000 
#    3.600    0.000    0.000    0.000    0.000    0.000 
#    0.000    0.000    0.000    0.000    0.000    0.000 
#
# Total GULP energy -55782.777704 kJ/mol
# GULP energy per Si atom -5578.277770 kJ/mol
# Density = 2.514825 g / cm^3
# Si number density = 25.205621 Si / 1000 Ang^3
#
#
#
# Elastic Constant Matrix: (Units=GPa)
#
#
# Indices 1 2 3 4 5 6 
#
# 1 204.6499 28.4713 54.0791 -0.1769 -12.2570 -29.7089
# 2 28.4713 76.3914 61.5057 9.8982 -10.3781 -0.1193
# 3 54.0791 61.5057 187.1531 23.4328 -18.0599 -18.4096
# 4 -0.1769 9.8982 23.4328 61.6069 -7.4294 -1.9606
# 5 -12.2570 -10.3781 -18.0599 -7.4294 35.1526 6.6086
# 6 -29.7089 -0.1193 -18.4096 -1.9606 6.6086 41.9674
#
#
#
# Elastic Compliance Matrix: (Units=1/GPa)
#
#
# Indices 1 2 3 4 5 6 
#
# 1 0.005909 -0.001500 -0.000886 0.000789 0.000628 0.003728
# 2 -0.001500 0.018742 -0.005785 -0.000622 0.002658 -0.003994
# 3 -0.000886 -0.005785 0.008121 -0.001927 0.001254 0.002632
# 4 0.000789 -0.000622 -0.001927 0.017403 0.002763 0.000090
# 5 0.000628 0.002658 0.001254 0.002763 0.031396 -0.003813
# 6 0.003728 -0.003994 0.002632 0.000090 -0.003813 0.028215
#
#
# Mechanical properties :
#
#
# Convention : Reuss Voigt Hill
#
# Bulk Modulus (GPa) = 60.85872 84.03407 72.44639
# Shear Modulus (GPa) = 37.99277 49.35458 43.67367
#
# Velocity S-wave (km/s) = 3.88663 4.42982 4.16708
# Velocity P-wave (km/s) = 6.65871 7.71856 7.20814
#
# Compressibility (1/GPa) = 0.01643150
#
# Stress axis : x y z
#
# Youngs Moduli (GPa) = 169.24320 53.35520 123.13217
#
# Poissons Ratio (x) = 0.08003 0.10908
# Poissons Ratio (y) = 0.25387 0.71226
# Poissons Ratio (z) = 0.14993 0.30863
#
# Static dielectric constant tensor:
#      x y z
#    x 2.275940 -0.048800 0.221940 
#    y -0.048800 2.074310 -0.066960 
#    z 0.221940 -0.066960 2.181460 
# 
# From -- ./inp_files/16044.got.cif
#   From: 2010.05.17/outbox.cif.g08.bks.cpg/sg2_9_cif.got.tgz:16044.got - 2010.06.03 11:33:40.
