data_PCOD9051183
_publ_section_title
;
Structure prediction by ZEFSAII (Michael W. Deem and Ramdas Pophale) SiO2 
 PCOD9051183
Probable space group: P -1
;
_chemical_formula_sum "Si O2"
_cell_formula_units_Z 12
_cell_length_a 15.504340
_cell_length_b 7.554568
_cell_length_c 5.251954
_cell_angle_alpha 94.057460
_cell_angle_beta 117.724848
_cell_angle_gamma 116.126714
_cell_volume 458.548456
_symmetry_space_group_name_H-M "P -1"
_symmetry_group_IT_number 2
_symmetry_cell_setting 'triclinic'
loop_
_space_group_symop_operation_xyz
x,y,z
-x,-y,-z
loop_
_atom_site_type_symbol
_atom_site_label
_atom_site_fract_x
_atom_site_fract_y
_atom_site_fract_z
Si Si1 0.092362 0.019933 0.424315
Si Si2 0.937540 0.650405 0.776517
Si Si3 0.321237 0.567755 0.093218
Si Si4 0.162494 0.708882 0.008223
Si Si5 0.701918 0.858337 0.959774
Si Si6 0.537445 0.225823 0.187843
O O1 0.039767 0.669525 0.746500
O O2 0.135431 0.251768 0.400172
O O3 0.000000 0.000000 0.500000
O O4 0.020244 0.828718 0.116723
O O5 0.866657 0.425481 0.787149
O O6 0.217628 0.605560 0.904353
O O7 0.395505 0.622657 0.943409
O O8 0.287725 0.338024 0.115202
O O9 0.389774 0.716504 0.444703
O O10 0.255254 0.958278 0.171326
O O11 0.201143 0.023830 0.680384
O O12 0.576465 0.779738 0.883260
O O13 0.500000 0.000000 0.000000
#
# Coordination Sequence:
#
# PCOD9051183 Si02
#       6
#     2   2   2   2   2   2
#     4  11  23  46  75 108 154 201 261 311 396 460
#     4  10  25  45  71 114 155 201 254 326 378 470
#     4  12  29  52  81 117 158 204 264 329 393 467
#     4  11  25  47  75 111 154 204 258 316 392 464
#     4  12  27  48  81 111 155 210 257 325 395 463
#     4  12  28  54  81 117 157 203 266 327 394 469
#
# _framework density 26.169535
#
# number of rings (size 3 to 8) (size 9 to 14) (size 15 to 20)
#    0.000    0.667    3.333    2.500    7.000    0.667 
#    3.000    0.000    0.000    0.000    0.000    0.000 
#    0.000    0.000    0.000    0.000    0.000    0.000 
#
# Total GULP energy -67223.747041 kJ/mol
# GULP energy per Si atom -5601.978920 kJ/mol
# Density = 2.610997 g / cm^3
# Si number density = 26.169535 Si / 1000 Ang^3
#
#
#
# Elastic Constant Matrix: (Units=GPa)
#
#
# Indices 1 2 3 4 5 6 
#
# 1 153.9549 48.4364 32.8331 -4.0270 15.2609 20.3389
# 2 48.4364 195.2301 9.6879 -19.9507 -0.9966 0.4610
# 3 32.8331 9.6879 86.6829 2.5442 -4.8562 -2.3181
# 4 -4.0270 -19.9507 2.5442 36.8272 -13.1376 -4.3830
# 5 15.2609 -0.9966 -4.8562 -13.1376 45.9506 3.0852
# 6 20.3389 0.4610 -2.3181 -4.3830 3.0852 50.7253
#
#
#
# Elastic Compliance Matrix: (Units=1/GPa)
#
#
# Indices 1 2 3 4 5 6 
#
# 1 0.008643 -0.002162 -0.003274 -0.001670 -0.003504 -0.003527
# 2 -0.002162 0.006049 0.000164 0.003827 0.001891 0.001035
# 3 -0.003274 0.000164 0.012938 -0.000133 0.002303 0.001751
# 4 -0.001670 0.003827 -0.000133 0.032905 0.009838 0.002874
# 5 -0.003504 0.001891 0.002303 0.009838 0.025972 0.000763
# 6 -0.003527 0.001035 0.001751 0.002874 0.000763 0.021401
#
#
# Mechanical properties :
#
#
# Convention : Reuss Voigt Hill
#
# Bulk Modulus (GPa) = 58.52627 68.64254 63.58441
# Shear Modulus (GPa) = 40.27476 49.69465 44.98470
#
# Velocity S-wave (km/s) = 3.92726 4.36242 4.15055
# Velocity P-wave (km/s) = 6.55571 7.18757 6.87890
#
# Compressibility (1/GPa) = 0.01708634
#
# Stress axis : x y z
#
# Youngs Moduli (GPa) = 115.69443 165.32388 77.29335
#
# Poissons Ratio (x) = 0.35746 0.25305
# Poissons Ratio (y) = 0.25015 -0.01270
# Poissons Ratio (z) = 0.37877 -0.02716
#
# Static dielectric constant tensor:
#      x y z
#    x 2.060240 -0.006700 0.004730 
#    y -0.006700 2.108100 -0.066560 
#    z 0.004730 -0.066560 2.128750 
# 
# From -- ./inp_files/106812.got.cif
#   From: 2010.05.17/outbox.cif.g08.bks.cpg/sg2_54_cif.got.tgz:106812.got - 2010.06.03 11:33:40.
