data_PCOD9051584
_publ_section_title
;
Structure prediction by ZEFSAII (Michael W. Deem and Ramdas Pophale) SiO2 
 PCOD9051584
Probable space group: P -1
;
_chemical_formula_sum "Si O2"
_cell_formula_units_Z 12
_cell_length_a 13.645992
_cell_length_b 21.827813
_cell_length_c 5.021802
_cell_angle_alpha 60.849666
_cell_angle_beta 108.007679
_cell_angle_gamma 157.749272
_cell_volume 446.963083
_symmetry_space_group_name_H-M "P -1"
_symmetry_group_IT_number 2
_symmetry_cell_setting 'triclinic'
loop_
_space_group_symop_operation_xyz
x,y,z
-x,-y,-z
loop_
_atom_site_type_symbol
_atom_site_label
_atom_site_fract_x
_atom_site_fract_y
_atom_site_fract_z
Si Si1 0.917514 0.519282 0.546110
Si Si2 0.350997 0.117346 0.177472
Si Si3 0.487614 0.926142 0.461290
Si Si4 0.206186 0.218432 0.840614
Si Si5 0.985323 0.184852 0.089525
Si Si6 0.409865 0.563503 0.814603
O O1 0.791132 0.497659 0.286387
O O2 0.000000 0.500000 0.500000
O O3 0.188711 0.718053 0.517114
O O4 0.661249 0.345653 0.911081
O O5 0.416615 0.077143 0.256962
O O6 0.174745 0.987955 0.573005
O O7 0.120233 0.008350 0.029232
O O8 0.500000 0.000000 0.500000
O O9 0.723509 0.073165 0.111311
O O10 0.396432 0.330367 0.503431
O O11 0.379239 0.291154 0.068647
O O12 0.156400 0.266362 0.807071
O O13 0.208741 0.366725 0.083974
#
# Coordination Sequence:
#
# PCOD9051584 Si02
#       6
#     2   2   2   2   2   2
#     4  12  29  51  78 121 168 215 268 335 416 486
#     4  10  26  48  81 110 162 212 259 342 398 477
#     4  10  25  49  83 116 158 212 281 328 402 482
#     4  12  25  52  75 123 157 210 279 330 411 476
#     4  10  25  46  79 117 154 212 263 344 391 478
#     4  12  29  44  86 114 163 214 271 336 401 492
#
# _framework density 26.847854999999999
#
# number of rings (size 3 to 8) (size 9 to 14) (size 15 to 20)
#    1.000    0.000    1.667    2.500    9.333    3.333 
#    0.000    0.000    0.000    0.000    0.000    0.000 
#    0.000    0.000    0.000    0.000    0.000    0.000 
#
# Total GULP energy -67103.386100 kJ/mol
# GULP energy per Si atom -5591.948842 kJ/mol
# Density = 2.678675 g / cm^3
# Si number density = 26.847855 Si / 1000 Ang^3
#
#
#
# Elastic Constant Matrix: (Units=GPa)
#
#
# Indices 1 2 3 4 5 6 
#
# 1 187.5322 92.1657 57.5963 5.3203 -25.5926 24.4652
# 2 92.1657 215.4231 77.1065 -14.7023 -27.2056 29.8933
# 3 57.5963 77.1065 134.1333 -1.1402 -19.3474 -1.7307
# 4 5.3203 -14.7023 -1.1402 44.0795 -1.6535 -2.0881
# 5 -25.5926 -27.2056 -19.3474 -1.6535 39.0609 2.2835
# 6 24.4652 29.8933 -1.7307 -2.0881 2.2835 40.5909
#
#
#
# Elastic Compliance Matrix: (Units=1/GPa)
#
#
# Indices 1 2 3 4 5 6 
#
# 1 0.007763 -0.001881 -0.001882 -0.001673 0.002985 -0.003628
# 2 -0.001881 0.007865 -0.003321 0.002648 0.002995 -0.004832
# 3 -0.001882 -0.003321 0.010418 -0.000374 0.001368 0.003929
# 4 -0.001673 0.002648 -0.000374 0.023829 0.001561 0.000180
# 5 0.002985 0.002995 0.001368 0.001561 0.030713 -0.005594
# 6 -0.003628 -0.004832 0.003929 0.000180 -0.005594 0.030873
#
#
# Mechanical properties :
#
#
# Convention : Reuss Voigt Hill
#
# Bulk Modulus (GPa) = 84.20499 110.09174 97.14836
# Shear Modulus (GPa) = 38.58307 45.42759 42.00533
#
# Velocity S-wave (km/s) = 3.79502 4.11790 3.95976
# Velocity P-wave (km/s) = 7.11581 7.98150 7.56105
#
# Compressibility (1/GPa) = 0.01187578
#
# Stress axis : x y z
#
# Youngs Moduli (GPa) = 128.81030 127.14110 95.99065
#
# Poissons Ratio (x) = 0.23921 0.18070
# Poissons Ratio (y) = 0.24235 0.31882
# Poissons Ratio (z) = 0.24248 0.42228
#
# Static dielectric constant tensor:
#      x y z
#    x 2.117340 -0.000080 0.050180 
#    y -0.000080 2.074450 0.004290 
#    z 0.050180 0.004290 2.189650 
# 
# From -- ./inp_files/101038.got.cif
#   From: 2010.05.17/outbox.cif.g08.bks.cpg/sg2_51_cif.got.tgz:101038.got - 2010.06.03 11:33:40.
