data_PCOD9051323
_publ_section_title
;
Structure prediction by ZEFSAII (Michael W. Deem and Ramdas Pophale) SiO2 
 PCOD9051323
Probable space group: P -1
;
_chemical_formula_sum "Si O2"
_cell_formula_units_Z 14
_cell_length_a 20.226361
_cell_length_b 6.197140
_cell_length_c 8.283569
_cell_angle_alpha 122.546269
_cell_angle_beta 136.554560
_cell_angle_gamma 54.378944
_cell_volume 567.964354
_symmetry_space_group_name_H-M "P -1"
_symmetry_group_IT_number 2
_symmetry_cell_setting 'triclinic'
loop_
_space_group_symop_operation_xyz
x,y,z
-x,-y,-z
loop_
_atom_site_type_symbol
_atom_site_label
_atom_site_fract_x
_atom_site_fract_y
_atom_site_fract_z
Si Si1 0.872751 0.295250 0.179372
Si Si2 0.762336 0.337999 0.477414
Si Si3 0.909066 0.783109 0.606207
Si Si4 0.487327 0.828288 0.662531
Si Si5 0.109790 0.268348 0.091685
Si Si6 0.577894 0.605887 0.082878
Si Si7 0.335877 0.530814 0.310636
O O1 0.882427 0.509324 0.416878
O O2 0.971795 0.275046 0.236808
O O3 0.767506 0.430729 0.952350
O O4 0.881831 0.983773 0.113112
O O5 0.812449 0.565129 0.707661
O O6 0.692576 0.405012 0.222171
O O7 0.688690 0.354593 0.506888
O O8 0.845468 0.041209 0.492572
O O9 0.877996 0.872609 0.768826
O O10 0.402038 0.697683 0.413150
O O11 0.580603 0.769174 0.678219
O O12 0.425289 0.133506 0.714700
O O13 0.539956 0.703059 0.876327
O O14 0.000000 0.500000 0.000000
O O15 0.500000 0.500000 0.000000
#
# Coordination Sequence:
#
# PCOD9051323 Si02
#       7
#     2   2   2   2   2   2   2
#     4  11  24  46  72 100 145 188 226 291 358 416
#     4  12  25  44  74 103 140 190 235 288 357 418
#     4  11  26  47  68 107 147 181 234 295 349 425
#     4  10  25  46  66 101 140 178 235 294 346 415
#     4  12  24  45  72 102 142 187 233 288 350 420
#     4  11  24  44  70  99 137 181 234 293 350 414
#     4  11  23  45  71  96 139 188 225 288 355 411
#
# _framework density 24.649436000000001
#
# number of rings (size 3 to 8) (size 9 to 14) (size 15 to 20)
#    0.000    0.857    4.286    2.143    4.000    1.143 
#    5.143    0.000    0.000    0.000    0.000    0.000 
#    0.000    0.000    0.000    0.000    0.000    0.000 
#
# Total GULP energy -78312.062407 kJ/mol
# GULP energy per Si atom -5593.718743 kJ/mol
# Density = 2.459333 g / cm^3
# Si number density = 24.649436 Si / 1000 Ang^3
#
#
#
# Elastic Constant Matrix: (Units=GPa)
#
#
# Indices 1 2 3 4 5 6 
#
# 1 68.8369 1.3809 13.5549 -3.5074 13.9654 -18.6201
# 2 1.3809 103.2799 56.7316 3.5052 15.5146 -11.3858
# 3 13.5549 56.7316 112.5455 5.3822 28.4413 -12.9918
# 4 -3.5074 3.5052 5.3822 53.1932 -10.7410 0.6570
# 5 13.9654 15.5146 28.4413 -10.7410 42.1754 -0.7531
# 6 -18.6201 -11.3858 -12.9918 0.6570 -0.7531 25.1133
#
#
#
# Elastic Compliance Matrix: (Units=1/GPa)
#
#
# Indices 1 2 3 4 5 6 
#
# 1 0.020323 0.002649 0.000010 -0.000562 -0.007567 0.016063
# 2 0.002649 0.013941 -0.006286 -0.000536 -0.001814 0.004992
# 3 0.000010 -0.006286 0.014829 -0.002825 -0.008328 0.004654
# 4 -0.000562 -0.000536 -0.002825 0.020628 0.007498 -0.002436
# 5 -0.007567 -0.001814 -0.008328 0.007498 0.034232 -0.009911
# 6 0.016063 0.004992 0.004654 -0.002436 -0.009911 0.056167
#
#
# Mechanical properties :
#
#
# Convention : Reuss Voigt Hill
#
# Bulk Modulus (GPa) = 23.90011 47.55526 35.72768
# Shear Modulus (GPa) = 27.57556 38.29605 32.93581
#
# Velocity S-wave (km/s) = 3.34834 3.94588 3.65933
# Velocity P-wave (km/s) = 4.96644 6.33202 5.69035
#
# Compressibility (1/GPa) = 0.04184082
#
# Stress axis : x y z
#
# Youngs Moduli (GPa) = 49.20414 71.73096 67.43325
#
# Poissons Ratio (x) = -0.19003 -0.00069
# Poissons Ratio (y) = -0.13035 0.42389
# Poissons Ratio (z) = -0.00051 0.45091
#
# Static dielectric constant tensor:
#      x y z
#    x 2.019500 -0.113900 -0.081030 
#    y -0.113900 2.302750 0.136470 
#    z -0.081030 0.136470 1.983510 
# 
# From -- ./inp_files/38758.got.cif
#   From: 2010.05.17/outbox.cif.g08.bks.cpg/sg2_20_cif.got.tgz:38758.got - 2010.06.03 11:33:40.
