data_PCOD9051532
_publ_section_title
;
Structure prediction by ZEFSAII (Michael W. Deem and Ramdas Pophale) SiO2 
 PCOD9051532
Probable space group: P -1
;
_chemical_formula_sum "Si O2"
_cell_formula_units_Z 12
_cell_length_a 10.291823
_cell_length_b 7.753870
_cell_length_c 7.455440
_cell_angle_alpha 59.436859
_cell_angle_beta 107.876478
_cell_angle_gamma 98.884252
_cell_volume 487.563028
_symmetry_space_group_name_H-M "P -1"
_symmetry_group_IT_number 2
_symmetry_cell_setting 'triclinic'
loop_
_space_group_symop_operation_xyz
x,y,z
-x,-y,-z
loop_
_atom_site_type_symbol
_atom_site_label
_atom_site_fract_x
_atom_site_fract_y
_atom_site_fract_z
Si Si1 0.422241 0.569435 0.113835
Si Si2 0.138878 0.507674 0.443187
Si Si3 0.626298 0.853919 0.646146
Si Si4 0.175770 0.800250 0.007468
Si Si5 0.084671 0.154078 0.338162
Si Si6 0.672900 0.788678 0.119169
O O1 0.414179 0.364937 0.331656
O O2 0.268478 0.654622 0.998124
O O3 0.516407 0.749463 0.133036
O O4 0.500000 0.500000 0.000000
O O5 0.185135 0.714074 0.259982
O O6 0.109820 0.360394 0.342277
O O7 0.251055 0.407291 0.671243
O O8 0.000000 0.500000 0.500000
O O9 0.765085 0.933570 0.579716
O O10 0.500000 0.000000 0.500000
O O11 0.667678 0.811686 0.891107
O O12 0.015048 0.805240 0.892608
O O13 0.241944 0.017659 0.889679
O O14 0.000000 0.000000 0.500000
#
# Coordination Sequence:
#
# PCOD9051532 Si02
#       6
#     2   2   2   2   2   2
#     4  10  25  46  74 102 149 199 249 302 370 442
#     4  12  28  45  75 108 150 194 246 313 369 441
#     4  11  27  49  78 109 151 203 246 306 377 452
#     4  12  26  49  77 107 154 193 252 311 372 445
#     4  12  27  47  76 110 151 197 252 302 380 437
#     4  11  27  47  73 112 148 192 256 301 377 437
#
# _framework density 24.612200000000001
#
# number of rings (size 3 to 8) (size 9 to 14) (size 15 to 20)
#    0.000    0.667    3.333    2.000   14.000    3.333 
#    0.000    0.000    0.000    0.000    0.000    0.000 
#    0.000    0.000    0.000    0.000    0.000    0.000 
#
# Total GULP energy -67104.359231 kJ/mol
# GULP energy per Si atom -5592.029936 kJ/mol
# Density = 2.455618 g / cm^3
# Si number density = 24.612200 Si / 1000 Ang^3
#
#
#
# Elastic Constant Matrix: (Units=GPa)
#
#
# Indices 1 2 3 4 5 6 
#
# 1 194.2039 26.4834 49.5843 -13.4171 7.4854 26.9889
# 2 26.4834 77.3670 14.0919 -8.6428 -0.4190 22.5677
# 3 49.5843 14.0919 144.3213 -7.3634 3.4163 12.7075
# 4 -13.4171 -8.6428 -7.3634 34.8394 4.9341 -5.9922
# 5 7.4854 -0.4190 3.4163 4.9341 37.7824 -3.0906
# 6 26.9889 22.5677 12.7075 -5.9922 -3.0906 33.9407
#
#
#
# Elastic Compliance Matrix: (Units=1/GPa)
#
#
# Indices 1 2 3 4 5 6 
#
# 1 0.006368 -0.000565 -0.001670 0.001513 -0.001637 -0.003945
# 2 -0.000565 0.016329 -0.000397 0.002146 -0.000765 -0.009951
# 3 -0.001670 -0.000397 0.007700 0.000758 -0.000568 -0.001209
# 4 0.001513 0.002146 0.000758 0.030947 -0.004209 0.002166
# 5 -0.001637 -0.000765 -0.000568 -0.004209 0.027695 0.003802
# 6 -0.003945 -0.009951 -0.001209 0.002166 0.003802 0.040398
#
#
# Mechanical properties :
#
#
# Convention : Reuss Voigt Hill
#
# Bulk Modulus (GPa) = 39.78415 66.24569 53.01492
# Shear Modulus (GPa) = 34.94580 43.02800 38.98690
#
# Velocity S-wave (km/s) = 3.77219 4.18573 3.98433
# Velocity P-wave (km/s) = 5.93060 7.09469 6.53860
#
# Compressibility (1/GPa) = 0.02513564
#
# Stress axis : x y z
#
# Youngs Moduli (GPa) = 157.02415 61.24000 129.87138
#
# Poissons Ratio (x) = 0.03459 0.21682
# Poissons Ratio (y) = 0.08870 0.05150
# Poissons Ratio (z) = 0.26215 0.02429
#
# Static dielectric constant tensor:
#      x y z
#    x 1.991480 0.043540 -0.010080 
#    y 0.043540 1.730310 -0.150730 
#    z -0.010080 -0.150730 1.893490 
# 
# From -- ./inp_files/156537.got.cif
#   From: 2010.05.17/outbox.cif.g08.bks.cpg/sg2_79_cif.got.tgz:156537.got - 2010.06.03 11:33:40.
