data_PCOD9051324
_publ_section_title
;
Structure prediction by ZEFSAII (Michael W. Deem and Ramdas Pophale) SiO2 
 PCOD9051324
Probable space group: P -1
;
_chemical_formula_sum "Si O2"
_cell_formula_units_Z 15
_cell_length_a 7.810949
_cell_length_b 9.055444
_cell_length_c 14.933002
_cell_angle_alpha 45.635474
_cell_angle_beta 61.597245
_cell_angle_gamma 92.295106
_cell_volume 535.032223
_symmetry_space_group_name_H-M "P -1"
_symmetry_group_IT_number 2
_symmetry_cell_setting 'triclinic'
loop_
_space_group_symop_operation_xyz
x,y,z
-x,-y,-z
loop_
_atom_site_type_symbol
_atom_site_label
_atom_site_fract_x
_atom_site_fract_y
_atom_site_fract_z
Si Si1 0.380617 0.820735 0.516122
Si Si2 0.154207 0.278296 0.032122
Si Si3 0.088117 0.744306 0.072324
Si Si4 0.311767 0.503334 0.396024
Si Si5 0.108661 0.803886 0.242390
Si Si6 0.500000 0.500000 0.500000
Si Si7 0.746732 0.544986 0.892812
Si Si8 0.307174 0.224648 0.348393
O O1 0.140515 0.549470 0.722047
O O2 0.519799 0.747413 0.448432
O O3 0.500000 0.000000 0.500000
O O4 0.312451 0.992687 0.412534
O O5 0.985285 0.186626 0.027894
O O6 0.413986 0.523636 0.832608
O O7 0.079363 0.355081 0.106799
O O8 0.182586 0.065707 0.153887
O O9 0.152138 0.871232 0.099181
O O10 0.301167 0.718577 0.009728
O O11 0.226095 0.665974 0.306828
O O12 0.568836 0.652493 0.315977
O O13 0.244899 0.280983 0.437911
O O14 0.179137 0.387665 0.577450
O O15 0.838354 0.734794 0.705920
O O16 0.500000 0.500000 0.000000
#
# Coordination Sequence:
#
# PCOD9051324 Si02
#       8
#     2   2   2   2   2   1   2   2
#     4  12  25  44  77 109 148 192 251 315 371 447
#     4  11  25  45  70 106 146 199 246 298 374 452
#     4  12  23  48  72 104 146 198 248 306 378 443
#     4  11  24  46  70 107 146 190 251 307 373 444
#     4  11  26  45  70 109 148 190 250 312 375 446
#     4  12  24  44  72 112 142 192 246 308 370 446
#     4  10  25  46  66 103 143 191 250 301 372 450
#     4  11  24  48  71 103 150 195 249 306 382 444
#
# _framework density 28.035698
#
# number of rings (size 3 to 8) (size 9 to 14) (size 15 to 20)
#    0.000    0.800    5.333    0.800    3.733    1.067 
#    4.800    0.000    0.000    0.000    0.000    0.000 
#    0.000    0.000    0.000    0.000    0.000    0.000 
#
# Total GULP energy -83688.166917 kJ/mol
# GULP energy per Si atom -5579.211128 kJ/mol
# Density = 2.797189 g / cm^3
# Si number density = 28.035698 Si / 1000 Ang^3
#
#
#
# Elastic Constant Matrix: (Units=GPa)
#
#
# Indices 1 2 3 4 5 6 
#
# 1 122.1843 47.0308 35.1036 18.6183 44.0411 -18.4087
# 2 47.0308 157.7124 33.1942 23.4569 25.9111 -20.2806
# 3 35.1036 33.1942 57.1859 10.2502 7.1940 2.5034
# 4 18.6183 23.4569 10.2502 53.6812 17.3893 15.2876
# 5 44.0411 25.9111 7.1940 17.3893 52.9835 2.5063
# 6 -18.4087 -20.2806 2.5034 15.2876 2.5063 62.9340
#
#
#
# Elastic Compliance Matrix: (Units=1/GPa)
#
#
# Indices 1 2 3 4 5 6 
#
# 1 0.016006 -0.000071 -0.008232 -0.001790 -0.011844 0.005893
# 2 -0.000071 0.008665 -0.004243 -0.003147 -0.002750 0.003815
# 3 -0.008232 -0.004243 0.024558 -0.000536 0.005989 -0.004860
# 4 -0.001790 -0.003147 -0.000536 0.024248 -0.004516 -0.007227
# 5 -0.011844 -0.002750 0.005989 -0.004516 0.030956 -0.004725
# 6 0.005893 0.003815 -0.004860 -0.007227 -0.004725 0.020980
#
#
# Mechanical properties :
#
#
# Convention : Reuss Voigt Hill
#
# Bulk Modulus (GPa) = 41.42731 63.08221 52.25476
# Shear Modulus (GPa) = 31.53553 48.70334 40.11943
#
# Velocity S-wave (km/s) = 3.35749 4.17248 3.78698
# Velocity P-wave (km/s) = 5.46251 6.76479 6.14823
#
# Compressibility (1/GPa) = 0.02413866
#
# Stress axis : x y z
#
# Youngs Moduli (GPa) = 62.47561 115.40278 40.71941
#
# Poissons Ratio (x) = 0.00816 0.33518
# Poissons Ratio (y) = 0.00442 0.17279
# Poissons Ratio (z) = 0.51427 0.48970
#
# Static dielectric constant tensor:
#      x y z
#    x 3.022070 0.064490 -0.082080 
#    y 0.064490 2.177010 0.046720 
#    z -0.082080 0.046720 2.369280 
# 
# From -- ./inp_files/404361.got.cif
#   From: 2010.05.17/outbox.cif.g08.bks.cpg/sg2_203_cif.got.tgz:404361.got - 2010.06.03 11:33:40.
