data_PCOD9051304
_publ_section_title
;
Structure prediction by ZEFSAII (Michael W. Deem and Ramdas Pophale) SiO2 
 PCOD9051304
Probable space group: P -1
;
_chemical_formula_sum "Si O2"
_cell_formula_units_Z 8
_cell_length_a 5.131772
_cell_length_b 14.648054
_cell_length_c 12.110441
_cell_angle_alpha 27.523735
_cell_angle_beta 71.049811
_cell_angle_gamma 54.382368
_cell_volume 294.099072
_symmetry_space_group_name_H-M "P -1"
_symmetry_group_IT_number 2
_symmetry_cell_setting 'triclinic'
loop_
_space_group_symop_operation_xyz
x,y,z
-x,-y,-z
loop_
_atom_site_type_symbol
_atom_site_label
_atom_site_fract_x
_atom_site_fract_y
_atom_site_fract_z
Si Si1 0.747909 0.937555 0.137205
Si Si2 0.312841 0.397808 0.376931
Si Si3 0.389837 0.324887 0.195352
Si Si4 0.164950 0.930341 0.799650
O O1 0.913480 0.646895 0.468058
O O2 0.590766 0.097052 0.104924
O O3 0.500000 0.000000 0.000000
O O4 0.000000 0.000000 0.000000
O O5 0.347095 0.288504 0.367075
O O6 0.180429 0.686034 0.076129
O O7 0.735580 0.201244 0.576097
O O8 0.689859 0.088583 0.323141
O O9 0.500000 0.500000 0.000000
O O10 0.000000 0.500000 0.000000
#
# Coordination Sequence:
#
# PCOD9051304 Si02
#       4
#     2   2   2   2
#     4  12  28  51  78 111 150 208 260 310 372 446
#     4  11  27  51  79 114 156 198 251 316 382 452
#     4  10  25  45  79 115 152 194 246 309 389 457
#     4  11  27  51  79 114 156 198 251 316 382 452
#
# _framework density 27.201718
#
# number of rings (size 3 to 8) (size 9 to 14) (size 15 to 20)
#    0.000    1.000    2.500    0.750   14.000    3.000 
#    0.000    0.000    0.000    0.000    0.000    0.000 
#    0.000    0.000    0.000    0.000    0.000    0.000 
#
# Total GULP energy -44832.088266 kJ/mol
# GULP energy per Si atom -5604.011033 kJ/mol
# Density = 2.713981 g / cm^3
# Si number density = 27.201718 Si / 1000 Ang^3
#
#
#
# Elastic Constant Matrix: (Units=GPa)
#
#
# Indices 1 2 3 4 5 6 
#
# 1 194.6697 48.5760 53.8288 22.4474 6.1806 29.8231
# 2 48.5760 145.0585 35.4917 35.8700 -10.7078 36.4568
# 3 53.8288 35.4917 133.5464 35.1861 -13.2306 -3.7906
# 4 22.4474 35.8700 35.1861 65.4163 -5.7709 2.2302
# 5 6.1806 -10.7078 -13.2306 -5.7709 49.1617 10.1017
# 6 29.8231 36.4568 -3.7906 2.2302 10.1017 66.9621
#
#
#
# Elastic Compliance Matrix: (Units=1/GPa)
#
#
# Indices 1 2 3 4 5 6 
#
# 1 0.006497 -0.000999 -0.002437 -0.000405 -0.001269 -0.002283
# 2 -0.000999 0.010064 -0.001058 -0.004191 0.002641 -0.005353
# 3 -0.002437 -0.001058 0.010019 -0.003877 0.001891 0.002072
# 4 -0.000405 -0.004191 -0.003877 0.019763 0.000092 0.001570
# 5 -0.001269 0.002641 0.001891 0.000092 0.022449 -0.004155
# 6 -0.002283 -0.005353 0.002072 0.001570 -0.004155 0.019557
#
#
# Mechanical properties :
#
#
# Convention : Reuss Voigt Hill
#
# Bulk Modulus (GPa) = 56.84610 83.22975 70.03793
# Shear Modulus (GPa) = 48.44928 58.66657 53.55793
#
# Velocity S-wave (km/s) = 4.22490 4.64909 4.44206
# Velocity P-wave (km/s) = 6.68902 7.71248 7.21891
#
# Compressibility (1/GPa) = 0.01759136
#
# Stress axis : x y z
#
# Youngs Moduli (GPa) = 153.92385 99.36614 99.81024
#
# Poissons Ratio (x) = 0.09929 0.24323
# Poissons Ratio (y) = 0.15381 0.10559
# Poissons Ratio (z) = 0.37510 0.10512
#
# Static dielectric constant tensor:
#      x y z
#    x 2.111330 -0.057980 -0.032240 
#    y -0.057980 2.210140 -0.010590 
#    z -0.032240 -0.010590 2.091450 
# 
# From -- ./inp_files/1423.got.cif
#   From: 2010.05.17/outbox.cif.g08.bks.cpg/sg2_1_cif.got.tgz:1423.got - 2010.06.03 11:33:40.
