data_PCOD9051755
_publ_section_title
;
Structure prediction by ZEFSAII (Michael W. Deem and Ramdas Pophale) SiO2 
 PCOD9051755
Probable space group: P -1
;
_chemical_formula_sum "Si O2"
_cell_formula_units_Z 16
_cell_length_a 9.660305
_cell_length_b 8.659568
_cell_length_c 12.202320
_cell_angle_alpha 128.162347
_cell_angle_beta 124.041064
_cell_angle_gamma 77.755749
_cell_volume 650.883941
_symmetry_space_group_name_H-M "P -1"
_symmetry_group_IT_number 2
_symmetry_cell_setting 'triclinic'
loop_
_space_group_symop_operation_xyz
x,y,z
-x,-y,-z
loop_
_atom_site_type_symbol
_atom_site_label
_atom_site_fract_x
_atom_site_fract_y
_atom_site_fract_z
Si Si1 0.588528 0.327676 0.506767
Si Si2 0.584492 0.918859 0.277099
Si Si3 0.897097 0.605769 0.416585
Si Si4 0.495627 0.404055 0.735552
Si Si5 0.357837 0.130543 0.967114
Si Si6 0.984675 0.894375 0.064054
Si Si7 0.022779 0.536274 0.222902
Si Si8 0.101819 0.970712 0.368709
O O1 0.500000 0.500000 0.500000
O O2 0.561759 0.306760 0.616100
O O3 0.790288 0.407089 0.612728
O O4 0.508347 0.118102 0.321244
O O5 0.476089 0.719493 0.197102
O O6 0.658566 0.879760 0.176168
O O7 0.731821 0.992059 0.465037
O O8 0.705433 0.600268 0.367318
O O9 0.000000 0.500000 0.500000
O O10 0.891801 0.503676 0.250988
O O11 0.981749 0.843006 0.550097
O O12 0.581327 0.635436 0.877616
O O13 0.184974 0.067230 0.932436
O O14 0.500000 0.000000 0.000000
O O15 0.130182 0.984492 0.256678
O O16 0.983379 0.659760 0.938685
O O17 0.000000 0.000000 0.000000
O O18 0.006135 0.741020 0.244182
#
# Coordination Sequence:
#
# PCOD9051755 Si02
#       8
#     2   2   2   2   2   2   2   2
#     4  11  22  43  72 105 151 187 240 296 367 430
#     4  10  25  47  76 109 143 193 242 299 363 435
#     4  11  24  42  74 107 146 187 244 296 361 433
#     4  11  24  47  68 109 145 191 241 297 364 437
#     4  12  28  49  74 108 151 193 238 305 369 434
#     4  12  28  49  75 107 147 193 248 299 364 434
#     4  11  24  45  68 107 141 191 242 300 358 430
#     4  10  25  47  75 104 145 188 245 298 359 424
#
# _framework density 24.581956000000002
#
# number of rings (size 3 to 8) (size 9 to 14) (size 15 to 20)
#    0.000    1.000    1.250    3.750   10.500    1.000 
#    4.500    0.000    0.000    0.000    0.000    0.000 
#    0.000    0.000    0.000    0.000    0.000    0.000 
#
# Total GULP energy -89590.006291 kJ/mol
# GULP energy per Si atom -5599.375393 kJ/mol
# Density = 2.452601 g / cm^3
# Si number density = 24.581956 Si / 1000 Ang^3
#
#
#
# Elastic Constant Matrix: (Units=GPa)
#
#
# Indices 1 2 3 4 5 6 
#
# 1 74.8990 29.4135 32.2583 6.4403 -28.2573 9.4546
# 2 29.4135 113.8712 13.7928 -4.1674 -17.0721 -7.2575
# 3 32.2583 13.7928 97.4521 -9.4563 -32.4517 4.5350
# 4 6.4403 -4.1674 -9.4563 42.0288 1.3524 -16.2279
# 5 -28.2573 -17.0721 -32.4517 1.3524 43.5128 -1.1119
# 6 9.4546 -7.2575 4.5350 -16.2279 -1.1119 39.5573
#
#
#
# Elastic Compliance Matrix: (Units=1/GPa)
#
#
# Indices 1 2 3 4 5 6 
#
# 1 0.022511 -0.004754 -0.003903 -0.008616 0.009879 -0.009062
# 2 -0.004754 0.010585 0.000764 0.003647 0.001638 0.004533
# 3 -0.003903 0.000764 0.014655 0.004222 0.008598 0.001367
# 4 -0.008616 0.003647 0.004222 0.032470 -0.001628 0.015519
# 5 0.009879 0.001638 0.008598 -0.001628 0.036434 -0.002690
# 6 -0.009062 0.004533 0.001367 0.015519 -0.002690 0.034411
#
#
# Mechanical properties :
#
#
# Convention : Reuss Voigt Hill
#
# Bulk Modulus (GPa) = 31.28484 48.57239 39.92861
# Shear Modulus (GPa) = 28.16790 39.07029 33.61909
#
# Velocity S-wave (km/s) = 3.38875 3.99104 3.70216
# Velocity P-wave (km/s) = 5.29773 6.40626 5.87818
#
# Compressibility (1/GPa) = 0.03196436
#
# Stress axis : x y z
#
# Youngs Moduli (GPa) = 44.42271 94.47130 68.23770
#
# Poissons Ratio (x) = 0.44909 0.26636
# Poissons Ratio (y) = 0.21117 -0.05213
# Poissons Ratio (z) = 0.17340 -0.07217
#
# Static dielectric constant tensor:
#      x y z
#    x 1.974870 -0.048730 0.009790 
#    y -0.048730 2.154560 0.173760 
#    z 0.009790 0.173760 2.132230 
# 
# From -- ./inp_files/383592.got.cif
#   From: 2010.05.17/outbox.cif.g08.bks.cpg/sg2_192_cif.got.tgz:383592.got - 2010.06.03 11:33:40.
