data_PCOD9051844
_publ_section_title
;
Structure prediction by ZEFSAII (Michael W. Deem and Ramdas Pophale) SiO2 
 PCOD9051844
Probable space group: P -1
;
_chemical_formula_sum "Si O2"
_cell_formula_units_Z 16
_cell_length_a 8.600180
_cell_length_b 9.361970
_cell_length_c 10.597427
_cell_angle_alpha 132.987636
_cell_angle_beta 85.474672
_cell_angle_gamma 93.195609
_cell_volume 622.203577
_symmetry_space_group_name_H-M "P -1"
_symmetry_group_IT_number 2
_symmetry_cell_setting 'triclinic'
loop_
_space_group_symop_operation_xyz
x,y,z
-x,-y,-z
loop_
_atom_site_type_symbol
_atom_site_label
_atom_site_fract_x
_atom_site_fract_y
_atom_site_fract_z
Si Si1 0.950608 0.954075 0.331289
Si Si2 0.600922 0.502902 0.843984
Si Si3 0.917476 0.726367 0.978878
Si Si4 0.237752 0.189711 0.397374
Si Si5 0.619438 0.830383 0.355972
Si Si6 0.663927 0.449165 0.524696
Si Si7 0.140278 0.819535 0.828503
Si Si8 0.403206 0.887801 0.045213
O O1 0.997947 0.759136 0.131207
O O2 0.763820 0.927528 0.330208
O O3 0.000000 0.000000 0.500000
O O4 0.059485 0.119838 0.363226
O O5 0.481749 0.339338 0.807565
O O6 0.639497 0.409468 0.647957
O O7 0.496920 0.693208 0.945601
O O8 0.769792 0.584793 0.924577
O O9 0.884548 0.957005 0.082799
O O10 0.009039 0.677044 0.813721
O O11 0.296157 0.251960 0.570769
O O12 0.248032 0.349896 0.385766
O O13 0.358815 0.019911 0.246709
O O14 0.500000 0.000000 0.500000
O O15 0.500000 0.500000 0.500000
O O16 0.755509 0.285285 0.345238
O O17 0.241295 0.843761 0.962880
O O18 0.500000 0.000000 0.000000
#
# Coordination Sequence:
#
# PCOD9051844 Si02
#       8
#     2   2   2   2   2   2   2   2
#     4  10  25  48  71  90 134 192 240 279 339 422
#     4  12  26  41  70 108 143 178 236 289 356 420
#     4  11  25  44  67 105 143 181 228 294 360 409
#     4  11  22  45  72  97 138 184 233 284 354 423
#     4  11  27  46  67  99 132 189 240 290 338 405
#     4  12  22  39  71 109 141 180 225 286 364 428
#     4  11  23  40  67 107 147 176 221 286 366 428
#     4  12  20  39  70 107 139 179 217 288 359 423
#
# _framework density 25.715056000000001
#
# number of rings (size 3 to 8) (size 9 to 14) (size 15 to 20)
#    0.000    0.750    6.250    0.000    5.250    2.000 
#    0.000    1.875    0.000    0.000    0.000    0.000 
#    0.000    0.000    0.000    0.000    0.000    0.000 
#
# Total GULP energy -89358.196787 kJ/mol
# GULP energy per Si atom -5584.887299 kJ/mol
# Density = 2.565653 g / cm^3
# Si number density = 25.715056 Si / 1000 Ang^3
#
#
#
# Elastic Constant Matrix: (Units=GPa)
#
#
# Indices 1 2 3 4 5 6 
#
# 1 97.1763 53.0773 20.1992 -0.2863 21.4170 48.5048
# 2 53.0773 94.5462 19.6048 4.8518 2.0559 39.3000
# 3 20.1992 19.6048 100.9621 -11.5332 7.1861 1.0431
# 4 -0.2863 4.8518 -11.5332 45.2460 4.2473 1.5528
# 5 21.4170 2.0559 7.1861 4.2473 60.6217 2.8600
# 6 48.5048 39.3000 1.0431 1.5528 2.8600 58.7622
#
#
#
# Elastic Compliance Matrix: (Units=1/GPa)
#
#
# Indices 1 2 3 4 5 6 
#
# 1 0.023034 -0.006307 -0.002583 0.001319 -0.007029 -0.014442
# 2 -0.006307 0.017389 -0.002512 -0.002551 0.002418 -0.006429
# 3 -0.002583 -0.002512 0.011275 0.003072 -0.000722 0.003566
# 4 0.001319 -0.002551 0.003072 0.023388 -0.002385 0.000061
# 5 -0.007029 0.002418 -0.000722 -0.002385 0.018992 0.003336
# 6 -0.014442 -0.006429 0.003566 0.000061 0.003336 0.033011
#
#
# Mechanical properties :
#
#
# Convention : Reuss Voigt Hill
#
# Bulk Modulus (GPa) = 34.61030 53.16079 43.88555
# Shear Modulus (GPa) = 31.34278 46.24621 38.79450
#
# Velocity S-wave (km/s) = 3.49499 4.24537 3.88832
# Velocity P-wave (km/s) = 5.45665 6.68945 6.10425
#
# Compressibility (1/GPa) = 0.02889313
#
# Stress axis : x y z
#
# Youngs Moduli (GPa) = 43.41396 57.50649 88.69293
#
# Poissons Ratio (x) = 0.36270 0.22914
# Poissons Ratio (y) = 0.27382 0.22279
# Poissons Ratio (z) = 0.11216 0.14445
#
# Static dielectric constant tensor:
#      x y z
#    x 3.524910 0.799270 -0.407740 
#    y 0.799270 2.492360 -0.261520 
#    z -0.407740 -0.261520 2.194260 
# 
# From -- ./inp_files/391602.got.cif
#   From: 2010.05.17/outbox.cif.g08.bks.cpg/sg2_196_cif.got.tgz:391602.got - 2010.06.03 11:33:40.
