data_PCOD9051634
_publ_section_title
;
Structure prediction by ZEFSAII (Michael W. Deem and Ramdas Pophale) SiO2 
 PCOD9051634
Probable space group: P -1
;
_chemical_formula_sum "Si O2"
_cell_formula_units_Z 12
_cell_length_a 16.437043
_cell_length_b 12.271814
_cell_length_c 9.038571
_cell_angle_alpha 35.970155
_cell_angle_beta 135.755433
_cell_angle_gamma 153.923700
_cell_volume 470.327771
_symmetry_space_group_name_H-M "P -1"
_symmetry_group_IT_number 2
_symmetry_cell_setting 'triclinic'
loop_
_space_group_symop_operation_xyz
x,y,z
-x,-y,-z
loop_
_atom_site_type_symbol
_atom_site_label
_atom_site_fract_x
_atom_site_fract_y
_atom_site_fract_z
Si Si1 0.887508 0.345102 0.865703
Si Si2 0.963733 0.136956 0.702681
Si Si3 0.481374 0.547101 0.593766
Si Si4 0.522402 0.236414 0.130304
Si Si5 0.942181 0.000755 0.267678
Si Si6 0.343948 0.975456 0.501186
O O1 0.911641 0.548342 0.562950
O O2 0.663285 0.037832 0.908555
O O3 0.965770 0.249239 0.007316
O O4 0.000000 0.500000 0.000000
O O5 0.830692 0.108288 0.651611
O O6 0.933489 0.978618 0.690759
O O7 0.000000 0.000000 0.000000
O O8 0.500000 0.500000 0.500000
O O9 0.576515 0.858209 0.419309
O O10 0.279539 0.307128 0.672423
O O11 0.579733 0.511871 0.859519
O O12 0.473384 0.171707 0.311320
O O13 0.672615 0.265741 0.258671
O O14 0.000000 0.000000 0.500000
#
# Coordination Sequence:
#
# PCOD9051634 Si02
#       6
#     2   2   2   2   2   2
#     4  11  24  45  73 100 143 188 234 291 354 418
#     4  12  26  44  71 106 140 183 240 290 355 424
#     4  11  24  42  70 103 139 181 232 289 353 419
#     4  10  25  47  70 100 140 186 236 289 355 418
#     4  11  23  43  69 103 141 185 230 289 355 418
#     4  11  25  45  71 101 141 182 235 293 355 419
#
# _framework density 25.514122
#
# number of rings (size 3 to 8) (size 9 to 14) (size 15 to 20)
#    0.000    1.000    1.667    4.500    2.333    8.667 
#    0.000    0.000    0.000    0.000    0.000    0.000 
#    0.000    0.000    0.000    0.000    0.000    0.000 
#
# Total GULP energy -66874.383484 kJ/mol
# GULP energy per Si atom -5572.865290 kJ/mol
# Density = 2.545605 g / cm^3
# Si number density = 25.514122 Si / 1000 Ang^3
#
#
#
# Elastic Constant Matrix: (Units=GPa)
#
#
# Indices 1 2 3 4 5 6 
#
# 1 163.5819 33.6999 26.0179 8.3104 20.7550 11.1091
# 2 33.6999 72.5493 15.2692 12.5321 -1.0128 4.2212
# 3 26.0179 15.2692 107.4962 5.7775 22.4293 12.7808
# 4 8.3104 12.5321 5.7775 32.2095 -2.6631 -4.8195
# 5 20.7550 -1.0128 22.4293 -2.6631 63.8431 16.7482
# 6 11.1091 4.2212 12.7808 -4.8195 16.7482 45.5464
#
#
#
# Elastic Compliance Matrix: (Units=1/GPa)
#
#
# Indices 1 2 3 4 5 6 
#
# 1 0.007196 -0.003034 -0.000781 -0.000791 -0.001986 -0.000608
# 2 -0.003034 0.016591 -0.001546 -0.005481 0.002005 -0.001681
# 3 -0.000781 -0.001546 0.010653 -0.001617 -0.003142 -0.001671
# 4 -0.000791 -0.005481 -0.001617 0.034419 0.001014 0.004424
# 5 -0.001986 0.002005 -0.003142 0.001014 0.018980 -0.005692
# 6 -0.000608 -0.001681 -0.001671 0.004424 -0.005692 0.025290
#
#
# Mechanical properties :
#
#
# Convention : Reuss Voigt Hill
#
# Bulk Modulus (GPa) = 42.16470 54.84458 48.50464
# Shear Modulus (GPa) = 37.94851 46.22916 42.08884
#
# Velocity S-wave (km/s) = 3.86081 4.26127 4.06597
# Velocity P-wave (km/s) = 6.03625 6.76414 6.41054
#
# Compressibility (1/GPa) = 0.02371652
#
# Stress axis : x y z
#
# Youngs Moduli (GPa) = 138.96678 60.27371 93.87341
#
# Poissons Ratio (x) = 0.18286 0.07336
# Poissons Ratio (y) = 0.42160 0.14515
# Poissons Ratio (z) = 0.10860 0.09320
#
# Static dielectric constant tensor:
#      x y z
#    x 1.846990 0.031510 0.029340 
#    y 0.031510 2.226680 -0.005410 
#    z 0.029340 -0.005410 1.958890 
# 
# From -- ./inp_files/306122.got.cif
#   From: 2010.05.17/outbox.cif.g08.bks.cpg/sg2_154_cif.got.tgz:306122.got - 2010.06.03 11:33:40.
