data_PCOD9051131
_publ_section_title
;
Structure prediction by ZEFSAII (Michael W. Deem and Ramdas Pophale) SiO2 
 PCOD9051131
Probable space group: P -1
;
_chemical_formula_sum "Si O2"
_cell_formula_units_Z 12
_cell_length_a 5.225111
_cell_length_b 7.662819
_cell_length_c 17.667874
_cell_angle_alpha 139.752601
_cell_angle_beta 83.676312
_cell_angle_gamma 99.685943
_cell_volume 450.346335
_symmetry_space_group_name_H-M "P -1"
_symmetry_group_IT_number 2
_symmetry_cell_setting 'triclinic'
loop_
_space_group_symop_operation_xyz
x,y,z
-x,-y,-z
loop_
_atom_site_type_symbol
_atom_site_label
_atom_site_fract_x
_atom_site_fract_y
_atom_site_fract_z
Si Si1 0.252400 0.909887 0.924251
Si Si2 0.614193 0.671584 0.300602
Si Si3 0.919701 0.112527 0.733693
Si Si4 0.226410 0.415648 0.015385
Si Si5 0.789014 0.579405 0.653995
Si Si6 0.275024 0.261701 0.518852
O O1 0.250433 0.602281 0.801230
O O2 0.244244 0.097190 0.914327
O O3 0.500000 0.000000 0.000000
O O4 0.000000 0.000000 0.000000
O O5 0.331827 0.520467 0.292330
O O6 0.717727 0.841621 0.428372
O O7 0.769966 0.834766 0.279342
O O8 0.808869 0.397530 0.848402
O O9 0.846727 0.897433 0.733486
O O10 0.772669 0.974388 0.619102
O O11 0.500000 0.500000 0.000000
O O12 0.000000 0.500000 0.000000
O O13 0.553684 0.443807 0.563553
O O14 0.046268 0.447534 0.584072
#
# Coordination Sequence:
#
# PCOD9051131 Si02
#       6
#     2   2   2   2   2   2
#     4  12  26  49  73 105 149 197 248 306 380 437
#     4  10  26  46  76 107 149 191 252 309 374 451
#     4  12  24  49  76 108 147 196 252 306 381 450
#     4  12  29  48  75 110 148 196 254 313 369 454
#     4  10  25  45  70 105 151 187 243 303 382 436
#     4  10  25  48  71 109 148 193 240 317 375 445
#
# _framework density 26.646159999999998
#
# number of rings (size 3 to 8) (size 9 to 14) (size 15 to 20)
#    1.000    0.000    1.667    3.500    4.667    2.000 
#    3.000    0.000    0.000    0.000    0.000    0.000 
#    0.000    0.000    0.000    0.000    0.000    0.000 
#
# Total GULP energy -67009.677957 kJ/mol
# GULP energy per Si atom -5584.139830 kJ/mol
# Density = 2.658551 g / cm^3
# Si number density = 26.646160 Si / 1000 Ang^3
#
#
#
# Elastic Constant Matrix: (Units=GPa)
#
#
# Indices 1 2 3 4 5 6 
#
# 1 179.5734 33.2543 39.4506 -1.8364 -7.8808 16.3415
# 2 33.2543 139.2834 10.9740 21.9653 5.4311 21.3862
# 3 39.4506 10.9740 143.1873 -1.0887 -9.3406 -1.4836
# 4 -1.8364 21.9653 -1.0887 42.0313 -6.8055 -4.6905
# 5 -7.8808 5.4311 -9.3406 -6.8055 42.8426 -3.1763
# 6 16.3415 21.3862 -1.4836 -4.6905 -3.1763 30.9555
#
#
#
# Elastic Compliance Matrix: (Units=1/GPa)
#
#
# Indices 1 2 3 4 5 6 
#
# 1 0.006417 -0.001177 -0.001639 0.000726 0.000906 -0.002450
# 2 -0.001177 0.009844 -0.000770 -0.006582 -0.003237 -0.007546
# 3 -0.001639 -0.000770 0.007641 0.001053 0.001785 0.002106
# 4 0.000726 -0.006582 0.001053 0.029395 0.006559 0.009342
# 5 0.000906 -0.003237 0.001785 0.006559 0.025756 0.005480
# 6 -0.002450 -0.007546 0.002106 0.009342 0.005480 0.040890
#
#
# Mechanical properties :
#
#
# Convention : Reuss Voigt Hill
#
# Bulk Modulus (GPa) = 59.76622 69.93354 64.84988
# Shear Modulus (GPa) = 37.68205 48.39023 43.03614
#
# Velocity S-wave (km/s) = 3.76462 4.26611 4.02319
# Velocity P-wave (km/s) = 6.43232 7.11116 6.78024
#
# Compressibility (1/GPa) = 0.01673186
#
# Stress axis : x y z
#
# Youngs Moduli (GPa) = 155.84218 101.58394 130.88023
#
# Poissons Ratio (x) = 0.11952 0.21445
# Poissons Ratio (y) = 0.18335 0.10074
# Poissons Ratio (z) = 0.25535 0.07819
#
# Static dielectric constant tensor:
#      x y z
#    x 2.060250 -0.017310 0.071830 
#    y -0.017310 2.068130 -0.061510 
#    z 0.071830 -0.061510 2.073490 
# 
# From -- ./inp_files/581753.got.cif
#   From: 2010.05.17/outbox.cif.g08.bks.cpg/sg2_291_cif.got.tgz:581753.got - 2010.06.03 11:33:40.
