data_PCOD9051359
_publ_section_title
;
Structure prediction by ZEFSAII (Michael W. Deem and Ramdas Pophale) SiO2 
 PCOD9051359
Probable space group: P -1
;
_chemical_formula_sum "Si O2"
_cell_formula_units_Z 16
_cell_length_a 16.033734
_cell_length_b 18.536040
_cell_length_c 25.687206
_cell_angle_alpha 16.029583
_cell_angle_beta 17.358060
_cell_angle_gamma 22.988076
_cell_volume 628.444548
_symmetry_space_group_name_H-M "P -1"
_symmetry_group_IT_number 2
_symmetry_cell_setting 'triclinic'
loop_
_space_group_symop_operation_xyz
x,y,z
-x,-y,-z
loop_
_atom_site_type_symbol
_atom_site_label
_atom_site_fract_x
_atom_site_fract_y
_atom_site_fract_z
Si Si1 0.756077 0.409813 0.815539
Si Si2 0.290781 0.080014 0.338309
Si Si3 0.689659 0.380910 0.268746
Si Si4 0.752798 0.324677 0.520975
Si Si5 0.139237 0.204248 0.975220
Si Si6 0.449174 0.715150 0.701554
Si Si7 0.807554 0.918485 0.081285
Si Si8 0.790726 0.210134 0.689716
O O1 0.667546 0.515432 0.737600
O O2 0.928830 0.632078 0.582883
O O3 0.936053 0.138039 0.888743
O O4 0.480502 0.327680 0.067356
O O5 0.973219 0.182494 0.449999
O O6 0.307755 0.857959 0.526269
O O7 0.477144 0.973904 0.252142
O O8 0.581049 0.295208 0.335554
O O9 0.466523 0.599959 0.271042
O O10 0.000000 0.500000 0.000000
O O11 0.765361 0.145704 0.689318
O O12 0.419901 0.348675 0.693922
O O13 0.859612 0.612004 0.271679
O O14 0.104900 0.028253 0.066670
O O15 0.856070 0.369619 0.037852
O O16 0.177625 0.031758 0.123073
O O17 0.500000 0.000000 0.500000
#
# Coordination Sequence:
#
# PCOD9051359 Si02
#       8
#     2   2   2   2   2   2   2   2
#     4  10  25  47  68 107 138 197 230 295 365 429
#     4  10  25  47  71 107 144 187 242 296 364 434
#     4  12  26  48  75 107 145 195 247 303 365 438
#     4  12  24  47  72 105 141 191 239 305 359 433
#     4  12  25  44  73 104 143 187 243 299 366 429
#     4  12  26  45  72 108 149 187 246 305 360 436
#     4  10  25  46  68 103 146 187 237 297 357 437
#     4  12  24  45  73 101 149 183 246 297 359 435
#
# _framework density 25.459685
#
# number of rings (size 3 to 8) (size 9 to 14) (size 15 to 20)
#    0.750    0.000    2.500    4.500    1.750    4.000 
#    0.000    0.000    0.000    0.000    0.000    0.000 
#    0.000    0.000    0.000    0.000    0.000    0.000 
#
# Total GULP energy -89459.642183 kJ/mol
# GULP energy per Si atom -5591.227636 kJ/mol
# Density = 2.540174 g / cm^3
# Si number density = 25.459685 Si / 1000 Ang^3
#
#
#
# Elastic Constant Matrix: (Units=GPa)
#
#
# Indices 1 2 3 4 5 6 
#
# 1 52.6051 -11.2158 14.7084 -4.6836 6.2047 -1.6459
# 2 -11.2158 93.8075 -9.4727 15.4742 9.1328 2.5820
# 3 14.7084 -9.4727 121.4778 -3.6563 6.8453 -13.8012
# 4 -4.6836 15.4742 -3.6563 48.1799 -3.7676 8.2814
# 5 6.2047 9.1328 6.8453 -3.7676 33.8764 4.8813
# 6 -1.6459 2.5820 -13.8012 8.2814 4.8813 34.7855
#
#
#
# Elastic Compliance Matrix: (Units=1/GPa)
#
#
# Indices 1 2 3 4 5 6 
#
# 1 0.020662 0.002543 -0.002010 0.000653 -0.004049 0.000404
# 2 0.002543 0.012151 0.000909 -0.004151 -0.004561 0.001207
# 3 -0.002010 0.000909 0.009107 -0.000657 -0.002358 0.003938
# 4 0.000653 -0.004151 -0.000657 0.023526 0.004638 -0.006174
# 5 -0.004049 -0.004561 -0.002358 0.004638 0.033431 -0.006584
# 6 0.000404 0.001207 0.003938 -0.006174 -0.006584 0.032633
#
#
# Mechanical properties :
#
#
# Convention : Reuss Voigt Hill
#
# Bulk Modulus (GPa) = 22.31937 28.43668 25.37803
# Shear Modulus (GPa) = 34.82837 41.62641 38.22739
#
# Velocity S-wave (km/s) = 3.70264 4.04789 3.87911
# Velocity P-wave (km/s) = 5.20240 5.74811 5.48205
#
# Compressibility (1/GPa) = 0.04480414
#
# Stress axis : x y z
#
# Youngs Moduli (GPa) = 48.39791 82.29486 109.81043
#
# Poissons Ratio (x) = -0.20926 0.22068
# Poissons Ratio (y) = -0.12307 -0.09981
# Poissons Ratio (z) = 0.09726 -0.07480
#
# Static dielectric constant tensor:
#      x y z
#    x 2.038900 -0.011390 -0.067310 
#    y -0.011390 1.974870 -0.002510 
#    z -0.067310 -0.002510 2.044510 
# 
# From -- ./inp_files/612180.got.cif
#   From: 2010.05.17/outbox.cif.g08.bks.cpg/sg2_307_cif.got.tgz:612180.got - 2010.06.03 11:33:40.
