data_PCOD9051075
_publ_section_title
;
Structure prediction by ZEFSAII (Michael W. Deem and Ramdas Pophale) SiO2 
 PCOD9051075
Probable space group: P -1
;
_chemical_formula_sum "Si O2"
_cell_formula_units_Z 16
_cell_length_a 7.849385
_cell_length_b 14.607231
_cell_length_c 15.350156
_cell_angle_alpha 26.575614
_cell_angle_beta 88.379154
_cell_angle_gamma 81.201122
_cell_volume 754.321558
_symmetry_space_group_name_H-M "P -1"
_symmetry_group_IT_number 2
_symmetry_cell_setting 'triclinic'
loop_
_space_group_symop_operation_xyz
x,y,z
-x,-y,-z
loop_
_atom_site_type_symbol
_atom_site_label
_atom_site_fract_x
_atom_site_fract_y
_atom_site_fract_z
Si Si1 0.400929 0.215029 0.267152
Si Si2 0.879250 0.215283 0.964181
Si Si3 0.838800 0.125235 0.654208
Si Si4 0.529280 0.257885 0.675877
Si Si5 0.050484 0.097529 0.328071
Si Si6 0.020249 0.490709 0.612371
Si Si7 0.323701 0.673270 0.956038
Si Si8 0.741925 0.923800 0.096847
O O1 0.385812 0.420409 0.153282
O O2 0.500000 0.000000 0.500000
O O3 0.201402 0.215825 0.243015
O O4 0.524895 0.235277 0.166121
O O5 0.722094 0.267339 0.993100
O O6 0.873024 0.029352 0.055174
O O7 0.876081 0.423244 0.730614
O O8 0.056910 0.104934 0.110438
O O9 0.647267 0.205171 0.633158
O O10 0.854864 0.089425 0.582014
O O11 0.936271 0.301637 0.530147
O O12 0.500000 0.500000 0.500000
O O13 0.355716 0.176803 0.742271
O O14 0.627617 0.115628 0.876719
O O15 0.000000 0.000000 0.500000
O O16 0.863455 0.232945 0.173120
O O17 0.000000 0.500000 0.500000
O O18 0.182070 0.272957 0.801641
#
# Coordination Sequence:
#
# PCOD9051075 Si02
#       8
#     2   2   2   2   2   2   2   2
#     4  11  23  47  71  98 139 175 228 283 346 408
#     4  11  24  41  66  94 126 168 229 269 324 403
#     4  11  24  42  65  97 129 173 226 266 339 402
#     4  11  23  41  58  89 133 173 212 267 328 396
#     4  11  24  45  72 101 139 179 224 289 344 404
#     4  12  22  39  68  93 128 170 215 274 326 390
#     4  10  25  45  69 102 133 180 226 281 344 407
#     4  11  23  39  60  89 129 167 212 266 326 384
#
# _framework density 21.211113000000001
#
# number of rings (size 3 to 8) (size 9 to 14) (size 15 to 20)
#    0.000    1.000    5.000    1.500    3.500    0.000 
#    2.250    0.000    0.000    0.000    0.000    0.000 
#    0.000    0.000    0.000    0.000    0.000    0.000 
#
# Total GULP energy -89319.663809 kJ/mol
# GULP energy per Si atom -5582.478988 kJ/mol
# Density = 2.116284 g / cm^3
# Si number density = 21.211113 Si / 1000 Ang^3
#
#
#
# Elastic Constant Matrix: (Units=GPa)
#
#
# Indices 1 2 3 4 5 6 
#
# 1 61.9910 7.8752 21.1905 15.5153 -24.0068 -14.3493
# 2 7.8752 130.0847 51.0262 20.1964 -23.6659 -26.7034
# 3 21.1905 51.0262 132.6753 7.0142 -16.8871 -12.1076
# 4 15.5153 20.1964 7.0142 31.3240 -12.0883 -4.6623
# 5 -24.0068 -23.6659 -16.8871 -12.0883 38.3211 1.6992
# 6 -14.3493 -26.7034 -12.1076 -4.6623 1.6992 37.3541
#
#
#
# Elastic Compliance Matrix: (Units=1/GPa)
#
#
# Indices 1 2 3 4 5 6 
#
# 1 0.028124 0.006645 -0.003272 -0.009105 0.016850 0.012590
# 2 0.006645 0.013271 -0.003908 -0.006380 0.008198 0.009604
# 3 -0.003272 -0.003908 0.009433 0.002062 0.000377 -0.000753
# 4 -0.009105 -0.006380 0.002062 0.041441 0.004444 -0.002420
# 5 0.016850 0.008198 0.000377 0.004444 0.042792 0.011064
# 6 0.012590 0.009604 -0.000753 -0.002420 0.011064 0.037423
#
#
# Mechanical properties :
#
#
# Convention : Reuss Voigt Hill
#
# Bulk Modulus (GPa) = 20.09766 53.88163 36.98964
# Shear Modulus (GPa) = 26.29603 37.71045 32.00324
#
# Velocity S-wave (km/s) = 3.52480 4.22105 3.88854
# Velocity P-wave (km/s) = 5.10502 7.01527 6.13495
#
# Compressibility (1/GPa) = 0.04975705
#
# Stress axis : x y z
#
# Youngs Moduli (GPa) = 35.55627 75.34967 106.00861
#
# Poissons Ratio (x) = -0.50067 0.34690
# Poissons Ratio (y) = -0.23626 0.41430
# Poissons Ratio (z) = 0.11635 0.29448
#
# Static dielectric constant tensor:
#      x y z
#    x 1.895170 -0.026260 0.016850 
#    y -0.026260 1.754230 0.029320 
#    z 0.016850 0.029320 1.786090 
# 
# From -- ./inp_files/503607.got.cif
#   From: 2010.05.17/outbox.cif.g08.bks.cpg/sg2_252_cif.got.tgz:503607.got - 2010.06.03 11:33:40.
