data_PCOD9051287
_publ_section_title
;
Structure prediction by ZEFSAII (Michael W. Deem and Ramdas Pophale) SiO2 
 PCOD9051287
Probable space group: P -1
;
_chemical_formula_sum "Si O2"
_cell_formula_units_Z 16
_cell_length_a 8.564763
_cell_length_b 9.022990
_cell_length_c 11.495354
_cell_angle_alpha 102.855750
_cell_angle_beta 57.562174
_cell_angle_gamma 117.575753
_cell_volume 664.183717
_symmetry_space_group_name_H-M "P -1"
_symmetry_group_IT_number 2
_symmetry_cell_setting 'triclinic'
loop_
_space_group_symop_operation_xyz
x,y,z
-x,-y,-z
loop_
_atom_site_type_symbol
_atom_site_label
_atom_site_fract_x
_atom_site_fract_y
_atom_site_fract_z
Si Si1 0.531188 0.185449 0.502186
Si Si2 0.584066 0.430633 0.346008
Si Si3 0.098889 0.237490 0.096533
Si Si4 0.958274 0.440297 0.871924
Si Si5 0.697300 0.773278 0.760941
Si Si6 0.317789 0.870709 0.213260
Si Si7 0.065261 0.695619 0.511305
Si Si8 0.715245 0.887490 0.191654
O O1 0.509915 0.240541 0.392122
O O2 0.764667 0.271811 0.454550
O O3 0.387806 0.205757 0.663608
O O4 0.500000 0.000000 0.500000
O O5 0.500000 0.500000 0.500000
O O6 0.482014 0.389304 0.253131
O O7 0.823256 0.536765 0.260394
O O8 0.088874 0.413954 0.142194
O O9 0.268635 0.240227 0.119123
O O10 0.167315 0.207392 0.936313
O O11 0.885572 0.076389 0.177229
O O12 0.780698 0.259343 0.877852
O O13 0.000000 0.500000 0.000000
O O14 0.898376 0.763691 0.622690
O O15 0.680558 0.948824 0.781358
O O16 0.167619 0.783216 0.365835
O O17 0.536425 0.889878 0.179328
O O18 0.000000 0.500000 0.500000
#
# Coordination Sequence:
#
# PCOD9051287 Si02
#       8
#     2   2   2   2   2   2   2   2
#     4  11  22  42  71  98 139 182 244 290 361 424
#     4  12  27  46  73 109 148 187 239 304 364 430
#     4  11  26  48  71 102 147 192 249 295 380 438
#     4  12  29  48  71 106 152 194 242 306 370 436
#     4  12  25  43  74 105 145 191 243 299 369 438
#     4  11  25  44  70 108 142 187 250 300 365 434
#     4  11  22  42  68 102 141 188 233 300 360 429
#     4  10  25  45  76 101 140 197 247 306 361 443
#
# _framework density 24.089721999999998
#
# number of rings (size 3 to 8) (size 9 to 14) (size 15 to 20)
#    0.000    0.750    0.000    7.875    7.000    4.000 
#    0.000    0.000    0.000    0.000    0.000    0.000 
#    0.000    0.000    0.000    0.000    0.000    0.000 
#
# Total GULP energy -89476.315069 kJ/mol
# GULP energy per Si atom -5592.269692 kJ/mol
# Density = 2.403489 g / cm^3
# Si number density = 24.089722 Si / 1000 Ang^3
#
#
#
# Elastic Constant Matrix: (Units=GPa)
#
#
# Indices 1 2 3 4 5 6 
#
# 1 74.4509 36.7893 38.1581 -1.8261 1.5479 16.4240
# 2 36.7893 124.8303 4.2021 22.7690 -2.9848 15.8186
# 3 38.1581 4.2021 28.8212 20.3796 -2.2368 5.1637
# 4 -1.8261 22.7690 20.3796 31.1220 -1.7130 7.5099
# 5 1.5479 -2.9848 -2.2368 -1.7130 43.2355 5.4044
# 6 16.4240 15.8186 5.1637 7.5099 5.4044 43.2732
#
#
#
# Elastic Compliance Matrix: (Units=1/GPa)
#
#
# Indices 1 2 3 4 5 6 
#
# 1 -0.014125 0.008878 0.042120 -0.035564 0.001504 0.003074
# 2 0.008878 0.004651 -0.019283 0.010870 0.000019 -0.004658
# 3 0.042120 -0.019283 -0.055793 0.055828 -0.002050 -0.011712
# 4 -0.035564 0.010870 0.055828 -0.015493 0.003661 0.005094
# 5 0.001504 0.000019 -0.002050 0.003661 0.023605 -0.003917
# 6 0.003074 -0.004658 -0.011712 0.005094 -0.003917 0.024648
#
#
# Mechanical properties :
#
#
# Convention : Reuss Voigt Hill
#
# Bulk Modulus (GPa) = -544.59542 42.93347 -250.83097
# Shear Modulus (GPa) = -51.78707 33.45634 -9.16536
#
# Velocity S-wave (km/s) = -4.64158 3.73073 -1.95267
# Velocity P-wave (km/s) = 15.97767 6.03480 10.46105
#
# Compressibility (1/GPa) = -0.00183623
#
# Stress axis : x y z
#
# Youngs Moduli (GPa) = -70.79845 214.98734 -17.92325
#
# Poissons Ratio (x) = -1.90872 0.75492
# Poissons Ratio (y) = 0.62857 -0.34561
# Poissons Ratio (z) = 2.98202 4.14558
#
# Static dielectric constant tensor:
#      x y z
#    x 1.937430 -0.057250 -0.010390 
#    y -0.057250 1.970430 0.079020 
#    z -0.010390 0.079020 1.988320 
# 
# From -- ./inp_files/382537.got.cif
#   From: 2010.05.17/outbox.cif.g08.bks.cpg/sg2_192_cif.got.tgz:382537.got - 2010.06.03 11:33:40.
