data_PCOD9051077
_publ_section_title
;
Structure prediction by ZEFSAII (Michael W. Deem and Ramdas Pophale) SiO2 
 PCOD9051077
Probable space group: P -1
;
_chemical_formula_sum "Si O2"
_cell_formula_units_Z 16
_cell_length_a 18.552398
_cell_length_b 13.161686
_cell_length_c 5.234792
_cell_angle_alpha 87.008608
_cell_angle_beta 76.428968
_cell_angle_gamma 147.533306
_cell_volume 585.366149
_symmetry_space_group_name_H-M "P -1"
_symmetry_group_IT_number 2
_symmetry_cell_setting 'triclinic'
loop_
_space_group_symop_operation_xyz
x,y,z
-x,-y,-z
loop_
_atom_site_type_symbol
_atom_site_label
_atom_site_fract_x
_atom_site_fract_y
_atom_site_fract_z
Si Si1 0.219433 0.282152 0.209301
Si Si2 0.320749 0.620709 0.267117
Si Si3 0.151666 0.913855 0.164012
Si Si4 0.392980 0.072740 0.680174
Si Si5 0.570486 0.691765 0.728390
Si Si6 0.170987 0.117602 0.768647
Si Si7 0.779310 0.313071 0.356811
Si Si8 0.115053 0.520544 0.256554
O O1 0.232593 0.411401 0.290364
O O2 0.127911 0.104806 0.523016
O O3 0.401919 0.464404 0.020518
O O4 0.169972 0.206681 0.965866
O O5 0.495194 0.805612 0.184960
O O6 0.259032 0.616019 0.552744
O O7 0.278928 0.652960 0.083108
O O8 0.018582 0.713527 0.490558
O O9 0.296392 0.127066 0.191666
O O10 0.227174 0.916491 0.932424
O O11 0.093783 0.931066 0.013128
O O12 0.459424 0.239487 0.414496
O O13 0.360504 0.928203 0.583987
O O14 0.654515 0.717521 0.453687
O O15 0.845470 0.352768 0.567391
O O16 0.905649 0.467714 0.008835
#
# Coordination Sequence:
#
# PCOD9051077 Si02
#       8
#     2   2   2   2   2   2   2   2
#     4  12  23  40  68 101 133 177 225 276 342 395
#     4  10  25  45  69 102 138 177 225 284 330 403
#     4  11  25  45  68 103 140 177 224 284 335 402
#     4  11  24  43  73 106 133 175 231 282 340 391
#     4  11  24  40  68 105 142 170 220 289 341 395
#     4  11  25  40  68 101 135 176 223 282 338 399
#     4  10  26  45  71  99 136 184 225 276 334 406
#     4  10  27  46  68  94 145 182 223 275 339 396
#
# _framework density 27.333320000000001
#
# number of rings (size 3 to 8) (size 9 to 14) (size 15 to 20)
#    0.750    0.500    2.500    1.875   10.500    1.500 
#    0.000    1.250    0.000    0.000    0.000    0.000 
#    0.000    0.000    0.000    0.000    0.000    0.000 
#
# Total GULP energy -89524.782701 kJ/mol
# GULP energy per Si atom -5595.298919 kJ/mol
# Density = 2.727111 g / cm^3
# Si number density = 27.333320 Si / 1000 Ang^3
#
#
#
# Elastic Constant Matrix: (Units=GPa)
#
#
# Indices 1 2 3 4 5 6 
#
# 1 110.3987 30.3291 41.4472 11.5485 7.2757 -7.1020
# 2 30.3291 104.9436 40.8459 17.0635 -7.0488 -11.5021
# 3 41.4472 40.8459 165.1460 11.6448 4.8316 -19.4590
# 4 11.5485 17.0635 11.6448 50.7442 -0.3238 -4.6223
# 5 7.2757 -7.0488 4.8316 -0.3238 34.5871 7.7048
# 6 -7.1020 -11.5021 -19.4590 -4.6223 7.7048 40.6535
#
#
#
# Elastic Compliance Matrix: (Units=1/GPa)
#
#
# Indices 1 2 3 4 5 6 
#
# 1 0.010734 -0.002272 -0.001890 -0.001199 -0.002622 0.000688
# 2 -0.002272 0.011778 -0.002103 -0.002846 0.002911 0.001053
# 3 -0.001890 -0.002103 0.007470 -0.000320 -0.001733 0.002942
# 4 -0.001199 -0.002846 -0.000320 0.021127 -0.000376 0.001305
# 5 -0.002622 0.002911 -0.001733 -0.000376 0.031749 -0.006524
# 6 0.000688 0.001053 0.002942 0.001305 -0.006524 0.027810
#
#
# Mechanical properties :
#
#
# Convention : Reuss Voigt Hill
#
# Bulk Modulus (GPa) = 57.30137 67.30363 62.30250
# Shear Modulus (GPa) = 38.75524 43.05470 40.90497
#
# Velocity S-wave (km/s) = 3.76955 3.97315 3.87269
# Velocity P-wave (km/s) = 6.32104 6.76200 6.54523
#
# Compressibility (1/GPa) = 0.01745159
#
# Stress axis : x y z
#
# Youngs Moduli (GPa) = 93.15932 84.90410 133.87597
#
# Poissons Ratio (x) = 0.19294 0.25297
# Poissons Ratio (y) = 0.21170 0.28155
# Poissons Ratio (z) = 0.17603 0.17856
#
# Static dielectric constant tensor:
#      x y z
#    x 2.281590 0.007190 -0.005430 
#    y 0.007190 2.112240 -0.006020 
#    z -0.005430 -0.006020 2.085360 
# 
# From -- ./inp_files/118193.got.cif
#   From: 2010.05.17/outbox.cif.g08.bks.cpg/sg2_60_cif.got.tgz:118193.got - 2010.06.03 11:33:40.
