data_PCOD9051751
_publ_section_title
;
Structure prediction by ZEFSAII (Michael W. Deem and Ramdas Pophale) SiO2 
 PCOD9051751
Probable space group: P -1
;
_chemical_formula_sum "Si O2"
_cell_formula_units_Z 14
_cell_length_a 13.415110
_cell_length_b 21.822537
_cell_length_c 14.017726
_cell_angle_alpha 19.179061
_cell_angle_beta 35.649833
_cell_angle_gamma 26.167893
_cell_volume 576.832818
_symmetry_space_group_name_H-M "P -1"
_symmetry_group_IT_number 2
_symmetry_cell_setting 'triclinic'
loop_
_space_group_symop_operation_xyz
x,y,z
-x,-y,-z
loop_
_atom_site_type_symbol
_atom_site_label
_atom_site_fract_x
_atom_site_fract_y
_atom_site_fract_z
Si Si1 0.226442 0.109802 0.340610
Si Si2 0.259680 0.069175 0.939336
Si Si3 0.246092 0.273254 0.274404
Si Si4 0.587145 0.560071 0.956214
Si Si5 0.246050 0.393293 0.764155
Si Si6 0.005625 0.048433 0.313863
Si Si7 0.242226 0.498323 0.390392
O O1 0.226414 0.278891 0.167301
O O2 0.442399 0.825976 0.623675
O O3 0.018214 0.114844 0.494479
O O4 0.226252 0.195664 0.109456
O O5 0.291414 0.268499 0.633887
O O6 0.019000 0.234259 0.824641
O O7 0.206068 0.028214 0.146753
O O8 0.483889 0.784446 0.148561
O O9 0.268947 0.444780 0.064642
O O10 0.008145 0.343919 0.388834
O O11 0.500000 0.000000 0.500000
O O12 0.766442 0.342266 0.061655
O O13 0.427553 0.520404 0.186801
O O14 0.249764 0.437563 0.585143
O O15 0.000000 0.000000 0.500000
#
# Coordination Sequence:
#
# PCOD9051751 Si02
#       7
#     2   2   2   2   2   2   2
#     4  11  24  44  69 103 135 182 240 286 340 418
#     4  11  25  40  67 106 149 180 223 291 363 409
#     4  10  25  47  74  96 136 189 241 287 344 419
#     4  11  23  45  73 101 138 186 238 284 344 417
#     4  12  25  44  71  99 139 184 233 287 354 414
#     4  12  23  41  73 106 139 185 236 287 346 419
#     4  11  24  43  68 105 147 183 225 289 355 418
#
# _framework density 24.270464
#
# number of rings (size 3 to 8) (size 9 to 14) (size 15 to 20)
#    0.000    0.857    1.429    5.571    8.000    0.000 
#    0.000    5.714    0.000    0.000    0.000    0.000 
#    0.000    0.000    0.000    0.000    0.000    0.000 
#
# Total GULP energy -78060.540515 kJ/mol
# GULP energy per Si atom -5575.752894 kJ/mol
# Density = 2.421522 g / cm^3
# Si number density = 24.270464 Si / 1000 Ang^3
#
#
#
# Elastic Constant Matrix: (Units=GPa)
#
#
# Indices 1 2 3 4 5 6 
#
# 1 103.9371 31.2722 39.7400 -0.9109 -2.7793 1.1620
# 2 31.2722 162.5251 37.5351 -5.1443 22.7794 -18.0712
# 3 39.7400 37.5351 96.1044 8.7891 36.9243 0.5536
# 4 -0.9109 -5.1443 8.7891 52.8127 -11.7931 17.2993
# 5 -2.7793 22.7794 36.9243 -11.7931 38.3860 -6.9118
# 6 1.1620 -18.0712 0.5536 17.2993 -6.9118 28.4850
#
#
#
# Elastic Compliance Matrix: (Units=1/GPa)
#
#
# Indices 1 2 3 4 5 6 
#
# 1 0.015419 -0.002399 -0.011990 0.006120 0.015622 -0.001844
# 2 -0.002399 0.007782 -0.000331 -0.001836 -0.004108 0.005159
# 3 -0.011990 -0.000331 0.029095 -0.012064 -0.032518 -0.000850
# 4 0.006120 -0.001836 -0.012064 0.030078 0.019738 -0.014657
# 5 0.015622 -0.004108 -0.032518 0.019738 0.067275 0.001725
# 6 -0.001844 0.005159 -0.000850 -0.014657 0.001725 0.047791
#
#
# Mechanical properties :
#
#
# Convention : Reuss Voigt Hill
#
# Bulk Modulus (GPa) = 43.75162 64.40680 54.07921
# Shear Modulus (GPa) = 21.32212 40.87137 31.09674
#
# Velocity S-wave (km/s) = 2.96720 4.10810 3.58335
# Velocity P-wave (km/s) = 5.45938 7.00691 6.28099
#
# Compressibility (1/GPa) = 0.02285630
#
# Stress axis : x y z
#
# Youngs Moduli (GPa) = 64.85349 128.49731 34.37062
#
# Poissons Ratio (x) = 0.30821 0.41212
# Poissons Ratio (y) = 0.15556 0.01138
# Poissons Ratio (z) = 0.77762 0.04253
#
# Static dielectric constant tensor:
#      x y z
#    x 1.976650 -0.081330 0.097260 
#    y -0.081330 2.112180 -0.208430 
#    z 0.097260 -0.208430 2.143670 
# 
# From -- ./inp_files/535358.got.cif
#   From: 2010.05.17/outbox.cif.g08.bks.cpg/sg2_268_cif.got.tgz:535358.got - 2010.06.03 11:33:40.
