data_PCOD9051765
_publ_section_title
;
Structure prediction by ZEFSAII (Michael W. Deem and Ramdas Pophale) SiO2 
 PCOD9051765
Probable space group: P -1
;
_chemical_formula_sum "Si O2"
_cell_formula_units_Z 10
_cell_length_a 18.521834
_cell_length_b 4.736753
_cell_length_c 5.189740
_cell_angle_alpha 85.529623
_cell_angle_beta 79.355779
_cell_angle_gamma 50.737268
_cell_volume 346.007025
_symmetry_space_group_name_H-M "P -1"
_symmetry_group_IT_number 2
_symmetry_cell_setting 'triclinic'
loop_
_space_group_symop_operation_xyz
x,y,z
-x,-y,-z
loop_
_atom_site_type_symbol
_atom_site_label
_atom_site_fract_x
_atom_site_fract_y
_atom_site_fract_z
Si Si1 0.985980 0.344532 0.772599
Si Si2 0.810841 0.351890 0.346767
Si Si3 0.340732 0.267309 0.990163
Si Si4 0.505154 0.282541 0.755316
Si Si5 0.780604 0.880452 0.716372
O O1 0.876790 0.530271 0.807374
O O2 0.000000 0.500000 0.500000
O O3 0.075059 0.917278 0.741897
O O4 0.000000 0.500000 0.000000
O O5 0.751820 0.402298 0.132929
O O6 0.777393 0.729969 0.454886
O O7 0.789153 0.183983 0.607381
O O8 0.423767 0.242287 0.795385
O O9 0.304880 0.022759 0.059607
O O10 0.396114 0.128362 0.241272
O O11 0.500000 0.500000 0.500000
O O12 0.500000 0.500000 0.000000
#
# Coordination Sequence:
#
# PCOD9051765 Si02
#       5
#     2   2   2   2   2
#     4  10  25  47  75 111 160 208 256 315 377 449
#     4  11  27  47  76 113 159 206 263 316 381 457
#     4  11  28  43  82 108 154 199 260 319 390 458
#     4  11  28  51  78 110 153 194 255 321 396 464
#     4  11  27  47  76 113 159 206 263 316 381 457
#
# _framework density 28.901150000000001
#
# number of rings (size 3 to 8) (size 9 to 14) (size 15 to 20)
#    0.000    1.200    0.000    1.800   22.400    2.400 
#    0.000    0.000    0.000    0.000    0.000    0.000 
#    0.000    0.000    0.000    0.000    0.000    0.000 
#
# Total GULP energy -55863.865275 kJ/mol
# GULP energy per Si atom -5586.386528 kJ/mol
# Density = 2.883537 g / cm^3
# Si number density = 28.901150 Si / 1000 Ang^3
#
#
#
# Elastic Constant Matrix: (Units=GPa)
#
#
# Indices 1 2 3 4 5 6 
#
# 1 211.9042 47.0877 63.2321 -5.7559 -16.4608 -47.9021
# 2 47.0877 129.6139 47.8453 -21.4282 3.4632 -36.2746
# 3 63.2321 47.8453 194.9603 -40.7723 23.8424 0.6758
# 4 -5.7559 -21.4282 -40.7723 65.2461 7.8814 11.6881
# 5 -16.4608 3.4632 23.8424 7.8814 50.3127 -0.3877
# 6 -47.9021 -36.2746 0.6758 11.6881 -0.3877 79.6535
#
#
#
# Elastic Compliance Matrix: (Units=1/GPa)
#
#
# Indices 1 2 3 4 5 6 
#
# 1 0.007154 -0.000741 -0.003338 -0.003039 0.004484 0.004461
# 2 -0.000741 0.010026 -0.001930 0.001340 -0.000197 0.003939
# 3 -0.003338 -0.001930 0.008671 0.005909 -0.006024 -0.003856
# 4 -0.003039 0.001340 0.005909 0.020840 -0.007184 -0.004360
# 5 0.004484 -0.000197 -0.006024 -0.007184 0.025366 0.003835
# 6 0.004461 0.003939 -0.003856 -0.004360 0.003835 0.017722
#
#
# Mechanical properties :
#
#
# Convention : Reuss Voigt Hill
#
# Bulk Modulus (GPa) = 72.28062 94.75652 83.51857
# Shear Modulus (GPa) = 46.99003 64.26334 55.62669
#
# Velocity S-wave (km/s) = 4.03660 4.72058 4.39193
# Velocity P-wave (km/s) = 6.84028 7.91008 7.39455
#
# Compressibility (1/GPa) = 0.01383497
#
# Stress axis : x y z
#
# Youngs Moduli (GPa) = 139.78578 99.74309 115.32671
#
# Poissons Ratio (x) = 0.07386 0.38493
# Poissons Ratio (y) = 0.10351 0.22253
# Poissons Ratio (z) = 0.46656 0.19246
#
# Static dielectric constant tensor:
#      x y z
#    x 2.149410 0.020170 0.009070 
#    y 0.020170 2.617060 0.278730 
#    z 0.009070 0.278730 2.343920 
# 
# From -- ./inp_files/2480.got.cif
#   From: 2010.05.17/outbox.cif.g08.bks.cpg/sg2_2_cif.got.tgz:2480.got - 2010.06.03 11:33:40.
