data_PCOD9051616
_publ_section_title
;
Structure prediction by ZEFSAII (Michael W. Deem and Ramdas Pophale) SiO2 
 PCOD9051616
Probable space group: P -1
;
_chemical_formula_sum "Si O2"
_cell_formula_units_Z 16
_cell_length_a 13.280026
_cell_length_b 21.119978
_cell_length_c 6.742872
_cell_angle_alpha 112.223012
_cell_angle_beta 64.076032
_cell_angle_gamma 156.642493
_cell_volume 672.928625
_symmetry_space_group_name_H-M "P -1"
_symmetry_group_IT_number 2
_symmetry_cell_setting 'triclinic'
loop_
_space_group_symop_operation_xyz
x,y,z
-x,-y,-z
loop_
_atom_site_type_symbol
_atom_site_label
_atom_site_fract_x
_atom_site_fract_y
_atom_site_fract_z
Si Si1 0.526727 0.502459 0.709376
Si Si2 0.381932 0.270435 0.497760
Si Si3 0.548327 0.952211 0.995040
Si Si4 0.055751 0.273977 0.092535
Si Si5 0.530778 0.173061 0.724303
Si Si6 0.087723 0.006294 0.735025
Si Si7 0.759984 0.414780 0.042258
Si Si8 0.864265 0.316871 0.269772
O O1 0.500000 0.500000 0.500000
O O2 0.450115 0.380911 0.665812
O O3 0.810997 0.675594 0.758936
O O4 0.692393 0.574867 0.082377
O O5 0.277072 0.159666 0.621155
O O6 0.642286 0.390558 0.298526
O O7 0.156791 0.149093 0.377973
O O8 0.446639 0.881078 0.220570
O O9 0.381386 0.813686 0.825773
O O10 0.858580 0.115128 0.956113
O O11 0.500000 0.000000 0.000000
O O12 0.901282 0.259060 0.237634
O O13 0.260021 0.035035 0.679682
O O14 0.775568 0.310755 0.528063
O O15 0.541153 0.242994 0.945179
O O16 0.000000 0.000000 0.000000
O O17 0.000000 0.500000 0.000000
O O18 0.878469 0.522504 0.884731
#
# Coordination Sequence:
#
# PCOD9051616 Si02
#       8
#     2   2   2   2   2   2   2   2
#     4  11  26  44  69  99 135 185 231 287 349 413
#     4  11  27  45  72 101 145 183 231 295 347 414
#     4  10  25  47  68  98 140 180 238 295 345 412
#     4  10  26  44  68  97 136 177 240 282 348 411
#     4  12  26  42  76 102 139 191 232 286 361 417
#     4  11  26  46  70 105 141 184 238 283 352 419
#     4  12  24  44  70 106 143 178 230 287 353 420
#     4  11  25  45  71 102 143 181 233 294 352 419
#
# _framework density 23.776667
#
# number of rings (size 3 to 8) (size 9 to 14) (size 15 to 20)
#    0.000    1.000    2.500    1.875    8.750    5.000 
#    0.000    0.000    0.000    0.000    0.000    0.000 
#    0.000    0.000    0.000    0.000    0.000    0.000 
#
# Total GULP energy -89438.153418 kJ/mol
# GULP energy per Si atom -5589.884589 kJ/mol
# Density = 2.372255 g / cm^3
# Si number density = 23.776667 Si / 1000 Ang^3
#
#
#
# Elastic Constant Matrix: (Units=GPa)
#
#
# Indices 1 2 3 4 5 6 
#
# 1 66.5883 30.7007 46.5094 -6.4841 10.8447 9.7329
# 2 30.7007 94.3765 19.2353 6.9823 16.1475 12.4716
# 3 46.5094 19.2353 115.0917 -13.7260 12.5614 10.5954
# 4 -6.4841 6.9823 -13.7260 39.5760 4.1492 8.4284
# 5 10.8447 16.1475 12.5614 4.1492 47.7204 0.8738
# 6 9.7329 12.4716 10.5954 8.4284 0.8738 40.9311
#
#
#
# Elastic Compliance Matrix: (Units=1/GPa)
#
#
# Indices 1 2 3 4 5 6 
#
# 1 0.024267 -0.005862 -0.008079 0.002900 -0.001612 -0.002456
# 2 -0.005862 0.013422 0.000379 -0.002400 -0.003060 -0.002234
# 3 -0.008079 0.000379 0.012746 0.003704 -0.001929 -0.002216
# 4 0.002900 -0.002400 0.003704 0.029254 -0.003240 -0.006872
# 5 -0.001612 -0.003060 -0.001929 -0.003240 0.023110 0.001989
# 6 -0.002456 -0.002234 -0.002216 -0.006872 0.001989 0.027642
#
#
# Mechanical properties :
#
#
# Convention : Reuss Voigt Hill
#
# Bulk Modulus (GPa) = 42.89676 52.10526 47.50101
# Shear Modulus (GPa) = 30.24152 37.61956 33.93054
#
# Velocity S-wave (km/s) = 3.57024 3.98201 3.78173
# Velocity P-wave (km/s) = 5.92251 6.56536 6.25220
#
# Compressibility (1/GPa) = 0.02331178
#
# Stress axis : x y z
#
# Youngs Moduli (GPa) = 41.20851 74.50584 78.45325
#
# Poissons Ratio (x) = 0.43673 0.63382
# Poissons Ratio (y) = 0.24155 -0.02973
# Poissons Ratio (z) = 0.33292 -0.02823
#
# Static dielectric constant tensor:
#      x y z
#    x 1.911310 -0.017590 0.041010 
#    y -0.017590 1.943970 0.021360 
#    z 0.041010 0.021360 1.884290 
# 
# From -- ./inp_files/101196.got.cif
#   From: 2010.05.17/outbox.cif.g08.bks.cpg/sg2_51_cif.got.tgz:101196.got - 2010.06.03 11:33:40.
