data_PCOD9051145
_publ_section_title
;
Structure prediction by ZEFSAII (Michael W. Deem and Ramdas Pophale) SiO2 
 PCOD9051145
Probable space group: P -1
;
_chemical_formula_sum "Si O2"
_cell_formula_units_Z 12
_cell_length_a 19.829724
_cell_length_b 4.963561
_cell_length_c 5.309572
_cell_angle_alpha 77.736363
_cell_angle_beta 75.176672
_cell_angle_gamma 94.356675
_cell_volume 488.959722
_symmetry_space_group_name_H-M "P -1"
_symmetry_group_IT_number 2
_symmetry_cell_setting 'triclinic'
loop_
_space_group_symop_operation_xyz
x,y,z
-x,-y,-z
loop_
_atom_site_type_symbol
_atom_site_label
_atom_site_fract_x
_atom_site_fract_y
_atom_site_fract_z
Si Si1 0.263344 0.594020 0.309893
Si Si2 0.644349 0.826457 0.861999
Si Si3 0.987201 0.813782 0.302511
Si Si4 0.447984 0.225238 0.539330
Si Si5 0.156781 0.199121 0.769887
Si Si6 0.869318 0.389510 0.886911
O O1 0.231678 0.362321 0.588739
O O2 0.194252 0.686392 0.230281
O O3 0.306537 0.417174 0.118419
O O4 0.311470 0.871621 0.295772
O O5 0.603610 0.844178 0.159714
O O6 0.593823 0.750089 0.685734
O O7 0.851278 0.133577 0.156181
O O8 0.049306 0.622210 0.259828
O O9 0.000000 0.000000 0.500000
O O10 0.000000 0.000000 0.000000
O O11 0.500000 0.500000 0.500000
O O12 0.500000 0.000000 0.500000
O O13 0.095724 0.289649 0.630315
O O14 0.139005 0.318488 0.034127
#
# Coordination Sequence:
#
# PCOD9051145 Si02
#       6
#     2   2   2   2   2   2
#     4  12  28  44  74 108 156 197 240 303 370 448
#     4  12  28  47  78 117 152 191 242 293 362 439
#     4  10  25  45  71 101 138 194 262 323 365 429
#     4  12  26  52  82 112 150 191 240 293 352 430
#     4  11  26  46  71 101 146 196 257 311 376 432
#     4  11  26  46  71 101 146 196 257 311 376 432
#
# _framework density 24.541896999999999
#
# number of rings (size 3 to 8) (size 9 to 14) (size 15 to 20)
#    0.000    0.667    0.000    5.500   18.667    0.667 
#    0.000    0.000    0.000    0.000    0.000    0.000 
#    0.000    0.000    0.000    0.000    0.000    0.000 
#
# Total GULP energy -67232.945591 kJ/mol
# GULP energy per Si atom -5602.745466 kJ/mol
# Density = 2.448604 g / cm^3
# Si number density = 24.541897 Si / 1000 Ang^3
#
#
#
# Elastic Constant Matrix: (Units=GPa)
#
#
# Indices 1 2 3 4 5 6 
#
# 1 108.2689 31.7968 34.6314 -0.1603 -6.8404 -1.1921
# 2 31.7968 119.1981 -2.1066 11.9848 -13.7300 9.4606
# 3 34.6314 -2.1066 111.2430 17.9709 -6.4348 1.8243
# 4 -0.1603 11.9848 17.9709 39.7949 -0.7675 0.0061
# 5 -6.8404 -13.7300 -6.4348 -0.7675 42.7208 3.3326
# 6 -1.1921 9.4606 1.8243 0.0061 3.3326 47.8349
#
#
#
# Elastic Compliance Matrix: (Units=1/GPa)
#
#
# Indices 1 2 3 4 5 6 
#
# 1 0.011648 -0.003571 -0.004197 0.003019 0.000050 0.001153
# 2 -0.003571 0.010351 0.002188 -0.004058 0.003202 -0.002442
# 3 -0.004197 0.002188 0.011390 -0.005786 0.001728 -0.001091
# 4 0.003019 -0.004058 -0.005786 0.028951 -0.001265 0.001183
# 5 0.000050 0.003202 0.001728 -0.001265 0.024872 -0.002431
# 6 0.001153 -0.002442 -0.001091 0.001183 -0.002431 0.021628
#
#
# Mechanical properties :
#
#
# Convention : Reuss Voigt Hill
#
# Bulk Modulus (GPa) = 44.98423 51.92812 48.45617
# Shear Modulus (GPa) = 39.24351 44.36267 41.80309
#
# Velocity S-wave (km/s) = 4.00314 4.25624 4.13163
# Velocity P-wave (km/s) = 6.30367 6.73491 6.52285
#
# Compressibility (1/GPa) = 0.02223001
#
# Stress axis : x y z
#
# Youngs Moduli (GPa) = 85.85337 96.60658 87.79587
#
# Poissons Ratio (x) = 0.34494 0.36851
# Poissons Ratio (y) = 0.30655 -0.19213
# Poissons Ratio (z) = 0.36036 -0.21142
#
# Static dielectric constant tensor:
#      x y z
#    x 1.956770 0.002800 -0.012120 
#    y 0.002800 1.945420 -0.107030 
#    z -0.012120 -0.107030 2.047870 
# 
# From -- ./inp_files/102916.got.cif
#   From: 2010.05.17/outbox.cif.g08.bks.cpg/sg2_52_cif.got.tgz:102916.got - 2010.06.03 11:33:40.
