data_PCOD9051266
_publ_section_title
;
Structure prediction by ZEFSAII (Michael W. Deem and Ramdas Pophale) SiO2 
 PCOD9051266
Probable space group: P -1
;
_chemical_formula_sum "Si O2"
_cell_formula_units_Z 16
_cell_length_a 14.046446
_cell_length_b 10.686866
_cell_length_c 9.437871
_cell_angle_alpha 93.455176
_cell_angle_beta 78.098180
_cell_angle_gamma 32.555750
_cell_volume 668.209014
_symmetry_space_group_name_H-M "P -1"
_symmetry_group_IT_number 2
_symmetry_cell_setting 'triclinic'
loop_
_space_group_symop_operation_xyz
x,y,z
-x,-y,-z
loop_
_atom_site_type_symbol
_atom_site_label
_atom_site_fract_x
_atom_site_fract_y
_atom_site_fract_z
Si Si1 0.931482 0.806683 0.009630
Si Si2 0.443024 0.676185 0.137725
Si Si3 0.744898 0.492695 0.894760
Si Si4 0.055836 0.005641 0.208499
Si Si5 0.588339 0.521849 0.397776
Si Si6 0.993976 0.572072 0.698303
Si Si7 0.339702 0.008904 0.668084
Si Si8 0.717925 0.697435 0.647368
O O1 0.922891 0.953459 0.950369
O O2 0.948950 0.693256 0.865214
O O3 0.129398 0.574099 0.030707
O O4 0.743787 0.982831 0.177691
O O5 0.556275 0.542658 0.241703
O O6 0.206747 0.920783 0.249890
O O7 0.500000 0.500000 0.000000
O O8 0.524244 0.706745 0.034935
O O9 0.734459 0.575476 0.756408
O O10 0.865375 0.225384 0.825132
O O11 0.824093 0.269638 0.339119
O O12 0.500000 0.500000 0.500000
O O13 0.466615 0.778979 0.508347
O O14 0.125569 0.502449 0.541670
O O15 0.797696 0.736238 0.694567
O O16 0.146772 0.286443 0.671183
O O17 0.491518 0.944251 0.674758
#
# Coordination Sequence:
#
# PCOD9051266 Si02
#       8
#     2   2   2   2   2   2   2   2
#     4  12  24  48  79 106 145 199 243 303 369 434
#     4  10  25  45  74 108 151 190 242 289 363 439
#     4  11  23  45  79 108 150 188 244 306 367 436
#     4  11  25  47  75 106 153 191 239 298 364 438
#     4  12  28  44  73 113 150 194 238 296 371 438
#     4  11  27  52  73 103 147 192 253 308 362 426
#     4  12  27  47  77 105 151 191 247 301 369 433
#     4  11  26  47  75 106 145 188 249 306 364 430
#
# _framework density 23.944604999999999
#
# number of rings (size 3 to 8) (size 9 to 14) (size 15 to 20)
#    0.000    0.750    2.500    3.375    8.750    4.000 
#    2.250    0.000    0.000    0.000    0.000    0.000 
#    0.000    0.000    0.000    0.000    0.000    0.000 
#
# Total GULP energy -89659.957093 kJ/mol
# GULP energy per Si atom -5603.747318 kJ/mol
# Density = 2.389011 g / cm^3
# Si number density = 23.944605 Si / 1000 Ang^3
#
#
#
# Elastic Constant Matrix: (Units=GPa)
#
#
# Indices 1 2 3 4 5 6 
#
# 1 113.2731 23.7145 47.7754 13.5168 -13.7927 -37.2736
# 2 23.7145 64.9832 18.3435 14.4989 3.3972 -9.2525
# 3 47.7754 18.3435 114.6569 7.9547 -10.1628 9.1726
# 4 13.5168 14.4989 7.9547 40.8728 6.5946 -9.1704
# 5 -13.7927 3.3972 -10.1628 6.5946 52.1810 -0.6415
# 6 -37.2736 -9.2525 9.1726 -9.1704 -0.6415 42.4235
#
#
#
# Elastic Compliance Matrix: (Units=1/GPa)
#
#
# Indices 1 2 3 4 5 6 
#
# 1 0.019835 -0.002095 -0.009065 -0.000443 0.003902 0.018894
# 2 -0.002095 0.018047 -0.001932 -0.004766 -0.001485 0.001461
# 3 -0.009065 -0.001932 0.013916 -0.001748 0.000516 -0.011765
# 4 -0.000443 -0.004766 -0.001748 0.028363 -0.003670 0.005025
# 5 0.003902 -0.001485 0.000516 -0.003670 0.020887 0.002515
# 6 0.018894 0.001461 -0.011765 0.005025 0.002515 0.044158
#
#
# Mechanical properties :
#
#
# Convention : Reuss Voigt Hill
#
# Bulk Modulus (GPa) = 39.03935 52.50889 45.77412
# Shear Modulus (GPa) = 27.78869 40.63411 34.21140
#
# Velocity S-wave (km/s) = 3.41037 4.12394 3.78401
# Velocity P-wave (km/s) = 5.64331 6.68227 6.18465
#
# Compressibility (1/GPa) = 0.02561518
#
# Stress axis : x y z
#
# Youngs Moduli (GPa) = 50.41578 55.40953 71.85916
#
# Poissons Ratio (x) = 0.11607 0.65138
# Poissons Ratio (y) = 0.10561 0.13885
# Poissons Ratio (z) = 0.45700 0.10707
#
# Static dielectric constant tensor:
#      x y z
#    x 1.930400 0.005610 -0.005390 
#    y 0.005610 1.932280 0.014000 
#    z -0.005390 0.014000 1.876960 
# 
# From -- ./inp_files/307521.got.cif
#   From: 2010.05.17/outbox.cif.g08.bks.cpg/sg2_154_cif.got.tgz:307521.got - 2010.06.03 11:33:40.
