data_PCOD9051980
_publ_section_title
;
Structure prediction by ZEFSAII (Michael W. Deem and Ramdas Pophale) SiO2 
 PCOD9051980
Probable space group: P -1
;
_chemical_formula_sum "Si O2"
_cell_formula_units_Z 16
_cell_length_a 8.854207
_cell_length_b 5.429415
_cell_length_c 17.379583
_cell_angle_alpha 120.514381
_cell_angle_beta 115.113874
_cell_angle_gamma 72.952820
_cell_volume 648.496285
_symmetry_space_group_name_H-M "P -1"
_symmetry_group_IT_number 2
_symmetry_cell_setting 'triclinic'
loop_
_space_group_symop_operation_xyz
x,y,z
-x,-y,-z
loop_
_atom_site_type_symbol
_atom_site_label
_atom_site_fract_x
_atom_site_fract_y
_atom_site_fract_z
Si Si1 0.774029 0.535492 0.722763
Si Si2 0.187649 0.852106 0.025519
Si Si3 0.693059 0.525816 0.866894
Si Si4 0.164875 0.162074 0.577517
Si Si5 0.072057 0.736549 0.739488
Si Si6 0.624840 0.225360 0.095067
Si Si7 0.797124 0.950021 0.592772
Si Si8 0.498414 0.224749 0.401240
O O1 0.760767 0.394369 0.780548
O O2 0.599884 0.707839 0.688898
O O3 0.934209 0.708257 0.772476
O O4 0.799119 0.283250 0.624689
O O5 0.207170 0.636715 0.067503
O O6 0.283468 0.140895 0.095018
O O7 0.271299 0.686281 0.942903
O O8 0.000000 0.000000 0.000000
O O9 0.499777 0.531704 0.851604
O O10 0.140699 0.423240 0.672559
O O11 0.207484 0.254487 0.514036
O O12 0.322025 0.941599 0.599810
O O13 0.000000 0.000000 0.500000
O O14 0.228824 0.885019 0.830788
O O15 0.962143 0.873657 0.667117
O O16 0.500000 0.000000 0.000000
O O17 0.627046 0.948085 0.603279
O O18 0.500000 0.500000 0.500000
#
# Coordination Sequence:
#
# PCOD9051980 Si02
#       8
#     2   2   2   2   2   2   2   2
#     4  11  25  44  68 105 139 195 248 297 368 444
#     4  11  24  47  73 104 140 189 240 308 377 445
#     4  11  26  44  72 104 143 186 243 306 371 450
#     4  12  23  44  68 109 144 193 240 298 367 437
#     4  11  25  45  71 103 144 192 244 309 370 444
#     4  10  25  49  72 107 145 189 245 310 383 449
#     4  11  24  44  68  98 149 190 245 299 359 447
#     4  11  24  43  67  97 145 193 240 295 362 437
#
# _framework density 24.672464000000002
#
# number of rings (size 3 to 8) (size 9 to 14) (size 15 to 20)
#    0.000    1.000    2.500    3.000    7.000    1.000 
#    6.750    0.000    0.000    0.000    0.000    0.000 
#    0.000    0.000    0.000    0.000    0.000    0.000 
#
# Total GULP energy -89379.834233 kJ/mol
# GULP energy per Si atom -5586.239640 kJ/mol
# Density = 2.461631 g / cm^3
# Si number density = 24.672464 Si / 1000 Ang^3
#
#
#
# Elastic Constant Matrix: (Units=GPa)
#
#
# Indices 1 2 3 4 5 6 
#
# 1 104.9374 35.0339 44.3014 -27.6676 4.3977 -34.7483
# 2 35.0339 77.6516 29.0909 -26.2387 10.0671 -22.5610
# 3 44.3014 29.0909 91.5282 -21.4040 9.5305 -9.7165
# 4 -27.6676 -26.2387 -21.4040 50.9046 0.7367 3.9610
# 5 4.3977 10.0671 9.5305 0.7367 54.4115 -10.6552
# 6 -34.7483 -22.5610 -9.7165 3.9610 -10.6552 43.0035
#
#
#
# Elastic Compliance Matrix: (Units=1/GPa)
#
#
# Indices 1 2 3 4 5 6 
#
# 1 0.017978 -0.000321 -0.006034 0.006029 0.002121 0.012965
# 2 -0.000321 0.019432 -0.003150 0.007908 -0.001536 0.008114
# 3 -0.006034 -0.003150 0.015099 0.001780 -0.002355 -0.003864
# 4 0.006029 0.007908 0.001780 0.027253 -0.001343 0.006580
# 5 0.002121 -0.001536 -0.002355 -0.001343 0.019990 0.005452
# 6 0.012965 0.008114 -0.003864 0.006580 0.005452 0.037859
#
#
# Mechanical properties :
#
#
# Convention : Reuss Voigt Hill
#
# Bulk Modulus (GPa) = 29.85296 54.55216 42.20256
# Shear Modulus (GPa) = 29.79957 40.70998 35.25478
#
# Velocity S-wave (km/s) = 3.47912 4.06645 3.78420
# Velocity P-wave (km/s) = 5.31649 6.64880 6.01962
#
# Compressibility (1/GPa) = 0.03349751
#
# Stress axis : x y z
#
# Youngs Moduli (GPa) = 55.62303 51.46201 66.23100
#
# Poissons Ratio (x) = 0.01654 0.39965
# Poissons Ratio (y) = 0.01787 0.20863
# Poissons Ratio (z) = 0.33564 0.16211
#
# Static dielectric constant tensor:
#      x y z
#    x 2.048190 0.028360 -0.047020 
#    y 0.028360 2.033750 0.103740 
#    z -0.047020 0.103740 2.142450 
# 
# From -- ./inp_files/89890.got.cif
#   From: 2010.05.17/outbox.cif.g08.bks.cpg/sg2_45_cif.got.tgz:89890.got - 2010.06.03 11:33:40.
