data_PCOD9051342
_publ_section_title
;
Structure prediction by ZEFSAII (Michael W. Deem and Ramdas Pophale) SiO2 
 PCOD9051342
Probable space group: P -1
;
_chemical_formula_sum "Si O2"
_cell_formula_units_Z 14
_cell_length_a 11.286382
_cell_length_b 14.011657
_cell_length_c 14.164841
_cell_angle_alpha 29.806242
_cell_angle_beta 30.343923
_cell_angle_gamma 37.935296
_cell_volume 555.372129
_symmetry_space_group_name_H-M "P -1"
_symmetry_group_IT_number 2
_symmetry_cell_setting 'triclinic'
loop_
_space_group_symop_operation_xyz
x,y,z
-x,-y,-z
loop_
_atom_site_type_symbol
_atom_site_label
_atom_site_fract_x
_atom_site_fract_y
_atom_site_fract_z
Si Si1 0.367935 0.622282 0.127079
Si Si2 0.549558 0.781975 0.371148
Si Si3 0.146466 0.605046 0.580412
Si Si4 0.679506 0.728184 0.671832
Si Si5 0.494334 0.191768 0.944295
Si Si6 0.865280 0.847061 0.273509
Si Si7 0.026284 0.781402 0.709117
O O1 0.404519 0.420170 0.219263
O O2 0.088814 0.680356 0.283605
O O3 0.478065 0.767795 0.855161
O O4 0.484341 0.651829 0.121608
O O5 0.686670 0.599733 0.375176
O O6 0.691118 0.789228 0.364281
O O7 0.281579 0.754427 0.605194
O O8 0.544404 0.981047 0.142696
O O9 0.057763 0.641921 0.716028
O O10 0.914170 0.630516 0.651398
O O11 0.307533 0.769619 0.299915
O O12 0.751411 0.896291 0.412153
O O13 0.224542 0.229088 0.060478
O O14 0.000000 0.000000 0.000000
O O15 0.000000 0.000000 0.500000
#
# Coordination Sequence:
#
# PCOD9051342 Si02
#       7
#     2   2   2   2   2   2   2
#     4  11  21  39  63  95 130 169 217 261 329 388
#     4  11  24  42  65 100 132 168 222 269 315 395
#     4  12  22  43  72  93 131 173 219 271 325 386
#     4  11  23  37  66  98 126 177 214 264 333 389
#     4  11  23  44  69  94 133 175 214 269 330 386
#     4  12  22  40  63  95 137 165 211 270 325 390
#     4  10  25  46  67  93 133 172 220 272 322 389
#
# _framework density 25.208323
#
# number of rings (size 3 to 8) (size 9 to 14) (size 15 to 20)
#    0.000    0.857    5.714    1.714    0.000    3.429 
#    0.000    5.714    0.000    0.000    0.000    0.000 
#    0.000    0.000    0.000    0.000    0.000    0.000 
#
# Total GULP energy -78387.232327 kJ/mol
# GULP energy per Si atom -5599.088023 kJ/mol
# Density = 2.515095 g / cm^3
# Si number density = 25.208323 Si / 1000 Ang^3
#
#
#
# Elastic Constant Matrix: (Units=GPa)
#
#
# Indices 1 2 3 4 5 6 
#
# 1 83.9459 19.2179 26.4903 8.7202 -32.4347 -14.8445
# 2 19.2179 85.9009 21.3052 13.4688 -17.4759 -18.9636
# 3 26.4903 21.3052 117.0217 14.6396 -2.5389 -20.6661
# 4 8.7202 13.4688 14.6396 44.9567 -3.3033 -5.2415
# 5 -32.4347 -17.4759 -2.5389 -3.3033 48.8950 8.3106
# 6 -14.8445 -18.9636 -20.6661 -5.2415 8.3106 35.8352
#
#
#
# Elastic Compliance Matrix: (Units=1/GPa)
#
#
# Indices 1 2 3 4 5 6 
#
# 1 0.017821 -0.000160 -0.003122 -0.001260 0.011050 0.002750
# 2 -0.000160 0.014447 -0.001150 -0.002989 0.003846 0.005586
# 3 -0.003122 -0.001150 0.010458 -0.002143 -0.002844 0.004476
# 4 -0.001260 -0.002989 -0.002143 0.024082 -0.000436 0.000285
# 5 0.011050 0.003846 -0.002844 -0.000436 0.029300 -0.001887
# 6 0.002750 0.005586 0.004476 0.000285 -0.001887 0.035061
#
#
# Mechanical properties :
#
#
# Convention : Reuss Voigt Hill
#
# Bulk Modulus (GPa) = 29.53187 46.76613 38.14900
# Shear Modulus (GPa) = 33.04242 40.59438 36.81840
#
# Velocity S-wave (km/s) = 3.62439 4.01728 3.82588
# Velocity P-wave (km/s) = 5.40883 6.33326 5.88921
#
# Compressibility (1/GPa) = 0.03386172
#
# Stress axis : x y z
#
# Youngs Moduli (GPa) = 56.11441 69.21980 95.61800
#
# Poissons Ratio (x) = 0.01107 0.29852
# Poissons Ratio (y) = 0.00898 0.10997
# Poissons Ratio (z) = 0.17519 0.07961
#
# Static dielectric constant tensor:
#      x y z
#    x 1.942470 -0.036240 0.031240 
#    y -0.036240 2.004990 -0.099550 
#    z 0.031240 -0.099550 2.177030 
# 
# From -- ./inp_files/307967.got.cif
#   From: 2010.05.17/outbox.cif.g08.bks.cpg/sg2_154_cif.got.tgz:307967.got - 2010.06.03 11:33:40.
