data_PCOD9051184
_publ_section_title
;
Structure prediction by ZEFSAII (Michael W. Deem and Ramdas Pophale) SiO2 
 PCOD9051184
Probable space group: P -1
;
_chemical_formula_sum "Si O2"
_cell_formula_units_Z 16
_cell_length_a 11.981172
_cell_length_b 10.919414
_cell_length_c 14.486652
_cell_angle_alpha 30.055876
_cell_angle_beta 55.056934
_cell_angle_gamma 72.840759
_cell_volume 678.768922
_symmetry_space_group_name_H-M "P -1"
_symmetry_group_IT_number 2
_symmetry_cell_setting 'triclinic'
loop_
_space_group_symop_operation_xyz
x,y,z
-x,-y,-z
loop_
_atom_site_type_symbol
_atom_site_label
_atom_site_fract_x
_atom_site_fract_y
_atom_site_fract_z
Si Si1 0.924337 0.175306 0.379488
Si Si2 0.236513 0.778237 0.257423
Si Si3 0.531113 0.619998 0.008768
Si Si4 0.969580 0.874273 0.264320
Si Si5 0.785746 0.547700 0.258767
Si Si6 0.274912 0.053058 0.552217
Si Si7 0.238243 0.487662 0.927037
Si Si8 0.484465 0.889233 0.226074
O O1 0.865891 0.347748 0.358487
O O2 0.064193 0.386726 0.109492
O O3 0.000000 0.000000 0.500000
O O4 0.784489 0.988980 0.497919
O O5 0.150902 0.438527 0.509979
O O6 0.362221 0.873272 0.216572
O O7 0.090178 0.832227 0.300588
O O8 0.345266 0.967722 0.996249
O O9 0.408125 0.369881 0.295133
O O10 0.692474 0.673954 0.941643
O O11 0.500000 0.500000 0.000000
O O12 0.503775 0.882190 0.855129
O O13 0.867430 0.984863 0.292862
O O14 0.089137 0.139022 0.972904
O O15 0.756168 0.549250 0.161264
O O16 0.619540 0.408744 0.479813
O O17 0.323278 0.816146 0.698766
#
# Coordination Sequence:
#
# PCOD9051184 Si02
#       8
#     2   2   2   2   2   2   2   2
#     4  11  21  36  62  99 133 175 214 259 334 407
#     4  10  25  45  71  89 130 180 228 283 318 384
#     4  12  24  41  66 100 135 169 214 269 336 410
#     4  11  21  44  68  92 122 178 226 272 329 373
#     4  11  22  39  70  96 137 169 219 276 331 399
#     4  11  21  38  62  93 134 169 214 268 328 395
#     4  11  21  40  61 100 135 176 207 266 343 398
#     4  11  24  44  66  99 129 175 223 272 336 383
#
# _framework density 23.572085999999999
#
# number of rings (size 3 to 8) (size 9 to 14) (size 15 to 20)
#    0.000    1.000    3.750    4.875    1.750    1.000 
#    0.000    0.000    8.250    0.000    0.000    0.000 
#    0.000    0.000    0.000    0.000    0.000    0.000 
#
# Total GULP energy -89335.347969 kJ/mol
# GULP energy per Si atom -5583.459248 kJ/mol
# Density = 2.351843 g / cm^3
# Si number density = 23.572086 Si / 1000 Ang^3
#
#
#
# Elastic Constant Matrix: (Units=GPa)
#
#
# Indices 1 2 3 4 5 6 
#
# 1 57.2921 8.5839 -9.1376 5.6379 -1.3496 -11.3041
# 2 8.5839 60.7670 27.4176 4.4403 -4.6255 -5.5435
# 3 -9.1376 27.4176 164.5522 3.1072 -21.9862 -5.5245
# 4 5.6379 4.4403 3.1072 44.9496 -4.2536 -2.5520
# 5 -1.3496 -4.6255 -21.9862 -4.2536 44.5194 -0.0045
# 6 -11.3041 -5.5435 -5.5245 -2.5520 -0.0045 20.8100
#
#
#
# Elastic Compliance Matrix: (Units=1/GPa)
#
#
# Indices 1 2 3 4 5 6 
#
# 1 0.020525 -0.002661 0.002144 -0.001729 0.001240 0.010798
# 2 -0.002661 0.018563 -0.003107 -0.001122 0.000207 0.002537
# 3 0.002144 -0.003107 0.007232 -0.000020 0.003312 0.002255
# 4 -0.001729 -0.001122 -0.000020 0.022855 0.002005 0.001560
# 5 0.001240 0.000207 0.003312 0.002005 0.024349 0.001859
# 6 0.010798 0.002537 0.002255 0.001560 0.001859 0.055386
#
#
# Mechanical properties :
#
#
# Convention : Reuss Voigt Hill
#
# Bulk Modulus (GPa) = 25.59295 37.37100 31.48198
# Shear Modulus (GPa) = 29.55416 39.10563 34.32989
#
# Velocity S-wave (km/s) = 3.54471 4.07748 3.82039
# Velocity P-wave (km/s) = 5.25683 6.16896 5.73107
#
# Compressibility (1/GPa) = 0.03907326
#
# Stress axis : x y z
#
# Youngs Moduli (GPa) = 48.72121 53.87042 138.26552
#
# Poissons Ratio (x) = 0.14334 -0.29644
# Poissons Ratio (y) = 0.12964 0.42955
# Poissons Ratio (z) = -0.10446 0.16736
#
# Static dielectric constant tensor:
#      x y z
#    x 1.852860 -0.002230 0.013960 
#    y -0.002230 1.873730 0.001640 
#    z 0.013960 0.001640 2.037280 
# 
# From -- ./inp_files/416663.got.cif
#   From: 2010.05.17/outbox.cif.g08.bks.cpg/sg2_209_cif.got.tgz:416663.got - 2010.06.03 11:33:40.
