data_PCOD9051229
_publ_section_title
;
Structure prediction by ZEFSAII (Michael W. Deem and Ramdas Pophale) SiO2 
 PCOD9051229
Probable space group: P -1
;
_chemical_formula_sum "Si O2"
_cell_formula_units_Z 16
_cell_length_a 9.110477
_cell_length_b 19.307783
_cell_length_c 9.166295
_cell_angle_alpha 123.515883
_cell_angle_beta 147.773351
_cell_angle_gamma 56.688713
_cell_volume 704.548135
_symmetry_space_group_name_H-M "P -1"
_symmetry_group_IT_number 2
_symmetry_cell_setting 'triclinic'
loop_
_space_group_symop_operation_xyz
x,y,z
-x,-y,-z
loop_
_atom_site_type_symbol
_atom_site_label
_atom_site_fract_x
_atom_site_fract_y
_atom_site_fract_z
Si Si1 0.153983 0.958456 0.273399
Si Si2 0.568076 0.931058 0.849970
Si Si3 0.007161 0.311152 0.429360
Si Si4 0.349739 0.133804 0.606515
Si Si5 0.279565 0.208805 0.950809
Si Si6 0.732097 0.310994 0.513973
Si Si7 0.292805 0.516376 0.211605
Si Si8 0.517489 0.586564 0.031815
O O1 0.188998 0.054715 0.384018
O O2 0.646354 0.101386 0.740589
O O3 0.300659 0.935955 0.527627
O O4 0.833101 0.948291 0.998936
O O5 0.654567 0.844885 0.910868
O O6 0.500000 0.000000 0.000000
O O7 0.164922 0.213914 0.461443
O O8 0.881626 0.330651 0.510876
O O9 0.757419 0.341452 0.140578
O O10 0.236342 0.368268 0.653639
O O11 0.397072 0.161587 0.845333
O O12 0.435833 0.288089 0.194966
O O13 0.949568 0.232795 0.671476
O O14 0.717513 0.384461 0.706780
O O15 0.500000 0.500000 0.500000
O O16 0.397271 0.451916 0.099056
O O17 0.000000 0.500000 0.000000
O O18 0.500000 0.500000 0.000000
#
# Coordination Sequence:
#
# PCOD9051229 Si02
#       8
#     2   2   2   2   2   2   2   2
#     4  11  26  45  69 101 139 181 230 282 336 401
#     4  12  25  44  67 100 141 180 220 279 350 399
#     4  11  23  42  71  96 130 172 226 274 331 399
#     4  10  25  45  73 100 132 182 236 281 328 399
#     4  11  24  41  68  95 135 175 223 271 333 396
#     4  11  22  40  69  98 125 171 228 274 321 391
#     4  12  22  42  69  97 128 168 219 273 327 400
#     4  12  25  45  67  97 134 175 213 274 348 406
#
# _framework density 22.709589000000001
#
# number of rings (size 3 to 8) (size 9 to 14) (size 15 to 20)
#    0.000    0.750    3.750    3.750    3.500    6.000 
#    6.750    0.000    0.000    0.000    0.000    0.000 
#    0.000    0.000    0.000    0.000    0.000    0.000 
#
# Total GULP energy -89537.813868 kJ/mol
# GULP energy per Si atom -5596.113367 kJ/mol
# Density = 2.265790 g / cm^3
# Si number density = 22.709589 Si / 1000 Ang^3
#
#
#
# Elastic Constant Matrix: (Units=GPa)
#
#
# Indices 1 2 3 4 5 6 
#
# 1 39.9321 20.6896 8.5762 0.6414 5.8789 -10.1377
# 2 20.6896 102.8283 -0.6872 -6.0824 11.9032 8.6819
# 3 8.5762 -0.6872 86.7777 -2.6591 11.5278 7.2815
# 4 0.6414 -6.0824 -2.6591 38.1050 6.5551 -5.8767
# 5 5.8789 11.9032 11.5278 6.5551 28.3533 1.7093
# 6 -10.1377 8.6819 7.2815 -5.8767 1.7093 41.6921
#
#
#
# Elastic Compliance Matrix: (Units=1/GPa)
#
#
# Indices 1 2 3 4 5 6 
#
# 1 0.032522 -0.007085 -0.003736 0.000127 -0.002893 0.010172
# 2 -0.007085 0.012189 0.001834 0.002376 -0.004699 -0.004054
# 3 -0.003736 0.001834 0.012946 0.001725 -0.005472 -0.003084
# 4 0.000127 0.002376 0.001725 0.028782 -0.008599 0.003644
# 5 -0.002893 -0.004699 -0.005472 -0.008599 0.042157 -0.001710
# 6 0.010172 -0.004054 -0.003084 0.003644 -0.001710 0.028425
#
#
# Mechanical properties :
#
#
# Convention : Reuss Voigt Hill
#
# Bulk Modulus (GPa) = 25.19911 31.85504 28.52707
# Shear Modulus (GPa) = 26.56413 35.02738 30.79575
#
# Velocity S-wave (km/s) = 3.42384 3.93161 3.68648
# Velocity P-wave (km/s) = 5.17210 5.88792 5.54158
#
# Compressibility (1/GPa) = 0.03968395
#
# Stress axis : x y z
#
# Youngs Moduli (GPa) = 30.74843 82.03784 77.24450
#
# Poissons Ratio (x) = 0.58124 0.28856
# Poissons Ratio (y) = 0.21785 -0.14166
# Poissons Ratio (z) = 0.11486 -0.15045
#
# Static dielectric constant tensor:
#      x y z
#    x 1.858860 -0.031400 -0.007670 
#    y -0.031400 1.915900 -0.021160 
#    z -0.007670 -0.021160 1.793840 
# 
# From -- ./inp_files/436822.got.cif
#   From: 2010.05.17/outbox.cif.g08.bks.cpg/sg2_219_cif.got.tgz:436822.got - 2010.06.03 11:33:40.
