data_PCOD9051711
_publ_section_title
;
Structure prediction by ZEFSAII (Michael W. Deem and Ramdas Pophale) SiO2 
 PCOD9051711
Probable space group: P -1
;
_chemical_formula_sum "Si O2"
_cell_formula_units_Z 15
_cell_length_a 7.693171
_cell_length_b 16.769230
_cell_length_c 6.994911
_cell_angle_alpha 60.909447
_cell_angle_beta 122.650994
_cell_angle_gamma 130.115562
_cell_volume 567.440345
_symmetry_space_group_name_H-M "P -1"
_symmetry_group_IT_number 2
_symmetry_cell_setting 'triclinic'
loop_
_space_group_symop_operation_xyz
x,y,z
-x,-y,-z
loop_
_atom_site_type_symbol
_atom_site_label
_atom_site_fract_x
_atom_site_fract_y
_atom_site_fract_z
Si Si1 0.743352 0.892717 0.488403
Si Si2 0.468135 0.465508 0.742863
Si Si3 0.051765 0.686256 0.521371
Si Si4 0.751234 0.356049 0.977614
Si Si5 0.848480 0.104620 0.826098
Si Si6 0.419201 0.655367 0.529567
Si Si7 0.500000 0.000000 0.000000
Si Si8 0.656253 0.880595 0.897675
O O1 0.662611 0.772221 0.516952
O O2 0.674230 0.884365 0.678115
O O3 0.579852 0.922831 0.233837
O O4 0.000000 0.000000 0.500000
O O5 0.500000 0.500000 0.500000
O O6 0.648352 0.424065 0.937254
O O7 0.482557 0.567029 0.732547
O O8 0.191274 0.366835 0.686930
O O9 0.156999 0.812119 0.414998
O O10 0.246237 0.665688 0.562846
O O11 0.030381 0.638863 0.777333
O O12 0.741347 0.378990 0.721316
O O13 0.551485 0.231772 0.025174
O O14 0.806993 0.108956 0.020590
O O15 0.624869 0.978726 0.832851
O O16 0.087853 0.105052 0.906553
#
# Coordination Sequence:
#
# PCOD9051711 Si02
#       8
#     2   2   2   2   2   2   1   2
#     4  12  25  42  66 102 139 180 230 277 343 411
#     4  10  25  47  73 101 139 179 231 289 340 407
#     4  12  24  47  72 105 134 183 233 280 347 410
#     4  11  24  46  72 100 141 176 229 283 342 407
#     4  11  24  40  69  98 136 183 229 279 345 405
#     4  11  25  46  69 104 138 179 231 287 337 404
#     4  12  22  42  64  98 136 170 228 286 324 410
#     4  11  23  43  66  97 139 186 220 282 345 407
#
# _framework density 26.434498000000001
#
# number of rings (size 3 to 8) (size 9 to 14) (size 15 to 20)
#    0.000    0.800    5.333    1.200    1.867    5.867 
#    0.000    6.667    0.000    0.000    0.000    0.000 
#    0.000    0.000    0.000    0.000    0.000    0.000 
#
# Total GULP energy -83665.077392 kJ/mol
# GULP energy per Si atom -5577.671826 kJ/mol
# Density = 2.637433 g / cm^3
# Si number density = 26.434498 Si / 1000 Ang^3
#
#
#
# Elastic Constant Matrix: (Units=GPa)
#
#
# Indices 1 2 3 4 5 6 
#
# 1 33.9026 5.0043 -4.3902 -8.5778 -0.5905 0.6724
# 2 5.0043 102.9833 39.5754 -24.1041 11.0018 -1.8076
# 3 -4.3902 39.5754 142.4725 -28.8101 7.3301 -26.1601
# 4 -8.5778 -24.1041 -28.8101 36.7440 -15.1794 5.8993
# 5 -0.5905 11.0018 7.3301 -15.1794 37.8573 0.8316
# 6 0.6724 -1.8076 -26.1601 5.8993 0.8316 42.3922
#
#
#
# Elastic Compliance Matrix: (Units=1/GPa)
#
#
# Indices 1 2 3 4 5 6 
#
# 1 0.033138 -0.000601 0.003313 0.011993 0.004865 -0.000271
# 2 -0.000601 0.012110 -0.002496 0.005870 -0.000652 -0.001818
# 3 0.003313 -0.002496 0.010044 0.006796 0.001446 0.005065
# 4 0.011993 0.005870 0.006796 0.046073 0.015693 -0.002466
# 5 0.004865 -0.000652 0.001446 0.015693 0.032738 -0.002039
# 6 -0.000271 -0.001818 0.005065 -0.002466 -0.002039 0.027025
#
#
# Mechanical properties :
#
#
# Convention : Reuss Voigt Hill
#
# Bulk Modulus (GPa) = 17.94513 39.97083 28.95798
# Shear Modulus (GPa) = 27.89086 39.34330 33.61708
#
# Velocity S-wave (km/s) = 3.25174 3.86208 3.56998
# Velocity P-wave (km/s) = 4.57184 5.91955 5.28880
#
# Compressibility (1/GPa) = 0.05572543
#
# Stress axis : x y z
#
# Youngs Moduli (GPa) = 30.17648 82.57483 99.56098
#
# Poissons Ratio (x) = 0.04962 -0.32986
# Poissons Ratio (y) = 0.01813 0.24849
# Poissons Ratio (z) = -0.09998 0.20609
#
# Static dielectric constant tensor:
#      x y z
#    x 1.847370 0.220080 0.199850 
#    y 0.220080 2.180380 0.018700 
#    z 0.199850 0.018700 1.961560 
# 
# From -- ./inp_files/212097.got.cif
#   From: 2010.05.17/outbox.cif.g08.bks.cpg/sg2_107_cif.got.tgz:212097.got - 2010.06.03 11:33:40.
