data_PCOD9051430
_publ_section_title
;
Structure prediction by ZEFSAII (Michael W. Deem and Ramdas Pophale) SiO2 
 PCOD9051430
Probable space group: P -1
;
_chemical_formula_sum "Si O2"
_cell_formula_units_Z 14
_cell_length_a 5.044314
_cell_length_b 24.199667
_cell_length_c 12.736388
_cell_angle_alpha 154.168278
_cell_angle_beta 73.495051
_cell_angle_gamma 118.134084
_cell_volume 556.143614
_symmetry_space_group_name_H-M "P -1"
_symmetry_group_IT_number 2
_symmetry_cell_setting 'triclinic'
loop_
_space_group_symop_operation_xyz
x,y,z
-x,-y,-z
loop_
_atom_site_type_symbol
_atom_site_label
_atom_site_fract_x
_atom_site_fract_y
_atom_site_fract_z
Si Si1 0.101115 0.456714 0.246894
Si Si2 0.294643 0.939978 0.642331
Si Si3 0.773517 0.631068 0.572151
Si Si4 0.267239 0.841120 0.699876
Si Si5 0.044148 0.124394 0.873155
Si Si6 0.732230 0.441968 0.839115
Si Si7 0.447984 0.841589 0.264668
O O1 0.436320 0.506079 0.348680
O O2 0.149347 0.491693 0.176870
O O3 0.966811 0.559397 0.476255
O O4 0.826722 0.286858 0.993837
O O5 0.163297 0.879282 0.667620
O O6 0.332543 0.823909 0.367205
O O7 0.085068 0.996909 0.706064
O O8 0.670064 0.072884 0.835141
O O9 0.979680 0.741578 0.642706
O O10 0.747487 0.729955 0.832659
O O11 0.399939 0.733242 0.465525
O O12 0.500000 0.000000 0.000000
O O13 0.218415 0.149646 0.784432
O O14 0.500000 0.500000 0.000000
O O15 0.000000 0.500000 0.000000
O O16 0.500000 0.000000 0.500000
#
# Coordination Sequence:
#
# PCOD9051430 Si02
#       7
#     2   2   2   2   2   2   2
#     4  11  25  44  68  98 141 181 228 288 350 419
#     4  11  24  43  70 102 140 176 232 292 346 401
#     4  11  25  44  67 104 141 180 226 281 359 421
#     4  11  24  45  74 110 142 188 236 293 352 428
#     4  11  24  43  68 100 138 179 234 285 343 408
#     4  11  24  44  66 100 142 188 230 281 355 425
#     4  10  25  46  71 100 132 183 239 290 341 414
#
# _framework density 25.173352999999999
#
# number of rings (size 3 to 8) (size 9 to 14) (size 15 to 20)
#    0.000    1.143    1.429    3.857    2.000   12.000 
#    0.000    0.000    0.000    0.000    0.000    0.000 
#    0.000    0.000    0.000    0.000    0.000    0.000 
#
# Total GULP energy -78426.936693 kJ/mol
# GULP energy per Si atom -5601.924050 kJ/mol
# Density = 2.511606 g / cm^3
# Si number density = 25.173353 Si / 1000 Ang^3
#
#
#
# Elastic Constant Matrix: (Units=GPa)
#
#
# Indices 1 2 3 4 5 6 
#
# 1 111.1079 19.2679 25.9215 4.8848 1.9112 6.6089
# 2 19.2679 79.1002 41.6702 -3.5561 -7.7844 -2.3639
# 3 25.9215 41.6702 163.8077 -2.7694 1.5583 16.9111
# 4 4.8848 -3.5561 -2.7694 46.7503 7.0187 2.1547
# 5 1.9112 -7.7844 1.5583 7.0187 44.2256 4.0034
# 6 6.6089 -2.3639 16.9111 2.1547 4.0034 25.3318
#
#
#
# Elastic Compliance Matrix: (Units=1/GPa)
#
#
# Indices 1 2 3 4 5 6 
#
# 1 0.009727 -0.002091 -0.000811 -0.001069 -0.000406 -0.002036
# 2 -0.002091 0.015732 -0.004131 0.000593 0.002520 0.004323
# 3 -0.000811 -0.004131 0.007854 0.000569 -0.000573 -0.005375
# 4 -0.001069 0.000593 0.000569 0.022135 -0.003254 -0.001415
# 5 -0.000406 0.002520 -0.000573 -0.003254 0.023860 -0.002771
# 6 -0.002036 0.004323 -0.005375 -0.001415 -0.002771 0.044557
#
#
# Mechanical properties :
#
#
# Convention : Reuss Voigt Hill
#
# Bulk Modulus (GPa) = 51.95905 58.63722 55.29813
# Shear Modulus (GPa) = 34.63884 41.07195 37.85540
#
# Velocity S-wave (km/s) = 3.71349 4.04365 3.88208
# Velocity P-wave (km/s) = 6.25076 6.71903 6.48912
#
# Compressibility (1/GPa) = 0.01924593
#
# Stress axis : x y z
#
# Youngs Moduli (GPa) = 102.80427 63.56612 127.32332
#
# Poissons Ratio (x) = 0.13291 0.10331
# Poissons Ratio (y) = 0.21495 0.52601
# Poissons Ratio (z) = 0.08341 0.26261
#
# Static dielectric constant tensor:
#      x y z
#    x 1.968250 0.004390 -0.029600 
#    y 0.004390 2.157760 -0.053210 
#    z -0.029600 -0.053210 2.051170 
# 
# From -- ./inp_files/486295.got.cif
#   From: 2010.05.17/outbox.cif.g08.bks.cpg/sg2_244_cif.got.tgz:486295.got - 2010.06.03 11:33:40.
