data_PCOD9051944
_publ_section_title
;
Structure prediction by ZEFSAII (Michael W. Deem and Ramdas Pophale) SiO2 
 PCOD9051944
Probable space group: P -1
;
_chemical_formula_sum "Si O2"
_cell_formula_units_Z 14
_cell_length_a 9.871220
_cell_length_b 8.840862
_cell_length_c 13.680528
_cell_angle_alpha 76.382882
_cell_angle_beta 29.868841
_cell_angle_gamma 81.385330
_cell_volume 574.211237
_symmetry_space_group_name_H-M "P -1"
_symmetry_group_IT_number 2
_symmetry_cell_setting 'triclinic'
loop_
_space_group_symop_operation_xyz
x,y,z
-x,-y,-z
loop_
_atom_site_type_symbol
_atom_site_label
_atom_site_fract_x
_atom_site_fract_y
_atom_site_fract_z
Si Si1 0.053657 0.907789 0.578167
Si Si2 0.284646 0.497856 0.885823
Si Si3 0.582499 0.625753 0.512544
Si Si4 0.342381 0.083933 0.834670
Si Si5 0.807620 0.205639 0.151024
Si Si6 0.895924 0.139823 0.807646
Si Si7 0.576500 0.662169 0.982779
O O1 0.347929 0.851539 0.384385
O O2 0.037194 0.028242 0.660732
O O3 0.000000 0.000000 0.500000
O O4 0.822520 0.766414 0.760815
O O5 0.547670 0.518509 0.647977
O O6 0.290001 0.681290 0.889532
O O7 0.316138 0.384862 0.971644
O O8 0.134550 0.213603 0.948444
O O9 0.500000 0.500000 0.500000
O O10 0.347560 0.742140 0.663536
O O11 0.867798 0.734579 0.313392
O O12 0.277791 0.971908 0.798350
O O13 0.266842 0.974542 0.993162
O O14 0.000000 0.500000 0.000000
O O15 0.678741 0.235408 0.873012
O O16 0.500000 0.500000 0.000000
#
# Coordination Sequence:
#
# PCOD9051944 Si02
#       7
#     2   2   2   2   2   2   2
#     4  12  27  52  83 119 166 220 281 342 428 501
#     4  10  25  49  72 112 173 205 274 337 414 493
#     4  10  25  48  80 121 167 220 276 346 426 497
#     4  11  23  49  81 113 161 216 273 352 399 502
#     4   9  23  47  75 112 164 208 273 335 416 482
#     4  12  27  51  82 120 166 215 289 342 421 497
#     4  12  29  51  85 122 164 222 278 349 424 499
#
# _framework density 24.381271999999999
#
# number of rings (size 3 to 8) (size 9 to 14) (size 15 to 20)
#    0.857    0.286    2.857    1.286    8.000    1.143 
#    7.714    0.714    0.000    0.000    0.000    0.000 
#    0.000    0.000    0.000    0.000    0.000    0.000 
#
# Total GULP energy -78270.352217 kJ/mol
# GULP energy per Si atom -5590.739444 kJ/mol
# Density = 2.432578 g / cm^3
# Si number density = 24.381272 Si / 1000 Ang^3
#
#
#
# Elastic Constant Matrix: (Units=GPa)
#
#
# Indices 1 2 3 4 5 6 
#
# 1 97.8818 74.9648 63.3113 1.5930 -1.9787 -9.9559
# 2 74.9648 145.9080 77.4716 15.0830 -0.2564 -7.7352
# 3 63.3113 77.4716 181.4590 -3.3362 -13.5001 -4.9301
# 4 1.5930 15.0830 -3.3362 52.9464 -6.9558 -2.5984
# 5 -1.9787 -0.2564 -13.5001 -6.9558 47.7930 3.3998
# 6 -9.9559 -7.7352 -4.9301 -2.5984 3.3998 55.6229
#
#
#
# Elastic Compliance Matrix: (Units=1/GPa)
#
#
# Indices 1 2 3 4 5 6 
#
# 1 0.018377 -0.007943 -0.002938 0.001621 -0.000018 0.002001
# 2 -0.007943 0.012879 -0.002919 -0.003828 -0.001644 0.000032
# 3 -0.002938 -0.002919 0.007984 0.001723 0.002389 -0.000290
# 4 0.001621 -0.003828 0.001723 0.020526 0.003474 0.000657
# 5 -0.000018 -0.001644 0.002389 0.003474 0.022181 -0.001214
# 6 0.002001 0.000032 -0.000290 0.000657 -0.001214 0.018420
#
#
# Mechanical properties :
#
#
# Convention : Reuss Voigt Hill
#
# Bulk Modulus (GPa) = 85.91214 95.19381 90.55297
# Shear Modulus (GPa) = 37.92293 45.23919 41.58106
#
# Velocity S-wave (km/s) = 3.94815 4.31221 4.13419
# Velocity P-wave (km/s) = 7.48981 7.99513 7.74659
#
# Compressibility (1/GPa) = 0.01163980
#
# Stress axis : x y z
#
# Youngs Moduli (GPa) = 54.41608 77.64429 125.25752
#
# Poissons Ratio (x) = 0.61677 0.36795
# Poissons Ratio (y) = 0.43225 0.36562
# Poissons Ratio (z) = 0.15985 0.22664
#
# Static dielectric constant tensor:
#      x y z
#    x 2.018050 0.025230 -0.043600 
#    y 0.025230 2.076080 -0.020170 
#    z -0.043600 -0.020170 1.977790 
# 
# From -- ./inp_files/511855.got.cif
#   From: 2010.05.17/outbox.cif.g08.bks.cpg/sg2_256_cif.got.tgz:511855.got - 2010.06.03 11:33:40.
