data_PCOD9051902
_publ_section_title
;
Structure prediction by ZEFSAII (Michael W. Deem and Ramdas Pophale) SiO2 
 PCOD9051902
Probable space group: P -1
;
_chemical_formula_sum "Si O2"
_cell_formula_units_Z 12
_cell_length_a 14.109422
_cell_length_b 4.869767
_cell_length_c 9.308233
_cell_angle_alpha 102.335466
_cell_angle_beta 54.060001
_cell_angle_gamma 125.440134
_cell_volume 414.017261
_symmetry_space_group_name_H-M "P -1"
_symmetry_group_IT_number 2
_symmetry_cell_setting 'triclinic'
loop_
_space_group_symop_operation_xyz
x,y,z
-x,-y,-z
loop_
_atom_site_type_symbol
_atom_site_label
_atom_site_fract_x
_atom_site_fract_y
_atom_site_fract_z
Si Si1 0.422440 0.749706 0.677018
Si Si2 0.689397 0.016970 0.655906
Si Si3 0.648820 0.545164 0.877141
Si Si4 0.871247 0.965283 0.200424
Si Si5 0.047983 0.266114 0.619983
Si Si6 0.796820 0.122191 0.011580
O O1 0.291924 0.374878 0.703252
O O2 0.340075 0.865084 0.861512
O O3 0.500000 0.000000 0.500000
O O4 0.550657 0.782072 0.654253
O O5 0.647456 0.215098 0.819866
O O6 0.823273 0.340527 0.489284
O O7 0.719509 0.788779 0.700636
O O8 0.500000 0.500000 0.000000
O O9 0.732577 0.739471 0.968540
O O10 0.914082 0.907067 0.311196
O O11 0.849086 0.201983 0.138810
O O12 0.000000 0.000000 0.000000
O O13 0.000000 0.000000 0.500000
O O14 0.927187 0.314730 0.802443
#
# Coordination Sequence:
#
# PCOD9051902 Si02
#       6
#     2   2   2   2   2   2
#     4  12  26  47  73 110 153 203 264 322 396 467
#     4  12  27  48  78 119 160 205 267 331 390 473
#     4  12  25  46  78 116 158 207 264 327 397 464
#     4  10  25  48  74 108 153 202 262 319 400 472
#     4  11  24  50  74 116 155 207 263 329 398 473
#     4  11  26  45  77 106 156 207 259 322 397 469
#
# _framework density 28.984294999999999
#
# number of rings (size 3 to 8) (size 9 to 14) (size 15 to 20)
#    0.000    0.667    5.000    1.500    2.333    5.333 
#    6.000    0.000    0.000    0.000    0.000    0.000 
#    0.000    0.000    0.000    0.000    0.000    0.000 
#
# Total GULP energy -67201.712465 kJ/mol
# GULP energy per Si atom -5600.142705 kJ/mol
# Density = 2.891833 g / cm^3
# Si number density = 28.984295 Si / 1000 Ang^3
#
#
#
# Elastic Constant Matrix: (Units=GPa)
#
#
# Indices 1 2 3 4 5 6 
#
# 1 147.2405 60.4097 71.8961 -4.1914 22.0603 19.6352
# 2 60.4097 82.8072 49.0783 -30.4167 2.9277 5.1772
# 3 71.8961 49.0783 240.5493 -29.2272 -2.7374 12.7592
# 4 -4.1914 -30.4167 -29.2272 63.8426 4.4245 -3.1788
# 5 22.0603 2.9277 -2.7374 4.4245 78.5665 0.3827
# 6 19.6352 5.1772 12.7592 -3.1788 0.3827 62.2418
#
#
#
# Elastic Compliance Matrix: (Units=1/GPa)
#
#
# Indices 1 2 3 4 5 6 
#
# 1 0.012262 -0.008953 -0.002258 -0.004435 -0.002924 -0.002869
# 2 -0.008953 0.022542 -0.000807 0.009787 0.001087 0.001608
# 3 -0.002258 -0.000807 0.005235 0.001802 0.000746 -0.000206
# 4 -0.004435 0.009787 0.001802 0.020941 -0.000242 0.001286
# 5 -0.002924 0.001087 0.000746 -0.000242 0.013545 0.000584
# 6 -0.002869 0.001608 -0.000206 0.001286 0.000584 0.016942
#
#
# Mechanical properties :
#
#
# Convention : Reuss Voigt Hill
#
# Bulk Modulus (GPa) = 62.48933 92.59615 77.54274
# Shear Modulus (GPa) = 41.37729 60.21104 50.79416
#
# Velocity S-wave (km/s) = 3.78243 4.56276 4.19080
# Velocity P-wave (km/s) = 6.37826 7.73141 7.08720
#
# Compressibility (1/GPa) = 0.01600273
#
# Stress axis : x y z
#
# Youngs Moduli (GPa) = 81.55213 44.36107 191.01896
#
# Poissons Ratio (x) = 0.39718 0.43135
# Poissons Ratio (y) = 0.73016 0.15415
# Poissons Ratio (z) = 0.18416 0.03580
#
# Static dielectric constant tensor:
#      x y z
#    x 2.184940 0.032720 -0.010380 
#    y 0.032720 2.558430 0.199330 
#    z -0.010380 0.199330 2.584020 
# 
# From -- ./inp_files/288572.got.cif
#   From: 2010.05.17/outbox.cif.g08.bks.cpg/sg2_145_cif.got.tgz:288572.got - 2010.06.03 11:33:40.
