data_PCOD9051951
_publ_section_title
;
Structure prediction by ZEFSAII (Michael W. Deem and Ramdas Pophale) SiO2 
 PCOD9051951
Probable space group: P -1
;
_chemical_formula_sum "Si O2"
_cell_formula_units_Z 14
_cell_length_a 14.896588
_cell_length_b 8.968569
_cell_length_c 8.795772
_cell_angle_alpha 132.573542
_cell_angle_beta 133.850472
_cell_angle_gamma 55.069155
_cell_volume 612.004262
_symmetry_space_group_name_H-M "P -1"
_symmetry_group_IT_number 2
_symmetry_cell_setting 'triclinic'
loop_
_space_group_symop_operation_xyz
x,y,z
-x,-y,-z
loop_
_atom_site_type_symbol
_atom_site_label
_atom_site_fract_x
_atom_site_fract_y
_atom_site_fract_z
Si Si1 0.783999 0.059104 0.199812
Si Si2 0.200002 0.430675 0.766324
Si Si3 0.756821 0.629094 0.737545
Si Si4 0.425923 0.536492 0.782370
Si Si5 0.944383 0.373871 0.567659
Si Si6 0.642789 0.395869 0.717516
Si Si7 0.627393 0.990364 0.248202
O O1 0.671068 0.250161 0.159073
O O2 0.910507 0.147359 0.380831
O O3 0.743439 0.024390 0.300223
O O4 0.776586 0.852903 0.959901
O O5 0.133855 0.503747 0.580647
O O6 0.089178 0.379276 0.709328
O O7 0.314972 0.230661 0.759680
O O8 0.254053 0.617087 0.036003
O O9 0.656876 0.629089 0.482835
O O10 0.885866 0.488644 0.730260
O O11 0.699360 0.517869 0.733777
O O12 0.518675 0.532300 0.743833
O O13 0.500000 0.500000 0.000000
O O14 0.610596 0.180577 0.476761
O O15 0.500000 0.000000 0.000000
#
# Coordination Sequence:
#
# PCOD9051951 Si02
#       7
#     2   2   2   2   2   2   2
#     4  11  23  42  67  97 136 178 223 285 333 404
#     4  11  26  45  72  98 136 186 220 292 341 398
#     4  11  23  41  68  97 132 179 227 284 333 409
#     4  11  24  40  64  99 141 177 224 283 342 405
#     4  10  25  49  66  99 142 174 234 280 343 403
#     4  12  23  42  69 100 135 180 228 280 343 402
#     4  12  25  42  70 106 136 177 228 280 346 404
#
# _framework density 22.875658000000001
#
# number of rings (size 3 to 8) (size 9 to 14) (size 15 to 20)
#    0.000    0.857    4.286    3.857    0.000    5.143 
#    0.000    2.857    0.000    0.000    0.000    0.000 
#    0.000    0.000    0.000    0.000    0.000    0.000 
#
# Total GULP energy -78258.001954 kJ/mol
# GULP energy per Si atom -5589.857282 kJ/mol
# Density = 2.282359 g / cm^3
# Si number density = 22.875658 Si / 1000 Ang^3
#
#
#
# Elastic Constant Matrix: (Units=GPa)
#
#
# Indices 1 2 3 4 5 6 
#
# 1 142.1853 13.8089 34.8224 14.6833 5.8478 -3.9727
# 2 13.8089 91.2465 56.8320 7.5612 -4.7542 -11.8168
# 3 34.8224 56.8320 141.8737 35.2726 -4.2625 -22.1938
# 4 14.6833 7.5612 35.2726 53.3436 -0.0288 -1.0643
# 5 5.8478 -4.7542 -4.2625 -0.0288 32.9939 0.2465
# 6 -3.9727 -11.8168 -22.1938 -1.0643 0.2465 24.5935
#
#
#
# Elastic Compliance Matrix: (Units=1/GPa)
#
#
# Indices 1 2 3 4 5 6 
#
# 1 0.007613 -0.000165 -0.001666 -0.000979 -0.001586 -0.000380
# 2 -0.000165 0.014929 -0.006138 0.002022 0.001377 0.001681
# 3 -0.001666 -0.006138 0.012993 -0.007099 0.001022 0.008189
# 4 -0.000979 0.002022 -0.007099 0.023332 -0.000398 -0.004579
# 5 -0.001586 0.001377 0.001022 -0.000398 0.030912 0.001000
# 6 -0.000380 0.001681 0.008189 -0.004579 0.001000 0.048590
#
#
# Mechanical properties :
#
#
# Convention : Reuss Voigt Hill
#
# Bulk Modulus (GPa) = 51.03048 65.13689 58.08368
# Shear Modulus (GPa) = 31.08676 40.17569 35.63122
#
# Velocity S-wave (km/s) = 3.69039 4.19533 3.95093
# Velocity P-wave (km/s) = 6.36512 7.21137 6.80142
#
# Compressibility (1/GPa) = 0.01959613
#
# Stress axis : x y z
#
# Youngs Moduli (GPa) = 131.35645 66.98199 76.96387
#
# Poissons Ratio (x) = 0.01106 0.12823
# Poissons Ratio (y) = 0.02168 0.47244
# Poissons Ratio (z) = 0.21885 0.41116
#
# Static dielectric constant tensor:
#      x y z
#    x 1.892470 0.017720 0.033300 
#    y 0.017720 1.881480 -0.021760 
#    z 0.033300 -0.021760 1.877500 
# 
# From -- ./inp_files/297008.got.cif
#   From: 2010.05.17/outbox.cif.g08.bks.cpg/sg2_149_cif.got.tgz:297008.got - 2010.06.03 11:33:40.
