data_PCOD9051211
_publ_section_title
;
Structure prediction by ZEFSAII (Michael W. Deem and Ramdas Pophale) SiO2 
 PCOD9051211
Probable space group: P -1
;
_chemical_formula_sum "Si O2"
_cell_formula_units_Z 16
_cell_length_a 7.303762
_cell_length_b 12.231132
_cell_length_c 11.878941
_cell_angle_alpha 107.679148
_cell_angle_beta 129.582208
_cell_angle_gamma 48.395489
_cell_volume 598.288007
_symmetry_space_group_name_H-M "P -1"
_symmetry_group_IT_number 2
_symmetry_cell_setting 'triclinic'
loop_
_space_group_symop_operation_xyz
x,y,z
-x,-y,-z
loop_
_atom_site_type_symbol
_atom_site_label
_atom_site_fract_x
_atom_site_fract_y
_atom_site_fract_z
Si Si1 0.465717 0.763239 0.341560
Si Si2 0.305700 0.569019 0.331880
Si Si3 0.223305 0.488175 0.766972
Si Si4 0.714401 0.299967 0.248071
Si Si5 0.198989 0.010856 0.492471
Si Si6 0.659799 0.020452 0.816383
Si Si7 0.667228 0.760891 0.049766
Si Si8 0.048609 0.695665 0.952496
O O1 0.344979 0.683421 0.328296
O O2 0.769757 0.623543 0.349073
O O3 0.433635 0.862707 0.463012
O O4 0.271947 0.888133 0.204441
O O5 0.500000 0.500000 0.500000
O O6 0.451327 0.425746 0.267728
O O7 0.838228 0.746459 0.997413
O O8 0.131478 0.628067 0.702261
O O9 0.059988 0.339507 0.783757
O O10 0.050875 0.578949 0.842396
O O11 0.530009 0.288501 0.076668
O O12 0.957029 0.143120 0.354102
O O13 0.380849 0.048630 0.646987
O O14 0.000000 0.000000 0.500000
O O15 0.556623 0.085341 0.922150
O O16 0.911365 0.843499 0.873470
O O17 0.593230 0.390662 0.904887
#
# Coordination Sequence:
#
# PCOD9051211 Si02
#       8
#     2   2   2   2   2   2   2   2
#     4  11  25  47  73 105 146 190 250 297 369 438
#     4  11  24  47  72 103 149 193 244 300 364 441
#     4  10  25  45  72 105 147 193 241 304 371 429
#     4  11  24  44  73 103 145 189 242 304 359 436
#     4  12  26  49  73 105 148 198 246 303 371 434
#     4  12  28  45  75 112 148 194 245 306 369 441
#     4  12  25  43  76 112 144 190 253 297 367 441
#     4  11  24  46  70 104 153 185 249 294 368 432
#
# _framework density 26.742972999999999
#
# number of rings (size 3 to 8) (size 9 to 14) (size 15 to 20)
#    0.000    0.750    2.500    4.875    5.250    0.500 
#    0.000    8.750    0.000    0.000    0.000    0.000 
#    0.000    0.000    0.000    0.000    0.000    0.000 
#
# Total GULP energy -89584.801717 kJ/mol
# GULP energy per Si atom -5599.050107 kJ/mol
# Density = 2.668211 g / cm^3
# Si number density = 26.742973 Si / 1000 Ang^3
#
#
#
# Elastic Constant Matrix: (Units=GPa)
#
#
# Indices 1 2 3 4 5 6 
#
# 1 121.0362 64.0168 59.7885 -1.4544 -30.5375 -4.9313
# 2 64.0168 218.5357 79.8499 10.2971 -16.1242 -8.2680
# 3 59.7885 79.8499 127.7813 4.6565 -11.1660 -0.0426
# 4 -1.4544 10.2971 4.6565 73.5797 -10.2743 -22.3440
# 5 -30.5375 -16.1242 -11.1660 -10.2743 45.5055 0.9506
# 6 -4.9313 -8.2680 -0.0426 -22.3440 0.9506 48.8171
#
#
#
# Elastic Compliance Matrix: (Units=1/GPa)
#
#
# Indices 1 2 3 4 5 6 
#
# 1 0.013598 -0.001731 -0.004683 0.002543 0.007893 0.002087
# 2 -0.001731 0.006267 -0.003072 -0.000493 0.000180 0.000655
# 3 -0.004683 -0.003072 0.011841 -0.001064 -0.001536 -0.001440
# 4 0.002543 -0.000493 -0.001064 0.016824 0.004907 0.007778
# 5 0.007893 0.000180 -0.001536 0.004907 0.028015 0.002527
# 6 0.002087 0.000655 -0.001440 0.007778 0.002527 0.024316
#
#
# Mechanical properties :
#
#
# Convention : Reuss Voigt Hill
#
# Bulk Modulus (GPa) = 78.53401 97.18484 87.85943
# Shear Modulus (GPa) = 40.29759 51.16032 45.72896
#
# Velocity S-wave (km/s) = 3.88602 4.37857 4.13963
# Velocity P-wave (km/s) = 7.04023 7.87285 7.46815
#
# Compressibility (1/GPa) = 0.01273334
#
# Stress axis : x y z
#
# Youngs Moduli (GPa) = 73.54175 159.57168 84.45172
#
# Poissons Ratio (x) = 0.27615 0.39550
# Poissons Ratio (y) = 0.12727 0.25947
# Poissons Ratio (z) = 0.34441 0.49027
#
# Static dielectric constant tensor:
#      x y z
#    x 2.216080 0.084260 -0.038950 
#    y 0.084260 2.090810 0.002170 
#    z -0.038950 0.002170 2.094330 
# 
# From -- ./inp_files/392748.got.cif
#   From: 2010.05.17/outbox.cif.g08.bks.cpg/sg2_197_cif.got.tgz:392748.got - 2010.06.03 11:33:40.
