data_PCOD9051752
_publ_section_title
;
Structure prediction by ZEFSAII (Michael W. Deem and Ramdas Pophale) SiO2 
 PCOD9051752
Probable space group: P -1
;
_chemical_formula_sum "Si O2"
_cell_formula_units_Z 14
_cell_length_a 12.174893
_cell_length_b 8.703158
_cell_length_c 9.048868
_cell_angle_alpha 45.750221
_cell_angle_beta 64.003938
_cell_angle_gamma 76.696702
_cell_volume 613.031222
_symmetry_space_group_name_H-M "P -1"
_symmetry_group_IT_number 2
_symmetry_cell_setting 'triclinic'
loop_
_space_group_symop_operation_xyz
x,y,z
-x,-y,-z
loop_
_atom_site_type_symbol
_atom_site_label
_atom_site_fract_x
_atom_site_fract_y
_atom_site_fract_z
Si Si1 0.685373 0.130284 0.551679
Si Si2 0.867310 0.638850 0.671900
Si Si3 0.098138 0.828273 0.072085
Si Si4 0.443224 0.252623 0.703252
Si Si5 0.705584 0.885432 0.411658
Si Si6 0.762634 0.614723 0.064637
Si Si7 0.897192 0.028841 0.710291
O O1 0.562863 0.127613 0.724285
O O2 0.734013 0.375295 0.306956
O O3 0.798753 0.057046 0.623435
O O4 0.652619 0.977889 0.530681
O O5 0.936113 0.425842 0.759146
O O6 0.786535 0.696706 0.540871
O O7 0.970759 0.843989 0.490888
O O8 0.775119 0.599106 0.891537
O O9 0.143643 0.858662 0.192534
O O10 0.203270 0.914732 0.838557
O O11 0.000000 0.000000 0.000000
O O12 0.500000 0.500000 0.500000
O O13 0.381226 0.192392 0.621056
O O14 0.341432 0.252447 0.891456
O O15 0.888891 0.771589 0.922593
#
# Coordination Sequence:
#
# PCOD9051752 Si02
#       7
#     2   2   2   2   2   2   2
#     4  11  26  46  72 104 144 189 238 292 347 419
#     4  12  27  44  72 108 143 186 234 287 364 422
#     4  12  27  45  70 105 146 188 230 292 356 425
#     4  10  25  47  74  99 142 190 238 296 351 407
#     4  12  24  48  71 103 146 183 240 294 348 421
#     4  11  24  46  68 106 144 187 232 292 348 415
#     4  12  26  43  73 105 145 187 235 285 359 423
#
# _framework density 22.837333999999998
#
# number of rings (size 3 to 8) (size 9 to 14) (size 15 to 20)
#    0.000    0.571    5.714    1.286    6.000    1.143 
#    0.000    2.857    0.000    0.000    0.000    0.000 
#    0.000    0.000    0.000    0.000    0.000    0.000 
#
# Total GULP energy -78181.835637 kJ/mol
# GULP energy per Si atom -5584.416831 kJ/mol
# Density = 2.278536 g / cm^3
# Si number density = 22.837334 Si / 1000 Ang^3
#
#
#
# Elastic Constant Matrix: (Units=GPa)
#
#
# Indices 1 2 3 4 5 6 
#
# 1 89.4954 36.7987 16.6302 -13.6811 6.6348 -7.9409
# 2 36.7987 123.8025 35.2071 -10.3159 4.4588 -12.9376
# 3 16.6302 35.2071 110.6820 -6.0761 -0.8182 -9.4024
# 4 -13.6811 -10.3159 -6.0761 53.8858 0.9854 -5.8678
# 5 6.6348 4.4588 -0.8182 0.9854 27.3974 -1.2683
# 6 -7.9409 -12.9376 -9.4024 -5.8678 -1.2683 30.1855
#
#
#
# Elastic Compliance Matrix: (Units=1/GPa)
#
#
# Indices 1 2 3 4 5 6 
#
# 1 0.013508 -0.003220 -0.000650 0.003057 -0.002763 0.002449
# 2 -0.003220 0.010166 -0.002441 0.001190 -0.000854 0.002945
# 3 -0.000650 -0.002441 0.010136 0.000724 0.000929 0.002120
# 4 0.003057 0.001190 0.000724 0.020259 -0.001390 0.005420
# 5 -0.002763 -0.000854 0.000929 -0.001390 0.037409 0.000498
# 6 0.002449 0.002945 0.002120 0.005420 0.000498 0.036770
#
#
# Mechanical properties :
#
#
# Convention : Reuss Voigt Hill
#
# Bulk Modulus (GPa) = 47.19540 55.69468 51.44504
# Shear Modulus (GPa) = 33.79928 37.98332 35.89130
#
# Velocity S-wave (km/s) = 3.85125 4.08267 3.96865
# Velocity P-wave (km/s) = 6.36294 6.83116 6.60120
#
# Compressibility (1/GPa) = 0.02118850
#
# Stress axis : x y z
#
# Youngs Moduli (GPa) = 74.03000 98.36387 98.66154
#
# Poissons Ratio (x) = 0.31674 0.06412
# Poissons Ratio (y) = 0.23838 0.24081
# Poissons Ratio (z) = 0.04811 0.24009
#
# Static dielectric constant tensor:
#      x y z
#    x 1.826720 0.005810 0.025970 
#    y 0.005810 1.755430 -0.200690 
#    z 0.025970 -0.200690 1.561950 
# 
# From -- ./inp_files/181090.got.cif
#   From: 2010.05.17/outbox.cif.g08.bks.cpg/sg2_91_cif.got.tgz:181090.got - 2010.06.03 11:33:40.
