data_PCOD9051725
_publ_section_title
;
Structure prediction by ZEFSAII (Michael W. Deem and Ramdas Pophale) SiO2 
 PCOD9051725
Probable space group: P -1
;
_chemical_formula_sum "Si O2"
_cell_formula_units_Z 14
_cell_length_a 7.196095
_cell_length_b 9.845923
_cell_length_c 8.707756
_cell_angle_alpha 70.204916
_cell_angle_beta 108.197271
_cell_angle_gamma 80.230486
_cell_volume 524.637496
_symmetry_space_group_name_H-M "P -1"
_symmetry_group_IT_number 2
_symmetry_cell_setting 'triclinic'
loop_
_space_group_symop_operation_xyz
x,y,z
-x,-y,-z
loop_
_atom_site_type_symbol
_atom_site_label
_atom_site_fract_x
_atom_site_fract_y
_atom_site_fract_z
Si Si1 0.003397 0.832065 0.519516
Si Si2 0.571703 0.340180 0.668716
Si Si3 0.619286 0.201525 0.196805
Si Si4 0.874731 0.945211 0.122063
Si Si5 0.413639 0.199386 0.436810
Si Si6 0.271497 0.327324 0.854898
Si Si7 0.868712 0.477363 0.828529
O O1 0.211868 0.737557 0.695590
O O2 0.997362 0.832546 0.333927
O O3 0.794372 0.819272 0.541663
O O4 0.000000 0.000000 0.500000
O O5 0.500000 0.500000 0.500000
O O6 0.582440 0.202812 0.606473
O O7 0.379621 0.336354 0.722018
O O8 0.763944 0.344499 0.823270
O O9 0.521587 0.121252 0.337985
O O10 0.729722 0.085167 0.132917
O O11 0.437915 0.333858 0.022503
O O12 0.751129 0.840015 0.057197
O O13 0.000000 0.000000 0.000000
O O14 0.318556 0.372683 0.290660
O O15 0.046604 0.446011 0.758742
O O16 0.000000 0.500000 0.000000
#
# Coordination Sequence:
#
# PCOD9051725 Si02
#       7
#     2   2   2   2   2   2   2
#     4  10  25  47  73 108 147 195 243 310 367 441
#     4  10  26  47  73 109 145 202 248 302 373 444
#     4  11  27  44  77 108 147 196 248 302 375 444
#     4  11  27  50  75 108 149 200 251 311 374 444
#     4  11  24  49  73 110 151 194 248 305 378 442
#     4  12  26  48  73 109 151 196 248 309 378 439
#     4  11  26  46  76 109 149 191 245 313 365 446
#
# _framework density 26.685093999999999
#
# number of rings (size 3 to 8) (size 9 to 14) (size 15 to 20)
#    0.000    1.143    2.857    0.429   10.000    7.429 
#    0.000    0.000    0.000    0.000    0.000    0.000 
#    0.000    0.000    0.000    0.000    0.000    0.000 
#
# Total GULP energy -78225.982439 kJ/mol
# GULP energy per Si atom -5587.570174 kJ/mol
# Density = 2.662436 g / cm^3
# Si number density = 26.685094 Si / 1000 Ang^3
#
#
#
# Elastic Constant Matrix: (Units=GPa)
#
#
# Indices 1 2 3 4 5 6 
#
# 1 193.5426 36.4500 53.4755 14.5494 -25.8329 8.8742
# 2 36.4500 60.4385 30.3766 20.3390 -1.7357 19.0551
# 3 53.4755 30.3766 94.9953 27.2900 -11.8072 9.6814
# 4 14.5494 20.3390 27.2900 37.9493 3.5995 3.5322
# 5 -25.8329 -1.7357 -11.8072 3.5995 75.9434 0.7272
# 6 8.8742 19.0551 9.6814 3.5322 0.7272 52.4839
#
#
#
# Elastic Compliance Matrix: (Units=1/GPa)
#
#
# Indices 1 2 3 4 5 6 
#
# 1 0.006663 -0.002941 -0.002900 0.000909 0.001701 0.000391
# 2 -0.002941 0.025420 -0.002988 -0.009613 -0.000356 -0.007529
# 3 -0.002900 -0.002988 0.015978 -0.008878 0.001858 -0.000800
# 4 0.000909 -0.009613 -0.008878 0.037601 -0.003097 0.002486
# 5 0.001701 -0.000356 0.001858 -0.003097 0.014179 -0.000489
# 6 0.000391 -0.007529 -0.000800 0.002486 -0.000489 0.021708
#
#
# Mechanical properties :
#
#
# Convention : Reuss Voigt Hill
#
# Bulk Modulus (GPa) = 32.89305 65.50896 49.20100
# Shear Modulus (GPa) = 33.48052 48.52028 41.00040
#
# Velocity S-wave (km/s) = 3.54595 4.26872 3.92401
# Velocity P-wave (km/s) = 5.39612 6.99273 6.24565
#
# Compressibility (1/GPa) = 0.03040156
#
# Stress axis : x y z
#
# Youngs Moduli (GPa) = 150.08765 39.33928 62.58695
#
# Poissons Ratio (x) = 0.11572 0.18149
# Poissons Ratio (y) = 0.44148 0.18702
# Poissons Ratio (z) = 0.43522 0.11755
#
# Static dielectric constant tensor:
#      x y z
#    x 2.105740 0.051160 0.075540 
#    y 0.051160 1.682700 -0.146950 
#    z 0.075540 -0.146950 2.140400 
# 
# From -- ./inp_files/131531.got.cif
#   From: 2010.05.17/outbox.cif.g08.bks.cpg/sg2_66_cif.got.tgz:131531.got - 2010.06.03 11:33:40.
