data_PCOD9051120
_publ_section_title
;
Structure prediction by ZEFSAII (Michael W. Deem and Ramdas Pophale) SiO2 
 PCOD9051120
Probable space group: P -1
;
_chemical_formula_sum "Si O2"
_cell_formula_units_Z 16
_cell_length_a 10.790668
_cell_length_b 6.243038
_cell_length_c 26.824303
_cell_angle_alpha 75.893241
_cell_angle_beta 23.142655
_cell_angle_gamma 76.761722
_cell_volume 688.739944
_symmetry_space_group_name_H-M "P -1"
_symmetry_group_IT_number 2
_symmetry_cell_setting 'triclinic'
loop_
_space_group_symop_operation_xyz
x,y,z
-x,-y,-z
loop_
_atom_site_type_symbol
_atom_site_label
_atom_site_fract_x
_atom_site_fract_y
_atom_site_fract_z
Si Si1 0.337264 0.990237 0.134566
Si Si2 0.671052 0.460223 0.515647
Si Si3 0.695185 0.323364 0.700740
Si Si4 0.269419 0.686208 0.796626
Si Si5 0.242079 0.808978 0.602716
Si Si6 0.824597 0.876345 0.028718
Si Si7 0.650274 0.098659 0.627871
Si Si8 0.336767 0.338500 0.031855
O O1 0.668763 0.041417 0.036257
O O2 0.263564 0.124873 0.104442
O O3 0.422331 0.742728 0.096463
O O4 0.071519 0.070891 0.267086
O O5 0.369590 0.604958 0.601240
O O6 0.773258 0.297102 0.441182
O O7 0.615231 0.311151 0.593358
O O8 0.952402 0.629982 0.414435
O O9 0.572637 0.544074 0.706288
O O10 0.466678 0.258932 0.833792
O O11 0.633313 0.146636 0.690360
O O12 0.001113 0.579932 0.867922
O O13 0.394215 0.918515 0.717423
O O14 0.078886 0.727352 0.915468
O O15 0.500000 0.000000 0.500000
O O16 0.000000 0.000000 0.000000
O O17 0.000000 0.000000 0.500000
O O18 0.500000 0.500000 0.000000
#
# Coordination Sequence:
#
# PCOD9051120 Si02
#       8
#     2   2   2   2   2   2   2   2
#     4  10  25  45  70 102 140 186 233 294 368 417
#     4  11  28  46  72 113 140 199 246 296 367 430
#     4  12  26  45  75 105 145 185 243 298 365 433
#     4  11  26  45  73 107 139 198 232 303 369 433
#     4  11  27  48  74 103 146 193 245 298 357 429
#     4  11  24  45  72 104 141 183 237 294 364 430
#     4  12  27  46  72 105 152 188 244 301 364 436
#     4  10  25  46  72 105 140 183 244 298 363 434
#
# _framework density 23.230829
#
# number of rings (size 3 to 8) (size 9 to 14) (size 15 to 20)
#    0.000    1.000    2.500    1.500   10.500    5.000 
#    0.000    0.000    0.000    0.000    0.000    0.000 
#    0.000    0.000    0.000    0.000    0.000    0.000 
#
# Total GULP energy -89416.010254 kJ/mol
# GULP energy per Si atom -5588.500641 kJ/mol
# Density = 2.317795 g / cm^3
# Si number density = 23.230829 Si / 1000 Ang^3
#
#
#
# Elastic Constant Matrix: (Units=GPa)
#
#
# Indices 1 2 3 4 5 6 
#
# 1 118.3355 17.1547 18.7868 6.6458 -14.5144 17.0397
# 2 17.1547 46.0375 29.5183 -0.1425 -4.8880 3.7929
# 3 18.7868 29.5183 71.0322 11.1358 -1.9860 16.6780
# 4 6.6458 -0.1425 11.1358 45.2728 0.7310 0.9614
# 5 -14.5144 -4.8880 -1.9860 0.7310 39.6982 -4.9283
# 6 17.0397 3.7929 16.6780 0.9614 -4.9283 40.5626
#
#
#
# Elastic Compliance Matrix: (Units=1/GPa)
#
#
# Indices 1 2 3 4 5 6 
#
# 1 0.009825 -0.002880 -0.000325 -0.001346 0.002830 -0.003348
# 2 -0.002880 0.031649 -0.013899 0.003810 0.002599 0.004191
# 3 -0.000325 -0.013899 0.022596 -0.005360 -0.001584 -0.007920
# 4 -0.001346 0.003810 -0.005360 0.023586 -0.000503 0.001793
# 5 0.002830 0.002599 -0.001584 -0.000503 0.026783 0.002486
# 6 -0.003348 0.004191 -0.007920 0.001793 0.002486 0.029184
#
#
# Mechanical properties :
#
#
# Convention : Reuss Voigt Hill
#
# Bulk Modulus (GPa) = 33.48934 40.70277 37.09605
# Shear Modulus (GPa) = 26.62625 36.43642 31.53134
#
# Velocity S-wave (km/s) = 3.38917 3.96466 3.68816
# Velocity P-wave (km/s) = 5.45550 6.20622 5.84293
#
# Compressibility (1/GPa) = 0.02986025
#
# Stress axis : x y z
#
# Youngs Moduli (GPa) = 101.78551 31.59674 44.25647
#
# Poissons Ratio (x) = 0.09100 0.01440
# Poissons Ratio (y) = 0.29315 0.61512
# Poissons Ratio (z) = 0.03311 0.43916
#
# Static dielectric constant tensor:
#      x y z
#    x 1.837540 -0.008100 0.055190 
#    y -0.008100 1.968770 0.030780 
#    z 0.055190 0.030780 1.855010 
# 
# From -- ./inp_files/549401.got.cif
#   From: 2010.05.17/outbox.cif.g08.bks.cpg/sg2_275_cif.got.tgz:549401.got - 2010.06.03 11:33:40.
