data_PCOD9051639
_publ_section_title
;
Structure prediction by ZEFSAII (Michael W. Deem and Ramdas Pophale) SiO2 
 PCOD9051639
Probable space group: P -1
;
_chemical_formula_sum "Si O2"
_cell_formula_units_Z 16
_cell_length_a 6.392045
_cell_length_b 14.496740
_cell_length_c 8.461939
_cell_angle_alpha 57.281364
_cell_angle_beta 86.217245
_cell_angle_gamma 85.620344
_cell_volume 657.492357
_symmetry_space_group_name_H-M "P -1"
_symmetry_group_IT_number 2
_symmetry_cell_setting 'triclinic'
loop_
_space_group_symop_operation_xyz
x,y,z
-x,-y,-z
loop_
_atom_site_type_symbol
_atom_site_label
_atom_site_fract_x
_atom_site_fract_y
_atom_site_fract_z
Si Si1 0.358212 0.414906 0.994194
Si Si2 0.667586 0.927095 0.459975
Si Si3 0.994915 0.930752 0.862805
Si Si4 0.236756 0.704804 0.949391
Si Si5 0.979292 0.213328 0.740420
Si Si6 0.609402 0.082889 0.795972
Si Si7 0.056100 0.424769 0.717255
Si Si8 0.054946 0.269257 0.324270
O O1 0.236228 0.455628 0.803234
O O2 0.500000 0.500000 0.000000
O O3 0.515729 0.311507 0.033179
O O4 0.188947 0.368919 0.166108
O O5 0.543478 0.870355 0.376586
O O6 0.809330 0.840408 0.634460
O O7 0.500000 0.000000 0.500000
O O8 0.826035 0.001151 0.290151
O O9 0.098746 0.809897 0.922523
O O10 0.940197 0.899447 0.077678
O O11 0.785627 0.005404 0.767243
O O12 0.168948 0.709739 0.766149
O O13 0.144209 0.600974 0.140275
O O14 0.730006 0.183141 0.777823
O O15 0.095352 0.306759 0.742830
O O16 0.022741 0.246505 0.529219
O O17 0.500000 0.000000 0.000000
O O18 0.000000 0.500000 0.500000
#
# Coordination Sequence:
#
# PCOD9051639 Si02
#       8
#     2   2   2   2   2   2   2   2
#     4  11  27  49  78 109 141 191 250 309 374 456
#     4  12  25  39  67 104 146 198 255 295 363 437
#     4  11  23  45  63 101 151 197 243 312 363 433
#     4  10  25  47  70 102 149 189 240 302 376 439
#     4  11  24  45  69 102 149 194 241 307 370 443
#     4  12  24  42  70 104 146 199 254 301 366 436
#     4  10  26  49  75 107 143 189 238 315 383 440
#     4  11  25  43  68 107 145 190 240 303 377 429
#
# _framework density 24.334883999999999
#
# number of rings (size 3 to 8) (size 9 to 14) (size 15 to 20)
#    0.000    1.000    2.500    2.625    7.000    4.500 
#    4.500    0.000    0.000    0.000    0.000    0.000 
#    0.000    0.000    0.000    0.000    0.000    0.000 
#
# Total GULP energy -89137.118088 kJ/mol
# GULP energy per Si atom -5571.069881 kJ/mol
# Density = 2.427950 g / cm^3
# Si number density = 24.334884 Si / 1000 Ang^3
#
#
#
# Elastic Constant Matrix: (Units=GPa)
#
#
# Indices 1 2 3 4 5 6 
#
# 1 109.8037 15.6967 54.5257 5.1336 9.2345 1.2851
# 2 15.6967 72.7715 29.5095 -0.1236 -4.6030 9.1960
# 3 54.5257 29.5095 170.4687 -2.7859 9.6525 13.7353
# 4 5.1336 -0.1236 -2.7859 34.8976 -8.1256 -6.7269
# 5 9.2345 -4.6030 9.6525 -8.1256 41.1912 7.6111
# 6 1.2851 9.1960 13.7353 -6.7269 7.6111 35.9512
#
#
#
# Elastic Compliance Matrix: (Units=1/GPa)
#
#
# Indices 1 2 3 4 5 6 
#
# 1 0.011290 -0.001411 -0.003367 -0.002277 -0.002602 0.001369
# 2 -0.001411 0.015596 -0.002126 0.000126 0.003284 -0.003798
# 3 -0.003367 -0.002126 0.007521 0.000532 -0.000781 -0.001944
# 4 -0.002277 0.000126 0.000532 0.031231 0.005734 0.004476
# 5 -0.002602 0.003284 -0.000781 0.005734 0.027502 -0.005198
# 6 0.001369 -0.003798 -0.001944 0.004476 -0.005198 0.031419
#
#
# Mechanical properties :
#
#
# Convention : Reuss Voigt Hill
#
# Bulk Modulus (GPa) = 48.54869 61.38974 54.96922
# Shear Modulus (GPa) = 34.42720 39.29547 36.86134
#
# Velocity S-wave (km/s) = 3.76537 4.02279 3.89620
# Velocity P-wave (km/s) = 6.23679 6.84536 6.54815
#
# Compressibility (1/GPa) = 0.02059788
#
# Stress axis : x y z
#
# Youngs Moduli (GPa) = 88.57291 64.11813 132.96431
#
# Poissons Ratio (x) = 0.09049 0.44770
# Poissons Ratio (y) = 0.12500 0.28272
# Poissons Ratio (z) = 0.29823 0.13633
#
# Static dielectric constant tensor:
#      x y z
#    x 1.993980 0.060270 0.023640 
#    y 0.060270 2.202110 0.095720 
#    z 0.023640 0.095720 1.924400 
# 
# From -- ./inp_files/138512.got.cif
#   From: 2010.05.17/outbox.cif.g08.bks.cpg/sg2_70_cif.got.tgz:138512.got - 2010.06.03 11:33:40.
