data_PCOD9051974
_publ_section_title
;
Structure prediction by ZEFSAII (Michael W. Deem and Ramdas Pophale) SiO2 
 PCOD9051974
Probable space group: P -1
;
_chemical_formula_sum "Si O2"
_cell_formula_units_Z 15
_cell_length_a 7.380142
_cell_length_b 8.402224
_cell_length_c 15.719231
_cell_angle_alpha 121.516323
_cell_angle_beta 53.880432
_cell_angle_gamma 119.823662
_cell_volume 645.411065
_symmetry_space_group_name_H-M "P -1"
_symmetry_group_IT_number 2
_symmetry_cell_setting 'triclinic'
loop_
_space_group_symop_operation_xyz
x,y,z
-x,-y,-z
loop_
_atom_site_type_symbol
_atom_site_label
_atom_site_fract_x
_atom_site_fract_y
_atom_site_fract_z
Si Si1 0.000000 0.500000 0.000000
Si Si2 0.170207 0.151545 0.300571
Si Si3 0.429820 0.899747 0.691320
Si Si4 0.773209 0.049077 0.943217
Si Si5 0.019383 0.444848 0.323438
Si Si6 0.849428 0.118961 0.527027
Si Si7 0.822650 0.452002 0.880651
Si Si8 0.675881 0.814962 0.071421
O O1 0.851842 0.277039 0.999315
O O2 0.036029 0.429849 0.870239
O O3 0.384738 0.144820 0.302328
O O4 0.185664 0.360244 0.314058
O O5 0.924866 0.099289 0.404272
O O6 0.148534 0.020649 0.186512
O O7 0.238458 0.706633 0.657359
O O8 0.589043 0.025450 0.607620
O O9 0.298822 0.038578 0.816379
O O10 0.500000 0.000000 0.000000
O O11 0.801325 0.923753 0.983601
O O12 0.042050 0.657950 0.412882
O O13 0.119538 0.473009 0.208018
O O14 0.000000 0.000000 0.500000
O O15 0.602315 0.266787 0.887672
O O16 0.745397 0.611308 0.007434
#
# Coordination Sequence:
#
# PCOD9051974 Si02
#       8
#     1   2   2   2   2   2   2   2
#     4  12  26  38  66 100 136 180 226 270 340 418
#     4  11  25  46  72  99 141 182 228 294 338 404
#     4  11  24  45  73 100 137 185 224 292 342 408
#     4  12  23  43  66  99 139 178 220 279 346 408
#     4  12  25  45  73 104 133 185 235 279 354 411
#     4  10  25  49  71  98 142 176 235 295 338 405
#     4  11  24  40  69 103 140 183 227 282 347 420
#     4  11  22  44  67  98 145 178 223 283 350 405
#
# _framework density 23.241001000000001
#
# number of rings (size 3 to 8) (size 9 to 14) (size 15 to 20)
#    0.000    0.800    5.333    1.200    3.733    3.733 
#    0.000    4.000    0.000    0.000    0.000    0.000 
#    0.000    0.000    0.000    0.000    0.000    0.000 
#
# Total GULP energy -83510.051183 kJ/mol
# GULP energy per Si atom -5567.336746 kJ/mol
# Density = 2.318810 g / cm^3
# Si number density = 23.241001 Si / 1000 Ang^3
#
#
#
# Elastic Constant Matrix: (Units=GPa)
#
#
# Indices 1 2 3 4 5 6 
#
# 1 65.6961 25.0733 17.9799 2.4635 12.7044 27.4216
# 2 25.0733 190.5446 57.9602 12.4287 -5.9317 31.3510
# 3 17.9799 57.9602 163.5669 -20.0863 -0.7760 22.1021
# 4 2.4635 12.4287 -20.0863 45.7417 -16.3934 -0.9289
# 5 12.7044 -5.9317 -0.7760 -16.3934 19.5402 -0.3235
# 6 27.4216 31.3510 22.1021 -0.9289 -0.3235 32.7485
#
#
#
# Elastic Compliance Matrix: (Units=1/GPa)
#
#
# Indices 1 2 3 4 5 6 
#
# 1 0.036757 0.001003 -0.002647 -0.018186 -0.039467 -0.030858
# 2 0.001003 0.006989 -0.002219 -0.003709 -0.001833 -0.006156
# 3 -0.002647 -0.002219 0.008195 0.006880 0.007130 -0.000924
# 4 -0.018186 -0.003709 0.006880 0.044642 0.048687 0.015882
# 5 -0.039467 -0.001833 0.007130 0.048687 0.117948 0.032536
# 6 -0.030858 -0.006156 -0.000924 0.015882 0.032536 0.063664
#
#
# Mechanical properties :
#
#
# Convention : Reuss Voigt Hill
#
# Bulk Modulus (GPa) = 22.61651 69.09269 45.85460
# Shear Modulus (GPa) = 16.63011 40.85902 28.74457
#
# Velocity S-wave (km/s) = 2.67788 4.19747 3.52064
# Velocity P-wave (km/s) = 4.39475 7.29966 6.02490
#
# Compressibility (1/GPa) = 0.04421549
#
# Stress axis : x y z
#
# Youngs Moduli (GPa) = 27.20535 143.08283 122.03050
#
# Poissons Ratio (x) = -0.14352 0.32298
# Poissons Ratio (y) = -0.02729 0.27080
# Poissons Ratio (z) = 0.07200 0.31752
#
# Static dielectric constant tensor:
#      x y z
#    x 1.962060 -0.136540 0.220040 
#    y -0.136540 1.897390 -0.061100 
#    z 0.220040 -0.061100 1.923310 
# 
# From -- ./inp_files/175812.got.cif
#   From: 2010.05.17/outbox.cif.g08.bks.cpg/sg2_88_cif.got.tgz:175812.got - 2010.06.03 11:33:40.
