data_PCOD9051827
_publ_section_title
;
Structure prediction by ZEFSAII (Michael W. Deem and Ramdas Pophale) SiO2 
 PCOD9051827
Probable space group: P -1
;
_chemical_formula_sum "Si O2"
_cell_formula_units_Z 12
_cell_length_a 9.840399
_cell_length_b 11.976229
_cell_length_c 10.808118
_cell_angle_alpha 70.727697
_cell_angle_beta 84.962887
_cell_angle_gamma 145.426116
_cell_volume 505.743085
_symmetry_space_group_name_H-M "P -1"
_symmetry_group_IT_number 2
_symmetry_cell_setting 'triclinic'
loop_
_space_group_symop_operation_xyz
x,y,z
-x,-y,-z
loop_
_atom_site_type_symbol
_atom_site_label
_atom_site_fract_x
_atom_site_fract_y
_atom_site_fract_z
Si Si1 0.021596 0.658416 0.923129
Si Si2 0.722545 0.764206 0.254072
Si Si3 0.699599 0.616303 0.063249
Si Si4 0.687332 0.186336 0.792789
Si Si5 0.135626 0.759584 0.604325
Si Si6 0.951580 0.738504 0.396779
O O1 0.972270 0.658230 0.785953
O O2 0.773936 0.535104 0.074408
O O3 0.393136 0.980900 0.800526
O O4 0.000000 0.500000 0.000000
O O5 0.960127 0.869057 0.278106
O O6 0.427537 0.575339 0.429908
O O7 0.582149 0.575887 0.219324
O O8 0.940476 0.043502 0.091588
O O9 0.500000 0.500000 0.000000
O O10 0.917952 0.479770 0.675975
O O11 0.895790 0.240285 0.709912
O O12 0.500000 0.000000 0.000000
O O13 0.120397 0.853641 0.473465
O O14 0.500000 0.000000 0.500000
#
# Coordination Sequence:
#
# PCOD9051827 Si02
#       6
#     2   2   2   2   2   2
#     4  12  26  45  73 111 145 192 246 302 369 441
#     4  10  25  48  70 102 144 194 241 296 367 443
#     4  11  25  46  76 103 143 192 247 299 361 444
#     4  12  25  45  72 103 148 195 237 305 370 434
#     4  12  26  43  70 110 146 186 240 307 371 430
#     4  11  24  46  71 101 145 189 242 303 368 428
#
# _framework density 23.727461999999999
#
# number of rings (size 3 to 8) (size 9 to 14) (size 15 to 20)
#    0.000    0.667    3.333    3.500    4.667    2.667 
#    0.000    2.500    0.000    0.000    0.000    0.000 
#    0.000    0.000    0.000    0.000    0.000    0.000 
#
# Total GULP energy -67150.456473 kJ/mol
# GULP energy per Si atom -5595.871373 kJ/mol
# Density = 2.367346 g / cm^3
# Si number density = 23.727462 Si / 1000 Ang^3
#
#
#
# Elastic Constant Matrix: (Units=GPa)
#
#
# Indices 1 2 3 4 5 6 
#
# 1 145.7438 41.5363 33.3338 10.9961 -15.8392 4.0601
# 2 41.5363 95.6700 25.4982 1.2624 0.6280 9.8504
# 3 33.3338 25.4982 90.4492 15.5849 -13.5885 -15.2422
# 4 10.9961 1.2624 15.5849 50.8012 3.1316 2.0843
# 5 -15.8392 0.6280 -13.5885 3.1316 44.8758 9.1269
# 6 4.0601 9.8504 -15.2422 2.0843 9.1269 29.9384
#
#
#
# Elastic Compliance Matrix: (Units=1/GPa)
#
#
# Indices 1 2 3 4 5 6 
#
# 1 0.008660 -0.003017 -0.002012 -0.001283 0.002992 -0.002029
# 2 -0.003017 0.013479 -0.004234 0.001949 -0.001479 -0.005867
# 3 -0.002012 -0.004234 0.015770 -0.004836 0.002582 0.009245
# 4 -0.001283 0.001949 -0.004836 0.021714 -0.002726 -0.003610
# 5 0.002992 -0.001479 0.002582 -0.002726 0.025597 -0.006219
# 6 -0.002029 -0.005867 0.009245 -0.003610 -0.006219 0.042461
#
#
# Mechanical properties :
#
#
# Convention : Reuss Voigt Hill
#
# Bulk Modulus (GPa) = 51.59612 59.17773 55.38693
# Shear Modulus (GPa) = 32.75053 40.55606 36.65330
#
# Velocity S-wave (km/s) = 3.71924 4.13879 3.93461
# Velocity P-wave (km/s) = 6.34320 6.91622 6.63590
#
# Compressibility (1/GPa) = 0.01938130
#
# Stress axis : x y z
#
# Youngs Moduli (GPa) = 115.47357 74.18824 63.41106
#
# Poissons Ratio (x) = 0.22385 0.12760
# Poissons Ratio (y) = 0.34843 0.26851
# Poissons Ratio (z) = 0.23236 0.31415
#
# Static dielectric constant tensor:
#      x y z
#    x 1.896340 0.008220 0.030270 
#    y 0.008220 2.024590 0.141380 
#    z 0.030270 0.141380 2.024550 
# 
# From -- ./inp_files/60380.got.cif
#   From: 2010.05.17/outbox.cif.g08.bks.cpg/sg2_31_cif.got.tgz:60380.got - 2010.06.03 11:33:40.
