data_PCOD9051996
_publ_section_title
;
Structure prediction by ZEFSAII (Michael W. Deem and Ramdas Pophale) SiO2 
 PCOD9051996
Probable space group: P -1
;
_chemical_formula_sum "Si O2"
_cell_formula_units_Z 14
_cell_length_a 9.299814
_cell_length_b 10.343189
_cell_length_c 8.775726
_cell_angle_alpha 121.130446
_cell_angle_beta 52.259910
_cell_angle_gamma 122.882233
_cell_volume 538.477693
_symmetry_space_group_name_H-M "P -1"
_symmetry_group_IT_number 2
_symmetry_cell_setting 'triclinic'
loop_
_space_group_symop_operation_xyz
x,y,z
-x,-y,-z
loop_
_atom_site_type_symbol
_atom_site_label
_atom_site_fract_x
_atom_site_fract_y
_atom_site_fract_z
Si Si1 0.922041 0.174048 0.202819
Si Si2 0.853082 0.374667 0.132399
Si Si3 0.270917 0.736490 0.363927
Si Si4 0.730335 0.919319 0.973451
Si Si5 0.492453 0.669423 0.446543
Si Si6 0.606931 0.386138 0.050035
Si Si7 0.229494 0.028857 0.371005
O O1 0.970912 0.274247 0.076215
O O2 0.901253 0.286196 0.420785
O O3 0.058984 0.089343 0.136420
O O4 0.723220 0.041747 0.187252
O O5 0.712055 0.407783 0.374888
O O6 0.689190 0.293650 0.065435
O O7 0.000000 0.500000 0.000000
O O8 0.443540 0.753918 0.380567
O O9 0.255263 0.590608 0.171877
O O10 0.274300 0.889556 0.353409
O O11 0.716946 0.971212 0.841504
O O12 0.586759 0.739580 0.968003
O O13 0.649613 0.799878 0.527030
O O14 0.430375 0.468086 0.752197
O O15 0.000000 0.000000 0.500000
#
# Coordination Sequence:
#
# PCOD9051996 Si02
#       7
#     2   2   2   2   2   2   2
#     4  10  25  49  73 111 151 197 260 327 366 462
#     4  11  26  48  77 105 153 204 256 310 390 447
#     4  11  26  46  77 114 146 204 252 312 384 460
#     4  11  25  46  75 110 154 199 257 313 385 453
#     4  11  27  50  75 114 160 198 252 326 377 459
#     4  12  27  46  76 109 157 204 254 311 392 457
#     4  12  25  47  83 113 150 202 259 313 389 459
#
# _framework density 25.999220999999999
#
# number of rings (size 3 to 8) (size 9 to 14) (size 15 to 20)
#    0.000    0.857    2.857    2.143    6.000    6.857 
#    0.000    2.857    0.000    0.000    0.000    0.000 
#    0.000    0.000    0.000    0.000    0.000    0.000 
#
# Total GULP energy -78154.107181 kJ/mol
# GULP energy per Si atom -5582.436227 kJ/mol
# Density = 2.594005 g / cm^3
# Si number density = 25.999221 Si / 1000 Ang^3
#
#
#
# Elastic Constant Matrix: (Units=GPa)
#
#
# Indices 1 2 3 4 5 6 
#
# 1 139.2034 66.2154 60.2140 4.5189 32.8594 -19.0233
# 2 66.2154 134.0674 63.6106 13.1478 1.5009 -3.4558
# 3 60.2140 63.6106 171.3000 15.0543 20.1592 -11.6248
# 4 4.5189 13.1478 15.0543 50.7111 -3.5866 8.3632
# 5 32.8594 1.5009 20.1592 -3.5866 45.0097 -4.5252
# 6 -19.0233 -3.4558 -11.6248 8.3632 -4.5252 42.0948
#
#
#
# Elastic Compliance Matrix: (Units=1/GPa)
#
#
# Indices 1 2 3 4 5 6 
#
# 1 0.012899 -0.005562 -0.001137 -0.000668 -0.008344 0.004295
# 2 -0.005562 0.011603 -0.002933 -0.001034 0.004738 -0.001656
# 3 -0.001137 -0.002933 0.007907 -0.001923 -0.002613 0.001530
# 4 -0.000668 -0.001034 -0.001923 0.021616 0.002610 -0.004932
# 5 -0.008344 0.004738 -0.002613 0.002610 0.029382 -0.001463
# 6 0.004295 -0.001656 0.001530 -0.004932 -0.001463 0.026806
#
#
# Mechanical properties :
#
#
# Convention : Reuss Voigt Hill
#
# Bulk Modulus (GPa) = 76.06753 91.62786 83.84770
# Shear Modulus (GPa) = 37.35301 44.53184 40.94243
#
# Velocity S-wave (km/s) = 3.79449 4.14311 3.97262
# Velocity P-wave (km/s) = 6.96554 7.62930 7.30496
#
# Compressibility (1/GPa) = 0.01314621
#
# Stress axis : x y z
#
# Youngs Moduli (GPa) = 77.52328 86.18381 126.47566
#
# Poissons Ratio (x) = 0.47935 0.14377
# Poissons Ratio (y) = 0.43118 0.37092
# Poissons Ratio (z) = 0.08813 0.25276
#
# Static dielectric constant tensor:
#      x y z
#    x 2.047270 0.001090 -0.109840 
#    y 0.001090 2.114870 -0.033040 
#    z -0.109840 -0.033040 2.112120 
# 
# From -- ./inp_files/193331.got.cif
#   From: 2010.05.17/outbox.cif.g08.bks.cpg/sg2_97_cif.got.tgz:193331.got - 2010.06.03 11:33:40.
