data_PCOD9051647
_publ_section_title
;
Structure prediction by ZEFSAII (Michael W. Deem and Ramdas Pophale) SiO2 
 PCOD9051647
Probable space group: P -1
;
_chemical_formula_sum "Si O2"
_cell_formula_units_Z 14
_cell_length_a 17.474088
_cell_length_b 21.368773
_cell_length_c 4.883186
_cell_angle_alpha 65.489457
_cell_angle_beta 104.292569
_cell_angle_gamma 158.412522
_cell_volume 555.393916
_symmetry_space_group_name_H-M "P -1"
_symmetry_group_IT_number 2
_symmetry_cell_setting 'triclinic'
loop_
_space_group_symop_operation_xyz
x,y,z
-x,-y,-z
loop_
_atom_site_type_symbol
_atom_site_label
_atom_site_fract_x
_atom_site_fract_y
_atom_site_fract_z
Si Si1 0.696770 0.217448 0.811454
Si Si2 0.967140 0.813438 0.900409
Si Si3 0.870924 0.151254 0.429046
Si Si4 0.396039 0.720460 0.701518
Si Si5 0.069512 0.647666 0.728532
Si Si6 0.875572 0.967800 0.862762
Si Si7 0.362652 0.540792 0.018950
O O1 0.617250 0.225870 0.612876
O O2 0.896581 0.349449 0.554299
O O3 0.787764 0.287432 0.071752
O O4 0.500000 0.000000 0.000000
O O5 0.045870 0.910321 0.073419
O O6 0.707523 0.577385 0.037297
O O7 0.101450 0.852703 0.858759
O O8 0.039485 0.930818 0.532242
O O9 0.825809 0.192128 0.402019
O O10 0.141402 0.360890 0.355562
O O11 0.636335 0.921139 0.708473
O O12 0.372107 0.623963 0.734210
O O13 0.185671 0.554305 0.023565
O O14 0.605536 0.732108 0.029888
O O15 0.000000 0.000000 0.000000
#
# Coordination Sequence:
#
# PCOD9051647 Si02
#       7
#     2   2   2   2   2   2   2
#     4  12  25  44  68  99 145 186 248 310 368 423
#     4  10  25  47  70 108 146 184 244 297 357 436
#     4   9  21  46  69 103 139 193 244 301 357 433
#     4  11  21  46  70 100 141 197 246 302 367 437
#     4  11  25  46  65 101 137 193 244 308 366 425
#     4  12  25  47  78 110 147 191 235 295 367 442
#     4   9  22  47  70 109 145 193 243 300 362 436
#
# _framework density 25.207335
#
# number of rings (size 3 to 8) (size 9 to 14) (size 15 to 20)
#    0.857    0.571    2.857    1.714    0.000    3.429 
#    7.714    0.000    0.000    0.000    0.000    0.000 
#    0.000    0.000    0.000    0.000    0.000    0.000 
#
# Total GULP energy -78233.226144 kJ/mol
# GULP energy per Si atom -5588.087582 kJ/mol
# Density = 2.514996 g / cm^3
# Si number density = 25.207335 Si / 1000 Ang^3
#
#
#
# Elastic Constant Matrix: (Units=GPa)
#
#
# Indices 1 2 3 4 5 6 
#
# 1 83.8300 61.3940 8.8802 0.3856 26.5969 -3.5630
# 2 61.3940 190.5089 57.4015 -36.2905 17.4509 -3.6267
# 3 8.8802 57.4015 83.4182 -11.8896 25.2659 1.3127
# 4 0.3856 -36.2905 -11.8896 47.8086 -9.0837 3.8486
# 5 26.5969 17.4509 25.2659 -9.0837 28.7213 3.1612
# 6 -3.5630 -3.6267 1.3127 3.8486 3.1612 38.4859
#
#
#
# Elastic Compliance Matrix: (Units=1/GPa)
#
#
# Indices 1 2 3 4 5 6 
#
# 1 0.038559 -0.017312 0.020041 -0.018437 -0.049437 0.007159
# 2 -0.017312 0.015275 -0.013848 0.012962 0.023351 -0.002905
# 3 0.020041 -0.013848 0.029992 -0.011233 -0.040519 0.003979
# 4 -0.018437 0.012962 -0.011233 0.034419 0.030633 -0.006060
# 5 -0.049437 0.023351 -0.040519 0.030633 0.113212 -0.013357
# 6 0.007159 -0.002905 0.003979 -0.006060 -0.013357 0.027940
#
#
# Mechanical properties :
#
#
# Convention : Reuss Voigt Hill
#
# Bulk Modulus (GPa) = 16.23680 68.12315 42.17998
# Shear Modulus (GPa) = 16.54730 38.34192 27.44461
#
# Velocity S-wave (km/s) = 2.56490 3.90431 3.30321
# Velocity P-wave (km/s) = 3.90217 6.88539 5.59623
#
# Compressibility (1/GPa) = 0.06158849
#
# Stress axis : x y z
#
# Youngs Moduli (GPa) = 25.93454 65.46526 33.34215
#
# Poissons Ratio (x) = 1.13333 -0.66821
# Poissons Ratio (y) = 0.44898 0.46171
# Poissons Ratio (z) = -0.51975 0.90655
#
# Static dielectric constant tensor:
#      x y z
#    x 1.999820 0.020450 0.031790 
#    y 0.020450 2.029770 0.007340 
#    z 0.031790 0.007340 2.062350 
# 
# From -- ./inp_files/120705.got.cif
#   From: 2010.05.17/outbox.cif.g08.bks.cpg/sg2_61_cif.got.tgz:120705.got - 2010.06.03 11:33:40.
