data_PCOD9051452
_publ_section_title
;
Structure prediction by ZEFSAII (Michael W. Deem and Ramdas Pophale) SiO2 
 PCOD9051452
Probable space group: P -1
;
_chemical_formula_sum "Si O2"
_cell_formula_units_Z 12
_cell_length_a 21.894067
_cell_length_b 14.431639
_cell_length_c 6.974019
_cell_angle_alpha 60.422737
_cell_angle_beta 124.399055
_cell_angle_gamma 165.222384
_cell_volume 449.009668
_symmetry_space_group_name_H-M "P -1"
_symmetry_group_IT_number 2
_symmetry_cell_setting 'triclinic'
loop_
_space_group_symop_operation_xyz
x,y,z
-x,-y,-z
loop_
_atom_site_type_symbol
_atom_site_label
_atom_site_fract_x
_atom_site_fract_y
_atom_site_fract_z
Si Si1 0.748239 0.805686 0.249970
Si Si2 0.036580 0.048063 0.786894
Si Si3 0.395245 0.058352 0.113930
Si Si4 0.549184 0.048800 0.260286
Si Si5 0.155599 0.884786 0.580154
Si Si6 0.250197 0.893133 0.424846
O O1 0.934560 0.029431 0.173232
O O2 0.780586 0.942610 0.322323
O O3 0.500000 0.500000 0.000000
O O4 0.817153 0.802253 0.520244
O O5 0.313964 0.493212 0.796752
O O6 0.000000 0.000000 0.000000
O O7 0.400048 0.936507 0.224967
O O8 0.214985 0.852454 0.177050
O O9 0.283419 0.955573 0.828721
O O10 0.526081 0.888948 0.401558
O O11 0.850349 0.479811 0.413905
O O12 0.500000 0.000000 0.000000
O O13 0.280360 0.048460 0.422093
O O14 0.000000 0.500000 0.500000
#
# Coordination Sequence:
#
# PCOD9051452 Si02
#       6
#     2   2   2   2   2   2
#     4  11  24  49  73 111 147 191 248 311 364 440
#     4  11  27  49  75 108 148 196 247 302 372 441
#     4  12  24  48  74 103 146 192 244 299 361 435
#     4  11  23  47  71 106 144 191 239 299 361 432
#     4  11  24  46  73 107 142 192 239 300 368 431
#     4  10  25  46  71 106 142 191 242 295 360 430
#
# _framework density 26.725484000000002
#
# number of rings (size 3 to 8) (size 9 to 14) (size 15 to 20)
#    0.000    1.000    5.000    0.500    0.000    7.333 
#    6.000    0.000    0.000    0.000    0.000    0.000 
#    0.000    0.000    0.000    0.000    0.000    0.000 
#
# Total GULP energy -66958.544066 kJ/mol
# GULP energy per Si atom -5579.878672 kJ/mol
# Density = 2.666466 g / cm^3
# Si number density = 26.725484 Si / 1000 Ang^3
#
#
#
# Elastic Constant Matrix: (Units=GPa)
#
#
# Indices 1 2 3 4 5 6 
#
# 1 276.5554 27.2352 67.0299 8.8865 -38.1773 27.0050
# 2 27.2352 110.0343 32.2845 24.8784 -12.8558 16.3284
# 3 67.0299 32.2845 182.6225 42.8644 -16.3923 13.0031
# 4 8.8865 24.8784 42.8644 48.8806 7.2425 -7.5339
# 5 -38.1773 -12.8558 -16.3923 7.2425 71.8247 -3.0327
# 6 27.0050 16.3284 13.0031 -7.5339 -3.0327 35.5188
#
#
#
# Elastic Compliance Matrix: (Units=1/GPa)
#
#
# Indices 1 2 3 4 5 6 
#
# 1 0.004476 0.000043 -0.001104 -0.000634 0.002073 -0.002977
# 2 0.000043 0.012208 0.000543 -0.008253 0.002854 -0.007351
# 3 -0.001104 0.000543 0.008158 -0.008139 0.002026 -0.003950
# 4 -0.000634 -0.008253 -0.008139 0.035068 -0.006611 0.014129
# 5 0.002073 0.002854 0.002026 -0.006611 0.016512 -0.003623
# 6 -0.002977 -0.007351 -0.003950 0.014129 -0.003623 0.037930
#
#
# Mechanical properties :
#
#
# Convention : Reuss Voigt Hill
#
# Bulk Modulus (GPa) = 42.00434 91.36793 66.68613
# Shear Modulus (GPa) = 40.54312 60.75565 50.64938
#
# Velocity S-wave (km/s) = 3.89912 4.77311 4.35808
# Velocity P-wave (km/s) = 6.00183 8.03981 7.09438
#
# Compressibility (1/GPa) = 0.02380707
#
# Stress axis : x y z
#
# Youngs Moduli (GPa) = 223.39089 81.91078 122.57169
#
# Poissons Ratio (x) = -0.00353 0.13530
# Poissons Ratio (y) = -0.00963 -0.06651
# Poissons Ratio (z) = 0.24659 -0.04444
#
# Static dielectric constant tensor:
#      x y z
#    x 2.243090 -0.160860 0.015640 
#    y -0.160860 2.366850 -0.066040 
#    z 0.015640 -0.066040 2.035330 
# 
# From -- ./inp_files/119405.got.cif
#   From: 2010.05.17/outbox.cif.g08.bks.cpg/sg2_60_cif.got.tgz:119405.got - 2010.06.03 11:33:40.
