data_PCOD9051668
_publ_section_title
;
Structure prediction by ZEFSAII (Michael W. Deem and Ramdas Pophale) SiO2 
 PCOD9051668
Probable space group: P -1
;
_chemical_formula_sum "Si O2"
_cell_formula_units_Z 16
_cell_length_a 5.948566
_cell_length_b 8.707552
_cell_length_c 19.808751
_cell_angle_alpha 141.983590
_cell_angle_beta 88.032715
_cell_angle_gamma 95.852035
_cell_volume 626.859051
_symmetry_space_group_name_H-M "P -1"
_symmetry_group_IT_number 2
_symmetry_cell_setting 'triclinic'
loop_
_space_group_symop_operation_xyz
x,y,z
-x,-y,-z
loop_
_atom_site_type_symbol
_atom_site_label
_atom_site_fract_x
_atom_site_fract_y
_atom_site_fract_z
Si Si1 0.621789 0.739610 0.778123
Si Si2 0.067926 0.286186 0.118034
Si Si3 0.380512 0.204381 0.975056
Si Si4 0.695095 0.768173 0.434467
Si Si5 0.805699 0.391551 0.415260
Si Si6 0.998858 0.948045 0.183913
Si Si7 0.391585 0.002901 0.615914
Si Si8 0.253982 0.422684 0.853909
O O1 0.845041 0.686198 0.798040
O O2 0.488810 0.471670 0.669129
O O3 0.744443 0.921878 0.782122
O O4 0.471755 0.931370 0.883571
O O5 0.855214 0.420450 0.147616
O O6 0.293848 0.332659 0.087239
O O7 0.000000 0.000000 0.000000
O O8 0.158688 0.162117 0.915279
O O9 0.607505 0.400470 0.030556
O O10 0.811445 0.611803 0.435750
O O11 0.778594 0.912022 0.413391
O O12 0.600565 0.976531 0.555431
O O13 0.861880 0.159510 0.289692
O O14 0.000000 0.500000 0.500000
O O15 0.632571 0.253090 0.426522
O O16 0.968457 0.723985 0.159613
O O17 0.389385 0.219770 0.746049
#
# Coordination Sequence:
#
# PCOD9051668 Si02
#       8
#     2   2   2   2   2   2   2   2
#     4  12  25  44  74 102 141 185 239 290 353 431
#     4  12  25  42  68 101 138 185 237 288 353 423
#     4  12  23  44  73  99 142 187 236 291 359 422
#     4  11  24  48  77 102 145 192 237 294 362 427
#     4  11  24  47  74 106 147 186 236 301 354 427
#     4  11  25  44  68 109 136 188 237 289 364 420
#     4  10  25  47  71 110 139 190 242 285 365 420
#     4  11  26  46  68 103 148 180 238 302 346 428
#
# _framework density 25.524077999999999
#
# number of rings (size 3 to 8) (size 9 to 14) (size 15 to 20)
#    0.000    0.750    3.750    2.625    3.500    3.500 
#   15.750    0.000    0.000    0.000    0.000    0.000 
#    0.000    0.000    0.000    0.000    0.000    0.000 
#
# Total GULP energy -89106.730803 kJ/mol
# GULP energy per Si atom -5569.170675 kJ/mol
# Density = 2.546598 g / cm^3
# Si number density = 25.524078 Si / 1000 Ang^3
#
#
#
# Elastic Constant Matrix: (Units=GPa)
#
#
# Indices 1 2 3 4 5 6 
#
# 1 35.8320 21.9134 14.4983 10.2077 9.5096 4.2724
# 2 21.9134 125.7586 30.1610 10.3874 12.8997 1.6692
# 3 14.4983 30.1610 89.0477 7.8066 0.0034 -2.7519
# 4 10.2077 10.3874 7.8066 40.0418 -5.0041 0.3112
# 5 9.5096 12.8997 0.0034 -5.0041 35.2346 -7.4317
# 6 4.2724 1.6692 -2.7519 0.3112 -7.4317 53.6759
#
#
#
# Elastic Compliance Matrix: (Units=1/GPa)
#
#
# Indices 1 2 3 4 5 6 
#
# 1 0.038041 -0.003616 -0.004297 -0.009290 -0.011240 -0.004638
# 2 -0.003616 0.009613 -0.002559 -0.001426 -0.002858 -0.000530
# 3 -0.004297 -0.002559 0.012881 -0.000472 0.002325 0.001407
# 4 -0.009290 -0.001426 -0.000472 0.028723 0.007452 0.001625
# 5 -0.011240 -0.002858 0.002325 0.007452 0.034758 0.005872
# 6 -0.004638 -0.000530 0.001407 0.001625 0.005872 0.019892
#
#
# Mechanical properties :
#
#
# Convention : Reuss Voigt Hill
#
# Bulk Modulus (GPa) = 25.25793 42.64264 33.95028
# Shear Modulus (GPa) = 28.08215 38.06149 33.07182
#
# Velocity S-wave (km/s) = 3.32056 3.86579 3.60350
# Velocity P-wave (km/s) = 4.96172 6.05549 5.53568
#
# Compressibility (1/GPa) = 0.03959153
#
# Stress axis : x y z
#
# Youngs Moduli (GPa) = 26.28739 104.02103 77.63361
#
# Poissons Ratio (x) = 0.37615 0.33361
# Poissons Ratio (y) = 0.09506 0.19863
# Poissons Ratio (z) = 0.11296 0.26615
#
# Static dielectric constant tensor:
#      x y z
#    x 2.478030 0.179320 0.035030 
#    y 0.179320 2.216680 0.008560 
#    z 0.035030 0.008560 1.942660 
# 
# From -- ./inp_files/582662.got.cif
#   From: 2010.05.17/outbox.cif.g08.bks.cpg/sg2_292_cif.got.tgz:582662.got - 2010.06.03 11:33:40.
