data_PCOD9051806
_publ_section_title
;
Structure prediction by ZEFSAII (Michael W. Deem and Ramdas Pophale) SiO2 
 PCOD9051806
Probable space group: P -1
;
_chemical_formula_sum "Si O2"
_cell_formula_units_Z 14
_cell_length_a 28.973600
_cell_length_b 14.714399
_cell_length_c 11.976200
_cell_angle_alpha 151.089338
_cell_angle_beta 20.260003
_cell_angle_gamma 160.204493
_cell_volume 597.604852
_symmetry_space_group_name_H-M "P -1"
_symmetry_group_IT_number 2
_symmetry_cell_setting 'triclinic'
loop_
_space_group_symop_operation_xyz
x,y,z
-x,-y,-z
loop_
_atom_site_type_symbol
_atom_site_label
_atom_site_fract_x
_atom_site_fract_y
_atom_site_fract_z
Si Si1 0.595428 0.893707 0.159876
Si Si2 0.104744 0.009457 0.874987
Si Si3 0.313391 0.576392 0.034288
Si Si4 0.299251 0.847436 0.161798
Si Si5 0.067179 0.626500 0.222979
Si Si6 0.982526 0.847596 0.214740
Si Si7 0.320398 0.320966 0.097178
O O1 0.477672 0.639821 0.070740
O O2 0.500000 0.000000 0.500000
O O3 0.589397 0.780128 0.169658
O O4 0.809500 0.136405 0.892177
O O5 0.166592 0.860273 0.545864
O O6 0.287987 0.326890 0.821206
O O7 0.966738 0.873801 0.148473
O O8 0.000000 0.000000 0.000000
O O9 0.316678 0.674429 0.008383
O O10 0.119596 0.454696 0.400372
O O11 0.494934 0.844630 0.974092
O O12 0.206186 0.733684 0.129357
O O13 0.008714 0.367978 0.026771
O O14 0.815574 0.748697 0.567178
O O15 0.180589 0.138990 0.118015
#
# Coordination Sequence:
#
# PCOD9051806 Si02
#       7
#     2   2   2   2   2   2   2
#     4  11  24  47  71 102 136 180 240 289 354 412
#     4  12  23  43  72 102 141 187 229 287 353 418
#     4  11  24  44  66 100 144 184 231 284 351 419
#     4  11  25  44  66 106 142 177 239 287 346 428
#     4  12  23  44  73 102 138 187 227 294 351 417
#     4  11  24  45  73 101 142 183 235 287 351 418
#     4  10  25  48  67 104 142 180 233 295 344 419
#
# _framework density 23.426852
#
# number of rings (size 3 to 8) (size 9 to 14) (size 15 to 20)
#    0.000    0.857    4.286    2.571    2.000    1.714 
#    0.000    0.000    0.000    0.000    0.000    0.000 
#    0.000    0.000    0.000    0.000    0.000    0.000 
#
# Total GULP energy -78428.142099 kJ/mol
# GULP energy per Si atom -5602.010150 kJ/mol
# Density = 2.337353 g / cm^3
# Si number density = 23.426852 Si / 1000 Ang^3
#
#
#
# Elastic Constant Matrix: (Units=GPa)
#
#
# Indices 1 2 3 4 5 6 
#
# 1 64.0663 6.3136 8.0269 -0.7597 7.9785 5.3846
# 2 6.3136 103.9261 1.1970 -6.4578 11.1054 -5.2464
# 3 8.0269 1.1970 32.9608 0.0243 -0.3865 4.4554
# 4 -0.7597 -6.4578 0.0243 43.3207 -0.1625 -12.3689
# 5 7.9785 11.1054 -0.3865 -0.1625 21.7076 -5.3505
# 6 5.3846 -5.2464 4.4554 -12.3689 -5.3505 33.6016
#
#
#
# Elastic Compliance Matrix: (Units=1/GPa)
#
#
# Indices 1 2 3 4 5 6 
#
# 1 0.017328 -0.000495 -0.003769 -0.000884 -0.007130 -0.003815
# 2 -0.000495 0.010375 -0.000552 0.002027 -0.004683 0.001773
# 3 -0.003769 -0.000552 0.031831 -0.001299 0.001243 -0.003983
# 4 -0.000884 0.002027 -0.001299 0.026432 0.002099 0.010694
# 5 -0.007130 -0.004683 0.001243 0.002099 0.053471 0.009533
# 6 -0.003815 0.001773 -0.003983 0.010694 0.009533 0.036631
#
#
# Mechanical properties :
#
#
# Convention : Reuss Voigt Hill
#
# Bulk Modulus (GPa) = 20.03981 25.78094 22.91037
# Shear Modulus (GPa) = 24.71161 32.08703 28.39932
#
# Velocity S-wave (km/s) = 3.25136 3.70492 3.48552
# Velocity P-wave (km/s) = 4.76108 5.41578 5.09895
#
# Compressibility (1/GPa) = 0.04990068
#
# Stress axis : x y z
#
# Youngs Moduli (GPa) = 57.71052 96.38998 31.41593
#
# Poissons Ratio (x) = 0.04771 0.11841
# Poissons Ratio (y) = 0.02856 0.01735
# Poissons Ratio (z) = 0.21752 0.05323
#
# Static dielectric constant tensor:
#      x y z
#    x 1.873670 0.002080 -0.013900 
#    y 0.002080 1.905690 0.007570 
#    z -0.013900 0.007570 1.864200 
# 
# From -- ./inp_files/477680.got.cif
#   From: 2010.05.17/outbox.cif.g08.bks.cpg/sg2_239_cif.got.tgz:477680.got - 2010.06.03 11:33:40.
