data_PCOD9051148
_publ_section_title
;
Structure prediction by ZEFSAII (Michael W. Deem and Ramdas Pophale) SiO2 
 PCOD9051148
Probable space group: P -1
;
_chemical_formula_sum "Si O2"
_cell_formula_units_Z 15
_cell_length_a 11.569396
_cell_length_b 14.902519
_cell_length_c 14.207935
_cell_angle_alpha 160.328021
_cell_angle_beta 125.662414
_cell_angle_gamma 52.403215
_cell_volume 653.042718
_symmetry_space_group_name_H-M "P -1"
_symmetry_group_IT_number 2
_symmetry_cell_setting 'triclinic'
loop_
_space_group_symop_operation_xyz
x,y,z
-x,-y,-z
loop_
_atom_site_type_symbol
_atom_site_label
_atom_site_fract_x
_atom_site_fract_y
_atom_site_fract_z
Si Si1 0.500000 0.500000 0.000000
Si Si2 0.365738 0.273433 0.562615
Si Si3 0.296429 0.066525 0.022009
Si Si4 0.539333 0.165003 0.363516
Si Si5 0.894951 0.794393 0.745146
Si Si6 0.233735 0.602981 0.410651
Si Si7 0.964240 0.759944 0.309838
Si Si8 0.631151 0.799655 0.214515
O O1 0.357917 0.491515 0.855849
O O2 0.402757 0.467323 0.018046
O O3 0.427202 0.348242 0.565060
O O4 0.221261 0.177305 0.368119
O O5 0.497337 0.028669 0.423629
O O6 0.453088 0.084118 0.154802
O O7 0.192911 0.160613 0.154771
O O8 0.256688 0.288859 0.140056
O O9 0.273996 0.775400 0.688488
O O10 0.659868 0.322808 0.545287
O O11 0.601433 0.890594 0.181996
O O12 0.000000 0.500000 0.500000
O O13 0.000000 0.000000 0.000000
O O14 0.072231 0.709129 0.399468
O O15 0.797697 0.815333 0.321375
O O16 0.000000 0.000000 0.500000
O O17 0.000000 0.500000 0.000000
#
# Coordination Sequence:
#
# PCOD9051148 Si02
#       8
#     1   2   2   2   2   2   2   2
#     4  12  24  40  74 104 140 188 262 304 352 426
#     4   9  24  45  67 101 137 188 242 295 362 435
#     4  11  25  44  68 109 135 180 239 288 350 430
#     4   9  22  44  69  96 141 184 228 291 364 427
#     4  11  25  47  74 100 145 190 232 298 374 429
#     4  12  24  43  71 104 142 179 234 295 354 422
#     4  12  26  48  71 103 146 192 239 290 371 436
#     4  10  25  45  71 101 141 194 244 295 365 432
#
# _framework density 22.9694
#
# number of rings (size 3 to 8) (size 9 to 14) (size 15 to 20)
#    0.800    0.533    1.333    2.800    5.600    4.267 
#    2.400    0.000    0.000    0.000    0.000    0.000 
#    0.000    0.000    0.000    0.000    0.000    0.000 
#
# Total GULP energy -83527.403733 kJ/mol
# GULP energy per Si atom -5568.493582 kJ/mol
# Density = 2.291712 g / cm^3
# Si number density = 22.969400 Si / 1000 Ang^3
#
#
#
# Elastic Constant Matrix: (Units=GPa)
#
#
# Indices 1 2 3 4 5 6 
#
# 1 98.7610 42.5466 21.0526 4.3490 39.0935 -2.9930
# 2 42.5466 126.1272 25.7592 -35.1223 12.0905 -16.9597
# 3 21.0526 25.7592 119.8768 -32.8702 -9.6001 -19.0828
# 4 4.3490 -35.1223 -32.8702 71.4928 31.6348 18.3495
# 5 39.0935 12.0905 -9.6001 31.6348 69.8635 6.5665
# 6 -2.9930 -16.9597 -19.0828 18.3495 6.5665 57.3003
#
#
#
# Elastic Compliance Matrix: (Units=1/GPa)
#
#
# Indices 1 2 3 4 5 6 
#
# 1 0.015761 -0.004163 -0.002719 -0.000581 -0.008192 -0.000190
# 2 -0.004163 0.011749 0.000121 0.007059 -0.003013 0.001385
# 3 -0.002719 0.000121 0.010285 0.004068 0.000892 0.001914
# 4 -0.000581 0.007059 0.004068 0.025306 -0.011479 -0.003375
# 5 -0.008192 -0.003013 0.000892 -0.011479 0.024757 -0.000184
# 6 -0.000190 0.001385 0.001914 -0.003375 -0.000184 0.019591
#
#
# Mechanical properties :
#
#
# Convention : Reuss Voigt Hill
#
# Bulk Modulus (GPa) = 41.19799 58.16464 49.68131
# Shear Modulus (GPa) = 38.74108 56.75844 47.74976
#
# Velocity S-wave (km/s) = 4.11133 4.97635 4.56438
# Velocity P-wave (km/s) = 6.36493 7.64176 7.03238
#
# Compressibility (1/GPa) = 0.02427303
#
# Stress axis : x y z
#
# Youngs Moduli (GPa) = 63.44769 85.11410 97.23095
#
# Poissons Ratio (x) = 0.35436 0.26434
# Poissons Ratio (y) = 0.26416 -0.01179
# Poissons Ratio (z) = 0.17250 -0.01032
#
# Static dielectric constant tensor:
#      x y z
#    x 1.899540 -0.008090 -0.064460 
#    y -0.008090 1.858910 0.013840 
#    z -0.064460 0.013840 2.080680 
# 
# From -- ./inp_files/522068.got.cif
#   From: 2010.05.17/outbox.cif.g08.bks.cpg/sg2_262_cif.got.tgz:522068.got - 2010.06.03 11:33:40.
