data_PCOD9051428
_publ_section_title
;
Structure prediction by ZEFSAII (Michael W. Deem and Ramdas Pophale) SiO2 
 PCOD9051428
Probable space group: P -1
;
_chemical_formula_sum "Si O2"
_cell_formula_units_Z 14
_cell_length_a 9.250575
_cell_length_b 9.636423
_cell_length_c 13.161838
_cell_angle_alpha 45.755966
_cell_angle_beta 48.636954
_cell_angle_gamma 71.985501
_cell_volume 605.163433
_symmetry_space_group_name_H-M "P -1"
_symmetry_group_IT_number 2
_symmetry_cell_setting 'triclinic'
loop_
_space_group_symop_operation_xyz
x,y,z
-x,-y,-z
loop_
_atom_site_type_symbol
_atom_site_label
_atom_site_fract_x
_atom_site_fract_y
_atom_site_fract_z
Si Si1 0.485165 0.515760 0.649238
Si Si2 0.315999 0.045827 0.003587
Si Si3 0.010083 0.909064 0.711052
Si Si4 0.356326 0.791098 0.713699
Si Si5 0.228596 0.718367 0.036248
Si Si6 0.804584 0.468698 0.393718
Si Si7 0.137347 0.279768 0.334651
O O1 0.714719 0.550424 0.491528
O O2 0.439358 0.613428 0.723177
O O3 0.012587 0.360274 0.827938
O O4 0.389183 0.276984 0.816459
O O5 0.626387 0.396585 0.433023
O O6 0.500000 0.000000 0.000000
O O7 0.269334 0.893231 0.009544
O O8 0.139398 0.777848 0.771094
O O9 0.875690 0.788951 0.741722
O O10 0.160471 0.105211 0.486553
O O11 0.500000 0.000000 0.500000
O O12 0.336341 0.784945 0.846662
O O13 0.270525 0.511025 0.163466
O O14 0.126822 0.025767 0.175281
O O15 0.911954 0.297152 0.455764
#
# Coordination Sequence:
#
# PCOD9051428 Si02
#       7
#     2   2   2   2   2   2   2
#     4  11  23  42  69 103 144 180 230 286 339 418
#     4  12  28  44  72 101 139 183 242 289 356 408
#     4  11  23  43  71 104 143 186 224 289 349 415
#     4  12  27  42  70 109 140 183 236 284 348 417
#     4  10  25  46  70  99 138 183 236 285 351 414
#     4   9  21  42  73  96 139 186 227 278 346 409
#     4   9  21  44  72  98 138 185 228 276 352 411
#
# _framework density 23.134249000000001
#
# number of rings (size 3 to 8) (size 9 to 14) (size 15 to 20)
#    0.857    0.571    1.429    2.571    6.000    6.857 
#    0.000    2.143    0.000    0.000    0.000    0.000 
#    0.000    0.000    0.000    0.000    0.000    0.000 
#
# Total GULP energy -78294.564193 kJ/mol
# GULP energy per Si atom -5592.468871 kJ/mol
# Density = 2.308159 g / cm^3
# Si number density = 23.134249 Si / 1000 Ang^3
#
#
#
# Elastic Constant Matrix: (Units=GPa)
#
#
# Indices 1 2 3 4 5 6 
#
# 1 47.6428 21.1324 -4.6792 9.2855 10.0801 -9.9113
# 2 21.1324 200.7449 59.9219 23.1216 -1.5027 3.5308
# 3 -4.6792 59.9219 108.8961 9.2695 4.9418 2.0905
# 4 9.2855 23.1216 9.2695 50.0241 -3.7773 2.8112
# 5 10.0801 -1.5027 4.9418 -3.7773 22.4269 -5.8506
# 6 -9.9113 3.5308 2.0905 2.8112 -5.8506 15.0530
#
#
#
# Elastic Compliance Matrix: (Units=1/GPa)
#
#
# Indices 1 2 3 4 5 6 
#
# 1 0.030522 -0.004162 0.004339 -0.006383 -0.011548 0.017173
# 2 -0.004162 0.006786 -0.003851 -0.001330 0.002252 -0.002673
# 3 0.004339 -0.003851 0.011842 -0.001622 -0.004963 0.000490
# 4 -0.006383 -0.001330 -0.001622 0.022830 0.005468 -0.005804
# 5 -0.011548 0.002252 -0.004963 0.005468 0.055350 0.013049
# 6 0.017173 -0.002673 0.000490 -0.005804 0.013049 0.084454
#
#
# Mechanical properties :
#
#
# Convention : Reuss Voigt Hill
#
# Bulk Modulus (GPa) = 23.92108 56.67043 40.29575
# Shear Modulus (GPa) = 21.45334 36.22804 28.84069
#
# Velocity S-wave (km/s) = 3.04853 3.96155 3.53465
# Velocity P-wave (km/s) = 4.77011 6.74350 5.84075
#
# Compressibility (1/GPa) = 0.04180414
#
# Stress axis : x y z
#
# Youngs Moduli (GPa) = 32.76360 147.36162 84.44291
#
# Poissons Ratio (x) = 0.61325 -0.36642
# Poissons Ratio (y) = 0.13635 0.32516
# Poissons Ratio (z) = -0.14217 0.56743
#
# Static dielectric constant tensor:
#      x y z
#    x 1.903320 -0.031140 0.005760 
#    y -0.031140 1.889010 -0.055850 
#    z 0.005760 -0.055850 1.922980 
# 
# From -- ./inp_files/377583.got.cif
#   From: 2010.05.17/outbox.cif.g08.bks.cpg/sg2_189_cif.got.tgz:377583.got - 2010.06.03 11:33:40.
