data_PCOD9051652
_publ_section_title
;
Structure prediction by ZEFSAII (Michael W. Deem and Ramdas Pophale) SiO2 
 PCOD9051652
Probable space group: P -1
;
_chemical_formula_sum "Si O2"
_cell_formula_units_Z 16
_cell_length_a 6.785557
_cell_length_b 9.274525
_cell_length_c 23.535562
_cell_angle_alpha 43.849223
_cell_angle_beta 63.340939
_cell_angle_gamma 93.273418
_cell_volume 723.183853
_symmetry_space_group_name_H-M "P -1"
_symmetry_group_IT_number 2
_symmetry_cell_setting 'triclinic'
loop_
_space_group_symop_operation_xyz
x,y,z
-x,-y,-z
loop_
_atom_site_type_symbol
_atom_site_label
_atom_site_fract_x
_atom_site_fract_y
_atom_site_fract_z
Si Si1 0.227129 0.380580 0.607460
Si Si2 0.569757 0.373825 0.898341
Si Si3 0.779340 0.178748 0.340840
Si Si4 0.696896 0.010469 0.282598
Si Si5 0.283230 0.663104 0.331296
Si Si6 0.549250 0.702971 0.583406
Si Si7 0.878878 0.541887 0.059548
Si Si8 0.418024 0.014590 0.912202
O O1 0.500000 0.500000 0.500000
O O2 0.322335 0.518707 0.616615
O O3 0.014875 0.410930 0.596675
O O4 0.102232 0.075057 0.718996
O O5 0.396160 0.478513 0.907281
O O6 0.897473 0.609343 0.777877
O O7 0.454316 0.208422 0.901281
O O8 0.531076 0.175658 0.008293
O O9 0.603999 0.977946 0.368982
O O10 0.630165 0.307776 0.339142
O O11 0.745089 0.999446 0.448930
O O12 0.819377 0.308211 0.172118
O O13 0.483689 0.840131 0.307562
O O14 0.290331 0.418568 0.392460
O O15 0.384320 0.822240 0.213457
O O16 0.000000 0.500000 0.000000
O O17 0.111215 0.821474 0.979188
#
# Coordination Sequence:
#
# PCOD9051652 Si02
#       8
#     2   2   2   2   2   2   2   2
#     4  11  24  46  68  99 139 181 230 280 345 406
#     4  11  27  44  74  98 142 185 225 285 348 406
#     4  11  23  49  70 103 139 178 234 291 341 396
#     4  11  25  42  68 102 140 176 229 289 331 415
#     4  11  26  43  74 100 138 187 224 281 354 407
#     4  10  25  47  71 100 140 179 231 292 335 414
#     4  12  26  44  69 105 138 182 230 283 340 413
#     4  11  25  47  67 105 136 182 231 281 344 412
#
# _framework density 22.124386999999999
#
# number of rings (size 3 to 8) (size 9 to 14) (size 15 to 20)
#    0.000    1.000    3.750    1.125    5.250    5.500 
#    0.000    1.875    0.000    0.000    0.000    0.000 
#    0.000    0.000    0.000    0.000    0.000    0.000 
#
# Total GULP energy -89405.039447 kJ/mol
# GULP energy per Si atom -5587.814965 kJ/mol
# Density = 2.207403 g / cm^3
# Si number density = 22.124387 Si / 1000 Ang^3
#
#
#
# Elastic Constant Matrix: (Units=GPa)
#
#
# Indices 1 2 3 4 5 6 
#
# 1 120.5857 59.9606 51.5705 12.2432 -14.2925 -22.4506
# 2 59.9606 138.0218 29.8636 16.3316 -12.1139 -11.6334
# 3 51.5705 29.8636 88.2428 6.0218 1.1213 -18.7200
# 4 12.2432 16.3316 6.0218 31.0356 -2.1150 5.8074
# 5 -14.2925 -12.1139 1.1213 -2.1150 25.0251 5.4532
# 6 -22.4506 -11.6334 -18.7200 5.8074 5.4532 38.5152
#
#
#
# Elastic Compliance Matrix: (Units=1/GPa)
#
#
# Indices 1 2 3 4 5 6 
#
# 1 0.014553 -0.003800 -0.006262 -0.002875 0.005655 0.003925
# 2 -0.003800 0.009696 -0.000733 -0.003421 0.002143 0.000569
# 3 -0.006262 -0.000733 0.016557 -0.001752 -0.005973 0.005286
# 4 -0.002875 -0.003421 -0.001752 0.037408 0.002009 -0.009486
# 5 0.005655 0.002143 -0.005973 0.002009 0.045920 -0.005764
# 6 0.003925 0.000569 0.005286 -0.009486 -0.005764 0.033239
#
#
# Mechanical properties :
#
#
# Convention : Reuss Voigt Hill
#
# Bulk Modulus (GPa) = 52.04331 69.95994 61.00163
# Shear Modulus (GPa) = 26.97317 32.61223 29.79270
#
# Velocity S-wave (km/s) = 3.49544 3.84349 3.67359
# Velocity P-wave (km/s) = 6.31386 7.16843 6.75467
#
# Compressibility (1/GPa) = 0.01921477
#
# Stress axis : x y z
#
# Youngs Moduli (GPa) = 68.71205 103.13890 60.39706
#
# Poissons Ratio (x) = 0.39194 0.37822
# Poissons Ratio (y) = 0.26112 0.04429
# Poissons Ratio (z) = 0.43029 0.07564
#
# Static dielectric constant tensor:
#      x y z
#    x 1.843530 0.008440 0.079720 
#    y 0.008440 1.827060 -0.013920 
#    z 0.079720 -0.013920 1.970560 
# 
# From -- ./inp_files/603974.got.cif
#   From: 2010.05.17/outbox.cif.g08.bks.cpg/sg2_302_cif.got.tgz:603974.got - 2010.06.03 11:33:40.
