data_PCOD9051154
_publ_section_title
;
Structure prediction by ZEFSAII (Michael W. Deem and Ramdas Pophale) SiO2 
 PCOD9051154
Probable space group: P -1
;
_chemical_formula_sum "Si O2"
_cell_formula_units_Z 16
_cell_length_a 12.931372
_cell_length_b 8.598058
_cell_length_c 19.626076
_cell_angle_alpha 52.384419
_cell_angle_beta 141.381958
_cell_angle_gamma 149.685778
_cell_volume 673.020288
_symmetry_space_group_name_H-M "P -1"
_symmetry_group_IT_number 2
_symmetry_cell_setting 'triclinic'
loop_
_space_group_symop_operation_xyz
x,y,z
-x,-y,-z
loop_
_atom_site_type_symbol
_atom_site_label
_atom_site_fract_x
_atom_site_fract_y
_atom_site_fract_z
Si Si1 0.220320 0.357454 0.910585
Si Si2 0.837161 0.368039 0.666582
Si Si3 0.991105 0.196771 0.480147
Si Si4 0.123577 0.360651 0.251638
Si Si5 0.295266 0.770212 0.614017
Si Si6 0.762299 0.630445 0.833198
Si Si7 0.741709 0.667935 0.276140
Si Si8 0.762834 0.371475 0.021505
O O1 0.235249 0.442966 0.974490
O O2 0.074171 0.425470 0.785818
O O3 0.500000 0.500000 0.000000
O O4 0.014237 0.998332 0.879483
O O5 0.865521 0.503457 0.572441
O O6 0.837279 0.548469 0.673373
O O7 0.547288 0.003226 0.630787
O O8 0.108104 0.247514 0.599731
O O9 0.708058 0.035950 0.394728
O O10 0.000000 0.000000 0.500000
O O11 0.306358 0.452962 0.259366
O O12 0.010339 0.462465 0.140576
O O13 0.898576 0.982683 0.235854
O O14 0.300895 0.581520 0.713979
O O15 0.000000 0.500000 0.500000
O O16 0.532805 0.514894 0.789008
O O17 0.782824 0.445949 0.933146
O O18 0.500000 0.000000 0.000000
#
# Coordination Sequence:
#
# PCOD9051154 Si02
#       8
#     2   2   2   2   2   2   2   2
#     4  11  26  47  76 110 142 194 241 299 363 441
#     4  11  25  48  73 106 150 193 245 299 365 429
#     4  11  25  45  74 107 146 192 243 302 358 429
#     4  11  25  42  69 104 144 192 240 296 362 427
#     4  10  25  45  71 103 144 191 241 300 357 429
#     4  12  25  45  73 102 145 189 236 298 368 421
#     4  11  24  45  68 105 145 188 242 296 356 432
#     4  11  23  46  71 103 145 184 242 301 357 434
#
# _framework density 23.773427000000002
#
# number of rings (size 3 to 8) (size 9 to 14) (size 15 to 20)
#    0.000    1.000    3.750    1.500    3.500    4.500 
#    4.500    0.000    0.000    0.000    0.000    0.000 
#    0.000    0.000    0.000    0.000    0.000    0.000 
#
# Total GULP energy -89090.437442 kJ/mol
# GULP energy per Si atom -5568.152340 kJ/mol
# Density = 2.371932 g / cm^3
# Si number density = 23.773427 Si / 1000 Ang^3
#
#
#
# Elastic Constant Matrix: (Units=GPa)
#
#
# Indices 1 2 3 4 5 6 
#
# 1 30.6706 34.2863 159.1117 -55.9516 -116.6060 43.1201
# 2 34.2863 70.6133 20.5499 -22.7572 -9.5025 0.5291
# 3 159.1117 20.5499 -70.1135 43.9978 157.8412 -35.7894
# 4 -55.9516 -22.7572 43.9978 -2.8339 -71.1058 13.6868
# 5 -116.6060 -9.5025 157.8412 -71.1058 -115.3757 37.8177
# 6 43.1201 0.5291 -35.7894 13.6868 37.8177 15.3862
#
#
#
# Elastic Compliance Matrix: (Units=1/GPa)
#
#
# Indices 1 2 3 4 5 6 
#
# 1 0.012117 -0.011259 -0.005045 -0.017385 -0.009574 -0.006309
# 2 -0.011259 0.027035 0.007635 0.027724 0.005697 0.009719
# 3 -0.005045 0.007635 0.015765 0.025960 0.010542 0.001540
# 4 -0.017385 0.027724 0.025960 0.080709 0.007187 0.018692
# 5 -0.009574 0.005697 0.010542 0.007187 0.013959 0.010454
# 6 -0.006309 0.009719 0.001540 0.018692 0.010454 0.043600
#
#
# Mechanical properties :
#
#
# Convention : Reuss Voigt Hill
#
# Bulk Modulus (GPa) = 26.61026 51.00735 38.80881
# Shear Modulus (GPa) = 22.41663 -32.74986 -5.16662
#
# Velocity S-wave (km/s) = 3.07404 -3.71561 -1.47580
# Velocity P-wave (km/s) = 4.88029 1.75913 3.66823
#
# Compressibility (1/GPa) = 0.03757948
#
# Stress axis : x y z
#
# Youngs Moduli (GPa) = 82.52847 36.98866 63.43357
#
# Poissons Ratio (x) = 0.41646 0.32000
# Poissons Ratio (y) = 0.92920 -0.48432
# Poissons Ratio (z) = 0.41633 -0.28241
#
# Static dielectric constant tensor:
#      x y z
#    x 2.164180 -0.269510 -0.120080 
#    y -0.269510 2.224340 0.274230 
#    z -0.120080 0.274230 2.098610 
# 
# From -- ./inp_files/594052.got.cif
#   From: 2010.05.17/outbox.cif.g08.bks.cpg/sg2_298_cif.got.tgz:594052.got - 2010.06.03 11:33:40.
