data_PCOD9051209
_publ_section_title
;
Structure prediction by ZEFSAII (Michael W. Deem and Ramdas Pophale) SiO2 
 PCOD9051209
Probable space group: P -1
;
_chemical_formula_sum "Si O2"
_cell_formula_units_Z 15
_cell_length_a 5.145666
_cell_length_b 18.641493
_cell_length_c 9.441580
_cell_angle_alpha 50.535310
_cell_angle_beta 101.299330
_cell_angle_gamma 111.169289
_cell_volume 651.293973
_symmetry_space_group_name_H-M "P -1"
_symmetry_group_IT_number 2
_symmetry_cell_setting 'triclinic'
loop_
_space_group_symop_operation_xyz
x,y,z
-x,-y,-z
loop_
_atom_site_type_symbol
_atom_site_label
_atom_site_fract_x
_atom_site_fract_y
_atom_site_fract_z
Si Si1 0.888909 0.598015 0.659814
Si Si2 0.281522 0.349113 0.938194
Si Si3 0.500000 0.500000 0.000000
Si Si4 0.009018 0.864035 0.918116
Si Si5 0.682227 0.102668 0.816493
Si Si6 0.783773 0.415162 0.707261
Si Si7 0.448698 0.698566 0.462647
Si Si8 0.414064 0.016019 0.312004
O O1 0.793216 0.526162 0.603133
O O2 0.745927 0.682801 0.532813
O O3 0.223890 0.642375 0.630622
O O4 0.744272 0.530985 0.859983
O O5 0.554978 0.354776 0.870357
O O6 0.095025 0.413367 0.775792
O O7 0.363012 0.393342 0.044600
O O8 0.085275 0.239815 0.036627
O O9 0.302799 0.923941 0.809640
O O10 0.792707 0.920508 0.791166
O O11 0.052022 0.858602 0.099182
O O12 0.545712 0.190000 0.690544
O O13 0.722151 0.075952 0.691704
O O14 0.500000 0.000000 0.000000
O O15 0.681046 0.362185 0.615778
O O16 0.500000 0.000000 0.500000
#
# Coordination Sequence:
#
# PCOD9051209 Si02
#       8
#     2   2   1   2   2   2   2   2
#     4  11  25  41  66  96 139 182 223 291 336 429
#     4  11  23  40  71  93 133 181 225 277 338 427
#     4  10  26  46  62 100 140 182 230 278 352 418
#     4  11  23  44  71  98 134 188 233 288 357 426
#     4  10  25  45  72 105 143 184 240 304 354 422
#     4  11  22  42  65  99 135 171 227 285 347 405
#     4  12  24  41  69 101 133 177 236 282 360 400
#     4  11  25  44  68 101 140 179 233 297 359 420
#
# _framework density 23.031072000000002
#
# number of rings (size 3 to 8) (size 9 to 14) (size 15 to 20)
#    0.000    1.067    1.333    4.800    1.867    9.067 
#    0.000    0.000    0.000    0.000    0.000    0.000 
#    0.000    0.000    0.000    0.000    0.000    0.000 
#
# Total GULP energy -83620.909824 kJ/mol
# GULP energy per Si atom -5574.727322 kJ/mol
# Density = 2.297865 g / cm^3
# Si number density = 23.031072 Si / 1000 Ang^3
#
#
#
# Elastic Constant Matrix: (Units=GPa)
#
#
# Indices 1 2 3 4 5 6 
#
# 1 93.9105 47.8403 28.9271 3.3315 16.0503 -21.3999
# 2 47.8403 165.2084 66.9248 6.9089 -2.5077 -3.9022
# 3 28.9271 66.9248 69.8321 18.1969 6.4447 -17.0213
# 4 3.3315 6.9089 18.1969 41.3754 -3.9681 0.1455
# 5 16.0503 -2.5077 6.4447 -3.9681 44.9051 -1.1451
# 6 -21.3999 -3.9022 -17.0213 0.1455 -1.1451 28.7185
#
#
#
# Elastic Compliance Matrix: (Units=1/GPa)
#
#
# Indices 1 2 3 4 5 6 
#
# 1 0.016971 -0.005862 0.003124 -0.002453 -0.006715 0.013446
# 2 -0.005862 0.013463 -0.015126 0.005416 0.005208 -0.011324
# 3 0.003124 -0.015126 0.037670 -0.015152 -0.008137 0.022352
# 4 -0.002453 0.005416 -0.015152 0.030719 0.005813 -0.009996
# 5 -0.006715 0.005208 -0.008137 0.005813 0.026435 -0.008094
# 6 0.013446 -0.011324 0.022352 -0.009996 -0.008094 0.056277
#
#
# Mechanical properties :
#
#
# Convention : Reuss Voigt Hill
#
# Bulk Modulus (GPa) = 30.88735 68.48173 49.68454
# Shear Modulus (GPa) = 21.92454 35.35037 28.63745
#
# Velocity S-wave (km/s) = 3.08872 3.92203 3.53005
# Velocity P-wave (km/s) = 5.11474 7.09287 6.18342
#
# Compressibility (1/GPa) = 0.03237571
#
# Stress axis : x y z
#
# Youngs Moduli (GPa) = 58.92419 74.27763 26.54636
#
# Poissons Ratio (x) = 0.43538 -0.08293
# Poissons Ratio (y) = 0.34539 0.40155
# Poissons Ratio (z) = -0.18407 1.12355
#
# Static dielectric constant tensor:
#      x y z
#    x 1.871260 0.017410 -0.000380 
#    y 0.017410 1.840920 0.013960 
#    z -0.000380 0.013960 1.964870 
# 
# From -- ./inp_files/137253.got.cif
#   From: 2010.05.17/outbox.cif.g08.bks.cpg/sg2_69_cif.got.tgz:137253.got - 2010.06.03 11:33:40.
