data_PCOD9051219
_publ_section_title
;
Structure prediction by ZEFSAII (Michael W. Deem and Ramdas Pophale) SiO2 
 PCOD9051219
Probable space group: P -1
;
_chemical_formula_sum "Si O2"
_cell_formula_units_Z 14
_cell_length_a 14.637832
_cell_length_b 5.274094
_cell_length_c 14.363052
_cell_angle_alpha 62.140951
_cell_angle_beta 37.532216
_cell_angle_gamma 79.812474
_cell_volume 557.265272
_symmetry_space_group_name_H-M "P -1"
_symmetry_group_IT_number 2
_symmetry_cell_setting 'triclinic'
loop_
_space_group_symop_operation_xyz
x,y,z
-x,-y,-z
loop_
_atom_site_type_symbol
_atom_site_label
_atom_site_fract_x
_atom_site_fract_y
_atom_site_fract_z
Si Si1 0.077319 0.356621 0.617223
Si Si2 0.079363 0.157432 0.311111
Si Si3 0.601411 0.718385 0.194805
Si Si4 0.616015 0.417410 0.789425
Si Si5 0.396061 0.705262 0.973389
Si Si6 0.189950 0.577328 0.836158
Si Si7 0.709022 0.712521 0.376727
O O1 0.004831 0.592562 0.679076
O O2 0.211245 0.522675 0.403127
O O3 0.169768 0.248294 0.641257
O O4 0.953099 0.084180 0.704638
O O5 0.266736 0.359779 0.131865
O O6 0.000000 0.000000 0.500000
O O7 0.504009 0.678128 0.184348
O O8 0.747608 0.600977 0.105459
O O9 0.466663 0.515763 0.410521
O O10 0.653978 0.084676 0.094929
O O11 0.604023 0.237672 0.925933
O O12 0.574531 0.716762 0.802517
O O13 0.234427 0.445551 0.726910
O O14 0.280843 0.942877 0.712252
O O15 0.000000 0.500000 0.000000
#
# Coordination Sequence:
#
# PCOD9051219 Si02
#       7
#     2   2   2   2   2   2   2
#     4  11  26  47  77 106 152 205 247 302 378 442
#     4  12  26  45  73 107 158 201 251 305 372 437
#     4  11  27  45  78 105 152 197 252 302 386 434
#     4  10  25  45  72 107 152 198 252 300 364 447
#     4  11  26  44  72 110 154 198 253 305 365 447
#     4  12  28  51  80 113 149 187 252 319 381 447
#     4  11  27  50  79 107 150 195 252 307 376 452
#
# _framework density 25.122686999999999
#
# number of rings (size 3 to 8) (size 9 to 14) (size 15 to 20)
#    0.000    0.857    1.429    3.000   14.000    1.143 
#    0.000    0.000    0.000    0.000    0.000    0.000 
#    0.000    0.000    0.000    0.000    0.000    0.000 
#
# Total GULP energy -78382.596351 kJ/mol
# GULP energy per Si atom -5598.756882 kJ/mol
# Density = 2.506551 g / cm^3
# Si number density = 25.122687 Si / 1000 Ang^3
#
#
#
# Elastic Constant Matrix: (Units=GPa)
#
#
# Indices 1 2 3 4 5 6 
#
# 1 110.2552 30.0658 26.8738 -7.6354 -3.4378 -5.1381
# 2 30.0658 120.3371 51.8865 -8.4608 7.1780 -23.4347
# 3 26.8738 51.8865 103.1512 -3.3154 2.4727 -2.7640
# 4 -7.6354 -8.4608 -3.3154 37.3049 -3.4917 5.9126
# 5 -3.4378 7.1780 2.4727 -3.4917 38.2424 -0.0781
# 6 -5.1381 -23.4347 -2.7640 5.9126 -0.0781 55.2241
#
#
#
# Elastic Compliance Matrix: (Units=1/GPa)
#
#
# Indices 1 2 3 4 5 6 
#
# 1 0.010135 -0.001771 -0.001734 0.001671 0.001508 -0.000072
# 2 -0.001771 0.012203 -0.005473 0.000998 -0.001995 0.004630
# 3 -0.001734 -0.005473 0.012845 -0.000164 0.000022 -0.001823
# 4 0.001671 0.000998 -0.000164 0.027980 0.002523 -0.002421
# 5 0.001508 -0.001995 0.000022 0.002523 0.026886 -0.000937
# 6 -0.000072 0.004630 -0.001823 -0.002421 -0.000937 0.020233
#
#
# Mechanical properties :
#
#
# Convention : Reuss Voigt Hill
#
# Bulk Modulus (GPa) = 58.04941 61.26618 59.65780
# Shear Modulus (GPa) = 37.31912 41.14876 39.23394
#
# Velocity S-wave (km/s) = 3.85837 4.05150 3.95611
# Velocity P-wave (km/s) = 6.55789 6.80632 6.68326
#
# Compressibility (1/GPa) = 0.01722670
#
# Stress axis : x y z
#
# Youngs Moduli (GPa) = 98.66952 81.94588 77.85379
#
# Poissons Ratio (x) = 0.14513 0.13499
# Poissons Ratio (y) = 0.17475 0.42609
# Poissons Ratio (z) = 0.17109 0.44849
#
# Static dielectric constant tensor:
#      x y z
#    x 1.990620 0.092270 -0.033410 
#    y 0.092270 2.215450 -0.063290 
#    z -0.033410 -0.063290 1.975980 
# 
# From -- ./inp_files/525502.got.cif
#   From: 2010.05.17/outbox.cif.g08.bks.cpg/sg2_263_cif.got.tgz:525502.got - 2010.06.03 11:33:40.
