data_PCOD9051298
_publ_section_title
;
Structure prediction by ZEFSAII (Michael W. Deem and Ramdas Pophale) SiO2 
 PCOD9051298
Probable space group: P -1
;
_chemical_formula_sum "Si O2"
_cell_formula_units_Z 14
_cell_length_a 20.117319
_cell_length_b 12.400239
_cell_length_c 14.652076
_cell_angle_alpha 160.045680
_cell_angle_beta 150.527206
_cell_angle_gamma 31.639725
_cell_volume 601.724534
_symmetry_space_group_name_H-M "P -1"
_symmetry_group_IT_number 2
_symmetry_cell_setting 'triclinic'
loop_
_space_group_symop_operation_xyz
x,y,z
-x,-y,-z
loop_
_atom_site_type_symbol
_atom_site_label
_atom_site_fract_x
_atom_site_fract_y
_atom_site_fract_z
Si Si1 0.863641 0.840667 0.234159
Si Si2 0.672684 0.102044 0.552627
Si Si3 0.064715 0.189727 0.963782
Si Si4 0.790609 0.321956 0.395701
Si Si5 0.375026 0.145296 0.898787
Si Si6 0.016871 0.119383 0.215897
Si Si7 0.592056 0.726929 0.333051
O O1 0.771491 0.879412 0.246648
O O2 0.756360 0.024375 0.176325
O O3 0.000000 0.000000 0.500000
O O4 0.928094 0.460935 0.996891
O O5 0.615322 0.009113 0.313275
O O6 0.837192 0.029417 0.684356
O O7 0.649908 0.892499 0.447240
O O8 0.622953 0.477830 0.811069
O O9 0.082452 0.882577 0.674942
O O10 0.179401 0.414704 0.285695
O O11 0.083856 0.028966 0.958294
O O12 0.694620 0.507530 0.351143
O O13 0.500000 0.000000 0.000000
O O14 0.000000 0.500000 0.500000
O O15 0.000000 0.000000 0.000000
O O16 0.500000 0.000000 0.500000
O O17 0.500000 0.500000 0.000000
#
# Coordination Sequence:
#
# PCOD9051298 Si02
#       7
#     2   2   2   2   2   2   2
#     4  10  25  45  78 109 149 188 250 308 373 439
#     4  12  27  48  75 105 154 191 253 314 372 453
#     4  11  22  43  67 105 141 179 236 299 372 436
#     4  11  25  44  70 105 141 188 240 301 372 435
#     4  12  28  50  77 110 151 205 250 307 382 444
#     4  12  24  40  71 103 144 186 234 295 378 438
#     4  12  27  48  73 102 142 196 254 304 367 446
#
# _framework density 23.266461
#
# number of rings (size 3 to 8) (size 9 to 14) (size 15 to 20)
#    0.000    0.571    1.429    6.000    8.000    2.286 
#    0.000    0.000    0.000    0.000    0.000    0.000 
#    0.000    0.000    0.000    0.000    0.000    0.000 
#
# Total GULP energy -78131.650626 kJ/mol
# GULP energy per Si atom -5580.832188 kJ/mol
# Density = 2.321351 g / cm^3
# Si number density = 23.266461 Si / 1000 Ang^3
#
#
#
# Elastic Constant Matrix: (Units=GPa)
#
#
# Indices 1 2 3 4 5 6 
#
# 1 100.5932 22.0101 22.8645 5.2945 -6.8106 28.4632
# 2 22.0101 145.3129 48.5225 13.1415 6.0618 28.0927
# 3 22.8645 48.5225 116.4423 14.1834 -14.5530 7.0621
# 4 5.2945 13.1415 14.1834 46.4546 13.0070 0.6410
# 5 -6.8106 6.0618 -14.5530 13.0070 37.5387 2.7883
# 6 28.4632 28.0927 7.0621 0.6410 2.7883 47.3404
#
#
#
# Elastic Compliance Matrix: (Units=1/GPa)
#
#
# Indices 1 2 3 4 5 6 
#
# 1 0.012701 0.000083 -0.001500 -0.001711 0.002867 -0.007607
# 2 0.000083 0.009222 -0.003764 -0.000754 -0.002314 -0.004814
# 3 -0.001500 -0.003764 0.011653 -0.004068 0.006182 0.001089
# 4 -0.001711 -0.000754 -0.004068 0.026233 -0.011032 0.002378
# 5 0.002867 -0.002314 0.006182 -0.011032 0.033984 -0.003125
# 6 -0.007607 -0.004814 0.001089 0.002378 -0.003125 0.028544
#
#
# Mechanical properties :
#
#
# Convention : Reuss Voigt Hill
#
# Bulk Modulus (GPa) = 43.08117 61.01584 52.04850
# Shear Modulus (GPa) = 35.60307 44.19683 39.89995
#
# Velocity S-wave (km/s) = 3.91606 4.36316 4.14564
# Velocity P-wave (km/s) = 6.24532 7.18781 6.73308
#
# Compressibility (1/GPa) = 0.02321200
#
# Stress axis : x y z
#
# Youngs Moduli (GPa) = 78.73666 108.44111 85.81203
#
# Poissons Ratio (x) = -0.00901 0.12876
# Poissons Ratio (y) = -0.00654 0.32303
# Poissons Ratio (z) = 0.11814 0.40822
#
# Static dielectric constant tensor:
#      x y z
#    x 2.132200 0.048020 0.039380 
#    y 0.048020 1.968830 -0.038700 
#    z 0.039380 -0.038700 1.928290 
# 
# From -- ./inp_files/434199.got.cif
#   From: 2010.05.17/outbox.cif.g08.bks.cpg/sg2_218_cif.got.tgz:434199.got - 2010.06.03 11:33:40.
