data_PCOD9051708
_publ_section_title
;
Structure prediction by ZEFSAII (Michael W. Deem and Ramdas Pophale) SiO2 
 PCOD9051708
Probable space group: P -1
;
_chemical_formula_sum "Si O2"
_cell_formula_units_Z 16
_cell_length_a 8.918487
_cell_length_b 16.761584
_cell_length_c 12.162023
_cell_angle_alpha 157.752773
_cell_angle_beta 97.357519
_cell_angle_gamma 82.269906
_cell_volume 682.044672
_symmetry_space_group_name_H-M "P -1"
_symmetry_group_IT_number 2
_symmetry_cell_setting 'triclinic'
loop_
_space_group_symop_operation_xyz
x,y,z
-x,-y,-z
loop_
_atom_site_type_symbol
_atom_site_label
_atom_site_fract_x
_atom_site_fract_y
_atom_site_fract_z
Si Si1 0.261735 0.270369 0.374698
Si Si2 0.423216 0.312262 0.813122
Si Si3 0.061008 0.508483 0.332147
Si Si4 0.349684 0.382158 0.300685
Si Si5 0.959933 0.987786 0.351291
Si Si6 0.750240 0.985142 0.736842
Si Si7 0.557605 0.331934 0.069099
Si Si8 0.865014 0.403334 0.792885
O O1 0.308442 0.224807 0.194554
O O2 0.247383 0.086269 0.227790
O O3 0.390519 0.427669 0.629724
O O4 0.098556 0.395158 0.517776
O O5 0.372329 0.147435 0.509063
O O6 0.500000 0.500000 0.000000
O O7 0.534017 0.238972 0.828063
O O8 0.273492 0.426609 0.997147
O O9 0.203141 0.533587 0.457284
O O10 0.089228 0.613373 0.350984
O O11 0.062497 0.255537 0.989944
O O12 0.500000 0.500000 0.500000
O O13 0.406077 0.296707 0.079214
O O14 0.095768 0.050065 0.361883
O O15 0.835039 0.173730 0.548925
O O16 0.000000 0.000000 0.500000
O O17 0.692506 0.221548 0.009830
O O18 0.000000 0.500000 0.000000
#
# Coordination Sequence:
#
# PCOD9051708 Si02
#       8
#     2   2   2   2   2   2   2   2
#     4  11  23  45  70  95 130 175 230 276 328 392
#     4  12  24  40  66  99 138 178 216 268 341 405
#     4  12  22  45  70 100 134 173 229 275 333 395
#     4  10  25  47  72  96 130 182 227 281 334 387
#     4  12  25  38  68 103 138 176 217 269 333 405
#     4  12  24  41  66 100 136 176 218 276 333 399
#     4  11  24  44  65  98 138 173 221 274 336 401
#     4  12  23  42  66 100 141 174 216 271 330 405
#
# _framework density 23.458872
#
# number of rings (size 3 to 8) (size 9 to 14) (size 15 to 20)
#    0.000    0.500    7.500    0.750    1.750    1.500 
#    0.000    3.125    0.000    0.000    0.000    0.000 
#    0.000    0.000    0.000    0.000    0.000    0.000 
#
# Total GULP energy -89421.229756 kJ/mol
# GULP energy per Si atom -5588.826860 kJ/mol
# Density = 2.340548 g / cm^3
# Si number density = 23.458872 Si / 1000 Ang^3
#
#
#
# Elastic Constant Matrix: (Units=GPa)
#
#
# Indices 1 2 3 4 5 6 
#
# 1 74.7773 35.2629 -12.2225 -8.0661 5.0020 8.1215
# 2 35.2629 185.1367 17.5764 7.5188 7.0988 12.6448
# 3 -12.2225 17.5764 42.3145 9.9171 8.9281 -5.8702
# 4 -8.0661 7.5188 9.9171 37.0873 -2.9643 -1.8824
# 5 5.0020 7.0988 8.9281 -2.9643 23.4264 -2.1077
# 6 8.1215 12.6448 -5.8702 -1.8824 -2.1077 44.3893
#
#
#
# Elastic Compliance Matrix: (Units=1/GPa)
#
#
# Indices 1 2 3 4 5 6 
#
# 1 0.016914 -0.003674 0.006765 0.002156 -0.004920 -0.001296
# 2 -0.003674 0.006633 -0.003747 -0.001241 -0.000114 -0.001771
# 3 0.006765 -0.003747 0.032049 -0.007231 -0.013156 0.003137
# 4 0.002156 -0.001241 -0.007231 0.030170 0.006543 0.000593
# 5 -0.004920 -0.000114 -0.013156 0.006543 0.049779 0.001834
# 6 -0.001296 -0.001771 0.003137 0.000593 0.001834 0.023796
#
#
# Mechanical properties :
#
#
# Convention : Reuss Voigt Hill
#
# Bulk Modulus (GPa) = 18.42232 42.60693 30.51462
# Shear Modulus (GPa) = 27.97239 38.42138 33.19688
#
# Velocity S-wave (km/s) = 3.45686 4.05139 3.76588
# Velocity P-wave (km/s) = 4.87886 6.33141 5.65199
#
# Compressibility (1/GPa) = 0.05428198
#
# Stress axis : x y z
#
# Youngs Moduli (GPa) = 59.12349 150.76876 31.20248
#
# Poissons Ratio (x) = 0.55396 -0.21108
# Poissons Ratio (y) = 0.21723 0.11692
# Poissons Ratio (z) = -0.39996 0.56497
#
# Static dielectric constant tensor:
#      x y z
#    x 2.150000 -0.039550 -0.023910 
#    y -0.039550 1.866310 -0.005900 
#    z -0.023910 -0.005900 1.946150 
# 
# From -- ./inp_files/269692.got.cif
#   From: 2010.05.17/outbox.cif.g08.bks.cpg/sg2_135_cif.got.tgz:269692.got - 2010.06.03 11:33:40.
