data_PCOD9051885
_publ_section_title
;
Structure prediction by ZEFSAII (Michael W. Deem and Ramdas Pophale) SiO2 
 PCOD9051885
Probable space group: P -1
;
_chemical_formula_sum "Si O2"
_cell_formula_units_Z 14
_cell_length_a 14.579340
_cell_length_b 5.582126
_cell_length_c 23.440466
_cell_angle_alpha 88.415838
_cell_angle_beta 20.276749
_cell_angle_gamma 79.124021
_cell_volume 583.387562
_symmetry_space_group_name_H-M "P -1"
_symmetry_group_IT_number 2
_symmetry_cell_setting 'triclinic'
loop_
_space_group_symop_operation_xyz
x,y,z
-x,-y,-z
loop_
_atom_site_type_symbol
_atom_site_label
_atom_site_fract_x
_atom_site_fract_y
_atom_site_fract_z
Si Si1 0.801153 0.776241 0.148655
Si Si2 0.272199 0.904085 0.920463
Si Si3 0.189188 0.296675 0.054768
Si Si4 0.300035 0.885291 0.086989
Si Si5 0.668615 0.468485 0.782268
Si Si6 0.348322 0.314065 0.569120
Si Si7 0.204574 0.140161 0.541709
O O1 0.687348 0.030752 0.168687
O O2 0.489216 0.853775 0.361624
O O3 0.000000 0.500000 0.000000
O O4 0.029380 0.797517 0.060056
O O5 0.548681 0.692069 0.799652
O O6 0.127966 0.200492 0.031329
O O7 0.964189 0.569482 0.214909
O O8 0.159374 0.083190 0.114918
O O9 0.517148 0.275475 0.860123
O O10 0.041140 0.902515 0.278523
O O11 0.520331 0.608840 0.928370
O O12 0.500000 0.000000 0.000000
O O13 0.019165 0.306886 0.593065
O O14 0.500000 0.500000 0.500000
O O15 0.302164 0.310255 0.527558
O O16 0.500000 0.000000 0.500000
#
# Coordination Sequence:
#
# PCOD9051885 Si02
#       7
#     2   2   2   2   2   2   2
#     4  11  26  51  73  99 145 194 253 309 366 453
#     4  10  25  48  74 100 138 200 246 312 376 439
#     4  11  22  43  71 100 153 187 237 312 373 455
#     4  11  21  41  67 110 152 190 233 303 390 458
#     4  11  23  43  72 106 145 187 242 311 383 452
#     4  12  27  43  69 115 155 200 253 311 386 472
#     4  12  25  45  75 113 147 198 250 308 385 453
#
# _framework density 23.997769000000002
#
# number of rings (size 3 to 8) (size 9 to 14) (size 15 to 20)
#    0.000    0.857    2.857    3.857    6.000    0.571 
#   10.286    2.857    0.000    0.000    0.000    0.000 
#    0.000    0.000    0.000    0.000    0.000    0.000 
#
# Total GULP energy -78187.093091 kJ/mol
# GULP energy per Si atom -5584.792364 kJ/mol
# Density = 2.394315 g / cm^3
# Si number density = 23.997769 Si / 1000 Ang^3
#
#
#
# Elastic Constant Matrix: (Units=GPa)
#
#
# Indices 1 2 3 4 5 6 
#
# 1 123.4845 30.3552 30.8852 7.2786 -21.2939 8.3025
# 2 30.3552 89.5036 37.8504 6.9645 -10.6388 12.4163
# 3 30.8852 37.8504 119.4552 18.1224 -18.4240 18.1490
# 4 7.2786 6.9645 18.1224 33.2239 -3.3726 2.9165
# 5 -21.2939 -10.6388 -18.4240 -3.3726 27.8440 -2.9462
# 6 8.3025 12.4163 18.1490 2.9165 -2.9462 63.5741
#
#
#
# Elastic Compliance Matrix: (Units=1/GPa)
#
#
# Indices 1 2 3 4 5 6 
#
# 1 0.009957 -0.002224 -0.000776 -0.000640 0.006140 -0.000331
# 2 -0.002224 0.013685 -0.003328 -0.000331 0.001142 -0.001364
# 3 -0.000776 -0.003328 0.011404 -0.004675 0.004897 -0.002063
# 4 -0.000640 -0.000331 -0.004675 0.032887 0.000273 -0.000013
# 5 0.006140 0.001142 0.004897 0.000273 0.044279 -0.000383
# 6 -0.000331 -0.001364 -0.002063 -0.000013 -0.000383 0.016611
#
#
# Mechanical properties :
#
#
# Convention : Reuss Voigt Hill
#
# Bulk Modulus (GPa) = 44.65737 58.95832 51.80784
# Shear Modulus (GPa) = 33.57020 40.48525 37.02772
#
# Velocity S-wave (km/s) = 3.74423 4.11182 3.93232
# Velocity P-wave (km/s) = 6.11079 6.86763 6.50023
#
# Compressibility (1/GPa) = 0.02239272
#
# Stress axis : x y z
#
# Youngs Moduli (GPa) = 100.42691 73.07348 87.68702
#
# Poissons Ratio (x) = 0.16249 0.06801
# Poissons Ratio (y) = 0.22331 0.29179
# Poissons Ratio (z) = 0.07790 0.24316
#
# Static dielectric constant tensor:
#      x y z
#    x 3.399620 -0.730760 0.189150 
#    y -0.730760 2.291430 -0.068520 
#    z 0.189150 -0.068520 1.992690 
# 
# From -- ./inp_files/409849.got.cif
#   From: 2010.05.17/outbox.cif.g08.bks.cpg/sg2_205_cif.got.tgz:409849.got - 2010.06.03 11:33:40.
