data_PCOD9051336
_publ_section_title
;
Structure prediction by ZEFSAII (Michael W. Deem and Ramdas Pophale) SiO2 
 PCOD9051336
Probable space group: P -1
;
_chemical_formula_sum "Si O2"
_cell_formula_units_Z 16
_cell_length_a 8.272062
_cell_length_b 9.095457
_cell_length_c 26.200018
_cell_angle_alpha 142.183107
_cell_angle_beta 41.104600
_cell_angle_gamma 111.878848
_cell_volume 662.451823
_symmetry_space_group_name_H-M "P -1"
_symmetry_group_IT_number 2
_symmetry_cell_setting 'triclinic'
loop_
_space_group_symop_operation_xyz
x,y,z
-x,-y,-z
loop_
_atom_site_type_symbol
_atom_site_label
_atom_site_fract_x
_atom_site_fract_y
_atom_site_fract_z
Si Si1 0.427217 0.761064 0.964294
Si Si2 0.286660 0.332443 0.297228
Si Si3 0.349088 0.497540 0.810563
Si Si4 0.308977 0.915440 0.586774
Si Si5 0.755675 0.177055 0.867146
Si Si6 0.955227 0.480305 0.208340
Si Si7 0.418960 0.663251 0.678075
Si Si8 0.379339 0.170707 0.417046
O O1 0.320992 0.671515 0.915788
O O2 0.756634 0.531435 0.845232
O O3 0.217041 0.810557 0.075084
O O4 0.500000 0.000000 0.000000
O O5 0.436964 0.463482 0.265582
O O6 0.461061 0.213529 0.275841
O O7 0.951271 0.595737 0.457349
O O8 0.318379 0.064277 0.187510
O O9 0.069045 0.600604 0.867164
O O10 0.503423 0.164336 0.698595
O O11 0.329709 0.679343 0.480588
O O12 0.593702 0.744423 0.508542
O O13 0.294499 0.181944 0.638399
O O14 0.035493 0.057627 0.730524
O O15 0.500000 0.500000 0.000000
O O16 0.860253 0.321523 0.226322
O O17 0.415824 0.790980 0.659537
#
# Coordination Sequence:
#
# PCOD9051336 Si02
#       8
#     2   2   2   2   2   2   2   2
#     4  12  26  45  75  93 137 195 232 276 339 406
#     4  11  24  44  67 102 139 176 224 287 349 402
#     4  10  25  46  67 105 136 180 230 283 345 408
#     4  11  24  44  67 101 140 177 223 282 350 405
#     4  12  26  45  68  98 137 186 233 277 331 414
#     4  10  25  46  67 104 140 176 230 287 342 406
#     4  11  24  40  70 103 134 175 218 289 351 404
#     4  11  24  40  70 102 141 169 226 290 341 415
#
# _framework density 24.152701
#
# number of rings (size 3 to 8) (size 9 to 14) (size 15 to 20)
#    0.000    1.000    3.750    1.500    7.000    0.500 
#    0.000    2.500    0.000    0.000    0.000    0.000 
#    0.000    0.000    0.000    0.000    0.000    0.000 
#
# Total GULP energy -89401.085005 kJ/mol
# GULP energy per Si atom -5587.567813 kJ/mol
# Density = 2.409773 g / cm^3
# Si number density = 24.152701 Si / 1000 Ang^3
#
#
#
# Elastic Constant Matrix: (Units=GPa)
#
#
# Indices 1 2 3 4 5 6 
#
# 1 68.0411 -7.5352 15.3972 -0.0577 18.8656 -1.8147
# 2 -7.5352 105.5357 18.0507 25.8985 -1.5839 -3.1447
# 3 15.3972 18.0507 77.6169 -9.1184 6.6041 2.9895
# 4 -0.0577 25.8985 -9.1184 36.2099 7.2953 -0.1906
# 5 18.8656 -1.5839 6.6041 7.2953 42.4157 -2.4484
# 6 -1.8147 -3.1447 2.9895 -0.1906 -2.4484 32.2500
#
#
#
# Elastic Compliance Matrix: (Units=1/GPa)
#
#
# Indices 1 2 3 4 5 6 
#
# 1 0.017692 0.001999 -0.003514 -0.000863 -0.007042 0.000977
# 2 0.001999 0.013376 -0.005128 -0.011344 0.002476 0.002013
# 3 -0.003514 -0.005128 0.016059 0.008234 -0.002680 -0.002341
# 4 -0.000863 -0.011344 0.008234 0.039450 -0.008240 -0.002310
# 5 -0.007042 0.002476 -0.002680 -0.008240 0.028764 0.002229
# 6 0.000977 0.002013 -0.002341 -0.002310 0.002229 0.031632
#
#
# Mechanical properties :
#
#
# Convention : Reuss Voigt Hill
#
# Bulk Modulus (GPa) = 29.55032 33.66878 31.60955
# Shear Modulus (GPa) = 29.14783 37.19384 33.17083
#
# Velocity S-wave (km/s) = 3.47769 3.92847 3.70993
# Velocity P-wave (km/s) = 5.32796 5.87770 5.60957
#
# Compressibility (1/GPa) = 0.03384058
#
# Stress axis : x y z
#
# Youngs Moduli (GPa) = 56.52402 74.75958 62.26988
#
# Poissons Ratio (x) = -0.14948 0.21884
# Poissons Ratio (y) = -0.11302 0.31934
# Poissons Ratio (z) = 0.19865 0.38339
#
# Static dielectric constant tensor:
#      x y z
#    x 2.000020 -0.010590 -0.078410 
#    y -0.010590 1.916210 0.004170 
#    z -0.078410 0.004170 1.983590 
# 
# From -- ./inp_files/278815.got.cif
#   From: 2010.05.17/outbox.cif.g08.bks.cpg/sg2_140_cif.got.tgz:278815.got - 2010.06.03 11:33:40.
