data_PCOD9051185
_publ_section_title
;
Structure prediction by ZEFSAII (Michael W. Deem and Ramdas Pophale) SiO2 
 PCOD9051185
Probable space group: P -1
;
_chemical_formula_sum "Si O2"
_cell_formula_units_Z 16
_cell_length_a 20.805029
_cell_length_b 9.158234
_cell_length_c 12.821833
_cell_angle_alpha 36.260874
_cell_angle_beta 29.239932
_cell_angle_gamma 40.936766
_cell_volume 694.363134
_symmetry_space_group_name_H-M "P -1"
_symmetry_group_IT_number 2
_symmetry_cell_setting 'triclinic'
loop_
_space_group_symop_operation_xyz
x,y,z
-x,-y,-z
loop_
_atom_site_type_symbol
_atom_site_label
_atom_site_fract_x
_atom_site_fract_y
_atom_site_fract_z
Si Si1 0.587419 0.585939 0.587125
Si Si2 0.662200 0.562031 0.739501
Si Si3 0.694171 0.027266 0.097376
Si Si4 0.129246 0.127779 0.253174
Si Si5 0.408681 0.202603 0.089078
Si Si6 0.035564 0.375447 0.715194
Si Si7 0.789514 0.112089 0.521046
Si Si8 0.060401 0.985912 0.094878
O O1 0.633607 0.593700 0.638607
O O2 0.588941 0.856185 0.379894
O O3 0.698539 0.384758 0.483820
O O4 0.452984 0.464238 0.840823
O O5 0.586039 0.772636 0.806411
O O6 0.820993 0.544146 0.545416
O O7 0.637703 0.292817 0.971333
O O8 0.791867 0.869676 0.965480
O O9 0.795574 0.062229 0.027407
O O10 0.076883 0.396437 0.221206
O O11 0.221402 0.955247 0.303873
O O12 0.000000 0.000000 0.500000
O O13 0.268321 0.110426 0.325801
O O14 0.500000 0.000000 0.000000
O O15 0.982705 0.257162 0.755641
O O16 0.057354 0.176499 0.893385
O O17 0.941864 0.098827 0.277812
#
# Coordination Sequence:
#
# PCOD9051185 Si02
#       8
#     2   2   2   2   2   2   2   2
#     4  11  24  45  66  95 128 169 223 271 312 377
#     4  12  22  43  70  95 127 169 218 267 319 383
#     4  12  25  39  69 101 131 172 207 264 327 383
#     4  12  22  37  62 101 134 168 210 254 321 390
#     4  10  25  45  71  90 123 179 217 268 330 366
#     4  11  23  38  61 100 137 171 209 260 321 394
#     4  11  21  41  67  91 134 174 212 264 320 380
#     4  11  23  38  63  99 135 173 208 258 328 389
#
# _framework density 23.042698999999999
#
# number of rings (size 3 to 8) (size 9 to 14) (size 15 to 20)
#    0.000    0.750    6.250    1.125    1.750    2.500 
#    0.000    0.625    2.750    0.000    0.000    0.000 
#    0.000    0.000    0.000    0.000    0.000    0.000 
#
# Total GULP energy -89385.069370 kJ/mol
# GULP energy per Si atom -5586.566836 kJ/mol
# Density = 2.299025 g / cm^3
# Si number density = 23.042699 Si / 1000 Ang^3
#
#
#
# Elastic Constant Matrix: (Units=GPa)
#
#
# Indices 1 2 3 4 5 6 
#
# 1 47.7721 7.8648 22.9911 -14.9424 6.3049 14.4991
# 2 7.8648 103.1311 30.9396 15.8778 9.4983 24.5154
# 3 22.9911 30.9396 100.1516 -23.0796 -2.8451 21.8059
# 4 -14.9424 15.8778 -23.0796 42.1942 -1.9382 5.5071
# 5 6.3049 9.4983 -2.8451 -1.9382 34.2075 0.3641
# 6 14.4991 24.5154 21.8059 5.5071 0.3641 22.6290
#
#
#
# Elastic Compliance Matrix: (Units=1/GPa)
#
#
# Indices 1 2 3 4 5 6 
#
# 1 0.034542 0.002046 0.001293 0.015741 -0.005623 -0.029335
# 2 0.002046 0.014962 -0.003836 -0.005620 -0.005037 -0.012375
# 3 0.001293 -0.003836 0.018088 0.014248 0.003326 -0.017625
# 4 0.015741 -0.005620 0.014248 0.042986 0.002580 -0.028230
# 5 -0.005623 -0.005037 0.003326 0.002580 0.032041 0.004711
# 6 -0.029335 -0.012375 -0.017625 -0.028230 0.004711 0.100171
#
#
# Mechanical properties :
#
#
# Convention : Reuss Voigt Hill
#
# Bulk Modulus (GPa) = 15.01533 41.62731 28.32132
# Shear Modulus (GPa) = 18.79814 32.42342 25.61078
#
# Velocity S-wave (km/s) = 2.85931 3.75521 3.33746
# Velocity P-wave (km/s) = 4.17509 6.07508 5.21239
#
# Compressibility (1/GPa) = 0.06659859
#
# Stress axis : x y z
#
# Youngs Moduli (GPa) = 28.94994 66.83630 55.28442
#
# Poissons Ratio (x) = -0.13672 -0.07148
# Poissons Ratio (y) = -0.05922 0.21205
# Poissons Ratio (z) = -0.03743 0.25635
#
# Static dielectric constant tensor:
#      x y z
#    x 1.914310 -0.003290 -0.025860 
#    y -0.003290 1.902120 0.013080 
#    z -0.025860 0.013080 1.861450 
# 
# From -- ./inp_files/244665.got.cif
#   From: 2010.05.17/outbox.cif.g08.bks.cpg/sg2_123_cif.got.tgz:244665.got - 2010.06.03 11:33:40.
