data_PCOD9051311
_publ_section_title
;
Structure prediction by ZEFSAII (Michael W. Deem and Ramdas Pophale) SiO2 
 PCOD9051311
Probable space group: P -1
;
_chemical_formula_sum "Si O2"
_cell_formula_units_Z 12
_cell_length_a 16.144442
_cell_length_b 8.974777
_cell_length_c 7.049099
_cell_angle_alpha 50.971934
_cell_angle_beta 51.907117
_cell_angle_gamma 47.407296
_cell_volume 550.657392
_symmetry_space_group_name_H-M "P -1"
_symmetry_group_IT_number 2
_symmetry_cell_setting 'triclinic'
loop_
_space_group_symop_operation_xyz
x,y,z
-x,-y,-z
loop_
_atom_site_type_symbol
_atom_site_label
_atom_site_fract_x
_atom_site_fract_y
_atom_site_fract_z
Si Si1 0.466033 0.958865 0.874787
Si Si2 0.893319 0.471038 0.590102
Si Si3 0.675453 0.705644 0.494956
Si Si4 0.166608 0.740180 0.846680
Si Si5 0.086980 0.975137 0.143815
Si Si6 0.300146 0.746082 0.289317
O O1 0.581797 0.861689 0.655616
O O2 0.409526 0.796098 0.090467
O O3 0.500000 0.000000 0.000000
O O4 0.367121 0.177555 0.739038
O O5 0.808486 0.646403 0.419076
O O6 0.000000 0.500000 0.500000
O O7 0.939895 0.230868 0.627234
O O8 0.812542 0.463343 0.887669
O O9 0.673431 0.476202 0.676069
O O10 0.262526 0.721189 0.575004
O O11 0.142262 0.924920 0.892642
O O12 0.040692 0.814943 0.855529
O O13 0.185993 0.937555 0.188989
#
# Coordination Sequence:
#
# PCOD9051311 Si02
#       6
#     2   2   2   2   2   2
#     4  11  27  44  66  92 123 171 218 268 314 368
#     4   9  19  37  64  91 128 166 195 261 314 372
#     4  10  25  46  61  97 129 161 221 256 320 379
#     4   9  19  36  60  95 124 165 205 241 321 379
#     4   8  19  36  56  91 131 161 201 247 316 373
#     4  11  22  41  68  91 126 169 209 266 311 377
#
# _framework density 21.792137
#
# number of rings (size 3 to 8) (size 9 to 14) (size 15 to 20)
#    1.000    1.333    0.000    1.000    4.667    4.667 
#    0.000    1.667    0.000    0.000    0.000    0.000 
#    0.000    0.000    0.000    0.000    0.000    0.000 
#
# Total GULP energy -66968.192391 kJ/mol
# GULP energy per Si atom -5580.682699 kJ/mol
# Density = 2.174254 g / cm^3
# Si number density = 21.792137 Si / 1000 Ang^3
#
#
#
# Elastic Constant Matrix: (Units=GPa)
#
#
# Indices 1 2 3 4 5 6 
#
# 1 120.7579 20.3766 24.2815 -13.4791 23.1928 8.2914
# 2 20.3766 31.4974 -0.8950 -10.3437 13.5028 -4.8205
# 3 24.2815 -0.8950 66.2528 2.1067 31.4617 -5.6496
# 4 -13.4791 -10.3437 2.1067 23.8499 -3.2679 6.3841
# 5 23.1928 13.5028 31.4617 -3.2679 30.6483 -9.2263
# 6 8.2914 -4.8205 -5.6496 6.3841 -9.2263 29.9272
#
#
#
# Elastic Compliance Matrix: (Units=1/GPa)
#
#
# Indices 1 2 3 4 5 6 
#
# 1 0.011915 -0.003916 -0.002013 0.006355 -0.006893 -0.007792
# 2 -0.003916 0.059947 0.023839 0.015949 -0.047019 -0.002656
# 3 -0.002013 0.023839 0.040331 -0.000410 -0.051568 -0.003800
# 4 0.006355 0.015949 -0.000410 0.054879 -0.009774 -0.013989
# 5 -0.006893 -0.047019 -0.051568 -0.009774 0.117336 0.022860
# 6 -0.007792 -0.002656 -0.003800 -0.013989 0.022860 0.044460
#
#
# Mechanical properties :
#
#
# Convention : Reuss Voigt Hill
#
# Bulk Modulus (GPa) = 6.75614 34.00381 20.37998
# Shear Modulus (GPa) = 14.60349 28.53476 21.56913
#
# Velocity S-wave (km/s) = 2.59149 3.62250 3.14947
# Velocity P-wave (km/s) = 3.47296 5.75623 4.75372
#
# Compressibility (1/GPa) = 0.14801345
#
# Stress axis : x y z
#
# Youngs Moduli (GPa) = 83.92959 16.68144 24.79491
#
# Poissons Ratio (x) = 0.06532 0.04991
# Poissons Ratio (y) = 0.32866 -0.59109
# Poissons Ratio (z) = 0.16893 -0.39767
#
# Static dielectric constant tensor:
#      x y z
#    x 1.782050 -0.018110 0.022280 
#    y -0.018110 1.819410 -0.018660 
#    z 0.022280 -0.018660 1.824360 
# 
# From -- ./inp_files/88531.got.cif
#   From: 2010.05.17/outbox.cif.g08.bks.cpg/sg2_45_cif.got.tgz:88531.got - 2010.06.03 11:33:40.
