data_PCOD9051417
_publ_section_title
;
Structure prediction by ZEFSAII (Michael W. Deem and Ramdas Pophale) SiO2 
 PCOD9051417
Probable space group: P -1
;
_chemical_formula_sum "Si O2"
_cell_formula_units_Z 10
_cell_length_a 4.933918
_cell_length_b 13.609120
_cell_length_c 7.263900
_cell_angle_alpha 102.142166
_cell_angle_beta 71.454283
_cell_angle_gamma 69.620392
_cell_volume 404.189427
_symmetry_space_group_name_H-M "P -1"
_symmetry_group_IT_number 2
_symmetry_cell_setting 'triclinic'
loop_
_space_group_symop_operation_xyz
x,y,z
-x,-y,-z
loop_
_atom_site_type_symbol
_atom_site_label
_atom_site_fract_x
_atom_site_fract_y
_atom_site_fract_z
Si Si1 0.714108 0.394663 0.037235
Si Si2 0.700964 0.845318 0.806064
Si Si3 0.247610 0.162041 0.768059
Si Si4 0.904486 0.605103 0.694441
Si Si5 0.826804 0.056297 0.327399
O O1 0.464612 0.353626 0.156106
O O2 0.876612 0.428678 0.184207
O O3 0.500000 0.500000 0.000000
O O4 0.992431 0.289703 0.834484
O O5 0.912499 0.715366 0.652371
O O6 0.871145 0.919029 0.726659
O O7 0.694227 0.843453 0.027217
O O8 0.643359 0.104010 0.193118
O O9 0.565843 0.125523 0.565739
O O10 0.115898 0.071401 0.717894
O O11 0.000000 0.500000 0.500000
#
# Coordination Sequence:
#
# PCOD9051417 Si02
#       5
#     2   2   2   2   2
#     4  11  25  46  71 102 141 186 231 299 352 411
#     4  11  24  45  71 103 142 182 234 292 354 410
#     4  10  25  46  70 107 144 177 243 283 350 428
#     4  11  25  47  70 102 140 184 241 289 351 428
#     4  11  25  43  75 104 138 191 225 291 356 421
#
# _framework density 24.740874999999999
#
# number of rings (size 3 to 8) (size 9 to 14) (size 15 to 20)
#    0.000    1.200    0.000    4.800    2.800   11.200 
#    0.000    0.000    0.000    0.000    0.000    0.000 
#    0.000    0.000    0.000    0.000    0.000    0.000 
#
# Total GULP energy -56126.600007 kJ/mol
# GULP energy per Si atom -5612.660001 kJ/mol
# Density = 2.468456 g / cm^3
# Si number density = 24.740875 Si / 1000 Ang^3
#
#
#
# Elastic Constant Matrix: (Units=GPa)
#
#
# Indices 1 2 3 4 5 6 
#
# 1 125.9651 27.6086 39.2185 16.6498 13.6772 -4.2963
# 2 27.6086 137.9448 52.4811 46.9425 16.2930 -17.9490
# 3 39.2185 52.4811 120.6692 14.3839 12.3485 -6.6903
# 4 16.6498 46.9425 14.3839 39.3003 9.1366 -9.2871
# 5 13.6772 16.2930 12.3485 9.1366 25.9587 -4.0935
# 6 -4.2963 -17.9490 -6.6903 -9.2871 -4.0935 38.3822
#
#
#
# Elastic Compliance Matrix: (Units=1/GPa)
#
#
# Indices 1 2 3 4 5 6 
#
# 1 0.009347 0.000409 -0.002582 -0.002863 -0.002981 -0.000223
# 2 0.000409 0.014326 -0.004311 -0.014808 -0.001591 0.002241
# 3 -0.002582 -0.004311 0.010888 0.002750 -0.002075 0.000037
# 4 -0.002863 -0.014808 0.002750 0.045586 -0.005978 0.003627
# 5 -0.002981 -0.001591 -0.002075 -0.005978 0.044476 0.001858
# 6 -0.000223 0.002241 0.000037 0.003627 0.001858 0.028159
#
#
# Mechanical properties :
#
#
# Convention : Reuss Voigt Hill
#
# Bulk Modulus (GPa) = 46.31156 69.24393 57.77775
# Shear Modulus (GPa) = 28.91019 38.41297 33.66158
#
# Velocity S-wave (km/s) = 3.42207 3.94459 3.69259
# Velocity P-wave (km/s) = 5.86288 6.98533 6.44857
#
# Compressibility (1/GPa) = 0.02159288
#
# Stress axis : x y z
#
# Youngs Moduli (GPa) = 106.98115 69.80092 91.84444
#
# Poissons Ratio (x) = -0.02854 0.23713
# Poissons Ratio (y) = -0.04374 0.39599
# Poissons Ratio (z) = 0.27621 0.30095
#
# Static dielectric constant tensor:
#      x y z
#    x 1.923800 0.022220 0.025320 
#    y 0.022220 1.985850 -0.008220 
#    z 0.025320 -0.008220 1.965140 
# 
# From -- ./inp_files/131702.got.cif
#   From: 2010.05.17/outbox.cif.g08.bks.cpg/sg2_66_cif.got.tgz:131702.got - 2010.06.03 11:33:40.
