data_PCOD9051223
_publ_section_title
;
Structure prediction by ZEFSAII (Michael W. Deem and Ramdas Pophale) SiO2 
 PCOD9051223
Probable space group: P -1
;
_chemical_formula_sum "Si O2"
_cell_formula_units_Z 16
_cell_length_a 12.911142
_cell_length_b 11.614288
_cell_length_c 16.325400
_cell_angle_alpha 25.576728
_cell_angle_beta 126.559383
_cell_angle_gamma 110.230726
_cell_volume 707.763087
_symmetry_space_group_name_H-M "P -1"
_symmetry_group_IT_number 2
_symmetry_cell_setting 'triclinic'
loop_
_space_group_symop_operation_xyz
x,y,z
-x,-y,-z
loop_
_atom_site_type_symbol
_atom_site_label
_atom_site_fract_x
_atom_site_fract_y
_atom_site_fract_z
Si Si1 0.176101 0.052687 0.176922
Si Si2 0.137761 0.854986 0.042323
Si Si3 0.380940 0.863121 0.242122
Si Si4 0.673340 0.207063 0.275956
Si Si5 0.679987 0.836400 0.671279
Si Si6 0.057295 0.739456 0.621985
Si Si7 0.332844 0.131055 0.663486
Si Si8 0.797469 0.138131 0.121111
O O1 0.238853 0.061139 0.290556
O O2 0.324529 0.874347 0.301105
O O3 0.074896 0.423883 0.865327
O O4 0.048881 0.963279 0.162633
O O5 0.219693 0.018505 0.017028
O O6 0.222212 0.513485 0.350113
O O7 0.189823 0.801143 0.006742
O O8 0.500000 0.500000 0.500000
O O9 0.490295 0.991751 0.194918
O O10 0.772234 0.346623 0.258434
O O11 0.695859 0.953595 0.515809
O O12 0.718657 0.026672 0.326810
O O13 0.500000 0.500000 0.000000
O O14 0.500000 0.000000 0.500000
O O15 0.749576 0.461282 0.939465
O O16 0.000000 0.000000 0.500000
O O17 0.959316 0.871488 0.409015
O O18 0.311764 0.992026 0.827021
#
# Coordination Sequence:
#
# PCOD9051223 Si02
#       8
#     2   2   2   2   2   2   2   2
#     4  12  23  44  72 100 143 181 229 289 347 413
#     4  11  24  44  70  98 132 185 235 283 341 409
#     4  10  25  45  72  95 132 188 240 292 344 393
#     4  12  23  40  63 100 146 181 218 278 346 418
#     4  12  25  38  66 109 141 178 228 275 349 434
#     4  12  22  39  66 104 138 180 216 272 352 415
#     4  11  21  43  67  96 138 181 225 286 340 399
#     4  12  24  41  71 106 142 181 229 278 355 425
#
# _framework density 22.606432999999999
#
# number of rings (size 3 to 8) (size 9 to 14) (size 15 to 20)
#    0.000    0.500    5.000    4.125    1.750    1.500 
#    0.000    0.625    5.500    0.000    0.000    0.000 
#    0.000    0.000    0.000    0.000    0.000    0.000 
#
# Total GULP energy -89395.537769 kJ/mol
# GULP energy per Si atom -5587.221111 kJ/mol
# Density = 2.255498 g / cm^3
# Si number density = 22.606433 Si / 1000 Ang^3
#
#
#
# Elastic Constant Matrix: (Units=GPa)
#
#
# Indices 1 2 3 4 5 6 
#
# 1 137.7523 23.2418 16.3818 13.7399 11.7839 22.8090
# 2 23.2418 53.4350 7.6234 10.6856 -3.3821 4.1753
# 3 16.3818 7.6234 65.6913 8.4955 0.5616 2.0796
# 4 13.7399 10.6856 8.4955 22.0684 -1.8518 17.8521
# 5 11.7839 -3.3821 0.5616 -1.8518 32.5872 12.8301
# 6 22.8090 4.1753 2.0796 17.8521 12.8301 47.2556
#
#
#
# Elastic Compliance Matrix: (Units=1/GPa)
#
#
# Indices 1 2 3 4 5 6 
#
# 1 0.008790 -0.003290 -0.001534 -0.001304 -0.002499 -0.002713
# 2 -0.003290 0.022283 -0.000431 -0.011274 0.001494 0.003492
# 3 -0.001534 -0.000431 0.016632 -0.008337 -0.001689 0.003655
# 4 -0.001304 -0.011274 -0.008337 0.084427 0.017933 -0.034771
# 5 -0.002499 0.001494 -0.001689 0.017933 0.039199 -0.016269
# 6 -0.002713 0.003492 0.003655 -0.034771 -0.016269 0.039554
#
#
# Mechanical properties :
#
#
# Convention : Reuss Voigt Hill
#
# Bulk Modulus (GPa) = 26.88490 39.04139 32.96315
# Shear Modulus (GPa) = 21.38636 34.35769 27.87202
#
# Velocity S-wave (km/s) = 3.07910 3.90272 3.51511
# Velocity P-wave (km/s) = 4.95576 6.13317 5.57563
#
# Compressibility (1/GPa) = 0.03719559
#
# Stress axis : x y z
#
# Youngs Moduli (GPa) = 113.76470 44.87715 60.12389
#
# Poissons Ratio (x) = 0.14764 0.09225
# Poissons Ratio (y) = 0.37426 0.02590
# Poissons Ratio (z) = 0.17456 0.01933
#
# Static dielectric constant tensor:
#      x y z
#    x 1.928080 0.026660 0.004480 
#    y 0.026660 1.886130 -0.025520 
#    z 0.004480 -0.025520 1.849480 
# 
# From -- ./inp_files/272855.got.cif
#   From: 2010.05.17/outbox.cif.g08.bks.cpg/sg2_137_cif.got.tgz:272855.got - 2010.06.03 11:33:40.
