data_PCOD9051289
_publ_section_title
;
Structure prediction by ZEFSAII (Michael W. Deem and Ramdas Pophale) SiO2 
 PCOD9051289
Probable space group: P -1
;
_chemical_formula_sum "Si O2"
_cell_formula_units_Z 14
_cell_length_a 9.541309
_cell_length_b 12.486463
_cell_length_c 15.218908
_cell_angle_alpha 151.794994
_cell_angle_beta 42.922671
_cell_angle_gamma 130.128540
_cell_volume 583.582988
_symmetry_space_group_name_H-M "P -1"
_symmetry_group_IT_number 2
_symmetry_cell_setting 'triclinic'
loop_
_space_group_symop_operation_xyz
x,y,z
-x,-y,-z
loop_
_atom_site_type_symbol
_atom_site_label
_atom_site_fract_x
_atom_site_fract_y
_atom_site_fract_z
Si Si1 0.113099 0.796010 0.248987
Si Si2 0.679832 0.168356 0.511635
Si Si3 0.817265 0.455223 0.214686
Si Si4 0.421970 0.231816 0.163096
Si Si5 0.105014 0.180571 0.408956
Si Si6 0.915320 0.905352 0.064176
Si Si7 0.562413 0.666423 0.961496
O O1 0.970246 0.576357 0.162731
O O2 0.153552 0.920469 0.227171
O O3 0.333239 0.731658 0.141826
O O4 0.000000 0.000000 0.500000
O O5 0.577119 0.412965 0.736082
O O6 0.861360 0.181407 0.509389
O O7 0.500000 0.000000 0.500000
O O8 0.795556 0.090343 0.312808
O O9 0.595371 0.411298 0.242273
O O10 0.808913 0.645898 0.432810
O O11 0.917781 0.231995 0.052761
O O12 0.205978 0.269976 0.337816
O O13 0.391574 0.196282 0.048927
O O14 0.500000 0.000000 0.000000
O O15 0.736879 0.723375 0.991837
O O16 0.000000 0.000000 0.000000
#
# Coordination Sequence:
#
# PCOD9051289 Si02
#       7
#     2   2   2   2   2   2   2
#     4  10  25  45  76 106 147 193 250 307 380 448
#     4  12  29  47  79 114 154 201 260 314 386 456
#     4  11  25  46  75 108 149 199 252 310 379 447
#     4  12  25  45  73 109 149 198 252 308 374 456
#     4  11  24  48  74 111 151 193 254 313 378 452
#     4  12  28  48  76 110 160 201 255 316 387 450
#     4  12  27  48  77 108 153 198 254 315 384 449
#
# _framework density 23.989733999999999
#
# number of rings (size 3 to 8) (size 9 to 14) (size 15 to 20)
#    0.000    0.571    2.857    3.857    8.000    4.000 
#    0.000    0.000    0.000    0.000    0.000    0.000 
#    0.000    0.000    0.000    0.000    0.000    0.000 
#
# Total GULP energy -78327.987585 kJ/mol
# GULP energy per Si atom -5594.856256 kJ/mol
# Density = 2.393513 g / cm^3
# Si number density = 23.989734 Si / 1000 Ang^3
#
#
#
# Elastic Constant Matrix: (Units=GPa)
#
#
# Indices 1 2 3 4 5 6 
#
# 1 123.6079 39.3001 17.7081 -5.3054 -1.3215 28.1848
# 2 39.3001 116.6241 38.3127 -14.4644 -1.2586 17.9536
# 3 17.7081 38.3127 113.5377 -1.6478 2.2916 -0.3787
# 4 -5.3054 -14.4644 -1.6478 41.7249 -5.6075 0.2715
# 5 -1.3215 -1.2586 2.2916 -5.6075 40.5364 -1.6908
# 6 28.1848 17.9536 -0.3787 0.2715 -1.6908 48.4843
#
#
#
# Elastic Compliance Matrix: (Units=1/GPa)
#
#
# Indices 1 2 3 4 5 6 
#
# 1 0.010108 -0.002300 -0.000813 0.000511 0.000165 -0.005028
# 2 -0.002300 0.011396 -0.003461 0.003656 0.000859 -0.002900
# 3 -0.000813 -0.003461 0.010109 -0.001019 -0.000771 0.001812
# 4 0.000511 0.003656 -0.001019 0.025764 0.003682 -0.001674
# 5 0.000165 0.000859 -0.000771 0.003682 0.025273 0.000441
# 6 -0.005028 -0.002900 0.001812 -0.001674 0.000441 0.024661
#
#
# Mechanical properties :
#
#
# Convention : Reuss Voigt Hill
#
# Bulk Modulus (GPa) = 54.15582 60.49017 57.32300
# Shear Modulus (GPa) = 39.49058 43.37905 41.43482
#
# Velocity S-wave (km/s) = 4.06167 4.25695 4.16046
# Velocity P-wave (km/s) = 6.67981 7.03078 6.85754
#
# Compressibility (1/GPa) = 0.01846524
#
# Stress axis : x y z
#
# Youngs Moduli (GPa) = 98.93231 87.75305 98.92138
#
# Poissons Ratio (x) = 0.20183 0.08043
# Poissons Ratio (y) = 0.22754 0.34233
# Poissons Ratio (z) = 0.08044 0.30368
#
# Static dielectric constant tensor:
#      x y z
#    x 1.780620 0.019510 0.012990 
#    y 0.019510 1.977700 -0.054830 
#    z 0.012990 -0.054830 1.962700 
# 
# From -- ./inp_files/501066.got.cif
#   From: 2010.05.17/outbox.cif.g08.bks.cpg/sg2_251_cif.got.tgz:501066.got - 2010.06.03 11:33:40.
