data_PCOD9051346
_publ_section_title
;
Structure prediction by ZEFSAII (Michael W. Deem and Ramdas Pophale) SiO2 
 PCOD9051346
Probable space group: P -1
;
_chemical_formula_sum "Si O2"
_cell_formula_units_Z 15
_cell_length_a 6.556892
_cell_length_b 13.775229
_cell_length_c 10.867063
_cell_angle_alpha 116.508912
_cell_angle_beta 46.891177
_cell_angle_gamma 95.931831
_cell_volume 609.925025
_symmetry_space_group_name_H-M "P -1"
_symmetry_group_IT_number 2
_symmetry_cell_setting 'triclinic'
loop_
_space_group_symop_operation_xyz
x,y,z
-x,-y,-z
loop_
_atom_site_type_symbol
_atom_site_label
_atom_site_fract_x
_atom_site_fract_y
_atom_site_fract_z
Si Si1 0.778532 0.975550 0.729205
Si Si2 0.545983 0.182129 0.106016
Si Si3 0.629369 0.288352 0.374085
Si Si4 0.000000 0.500000 0.000000
Si Si5 0.548686 0.287567 0.680550
Si Si6 0.114140 0.407043 0.292020
Si Si7 0.063846 0.605986 0.264293
Si Si8 0.443947 0.928889 0.368765
O O1 0.549712 0.012855 0.731300
O O2 0.684467 0.883787 0.795515
O O3 0.759180 0.090303 0.876896
O O4 0.107359 0.927550 0.518160
O O5 0.697783 0.207525 0.181706
O O6 0.368874 0.298686 0.176424
O O7 0.649159 0.236579 0.474128
O O8 0.843667 0.365258 0.334590
O O9 0.283793 0.357038 0.539796
O O10 0.666697 0.586347 0.183412
O O11 0.091488 0.596113 0.101760
O O12 0.797357 0.310485 0.676133
O O13 0.388775 0.205505 0.765500
O O14 0.194485 0.476647 0.186661
O O15 0.000000 0.500000 0.500000
O O16 0.500000 0.000000 0.500000
#
# Coordination Sequence:
#
# PCOD9051346 Si02
#       8
#     2   2   2   1   2   2   2   2
#     4  10  25  46  67  98 131 172 228 279 327 383
#     4  11  24  43  69  98 135 171 220 284 329 389
#     4  11  21  39  66  98 132 172 212 264 330 397
#     4  10  26  40  64  96 130 170 216 264 328 394
#     4  11  23  44  68  95 134 173 220 271 328 393
#     4  12  23  39  65 100 133 170 215 266 333 397
#     4  11  23  42  62  96 137 173 213 264 327 401
#     4  11  24  46  70  95 129 179 225 272 331 394
#
# _framework density 24.593188000000001
#
# number of rings (size 3 to 8) (size 9 to 14) (size 15 to 20)
#    0.000    1.067    2.667    3.200    1.867    4.267 
#    4.800    3.333    0.000    0.000    0.000    0.000 
#    0.000    0.000    0.000    0.000    0.000    0.000 
#
# Total GULP energy -83672.634453 kJ/mol
# GULP energy per Si atom -5578.175630 kJ/mol
# Density = 2.453721 g / cm^3
# Si number density = 24.593188 Si / 1000 Ang^3
#
#
#
# Elastic Constant Matrix: (Units=GPa)
#
#
# Indices 1 2 3 4 5 6 
#
# 1 151.2601 25.8194 22.2448 14.5874 31.0825 25.4358
# 2 25.8194 96.1574 4.6148 12.8406 0.4283 4.2453
# 3 22.2448 4.6148 61.5782 21.0190 16.4976 7.1167
# 4 14.5874 12.8406 21.0190 23.8571 11.2068 8.0178
# 5 31.0825 0.4283 16.4976 11.2068 36.6438 3.0134
# 6 25.4358 4.2453 7.1167 8.0178 3.0134 36.6681
#
#
#
# Elastic Compliance Matrix: (Units=1/GPa)
#
#
# Indices 1 2 3 4 5 6 
#
# 1 0.009610 -0.002522 -0.001290 0.002266 -0.007742 -0.005983
# 2 -0.002522 0.012089 0.001851 -0.008907 0.003755 0.001630
# 3 -0.001290 0.001851 0.024377 -0.020121 -0.003803 0.000662
# 4 0.002266 -0.008907 -0.020121 0.073675 -0.014340 -0.011567
# 5 -0.007742 0.003755 -0.003803 -0.014340 0.039453 0.005567
# 6 -0.005983 0.001630 0.000662 -0.011567 0.005567 0.033176
#
#
# Mechanical properties :
#
#
# Convention : Reuss Voigt Hill
#
# Bulk Modulus (GPa) = 23.72328 46.03931 34.88129
# Shear Modulus (GPa) = 23.76938 36.52159 30.14548
#
# Velocity S-wave (km/s) = 3.11224 3.85779 3.50489
# Velocity P-wave (km/s) = 4.75204 6.21324 5.53111
#
# Compressibility (1/GPa) = 0.04215269
#
# Stress axis : x y z
#
# Youngs Moduli (GPa) = 104.05904 82.72145 41.02183
#
# Poissons Ratio (x) = 0.20866 0.05293
# Poissons Ratio (y) = 0.26248 -0.07594
# Poissons Ratio (z) = 0.13427 -0.15313
#
# Static dielectric constant tensor:
#      x y z
#    x 0.000000 0.000000 0.000000 
#    y 0.000000 0.000000 0.000000 
#    z 0.000000 0.000000 0.000000 
# 
# From -- ./inp_files/367039.got.cif
#   From: 2010.05.17/outbox.cif.g08.bks.cpg/sg2_184_cif.got.tgz:367039.got - 2010.06.03 11:33:40.
