data_PCOD9051709
_publ_section_title
;
Structure prediction by ZEFSAII (Michael W. Deem and Ramdas Pophale) SiO2 
 PCOD9051709
Probable space group: P -1
;
_chemical_formula_sum "Si O2"
_cell_formula_units_Z 16
_cell_length_a 13.899990
_cell_length_b 13.846780
_cell_length_c 11.032338
_cell_angle_alpha 39.468508
_cell_angle_beta 31.673708
_cell_angle_gamma 49.663298
_cell_volume 708.425431
_symmetry_space_group_name_H-M "P -1"
_symmetry_group_IT_number 2
_symmetry_cell_setting 'triclinic'
loop_
_space_group_symop_operation_xyz
x,y,z
-x,-y,-z
loop_
_atom_site_type_symbol
_atom_site_label
_atom_site_fract_x
_atom_site_fract_y
_atom_site_fract_z
Si Si1 0.399015 0.127598 0.205343
Si Si2 0.969590 0.872826 0.257023
Si Si3 0.626084 0.133750 0.172912
Si Si4 0.695005 0.443732 0.884905
Si Si5 0.345849 0.367979 0.820980
Si Si6 0.204507 0.588638 0.933599
Si Si7 0.572186 0.795751 0.338881
Si Si8 0.144489 0.321127 0.662936
O O1 0.189720 0.099011 0.502770
O O2 0.499015 0.203319 0.140297
O O3 0.508893 0.969847 0.226627
O O4 0.409338 0.241055 0.971794
O O5 0.903367 0.742613 0.358020
O O6 0.173359 0.884158 0.084769
O O7 0.000000 0.000000 0.000000
O O8 0.500000 0.000000 0.500000
O O9 0.681400 0.261960 0.086256
O O10 0.815692 0.502459 0.585477
O O11 0.500000 0.500000 0.000000
O O12 0.757548 0.498057 0.896793
O O13 0.500000 0.500000 0.500000
O O14 0.191754 0.465538 0.959211
O O15 0.306638 0.272243 0.834361
O O16 0.383151 0.697740 0.622688
O O17 0.026281 0.683917 0.058961
O O18 0.686084 0.758173 0.375631
#
# Coordination Sequence:
#
# PCOD9051709 Si02
#       8
#     2   2   2   2   2   2   2   2
#     4  12  25  44  72 101 144 186 232 291 352 417
#     4  12  24  40  69 110 147 182 223 279 363 441
#     4  12  25  42  65 107 147 181 218 276 362 438
#     4  12  23  39  67 103 144 179 225 278 359 433
#     4  10  25  47  72  98 133 189 250 294 345 400
#     4  11  22  43  67 100 141 182 227 296 348 415
#     4  11  25  46  68  95 137 187 241 289 340 408
#     4  12  25  40  70 104 145 184 229 288 357 426
#
# _framework density 22.585298000000002
#
# number of rings (size 3 to 8) (size 9 to 14) (size 15 to 20)
#    0.000    0.500    3.750    5.250    3.500    0.500 
#    0.000    2.500    0.000    6.000    0.000    0.000 
#    0.000    0.000    0.000    0.000    0.000    0.000 
#
# Total GULP energy -89198.514137 kJ/mol
# GULP energy per Si atom -5574.907134 kJ/mol
# Density = 2.253389 g / cm^3
# Si number density = 22.585298 Si / 1000 Ang^3
#
#
#
# Elastic Constant Matrix: (Units=GPa)
#
#
# Indices 1 2 3 4 5 6 
#
# 1 74.9633 23.0712 45.4893 1.1447 2.4252 -4.7234
# 2 23.0712 115.4741 45.7703 -1.3752 -3.5935 9.0319
# 3 45.4893 45.7703 104.3974 -2.3955 1.2025 -10.3902
# 4 1.1447 -1.3752 -2.3955 41.8801 -12.5647 -0.0775
# 5 2.4252 -3.5935 1.2025 -12.5647 33.8621 5.3533
# 6 -4.7234 9.0319 -10.3902 -0.0775 5.3533 42.8690
#
#
#
# Elastic Compliance Matrix: (Units=1/GPa)
#
#
# Indices 1 2 3 4 5 6 
#
# 1 0.018300 -0.000760 -0.007600 -0.001487 -0.001760 0.000551
# 2 -0.000760 0.011169 -0.004966 0.000796 0.002333 -0.003930
# 3 -0.007600 -0.004966 0.015500 0.000658 -0.000934 0.004083
# 4 -0.001487 0.000796 0.000658 0.027116 0.010455 -0.001428
# 5 -0.001760 0.002333 -0.000934 0.010455 0.034643 -0.005219
# 6 0.000551 -0.003930 0.004083 -0.001428 -0.005219 0.025855
#
#
# Mechanical properties :
#
#
# Convention : Reuss Voigt Hill
#
# Bulk Modulus (GPa) = 54.58899 58.16627 56.37763
# Shear Modulus (GPa) = 30.24097 35.75585 32.99841
#
# Velocity S-wave (km/s) = 3.66316 3.98319 3.82652
# Velocity P-wave (km/s) = 6.48955 6.85306 6.67378
#
# Compressibility (1/GPa) = 0.01831871
#
# Stress axis : x y z
#
# Youngs Moduli (GPa) = 54.64572 89.52974 64.51770
#
# Poissons Ratio (x) = 0.06800 0.49032
# Poissons Ratio (y) = 0.04150 0.32038
# Poissons Ratio (z) = 0.41529 0.44459
#
# Static dielectric constant tensor:
#      x y z
#    x 1.815000 0.110110 -0.193510 
#    y 0.110110 2.005750 -0.063340 
#    z -0.193510 -0.063340 2.294240 
# 
# From -- ./inp_files/455442.got.cif
#   From: 2010.05.17/outbox.cif.g08.bks.cpg/sg2_228_cif.got.tgz:455442.got - 2010.06.03 11:33:40.
