data_PCOD9051294
_publ_section_title
;
Structure prediction by ZEFSAII (Michael W. Deem and Ramdas Pophale) SiO2 
 PCOD9051294
Probable space group: P -1
;
_chemical_formula_sum "Si O2"
_cell_formula_units_Z 10
_cell_length_a 4.950174
_cell_length_b 9.386605
_cell_length_c 15.186530
_cell_angle_alpha 38.882619
_cell_angle_beta 84.084124
_cell_angle_gamma 100.549600
_cell_volume 399.497630
_symmetry_space_group_name_H-M "P -1"
_symmetry_group_IT_number 2
_symmetry_cell_setting 'triclinic'
loop_
_space_group_symop_operation_xyz
x,y,z
-x,-y,-z
loop_
_atom_site_type_symbol
_atom_site_label
_atom_site_fract_x
_atom_site_fract_y
_atom_site_fract_z
Si Si1 0.090621 0.859255 0.382033
Si Si2 0.622299 0.591363 0.854547
Si Si3 0.252666 0.418748 0.623328
Si Si4 0.198554 0.930236 0.596972
Si Si5 0.657818 0.811329 0.093793
O O1 0.135094 0.633643 0.534638
O O2 0.035222 0.807554 0.304740
O O3 0.354655 0.124807 0.273964
O O4 0.796029 0.887036 0.412631
O O5 0.429248 0.388619 0.886865
O O6 0.969319 0.662350 0.775944
O O7 0.500000 0.500000 0.000000
O O8 0.500000 0.500000 0.500000
O O9 0.384660 0.344481 0.739690
O O10 0.500000 0.000000 0.500000
O O11 0.000000 0.000000 0.500000
O O12 0.500000 0.000000 0.000000
O O13 0.000000 0.000000 0.000000
#
# Coordination Sequence:
#
# PCOD9051294 Si02
#       5
#     2   2   2   2   2
#     4   9  25  47  82 122 169 218 294 343 441 504
#     4  10  25  51  86 120 172 225 291 352 434 519
#     4  11  26  47  84 119 173 218 282 360 430 513
#     4  10  25  45  77 120 167 212 287 347 417 508
#     4  12  31  54  81 120 172 222 283 358 439 505
#
# _framework density 25.031434999999998
#
# number of rings (size 3 to 8) (size 9 to 14) (size 15 to 20)
#    1.200    0.400    0.000    1.200   14.000    2.400 
#    3.600    3.000    0.000    0.000    0.000    0.000 
#    0.000    0.000    0.000    0.000    0.000    0.000 
#
# Total GULP energy -55762.558278 kJ/mol
# GULP energy per Si atom -5576.255828 kJ/mol
# Density = 2.497446 g / cm^3
# Si number density = 25.031435 Si / 1000 Ang^3
#
#
#
# Elastic Constant Matrix: (Units=GPa)
#
#
# Indices 1 2 3 4 5 6 
#
# 1 178.6949 73.6988 72.8221 -6.7067 -6.4465 -18.1154
# 2 73.6988 254.7871 111.4218 -19.1016 8.0166 29.0534
# 3 72.8221 111.4218 187.6450 18.4588 -4.0821 -3.7103
# 4 -6.7067 -19.1016 18.4588 60.2255 -0.8545 0.2323
# 5 -6.4465 8.0166 -4.0821 -0.8545 61.7657 -1.0268
# 6 -18.1154 29.0534 -3.7103 0.2323 -1.0268 46.5894
#
#
#
# Elastic Compliance Matrix: (Units=1/GPa)
#
#
# Indices 1 2 3 4 5 6 
#
# 1 0.007554 -0.001790 -0.001852 0.000840 0.000975 0.003923
# 2 -0.001790 0.007100 -0.003983 0.003274 -0.001418 -0.005489
# 3 -0.001852 -0.003983 0.008895 -0.004193 0.000895 0.002512
# 4 0.000840 0.003274 -0.004193 0.019024 -0.000387 -0.002153
# 5 0.000975 -0.001418 0.000895 -0.000387 0.016558 0.001701
# 6 0.003923 -0.005489 0.002512 -0.002153 0.001701 0.026660
#
#
# Mechanical properties :
#
#
# Convention : Reuss Voigt Hill
#
# Bulk Modulus (GPa) = 120.50938 126.33471 123.42205
# Shear Modulus (GPa) = 48.16573 57.92842 53.04708
#
# Velocity S-wave (km/s) = 4.39134 4.81586 4.60849
# Velocity P-wave (km/s) = 8.59997 9.02792 8.81654
#
# Compressibility (1/GPa) = 0.00829811
#
# Stress axis : x y z
#
# Youngs Moduli (GPa) = 132.38617 140.83857 112.42556
#
# Poissons Ratio (x) = 0.25208 0.20827
# Poissons Ratio (y) = 0.23695 0.44779
# Poissons Ratio (z) = 0.24524 0.56095
#
# Static dielectric constant tensor:
#      x y z
#    x 2.141940 0.081230 -0.018100 
#    y 0.081230 1.871510 -0.129300 
#    z -0.018100 -0.129300 1.995900 
# 
# From -- ./inp_files/479526.got.cif
#   From: 2010.05.17/outbox.cif.g08.bks.cpg/sg2_240_cif.got.tgz:479526.got - 2010.06.03 11:33:40.
