data_PCOD9051166
_publ_section_title
;
Structure prediction by ZEFSAII (Michael W. Deem and Ramdas Pophale) SiO2 
 PCOD9051166
Probable space group: P -1
;
_chemical_formula_sum "Si O2"
_cell_formula_units_Z 11
_cell_length_a 9.076026
_cell_length_b 12.077818
_cell_length_c 7.059072
_cell_angle_alpha 64.852076
_cell_angle_beta 62.115940
_cell_angle_gamma 40.506627
_cell_volume 441.004723
_symmetry_space_group_name_H-M "P -1"
_symmetry_group_IT_number 2
_symmetry_cell_setting 'triclinic'
loop_
_space_group_symop_operation_xyz
x,y,z
-x,-y,-z
loop_
_atom_site_type_symbol
_atom_site_label
_atom_site_fract_x
_atom_site_fract_y
_atom_site_fract_z
Si Si1 0.318685 0.403577 0.400876
Si Si2 0.962969 0.164832 0.394310
Si Si3 0.499699 0.655099 0.261566
Si Si4 0.312825 0.014028 0.993609
Si Si5 0.853984 0.776063 0.423800
Si Si6 0.500000 0.500000 0.000000
O O1 0.331461 0.393398 0.629657
O O2 0.252219 0.304868 0.436849
O O3 0.121519 0.607487 0.317177
O O4 0.538824 0.348341 0.205134
O O5 0.706648 0.311513 0.529397
O O6 0.126289 0.155269 0.449609
O O7 0.000000 0.000000 0.500000
O O8 0.059047 0.157942 0.140358
O O9 0.572904 0.539759 0.120776
O O10 0.394334 0.834152 0.109051
O O11 0.284108 0.075264 0.754666
O O12 0.500000 0.000000 0.000000
#
# Coordination Sequence:
#
# PCOD9051166 Si02
#       6
#     2   2   2   2   2   1
#     4  11  26  45  73 105 146 183 240 295 348 429
#     4  10  25  45  71 105 148 179 233 296 349 426
#     4  11  25  48  70 108 142 188 236 293 354 424
#     4  11  25  47  74 103 139 189 238 292 354 422
#     4  11  25  47  71 108 139 190 237 292 360 413
#     4  12  26  44  78 100 144 192 234 286 362 420
#
# _framework density 24.943042999999999
#
# number of rings (size 3 to 8) (size 9 to 14) (size 15 to 20)
#    0.000    1.091    3.636    0.545    5.091    6.545 
#    0.000    3.636    0.000    0.000    0.000    0.000 
#    0.000    0.000    0.000    0.000    0.000    0.000 
#
# Total GULP energy -61308.306248 kJ/mol
# GULP energy per Si atom -5573.482386 kJ/mol
# Density = 2.488627 g / cm^3
# Si number density = 24.943043 Si / 1000 Ang^3
#
#
#
# Elastic Constant Matrix: (Units=GPa)
#
#
# Indices 1 2 3 4 5 6 
#
# 1 126.5476 45.4773 13.7143 3.8570 14.6248 40.8725
# 2 45.4773 100.8953 30.0664 -3.8263 12.8901 13.4668
# 3 13.7143 30.0664 81.1019 -13.9617 20.9554 21.0411
# 4 3.8570 -3.8263 -13.9617 42.7446 -3.1117 2.0281
# 5 14.6248 12.8901 20.9554 -3.1117 38.1168 7.9199
# 6 40.8725 13.4668 21.0411 2.0281 7.9199 52.4828
#
#
#
# Elastic Compliance Matrix: (Units=1/GPa)
#
#
# Indices 1 2 3 4 5 6 
#
# 1 0.012737 -0.004977 0.002755 -0.000459 -0.002823 -0.009303
# 2 -0.004977 0.013265 -0.004547 -0.000003 -0.000572 0.002382
# 3 0.002755 -0.004547 0.018317 0.005121 -0.007641 -0.007368
# 4 -0.000459 -0.000003 0.005121 0.025233 -0.000024 -0.002666
# 5 -0.002823 -0.000572 -0.007641 -0.000024 0.031577 0.000645
# 6 -0.009303 0.002382 -0.007368 -0.002666 0.000645 0.028647
#
#
# Mechanical properties :
#
#
# Convention : Reuss Voigt Hill
#
# Bulk Modulus (GPa) = 32.48657 54.11787 43.30222
# Shear Modulus (GPa) = 32.55768 41.28795 36.92281
#
# Velocity S-wave (km/s) = 3.61679 4.07294 3.85162
# Velocity P-wave (km/s) = 5.52215 6.62285 6.09739
#
# Compressibility (1/GPa) = 0.03078195
#
# Stress axis : x y z
#
# Youngs Moduli (GPa) = 78.50979 75.38876 54.59407
#
# Poissons Ratio (x) = 0.37523 -0.15043
# Poissons Ratio (y) = 0.39076 0.24822
# Poissons Ratio (z) = -0.21633 0.34276
#
# Static dielectric constant tensor:
#      x y z
#    x 2.105550 -0.228500 0.009080 
#    y -0.228500 2.194160 0.048070 
#    z 0.009080 0.048070 1.952490 
# 
# From -- ./inp_files/17125.got.cif
#   From: 2010.05.17/outbox.cif.g08.bks.cpg/sg2_9_cif.got.tgz:17125.got - 2010.06.03 11:33:40.
