data_PCOD9051449
_publ_section_title
;
Structure prediction by ZEFSAII (Michael W. Deem and Ramdas Pophale) SiO2 
 PCOD9051449
Probable space group: P -1
;
_chemical_formula_sum "Si O2"
_cell_formula_units_Z 16
_cell_length_a 8.900097
_cell_length_b 15.117864
_cell_length_c 5.318284
_cell_angle_alpha 95.950805
_cell_angle_beta 91.666469
_cell_angle_gamma 113.369679
_cell_volume 651.400866
_symmetry_space_group_name_H-M "P -1"
_symmetry_group_IT_number 2
_symmetry_cell_setting 'triclinic'
loop_
_space_group_symop_operation_xyz
x,y,z
-x,-y,-z
loop_
_atom_site_type_symbol
_atom_site_label
_atom_site_fract_x
_atom_site_fract_y
_atom_site_fract_z
Si Si1 0.392928 0.962146 0.736932
Si Si2 0.080296 0.220927 0.033489
Si Si3 0.809036 0.281328 0.873550
Si Si4 0.676350 0.747357 0.554270
Si Si5 0.357074 0.746533 0.649172
Si Si6 0.348045 0.416876 0.832374
Si Si7 0.847270 0.935026 0.302534
Si Si8 0.940722 0.534030 0.261444
O O1 0.341285 0.848050 0.703074
O O2 0.500000 0.000000 0.500000
O O3 0.246577 0.997967 0.755694
O O4 0.500000 0.000000 0.000000
O O5 0.143725 0.236453 0.326990
O O6 0.220633 0.322805 0.957273
O O7 0.096947 0.122186 0.922636
O O8 0.900985 0.212091 0.941029
O O9 0.664173 0.265937 0.660145
O O10 0.951139 0.352257 0.722941
O O11 0.763825 0.315614 0.150399
O O12 0.535324 0.750356 0.732189
O O13 0.601461 0.641343 0.394745
O O14 0.716691 0.842324 0.416025
O O15 0.242804 0.474738 0.742674
O O16 0.500000 0.500000 0.000000
O O17 0.000000 0.000000 0.500000
O O18 0.000000 0.500000 0.500000
O O19 0.000000 0.500000 0.000000
#
# Coordination Sequence:
#
# PCOD9051449 Si02
#       8
#     2   2   2   2   2   2   2   2
#     4  12  25  45  70 104 147 189 246 303 360 430
#     4  10  25  46  71 104 147 192 243 305 366 438
#     4  11  27  46  74 105 144 195 242 299 370 440
#     4  11  26  46  73 103 150 194 244 309 367 440
#     4  12  26  46  74 105 146 195 247 299 370 437
#     4  10  26  47  74 106 143 191 242 301 372 444
#     4  11  25  45  71 107 146 197 248 305 370 437
#     4  11  26  48  76 108 146 183 244 305 366 447
#
# _framework density 24.562446999999999
#
# number of rings (size 3 to 8) (size 9 to 14) (size 15 to 20)
#    0.000    1.000    1.250    3.000   15.750    2.000 
#    0.000    0.000    0.000    0.000    0.000    0.000 
#    0.000    0.000    0.000    0.000    0.000    0.000 
#
# Total GULP energy -89256.629914 kJ/mol
# GULP energy per Si atom -5578.539370 kJ/mol
# Density = 2.450654 g / cm^3
# Si number density = 24.562447 Si / 1000 Ang^3
#
#
#
# Elastic Constant Matrix: (Units=GPa)
#
#
# Indices 1 2 3 4 5 6 
#
# 1 146.0611 43.4281 56.1342 -7.5870 20.9551 -24.4136
# 2 43.4281 92.4387 41.7334 9.9879 8.1330 -15.1408
# 3 56.1342 41.7334 139.1261 2.1089 16.2693 -3.8269
# 4 -7.5870 9.9879 2.1089 38.1132 4.0768 1.7245
# 5 20.9551 8.1330 16.2693 4.0768 46.8867 -4.6067
# 6 -24.4136 -15.1408 -3.8269 1.7245 -4.6067 41.7049
#
#
#
# Elastic Compliance Matrix: (Units=1/GPa)
#
#
# Indices 1 2 3 4 5 6 
#
# 1 0.010024 -0.002847 -0.002786 0.003016 -0.002875 0.004137
# 2 -0.002847 0.014584 -0.003126 -0.004439 0.000566 0.003587
# 3 -0.002786 -0.003126 0.009388 0.000019 -0.001677 -0.002091
# 4 0.003016 -0.004439 0.000019 0.028403 -0.003189 -0.001371
# 5 -0.002875 0.000566 -0.001677 -0.003189 0.023482 0.001094
# 6 0.004137 0.003587 -0.002091 -0.001371 0.001094 0.027688
#
#
# Mechanical properties :
#
#
# Convention : Reuss Voigt Hill
#
# Bulk Modulus (GPa) = 60.68861 73.35747 67.02304
# Shear Modulus (GPa) = 36.60832 41.09631 38.85231
#
# Velocity S-wave (km/s) = 3.86478 4.09484 3.98147
# Velocity P-wave (km/s) = 6.68408 7.23101 6.96291
#
# Compressibility (1/GPa) = 0.01647756
#
# Stress axis : x y z
#
# Youngs Moduli (GPa) = 99.75701 68.56675 106.51826
#
# Poissons Ratio (x) = 0.19520 0.29679
# Poissons Ratio (y) = 0.28400 0.33302
# Poissons Ratio (z) = 0.27795 0.21437
#
# Static dielectric constant tensor:
#      x y z
#    x 3.549490 0.851280 1.110270 
#    y 0.851280 2.448430 0.542310 
#    z 1.110270 0.542310 2.700760 
# 
# From -- ./inp_files/38909.got.cif
#   From: 2010.05.17/outbox.cif.g08.bks.cpg/sg2_20_cif.got.tgz:38909.got - 2010.06.03 11:33:40.
