data_PCOD9051627
_publ_section_title
;
Structure prediction by ZEFSAII (Michael W. Deem and Ramdas Pophale) SiO2 
 PCOD9051627
Probable space group: P -1
;
_chemical_formula_sum "Si O2"
_cell_formula_units_Z 14
_cell_length_a 11.447947
_cell_length_b 7.418042
_cell_length_c 8.231297
_cell_angle_alpha 75.831171
_cell_angle_beta 126.390562
_cell_angle_gamma 110.453685
_cell_volume 526.573529
_symmetry_space_group_name_H-M "P -1"
_symmetry_group_IT_number 2
_symmetry_cell_setting 'triclinic'
loop_
_space_group_symop_operation_xyz
x,y,z
-x,-y,-z
loop_
_atom_site_type_symbol
_atom_site_label
_atom_site_fract_x
_atom_site_fract_y
_atom_site_fract_z
Si Si1 0.737532 0.377049 0.302482
Si Si2 0.823526 0.594198 0.834946
Si Si3 0.555284 0.302270 0.603062
Si Si4 0.424541 0.278046 0.182105
Si Si5 0.998519 0.082919 0.295770
Si Si6 0.329424 0.900702 0.987423
Si Si7 0.004097 0.315093 0.744381
O O1 0.584179 0.423319 0.227809
O O2 0.859498 0.552310 0.279632
O O3 0.845561 0.317588 0.535413
O O4 0.672502 0.194680 0.170171
O O5 0.733305 0.394173 0.729952
O O6 0.706657 0.640404 0.866065
O O7 0.861076 0.747796 0.685639
O O8 0.963721 0.610723 0.063976
O O9 0.500000 0.500000 0.500000
O O10 0.479726 0.186945 0.409618
O O11 0.551377 0.182281 0.791021
O O12 0.365095 0.122556 0.026917
O O13 0.990487 0.904090 0.212250
O O14 0.851968 0.158755 0.128505
O O15 0.000000 0.000000 0.500000
#
# Coordination Sequence:
#
# PCOD9051627 Si02
#       7
#     2   2   2   2   2   2   2
#     4  11  26  45  75 110 150 190 248 294 363 437
#     4  11  25  49  75 104 147 195 243 301 371 431
#     4  10  25  47  69 105 144 189 243 297 363 438
#     4  11  26  46  72 109 144 196 239 303 358 437
#     4  12  27  46  77 107 144 191 250 308 364 432
#     4  12  24  48  71 109 146 195 241 300 368 428
#     4  11  24  48  72 108 147 194 241 300 361 434
#
# _framework density 26.586978999999999
#
# number of rings (size 3 to 8) (size 9 to 14) (size 15 to 20)
#    0.000    0.857    4.286    1.286    4.000    3.429 
#    5.143    0.000    0.000    0.000    0.000    0.000 
#    0.000    0.000    0.000    0.000    0.000    0.000 
#
# Total GULP energy -78105.866203 kJ/mol
# GULP energy per Si atom -5578.990443 kJ/mol
# Density = 2.652647 g / cm^3
# Si number density = 26.586979 Si / 1000 Ang^3
#
#
#
# Elastic Constant Matrix: (Units=GPa)
#
#
# Indices 1 2 3 4 5 6 
#
# 1 105.8277 -19.5265 10.0013 -2.5170 17.4687 9.7404
# 2 -19.5265 17.3382 -14.3306 -2.3627 -5.7251 1.1253
# 3 10.0013 -14.3306 175.9928 -0.1489 4.7079 -6.8556
# 4 -2.5170 -2.3627 -0.1489 46.4359 -9.2854 4.8575
# 5 17.4687 -5.7251 4.7079 -9.2854 40.8352 6.6019
# 6 9.7404 1.1253 -6.8556 4.8575 6.6019 24.9293
#
#
#
# Elastic Compliance Matrix: (Units=1/GPa)
#
#
# Indices 1 2 3 4 5 6 
#
# 1 0.013058 0.014756 0.000314 0.001555 -0.002332 -0.005367
# 2 0.014756 0.083313 0.005262 0.008000 0.008503 -0.011890
# 3 0.000314 0.005262 0.006155 0.000096 -0.000310 0.001396
# 4 0.001555 0.008000 0.000096 0.024255 0.007185 -0.007571
# 5 -0.002332 0.008503 -0.000310 0.007185 0.029778 -0.008844
# 6 -0.005367 -0.011890 0.001396 -0.007571 -0.008844 0.046948
#
#
# Mechanical properties :
#
#
# Convention : Reuss Voigt Hill
#
# Bulk Modulus (GPa) = 6.98373 27.93856 17.46115
# Shear Modulus (GPa) = 23.74458 43.97438 33.85948
#
# Velocity S-wave (km/s) = 2.99170 4.07133 3.57254
# Velocity P-wave (km/s) = 3.81657 5.71245 4.85790
#
# Compressibility (1/GPa) = 0.14318995
#
# Stress axis : x y z
#
# Youngs Moduli (GPa) = 76.57979 12.00295 162.45944
#
# Poissons Ratio (x) = -0.17712 -0.05103
# Poissons Ratio (y) = -1.13002 -0.85479
# Poissons Ratio (z) = -0.02405 -0.06315
#
# Static dielectric constant tensor:
#      x y z
#    x 2.205710 0.000970 -0.022380 
#    y 0.000970 2.069630 -0.067260 
#    z -0.022380 -0.067260 2.169090 
# 
# From -- ./inp_files/238796.got.cif
#   From: 2010.05.17/outbox.cif.g08.bks.cpg/sg2_120_cif.got.tgz:238796.got - 2010.06.03 11:33:40.
