data_PCOD9051653
_publ_section_title
;
Structure prediction by ZEFSAII (Michael W. Deem and Ramdas Pophale) SiO2 
 PCOD9051653
Probable space group: P -1
;
_chemical_formula_sum "Si O2"
_cell_formula_units_Z 14
_cell_length_a 10.842158
_cell_length_b 11.069231
_cell_length_c 11.574319
_cell_angle_alpha 108.774673
_cell_angle_beta 39.887333
_cell_angle_gamma 79.815226
_cell_volume 603.977076
_symmetry_space_group_name_H-M "P -1"
_symmetry_group_IT_number 2
_symmetry_cell_setting 'triclinic'
loop_
_space_group_symop_operation_xyz
x,y,z
-x,-y,-z
loop_
_atom_site_type_symbol
_atom_site_label
_atom_site_fract_x
_atom_site_fract_y
_atom_site_fract_z
Si Si1 0.693875 0.229574 0.015863
Si Si2 0.213427 0.700902 0.245136
Si Si3 0.980631 0.596904 0.217716
Si Si4 0.899344 0.932429 0.137797
Si Si5 0.101963 0.535479 0.547611
Si Si6 0.782021 0.908934 0.825294
Si Si7 0.656365 0.774983 0.271948
O O1 0.756114 0.187447 0.819970
O O2 0.720811 0.068895 0.982169
O O3 0.408333 0.431265 0.276111
O O4 0.860332 0.217908 0.995044
O O5 0.069357 0.682419 0.244919
O O6 0.021869 0.801869 0.524015
O O7 0.500000 0.500000 0.000000
O O8 0.870731 0.562128 0.389173
O O9 0.775450 0.713435 0.297544
O O10 0.228209 0.400229 0.930557
O O11 0.661884 0.089603 0.442568
O O12 0.765998 0.859441 0.167770
O O13 0.000000 0.000000 0.000000
O O14 0.000000 0.500000 0.500000
O O15 0.893726 0.745622 0.776348
O O16 0.500000 0.000000 0.000000
#
# Coordination Sequence:
#
# PCOD9051653 Si02
#       7
#     2   2   2   2   2   2   2
#     4  12  25  44  70 101 141 186 236 296 361 434
#     4  12  24  44  69 101 147 179 231 299 355 435
#     4  11  23  46  70  94 139 192 229 293 369 422
#     4  11  25  46  69 105 138 181 247 305 351 426
#     4  12  23  45  68 102 144 183 235 294 356 435
#     4  12  26  42  68 103 139 189 234 282 365 434
#     4  10  25  47  71 100 140 190 242 297 364 419
#
# _framework density 23.179686
#
# number of rings (size 3 to 8) (size 9 to 14) (size 15 to 20)
#    0.000    0.571    5.714    1.286    4.000    1.143 
#    0.000    2.143    0.000    0.000    0.000    0.000 
#    0.000    0.000    0.000    0.000    0.000    0.000 
#
# Total GULP energy -78115.377938 kJ/mol
# GULP energy per Si atom -5579.669853 kJ/mol
# Density = 2.312693 g / cm^3
# Si number density = 23.179686 Si / 1000 Ang^3
#
#
#
# Elastic Constant Matrix: (Units=GPa)
#
#
# Indices 1 2 3 4 5 6 
#
# 1 32.6606 -5.4752 18.0499 -1.5056 3.2136 -6.2926
# 2 -5.4752 108.7824 18.7727 -4.7816 -0.1210 -15.6792
# 3 18.0499 18.7727 100.5858 14.7774 -22.5322 -19.0773
# 4 -1.5056 -4.7816 14.7774 42.4848 -0.1985 12.8779
# 5 3.2136 -0.1210 -22.5322 -0.1985 29.7742 0.2315
# 6 -6.2926 -15.6792 -19.0773 12.8779 0.2315 25.6213
#
#
#
# Elastic Compliance Matrix: (Units=1/GPa)
#
#
# Indices 1 2 3 4 5 6 
#
# 1 0.039307 0.004336 -0.011216 0.005296 -0.012688 0.001409
# 2 0.004336 0.010636 -0.002195 0.000352 -0.002128 0.005782
# 3 -0.011216 -0.002195 0.022011 -0.014034 0.017616 0.019186
# 4 0.005296 0.000352 -0.014034 0.036896 -0.010731 -0.027381
# 5 -0.012688 -0.002128 0.017616 -0.010731 0.048100 0.013657
# 6 0.001409 0.005782 0.019186 -0.027381 0.013657 0.070839
#
#
# Mechanical properties :
#
#
# Convention : Reuss Voigt Hill
#
# Bulk Modulus (GPa) = 18.58610 33.85817 26.22214
# Shear Modulus (GPa) = 18.94841 33.62148 26.28495
#
# Velocity S-wave (km/s) = 2.86222 3.81264 3.37109
# Velocity P-wave (km/s) = 4.35417 5.83268 5.14679
#
# Compressibility (1/GPa) = 0.05380364
#
# Stress axis : x y z
#
# Youngs Moduli (GPa) = 25.44060 94.01929 45.43241
#
# Poissons Ratio (x) = -0.40764 0.50957
# Poissons Ratio (y) = -0.11030 0.09972
# Poissons Ratio (z) = 0.28534 0.20636
#
# Static dielectric constant tensor:
#      x y z
#    x 1.882690 0.048590 -0.018630 
#    y 0.048590 1.885460 -0.103210 
#    z -0.018630 -0.103210 1.948040 
# 
# From -- ./inp_files/426127.got.cif
#   From: 2010.05.17/outbox.cif.g08.bks.cpg/sg2_214_cif.got.tgz:426127.got - 2010.06.03 11:33:40.
