data_PCOD9051216
_publ_section_title
;
Structure prediction by ZEFSAII (Michael W. Deem and Ramdas Pophale) SiO2 
 PCOD9051216
Probable space group: P -1
;
_chemical_formula_sum "Si O2"
_cell_formula_units_Z 8
_cell_length_a 6.880067
_cell_length_b 11.673264
_cell_length_c 6.707043
_cell_angle_alpha 55.407014
_cell_angle_beta 103.261121
_cell_angle_gamma 137.816287
_cell_volume 279.367607
_symmetry_space_group_name_H-M "P -1"
_symmetry_group_IT_number 2
_symmetry_cell_setting 'triclinic'
loop_
_space_group_symop_operation_xyz
x,y,z
-x,-y,-z
loop_
_atom_site_type_symbol
_atom_site_label
_atom_site_fract_x
_atom_site_fract_y
_atom_site_fract_z
Si Si1 0.336935 0.174421 0.808035
Si Si2 0.277042 0.479795 0.727879
Si Si3 0.990524 0.601682 0.661075
Si Si4 0.940703 0.122709 0.282567
O O1 0.410259 0.340308 0.503540
O O2 0.639323 0.350041 0.843268
O O3 0.325983 0.038812 0.786870
O O4 0.000000 0.000000 0.000000
O O5 0.026993 0.350773 0.617111
O O6 0.210327 0.584304 0.731736
O O7 0.224786 0.324395 0.012571
O O8 0.100708 0.778185 0.664167
O O9 0.000000 0.000000 0.500000
#
# Coordination Sequence:
#
# PCOD9051216 Si02
#       4
#     2   2   2   2
#     4  10  25  45  72 107 142 194 237 293 366 427
#     4   9  23  51  71 105 148 182 241 309 346 427
#     4   9  23  51  71 105 147 183 243 307 348 426
#     4  12  27  42  75 109 143 194 235 293 373 430
#
# _framework density 28.636101
#
# number of rings (size 3 to 8) (size 9 to 14) (size 15 to 20)
#    1.500    0.500    0.000    0.750    3.500   10.000 
#    0.000    0.000    0.000    0.000    0.000    1.750 
#    0.000    0.000    0.000    0.000    0.000    0.000 
#
# Total GULP energy -44698.451868 kJ/mol
# GULP energy per Si atom -5587.306484 kJ/mol
# Density = 2.857092 g / cm^3
# Si number density = 28.636101 Si / 1000 Ang^3
#
#
#
# Elastic Constant Matrix: (Units=GPa)
#
#
# Indices 1 2 3 4 5 6 
#
# 1 133.5124 81.0592 60.8412 -13.0980 -23.7825 -20.8052
# 2 81.0592 289.5899 41.6771 27.9894 -18.0490 -51.2091
# 3 60.8412 41.6771 235.4824 -43.0620 -0.0808 -4.0576
# 4 -13.0980 27.9894 -43.0620 54.4877 2.8711 -18.9632
# 5 -23.7825 -18.0490 -0.0808 2.8711 47.6639 -9.4423
# 6 -20.8052 -51.2091 -4.0576 -18.9632 -9.4423 60.7973
#
#
#
# Elastic Compliance Matrix: (Units=1/GPa)
#
#
# Indices 1 2 3 4 5 6 
#
# 1 0.011696 -0.002314 -0.001890 0.003573 0.005513 0.003898
# 2 -0.002314 0.005074 -0.000782 -0.002900 0.001486 0.002756
# 3 -0.001890 -0.000782 0.005730 0.004658 -0.001450 0.000304
# 4 0.003573 -0.002900 0.004658 0.026998 0.000572 0.007600
# 5 0.005513 0.001486 -0.001450 0.000572 0.025685 0.007209
# 6 0.003898 0.002756 0.000304 0.007600 0.007209 0.023613
#
#
# Mechanical properties :
#
#
# Convention : Reuss Voigt Hill
#
# Bulk Modulus (GPa) = 79.82999 113.97108 96.90053
# Shear Modulus (GPa) = 44.26920 64.25693 54.26306
#
# Velocity S-wave (km/s) = 3.93609 4.74214 4.35779
# Velocity P-wave (km/s) = 6.97101 8.35883 7.69626
#
# Compressibility (1/GPa) = 0.01252662
#
# Stress axis : x y z
#
# Youngs Moduli (GPa) = 85.49743 197.09255 174.52037
#
# Poissons Ratio (x) = 0.45614 0.32983
# Poissons Ratio (y) = 0.19787 0.13654
# Poissons Ratio (z) = 0.16158 0.15420
#
# Static dielectric constant tensor:
#      x y z
#    x 2.236790 0.052410 -0.017150 
#    y 0.052410 2.380530 0.030930 
#    z -0.017150 0.030930 2.303660 
# 
# From -- ./inp_files/61968.got.cif
#   From: 2010.05.17/outbox.cif.g08.bks.cpg/sg2_31_cif.got.tgz:61968.got - 2010.06.03 11:33:40.
