data_PCOD9051596
_publ_section_title
;
Structure prediction by ZEFSAII (Michael W. Deem and Ramdas Pophale) SiO2 
 PCOD9051596
Probable space group: P -1
;
_chemical_formula_sum "Si O2"
_cell_formula_units_Z 16
_cell_length_a 8.798449
_cell_length_b 18.680257
_cell_length_c 12.312342
_cell_angle_alpha 43.594285
_cell_angle_beta 72.512975
_cell_angle_gamma 38.516719
_cell_volume 681.886925
_symmetry_space_group_name_H-M "P -1"
_symmetry_group_IT_number 2
_symmetry_cell_setting 'triclinic'
loop_
_space_group_symop_operation_xyz
x,y,z
-x,-y,-z
loop_
_atom_site_type_symbol
_atom_site_label
_atom_site_fract_x
_atom_site_fract_y
_atom_site_fract_z
Si Si1 0.646233 0.811361 0.223511
Si Si2 0.642655 0.578505 0.461309
Si Si3 0.137349 0.708864 0.446766
Si Si4 0.271125 0.054806 0.245238
Si Si5 0.119595 0.545081 0.788302
Si Si6 0.482014 0.861837 0.884928
Si Si7 0.380556 0.661318 0.918546
Si Si8 0.550842 0.154247 0.345392
O O1 0.549923 0.749981 0.270715
O O2 0.018117 0.608355 0.350732
O O3 0.546522 0.864875 0.313780
O O4 0.500000 0.000000 0.000000
O O5 0.373668 0.664747 0.485791
O O6 0.700405 0.467863 0.469957
O O7 0.004700 0.708318 0.568146
O O8 0.841425 0.931790 0.212569
O O9 0.290685 0.167911 0.116913
O O10 0.947663 0.189066 0.124405
O O11 0.306692 0.997699 0.424842
O O12 0.819978 0.652038 0.776318
O O13 0.332896 0.344495 0.897710
O O14 0.350168 0.460781 0.921225
O O15 0.390837 0.900226 0.734504
O O16 0.343189 0.787694 0.719616
O O17 0.500000 0.500000 0.000000
#
# Coordination Sequence:
#
# PCOD9051596 Si02
#       8
#     2   2   2   2   2   2   2   2
#     4  11  26  46  70  97 136 176 223 286 350 395
#     4  10  25  47  66  98 132 172 234 289 336 397
#     4  11  24  43  71  97 131 180 231 282 336 396
#     4  12  24  43  67 101 132 182 223 272 344 400
#     4  11  24  42  68  99 134 180 224 275 333 402
#     4  11  23  41  69  98 135 178 228 268 333 412
#     4  11  25  40  62 103 140 175 221 272 335 407
#     4  11  23  44  68  97 141 180 223 274 329 410
#
# _framework density 23.464302
#
# number of rings (size 3 to 8) (size 9 to 14) (size 15 to 20)
#    0.000    1.000    2.500    3.750    8.750    1.000 
#    2.250    2.500    0.000    0.000    0.000    0.000 
#    0.000    0.000    0.000    0.000    0.000    0.000 
#
# Total GULP energy -89383.170002 kJ/mol
# GULP energy per Si atom -5586.448125 kJ/mol
# Density = 2.341090 g / cm^3
# Si number density = 23.464302 Si / 1000 Ang^3
#
#
#
# Elastic Constant Matrix: (Units=GPa)
#
#
# Indices 1 2 3 4 5 6 
#
# 1 190.8580 30.1780 37.9964 -20.3340 -24.3868 -6.3246
# 2 30.1780 52.6340 10.4342 -10.7118 -10.4047 1.4954
# 3 37.9964 10.4342 76.7198 -22.5536 -22.3837 4.5277
# 4 -20.3340 -10.7118 -22.5536 30.6191 8.6636 2.7160
# 5 -24.3868 -10.4047 -22.3837 8.6636 39.6509 -8.0900
# 6 -6.3246 1.4954 4.5277 2.7160 -8.0900 37.5762
#
#
#
# Elastic Compliance Matrix: (Units=1/GPa)
#
#
# Indices 1 2 3 4 5 6 
#
# 1 0.006542 -0.002725 -0.001972 0.001113 0.002333 0.001869
# 2 -0.002725 0.022231 0.001092 0.005968 0.003223 -0.001213
# 3 -0.001972 0.001092 0.019461 0.011573 0.007118 -0.002024
# 4 0.001113 0.005968 0.011573 0.045067 -0.002116 -0.005158
# 5 0.002333 0.003223 0.007118 -0.002116 0.033357 0.006741
# 6 0.001869 -0.001213 -0.002024 -0.005158 0.006741 0.029044
#
#
# Mechanical properties :
#
#
# Convention : Reuss Voigt Hill
#
# Bulk Modulus (GPa) = 24.37555 53.04765 38.71160
# Shear Modulus (GPa) = 28.31507 37.67610 32.99559
#
# Velocity S-wave (km/s) = 3.47757 4.01144 3.75401
# Velocity P-wave (km/s) = 5.15127 6.64172 5.94340
#
# Compressibility (1/GPa) = 0.04102472
#
# Stress axis : x y z
#
# Youngs Moduli (GPa) = 152.86969 44.98193 51.38554
#
# Poissons Ratio (x) = 0.12258 0.10131
# Poissons Ratio (y) = 0.41660 -0.05613
# Poissons Ratio (z) = 0.30139 -0.04914
#
# Static dielectric constant tensor:
#      x y z
#    x 1.861770 0.006310 0.023200 
#    y 0.006310 1.952190 0.002020 
#    z 0.023200 0.002020 1.910350 
# 
# From -- ./inp_files/402988.got.cif
#   From: 2010.05.17/outbox.cif.g08.bks.cpg/sg2_202_cif.got.tgz:402988.got - 2010.06.03 11:33:40.
