data_PCOD9051256
_publ_section_title
;
Structure prediction by ZEFSAII (Michael W. Deem and Ramdas Pophale) SiO2 
 PCOD9051256
Probable space group: P -1
;
_chemical_formula_sum "Si O2"
_cell_formula_units_Z 14
_cell_length_a 10.372934
_cell_length_b 9.689653
_cell_length_c 7.856731
_cell_angle_alpha 98.741353
_cell_angle_beta 130.811995
_cell_angle_gamma 64.218688
_cell_volume 527.947641
_symmetry_space_group_name_H-M "P -1"
_symmetry_group_IT_number 2
_symmetry_cell_setting 'triclinic'
loop_
_space_group_symop_operation_xyz
x,y,z
-x,-y,-z
loop_
_atom_site_type_symbol
_atom_site_label
_atom_site_fract_x
_atom_site_fract_y
_atom_site_fract_z
Si Si1 0.785548 0.540843 0.258949
Si Si2 0.974890 0.256056 0.735204
Si Si3 0.877325 0.204719 0.253445
Si Si4 0.754260 0.598053 0.606107
Si Si5 0.535714 0.147579 0.083985
Si Si6 0.182861 0.101772 0.213236
Si Si7 0.382385 0.785645 0.469964
O O1 0.795464 0.385007 0.158963
O O2 0.679755 0.570581 0.354919
O O3 0.000000 0.500000 0.500000
O O4 0.664749 0.698296 0.084389
O O5 0.974494 0.202758 0.526290
O O6 0.941158 0.435000 0.763781
O O7 0.785380 0.261048 0.657416
O O8 0.134158 0.148292 0.983303
O O9 0.703398 0.164367 0.128876
O O10 0.020119 0.107000 0.207640
O O11 0.781471 0.754993 0.656016
O O12 0.583257 0.637645 0.593710
O O13 0.605757 0.133203 0.332753
O O14 0.500000 0.000000 0.000000
O O15 0.339277 0.922186 0.321302
#
# Coordination Sequence:
#
# PCOD9051256 Si02
#       7
#     2   2   2   2   2   2   2
#     4  11  23  46  74 105 140 183 241 292 353 429
#     4  10  25  45  74 102 140 192 239 295 350 421
#     4  10  25  47  74 107 143 188 248 285 359 429
#     4  11  24  45  70 103 141 185 240 294 351 431
#     4  11  26  47  73 105 144 191 234 300 358 425
#     4  12  24  46  72 105 148 190 233 297 353 422
#     4  11  26  47  66 106 146 183 241 288 363 424
#
# _framework density 26.517783000000001
#
# number of rings (size 3 to 8) (size 9 to 14) (size 15 to 20)
#    0.000    1.143    1.429    3.000    4.000    4.571 
#    7.714    0.000    0.000    0.000    0.000    0.000 
#    0.000    0.000    0.000    0.000    0.000    0.000 
#
# Total GULP energy -78383.226322 kJ/mol
# GULP energy per Si atom -5598.801880 kJ/mol
# Density = 2.645743 g / cm^3
# Si number density = 26.517783 Si / 1000 Ang^3
#
#
#
# Elastic Constant Matrix: (Units=GPa)
#
#
# Indices 1 2 3 4 5 6 
#
# 1 95.2367 32.9456 23.7501 -2.9941 6.3293 1.5139
# 2 32.9456 150.7034 46.3289 -16.9883 4.2289 7.5131
# 3 23.7501 46.3289 91.4798 -33.2033 -9.6603 2.7871
# 4 -2.9941 -16.9883 -33.2033 43.3454 10.0798 -5.8522
# 5 6.3293 4.2289 -9.6603 10.0798 33.9225 3.8113
# 6 1.5139 7.5131 2.7871 -5.8522 3.8113 35.4952
#
#
#
# Elastic Compliance Matrix: (Units=1/GPa)
#
#
# Indices 1 2 3 4 5 6 
#
# 1 0.011993 -0.001806 -0.003053 -0.001646 -0.002404 0.000097
# 2 -0.001806 0.008339 -0.003701 0.000578 -0.001804 -0.001108
# 3 -0.003053 -0.003701 0.018105 0.011768 0.002560 0.001157
# 4 -0.001646 0.000578 0.011768 0.034648 -0.007330 0.005523
# 5 -0.002404 -0.001804 0.002560 -0.007330 0.033568 -0.004530
# 6 0.000097 -0.001108 0.001157 0.005523 -0.004530 0.029709
#
#
# Mechanical properties :
#
#
# Convention : Reuss Voigt Hill
#
# Bulk Modulus (GPa) = 46.91344 60.38545 53.64945
# Shear Modulus (GPa) = 31.13531 38.17895 34.65713
#
# Velocity S-wave (km/s) = 3.43027 3.79852 3.61908
# Velocity P-wave (km/s) = 5.78090 6.48533 6.14322
#
# Compressibility (1/GPa) = 0.02131585
#
# Stress axis : x y z
#
# Youngs Moduli (GPa) = 83.38327 119.91413 55.23363
#
# Poissons Ratio (x) = 0.21658 0.16864
# Poissons Ratio (y) = 0.15060 0.20444
# Poissons Ratio (z) = 0.25458 0.44384
#
# Static dielectric constant tensor:
#      x y z
#    x 2.399740 0.111670 0.010250 
#    y 0.111670 2.123090 -0.059540 
#    z 0.010250 -0.059540 2.116050 
# 
# From -- ./inp_files/244754.got.cif
#   From: 2010.05.17/outbox.cif.g08.bks.cpg/sg2_123_cif.got.tgz:244754.got - 2010.06.03 11:33:40.
