data_PCOD9051187
_publ_section_title
;
Structure prediction by ZEFSAII (Michael W. Deem and Ramdas Pophale) SiO2 
 PCOD9051187
Probable space group: P -1
;
_chemical_formula_sum "Si O2"
_cell_formula_units_Z 14
_cell_length_a 6.978610
_cell_length_b 10.924404
_cell_length_c 12.875702
_cell_angle_alpha 89.488896
_cell_angle_beta 43.861778
_cell_angle_gamma 103.157844
_cell_volume 640.166001
_symmetry_space_group_name_H-M "P -1"
_symmetry_group_IT_number 2
_symmetry_cell_setting 'triclinic'
loop_
_space_group_symop_operation_xyz
x,y,z
-x,-y,-z
loop_
_atom_site_type_symbol
_atom_site_label
_atom_site_fract_x
_atom_site_fract_y
_atom_site_fract_z
Si Si1 0.228832 0.598647 0.775478
Si Si2 0.157329 0.997888 0.265079
Si Si3 0.807359 0.022560 0.980309
Si Si4 0.290810 0.689360 0.337832
Si Si5 0.200797 0.516485 0.577359
Si Si6 0.157651 0.189774 0.447220
Si Si7 0.077817 0.307639 0.924749
O O1 0.126682 0.599560 0.697307
O O2 0.577070 0.674596 0.650697
O O3 0.143436 0.446613 0.840983
O O4 0.074775 0.671860 0.910369
O O5 0.108834 0.023649 0.163211
O O6 0.881531 0.887906 0.427670
O O7 0.212055 0.113001 0.326990
O O8 0.459149 0.963449 0.140056
O O9 0.879477 0.179390 0.943103
O O10 0.000000 0.000000 0.000000
O O11 0.260037 0.591195 0.446157
O O12 0.620411 0.719699 0.172663
O O13 0.064811 0.616325 0.336699
O O14 0.160227 0.793683 0.435740
O O15 0.500000 0.500000 0.500000
#
# Coordination Sequence:
#
# PCOD9051187 Si02
#       7
#     2   2   2   2   2   2   2
#     4  11  23  41  70  97 141 177 214 280 352 398
#     4  10  25  45  71  95 138 187 228 282 344 392
#     4  11  24  47  70 101 135 181 235 282 336 415
#     4  11  23  38  66 101 130 173 233 264 337 414
#     4  11  21  40  64  96 136 176 213 277 338 402
#     4  11  22  46  68 104 136 179 233 284 336 413
#     4  11  24  42  65 104 136 176 222 277 339 410
#
# _framework density 21.869326999999998
#
# number of rings (size 3 to 8) (size 9 to 14) (size 15 to 20)
#    0.000    1.143    4.286    1.714    4.000    1.714 
#    0.000    2.143    0.000    0.000    0.000    0.000 
#    0.000    0.000    0.000    0.000    0.000    0.000 
#
# Total GULP energy -78142.709071 kJ/mol
# GULP energy per Si atom -5581.622076 kJ/mol
# Density = 2.181955 g / cm^3
# Si number density = 21.869327 Si / 1000 Ang^3
#
#
#
# Elastic Constant Matrix: (Units=GPa)
#
#
# Indices 1 2 3 4 5 6 
#
# 1 90.6260 2.6099 43.9123 5.4883 16.5374 5.1864
# 2 2.6099 68.4725 36.3681 -2.3307 12.7931 11.9498
# 3 43.9123 36.3681 140.8287 19.7142 7.2397 17.1732
# 4 5.4883 -2.3307 19.7142 39.4956 5.4185 -2.5562
# 5 16.5374 12.7931 7.2397 5.4185 34.4158 8.3241
# 6 5.1864 11.9498 17.1732 -2.5562 8.3241 24.5044
#
#
#
# Elastic Compliance Matrix: (Units=1/GPa)
#
#
# Indices 1 2 3 4 5 6 
#
# 1 0.014980 0.003760 -0.005796 0.002301 -0.008247 0.002099
# 2 0.003760 0.019907 -0.006190 0.004633 -0.007910 -0.002995
# 3 -0.005796 -0.006190 0.011982 -0.006685 0.005220 -0.006622
# 4 0.002301 0.004633 -0.006685 0.030225 -0.008075 0.007835
# 5 -0.008247 -0.007910 0.005220 -0.008075 0.039077 -0.012172
# 6 0.002099 -0.002995 -0.006622 0.007835 -0.012172 0.051419
#
#
# Mechanical properties :
#
#
# Convention : Reuss Voigt Hill
#
# Bulk Modulus (GPa) = 32.87647 51.74530 42.31088
# Shear Modulus (GPa) = 25.74934 34.15228 29.95081
#
# Velocity S-wave (km/s) = 3.43508 3.95606 3.70474
# Velocity P-wave (km/s) = 5.54966 6.67681 6.13916
#
# Compressibility (1/GPa) = 0.03041689
#
# Stress axis : x y z
#
# Youngs Moduli (GPa) = 66.75602 50.23332 83.46045
#
# Poissons Ratio (x) = -0.18889 0.48375
# Poissons Ratio (y) = -0.25102 0.51663
# Poissons Ratio (z) = 0.38692 0.31095
#
# Static dielectric constant tensor:
#      x y z
#    x 1.778400 -0.026430 0.012360 
#    y -0.026430 1.860430 -0.023620 
#    z 0.012360 -0.023620 1.841930 
# 
# From -- ./inp_files/364422.got.cif
#   From: 2010.05.17/outbox.cif.g08.bks.cpg/sg2_183_cif.got.tgz:364422.got - 2010.06.03 11:33:40.
