data_PCOD9051235
_publ_section_title
;
Structure prediction by ZEFSAII (Michael W. Deem and Ramdas Pophale) SiO2 
 PCOD9051235
Probable space group: P -1
;
_chemical_formula_sum "Si O2"
_cell_formula_units_Z 16
_cell_length_a 20.466537
_cell_length_b 8.402145
_cell_length_c 10.158748
_cell_angle_alpha 130.106229
_cell_angle_beta 41.177587
_cell_angle_gamma 146.166952
_cell_volume 639.524850
_symmetry_space_group_name_H-M "P -1"
_symmetry_group_IT_number 2
_symmetry_cell_setting 'triclinic'
loop_
_space_group_symop_operation_xyz
x,y,z
-x,-y,-z
loop_
_atom_site_type_symbol
_atom_site_label
_atom_site_fract_x
_atom_site_fract_y
_atom_site_fract_z
Si Si1 0.116429 0.555082 0.431484
Si Si2 0.843098 0.820962 0.793497
Si Si3 0.075667 0.405665 0.887817
Si Si4 0.635140 0.288612 0.515718
Si Si5 0.240320 0.642136 0.015489
Si Si6 0.385461 0.479000 0.800715
Si Si7 0.650984 0.744487 0.842207
Si Si8 0.361705 0.030113 0.443232
O O1 0.101676 0.324828 0.415528
O O2 0.201701 0.587753 0.197453
O O3 0.000000 0.500000 0.500000
O O4 0.208062 0.841660 0.528231
O O5 0.788830 0.874993 0.781605
O O6 0.704996 0.643507 0.997535
O O7 0.968242 0.077795 0.830819
O O8 0.225735 0.597987 0.698746
O O9 0.110978 0.465108 0.020507
O O10 0.000000 0.500000 0.000000
O O11 0.644835 0.553152 0.638906
O O12 0.500000 0.000000 0.500000
O O13 0.628514 0.181646 0.616644
O O14 0.328074 0.977720 0.049095
O O15 0.316360 0.531497 0.823686
O O16 0.393851 0.255060 0.619332
O O17 0.536968 0.792343 0.738563
O O18 0.500000 0.500000 0.000000
#
# Coordination Sequence:
#
# PCOD9051235 Si02
#       8
#     2   2   2   2   2   2   2   2
#     4  11  28  44  69 102 145 191 242 296 361 433
#     4  11  26  46  70 105 144 194 237 301 368 434
#     4  12  26  46  74 106 150 189 243 303 369 435
#     4  12  28  48  78 109 147 191 247 307 370 441
#     4  11  27  45  69 105 142 192 235 292 361 433
#     4  10  25  45  73 102 142 187 239 296 365 430
#     4  12  26  45  74 108 148 186 247 302 369 436
#     4  11  24  46  74 102 143 187 245 299 361 431
#
# _framework density 25.018575999999999
#
# number of rings (size 3 to 8) (size 9 to 14) (size 15 to 20)
#    0.000    0.750    2.500    3.000   10.500    3.500 
#    0.000    0.000    0.000    0.000    0.000    0.000 
#    0.000    0.000    0.000    0.000    0.000    0.000 
#
# Total GULP energy -89375.483169 kJ/mol
# GULP energy per Si atom -5585.967698 kJ/mol
# Density = 2.496163 g / cm^3
# Si number density = 25.018576 Si / 1000 Ang^3
#
#
#
# Elastic Constant Matrix: (Units=GPa)
#
#
# Indices 1 2 3 4 5 6 
#
# 1 78.0671 23.1676 -7.8484 7.9659 -21.5752 22.9251
# 2 23.1676 83.9595 11.7683 5.7766 -6.2297 16.2351
# 3 -7.8484 11.7683 73.2797 -9.6848 -15.9359 -1.2473
# 4 7.9659 5.7766 -9.6848 37.0698 0.3315 -3.8817
# 5 -21.5752 -6.2297 -15.9359 0.3315 38.1459 5.6975
# 6 22.9251 16.2351 -1.2473 -3.8817 5.6975 39.4545
#
#
#
# Elastic Compliance Matrix: (Units=1/GPa)
#
#
# Indices 1 2 3 4 5 6 
#
# 1 0.024640 -0.002819 0.006168 -0.005099 0.018507 -0.016136
# 2 -0.002819 0.014214 -0.003003 -0.002879 0.000187 -0.004616
# 3 0.006168 -0.003003 0.017509 0.003305 0.010735 -0.003020
# 4 -0.005099 -0.002879 0.003305 0.030222 -0.003389 0.007715
# 5 0.018507 0.000187 0.010735 -0.003389 0.043788 -0.017147
# 6 -0.016136 -0.004616 -0.003020 0.007715 -0.017147 0.039760
#
#
# Mechanical properties :
#
#
# Convention : Reuss Voigt Hill
#
# Bulk Modulus (GPa) = 17.52749 32.16459 24.84604
# Shear Modulus (GPa) = 26.53079 36.81529 31.67304
#
# Velocity S-wave (km/s) = 3.25998 3.84020 3.56192
# Velocity P-wave (km/s) = 4.60336 5.70500 5.18353
#
# Compressibility (1/GPa) = 0.05705324
#
# Stress axis : x y z
#
# Youngs Moduli (GPa) = 40.58498 70.35405 57.11334
#
# Poissons Ratio (x) = 0.19835 -0.35226
# Poissons Ratio (y) = 0.11442 0.17151
# Poissons Ratio (z) = -0.25032 0.21128
#
# Static dielectric constant tensor:
#      x y z
#    x 2.167320 -0.317880 -0.031050 
#    y -0.317880 2.141930 0.184100 
#    z -0.031050 0.184100 2.035390 
# 
# From -- ./inp_files/329021.got.cif
#   From: 2010.05.17/outbox.cif.g08.bks.cpg/sg2_165_cif.got.tgz:329021.got - 2010.06.03 11:33:40.
