data_PCOD9051391
_publ_section_title
;
Structure prediction by ZEFSAII (Michael W. Deem and Ramdas Pophale) SiO2 
 PCOD9051391
Probable space group: P -1
;
_chemical_formula_sum "Si O2"
_cell_formula_units_Z 16
_cell_length_a 5.006623
_cell_length_b 17.351349
_cell_length_c 9.259198
_cell_angle_alpha 119.377125
_cell_angle_beta 108.085957
_cell_angle_gamma 78.185185
_cell_volume 664.959740
_symmetry_space_group_name_H-M "P -1"
_symmetry_group_IT_number 2
_symmetry_cell_setting 'triclinic'
loop_
_space_group_symop_operation_xyz
x,y,z
-x,-y,-z
loop_
_atom_site_type_symbol
_atom_site_label
_atom_site_fract_x
_atom_site_fract_y
_atom_site_fract_z
Si Si1 0.514766 0.746179 0.159200
Si Si2 0.390597 0.321280 0.193327
Si Si3 0.280162 0.386413 0.702917
Si Si4 0.284396 0.712226 0.508907
Si Si5 0.057822 0.887790 0.190668
Si Si6 0.547826 0.023911 0.863523
Si Si7 0.132639 0.557708 0.700528
Si Si8 0.434962 0.874503 0.488939
O O1 0.579689 0.653405 0.164857
O O2 0.192145 0.786757 0.132915
O O3 0.634079 0.819559 0.355403
O O4 0.619434 0.733326 0.004606
O O5 0.565852 0.267338 0.296723
O O6 0.578852 0.404173 0.267339
O O7 0.087998 0.360716 0.228679
O O8 0.513623 0.365759 0.600614
O O9 0.183255 0.489232 0.777843
O O10 0.017675 0.327575 0.566017
O O11 0.296459 0.796477 0.483759
O O12 0.217633 0.927093 0.392747
O O13 0.185399 0.924214 0.096112
O O14 0.733984 0.916851 0.170395
O O15 0.562564 0.937017 0.684592
O O16 0.500000 0.000000 0.000000
O O17 0.000000 0.500000 0.500000
#
# Coordination Sequence:
#
# PCOD9051391 Si02
#       8
#     2   2   2   2   2   2   2   2
#     4   9  26  44  64  99 132 177 214 274 326 393
#     4  12  24  42  67  96 132 172 228 270 332 390
#     4  11  23  43  65  95 132 170 226 267 334 390
#     4  11  22  40  66  96 126 174 223 270 321 395
#     4  10  25  46  69  95 137 175 215 266 334 388
#     4  12  25  45  71 105 131 171 222 268 323 392
#     4  12  23  41  68  97 130 176 217 285 330 383
#     4   9  24  44  69  94 137 176 213 268 330 387
#
# _framework density 24.061610000000002
#
# number of rings (size 3 to 8) (size 9 to 14) (size 15 to 20)
#    0.750    0.500    2.500    2.250    3.500    6.000 
#    4.500    0.000    0.000    0.000    0.000    0.000 
#    0.000    0.000    0.000    0.000    0.000    0.000 
#
# Total GULP energy -89410.328563 kJ/mol
# GULP energy per Si atom -5588.145535 kJ/mol
# Density = 2.400684 g / cm^3
# Si number density = 24.061610 Si / 1000 Ang^3
#
#
#
# Elastic Constant Matrix: (Units=GPa)
#
#
# Indices 1 2 3 4 5 6 
#
# 1 71.5500 6.9106 3.3929 7.4740 -2.9459 -4.4799
# 2 6.9106 93.0204 29.4272 -24.7949 5.2399 7.3556
# 3 3.3929 29.4272 141.5270 -9.5299 -20.1510 3.5372
# 4 7.4740 -24.7949 -9.5299 35.3230 6.7312 -8.0111
# 5 -2.9459 5.2399 -20.1510 6.7312 19.2114 1.6823
# 6 -4.4799 7.3556 3.5372 -8.0111 1.6823 33.3473
#
#
#
# Elastic Compliance Matrix: (Units=1/GPa)
#
#
# Indices 1 2 3 4 5 6 
#
# 1 0.015282 -0.003568 0.000825 -0.006540 0.006397 0.000859
# 2 -0.003568 0.017226 -0.004711 0.014616 -0.015352 0.000506
# 3 0.000825 -0.004711 0.009658 -0.003662 0.012948 -0.001407
# 4 -0.006540 0.014616 -0.003662 0.045795 -0.025628 0.008580
# 5 0.006397 -0.015352 0.012948 -0.025628 0.080424 -0.007341
# 6 0.000859 0.000506 -0.001407 0.008580 -0.007341 0.032572
#
#
# Mechanical properties :
#
#
# Convention : Reuss Voigt Hill
#
# Bulk Modulus (GPa) = 36.68577 42.83987 39.76282
# Shear Modulus (GPa) = 22.22710 35.33412 28.78061
#
# Velocity S-wave (km/s) = 3.04264 3.83624 3.46225
# Velocity P-wave (km/s) = 5.25578 6.12088 5.70475
#
# Compressibility (1/GPa) = 0.02725853
#
# Stress axis : x y z
#
# Youngs Moduli (GPa) = 65.43645 58.05046 103.54553
#
# Poissons Ratio (x) = 0.20710 -0.08537
# Poissons Ratio (y) = 0.23345 0.48776
# Poissons Ratio (z) = -0.05395 0.27345
#
# Static dielectric constant tensor:
#      x y z
#    x 1.908280 0.029920 0.035520 
#    y 0.029920 1.961620 -0.011810 
#    z 0.035520 -0.011810 1.953080 
# 
# From -- ./inp_files/139249.got.cif
#   From: 2010.05.17/outbox.cif.g08.bks.cpg/sg2_70_cif.got.tgz:139249.got - 2010.06.03 11:33:40.
