data_PCOD9051591
_publ_section_title
;
Structure prediction by ZEFSAII (Michael W. Deem and Ramdas Pophale) SiO2 
 PCOD9051591
Probable space group: P -1
;
_chemical_formula_sum "Si O2"
_cell_formula_units_Z 16
_cell_length_a 14.378238
_cell_length_b 15.048821
_cell_length_c 7.964042
_cell_angle_alpha 127.529572
_cell_angle_beta 123.548694
_cell_angle_gamma 28.769864
_cell_volume 656.939382
_symmetry_space_group_name_H-M "P -1"
_symmetry_group_IT_number 2
_symmetry_cell_setting 'triclinic'
loop_
_space_group_symop_operation_xyz
x,y,z
-x,-y,-z
loop_
_atom_site_type_symbol
_atom_site_label
_atom_site_fract_x
_atom_site_fract_y
_atom_site_fract_z
Si Si1 0.903532 0.143310 0.224724
Si Si2 0.852039 0.806922 0.107196
Si Si3 0.030474 0.256859 0.340405
Si Si4 0.061645 0.813017 0.161073
Si Si5 0.753390 0.662770 0.687128
Si Si6 0.483526 0.464756 0.256187
Si Si7 0.354989 0.090815 0.646073
Si Si8 0.548487 0.764269 0.941428
O O1 0.004551 0.179720 0.363670
O O2 0.674364 0.344305 0.209026
O O3 0.936962 0.028666 0.277609
O O4 0.000000 0.000000 0.000000
O O5 0.792326 0.815772 0.241257
O O6 0.017624 0.764160 0.212221
O O7 0.876383 0.672598 0.870794
O O8 0.660685 0.024043 0.090871
O O9 0.875721 0.479271 0.483942
O O10 0.243606 0.135008 0.425370
O O11 0.990442 0.225171 0.091286
O O12 0.283286 0.667464 0.209466
O O13 0.555382 0.865854 0.634047
O O14 0.686357 0.660848 0.795035
O O15 0.500000 0.500000 0.500000
O O16 0.469792 0.342172 0.120153
O O17 0.383677 0.199788 0.814145
#
# Coordination Sequence:
#
# PCOD9051591 Si02
#       8
#     2   2   2   2   2   2   2   2
#     4  10  25  47  65  89 134 179 214 262 333 388
#     4   9  19  40  65  92 133 167 209 263 324 379
#     4  11  24  40  65  94 126 171 218 253 330 390
#     4  11  26  43  64  94 133 172 214 272 323 384
#     4   9  20  38  63  98 128 166 212 262 315 390
#     4  12  26  42  69 100 127 169 227 278 318 380
#     4   9  21  39  67  95 129 171 204 266 327 389
#     4   9  19  41  65  96 132 163 211 268 327 378
#
# _framework density 24.355367999999999
#
# number of rings (size 3 to 8) (size 9 to 14) (size 15 to 20)
#    0.000    2.000    1.250    2.250    5.250    9.000 
#    0.000    1.250    0.000    0.000    0.000    0.000 
#    0.000    0.000    0.000    0.000    0.000    0.000 
#
# Total GULP energy -89594.577164 kJ/mol
# GULP energy per Si atom -5599.661073 kJ/mol
# Density = 2.429993 g / cm^3
# Si number density = 24.355368 Si / 1000 Ang^3
#
#
#
# Elastic Constant Matrix: (Units=GPa)
#
#
# Indices 1 2 3 4 5 6 
#
# 1 83.8197 -6.3933 29.2984 12.6781 7.0084 -9.8352
# 2 -6.3933 65.1066 35.0774 3.9207 7.6192 -14.3837
# 3 29.2984 35.0774 88.3170 -9.2963 13.1431 -0.2413
# 4 12.6781 3.9207 -9.2963 38.6751 3.5385 10.2481
# 5 7.0084 7.6192 13.1431 3.5385 41.3707 4.1304
# 6 -9.8352 -14.3837 -0.2413 10.2481 4.1304 36.9394
#
#
#
# Elastic Compliance Matrix: (Units=1/GPa)
#
#
# Indices 1 2 3 4 5 6 
#
# 1 0.023388 0.015767 -0.015476 -0.017377 -0.002193 0.017332
# 2 0.015767 0.034660 -0.020509 -0.019501 -0.003200 0.023328
# 3 -0.015476 -0.020509 0.026770 0.018211 -0.001990 -0.016762
# 4 -0.017377 -0.019501 0.018211 0.044417 -0.000618 -0.024355
# 5 -0.002193 -0.003200 -0.001990 -0.000618 0.026278 -0.004610
# 6 0.017332 0.023328 -0.016762 -0.024355 -0.004610 0.047932
#
#
# Mechanical properties :
#
#
# Convention : Reuss Voigt Hill
#
# Bulk Modulus (GPa) = 22.53248 39.24536 30.88892
# Shear Modulus (GPa) = 19.32916 35.34775 27.33845
#
# Velocity S-wave (km/s) = 2.82020 3.81377 3.35398
# Velocity P-wave (km/s) = 4.45829 5.96169 5.26394
#
# Compressibility (1/GPa) = 0.04438038
#
# Stress axis : x y z
#
# Youngs Moduli (GPa) = 42.75686 28.85160 37.35512
#
# Poissons Ratio (x) = -0.45490 0.57812
# Poissons Ratio (y) = -0.67415 0.76613
# Poissons Ratio (z) = 0.66172 0.59173
#
# Static dielectric constant tensor:
#      x y z
#    x 2.041630 0.016640 -0.091830 
#    y 0.016640 1.942180 -0.035230 
#    z -0.091830 -0.035230 1.926990 
# 
# From -- ./inp_files/315887.got.cif
#   From: 2010.05.17/outbox.cif.g08.bks.cpg/sg2_158_cif.got.tgz:315887.got - 2010.06.03 11:33:40.
