data_PCOD9051789
_publ_section_title
;
Structure prediction by ZEFSAII (Michael W. Deem and Ramdas Pophale) SiO2 
 PCOD9051789
Probable space group: P -1
;
_chemical_formula_sum "Si O2"
_cell_formula_units_Z 16
_cell_length_a 5.709340
_cell_length_b 9.355027
_cell_length_c 15.726954
_cell_angle_alpha 57.902228
_cell_angle_beta 76.378662
_cell_angle_gamma 58.798454
_cell_volume 607.744405
_symmetry_space_group_name_H-M "P -1"
_symmetry_group_IT_number 2
_symmetry_cell_setting 'triclinic'
loop_
_space_group_symop_operation_xyz
x,y,z
-x,-y,-z
loop_
_atom_site_type_symbol
_atom_site_label
_atom_site_fract_x
_atom_site_fract_y
_atom_site_fract_z
Si Si1 0.026360 0.686066 0.294469
Si Si2 0.886396 0.813147 0.077637
Si Si3 0.526144 0.672496 0.692586
Si Si4 0.773252 0.488615 0.115392
Si Si5 0.378684 0.809836 0.938992
Si Si6 0.199728 0.532413 0.541313
Si Si7 0.007207 0.926737 0.385551
Si Si8 0.289738 0.157042 0.241860
O O1 0.311879 0.485820 0.341389
O O2 0.992020 0.830507 0.327573
O O3 0.021596 0.767316 0.175370
O O4 0.796553 0.614572 0.341628
O O5 0.824295 0.643302 0.112821
O O6 0.635036 0.024091 0.049904
O O7 0.094797 0.814646 0.987962
O O8 0.430295 0.563075 0.800924
O O9 0.734138 0.721604 0.710786
O O10 0.264328 0.876280 0.630838
O O11 0.046579 0.285219 0.156972
O O12 0.623270 0.600020 0.008218
O O13 0.442804 0.867092 0.823538
O O14 0.500000 0.500000 0.500000
O O15 0.051423 0.760384 0.500689
O O16 0.000000 0.500000 0.500000
O O17 0.250127 0.980454 0.332863
#
# Coordination Sequence:
#
# PCOD9051789 Si02
#       8
#     2   2   2   2   2   2   2   2
#     4  11  23  48  75  98 142 185 229 299 358 421
#     4  11  24  40  62  98 132 179 234 286 348 425
#     4  11  24  45  69 104 140 180 240 285 355 429
#     4  11  22  41  61  94 136 174 237 282 347 420
#     4  11  24  38  62  93 135 179 235 284 351 414
#     4  10  25  47  77 113 142 189 243 294 364 442
#     4  10  26  45  72 105 137 182 240 284 362 431
#     4  11  24  42  67  94 140 182 224 299 345 417
#
# _framework density 26.326857
#
# number of rings (size 3 to 8) (size 9 to 14) (size 15 to 20)
#    0.000    1.250    2.500    1.500    7.000    7.500 
#    0.000    0.625    0.000    0.000    0.000    0.000 
#    0.000    0.000    0.000    0.000    0.000    0.000 
#
# Total GULP energy -89440.207262 kJ/mol
# GULP energy per Si atom -5590.012954 kJ/mol
# Density = 2.626694 g / cm^3
# Si number density = 26.326857 Si / 1000 Ang^3
#
#
#
# Elastic Constant Matrix: (Units=GPa)
#
#
# Indices 1 2 3 4 5 6 
#
# 1 67.3400 39.0502 41.4447 2.6334 -18.9158 16.6285
# 2 39.0502 101.1000 22.4115 -7.5997 -2.3848 4.4516
# 3 41.4447 22.4115 97.9916 -6.6321 -36.1683 9.3373
# 4 2.6334 -7.5997 -6.6321 46.7604 5.3123 -5.1012
# 5 -18.9158 -2.3848 -36.1683 5.3123 45.4013 -9.8344
# 6 16.6285 4.4516 9.3373 -5.1012 -9.8344 56.6357
#
#
#
# Elastic Compliance Matrix: (Units=1/GPa)
#
#
# Indices 1 2 3 4 5 6 
#
# 1 0.027798 -0.009007 -0.007982 -0.005270 0.004087 -0.005902
# 2 -0.009007 0.013581 -0.000511 0.003189 -0.003530 0.001336
# 3 -0.007982 -0.000511 0.017680 0.001807 0.010849 0.001516
# 4 -0.005270 0.003189 0.001807 0.023050 -0.002722 0.002602
# 5 0.004087 -0.003530 0.010849 -0.002722 0.033109 0.002793
# 6 -0.005902 0.001336 0.001516 0.002602 0.002793 0.019754
#
#
# Mechanical properties :
#
#
# Convention : Reuss Voigt Hill
#
# Bulk Modulus (GPa) = 41.56681 52.47160 47.01921
# Shear Modulus (GPa) = 28.09090 40.66115 34.37602
#
# Velocity S-wave (km/s) = 3.27005 3.93424 3.61742
# Velocity P-wave (km/s) = 5.48458 6.37274 5.94527
#
# Compressibility (1/GPa) = 0.02405766
#
# Stress axis : x y z
#
# Youngs Moduli (GPa) = 35.97394 73.63121 56.56078
#
# Poissons Ratio (x) = 0.66322 0.45149
# Poissons Ratio (y) = 0.32403 0.02891
# Poissons Ratio (z) = 0.28716 0.03763
#
# Static dielectric constant tensor:
#      x y z
#    x 2.116900 -0.064340 0.054990 
#    y -0.064340 2.087750 -0.003030 
#    z 0.054990 -0.003030 2.111180 
# 
# From -- ./inp_files/547875.got.cif
#   From: 2010.05.17/outbox.cif.g08.bks.cpg/sg2_274_cif.got.tgz:547875.got - 2010.06.03 11:33:40.
