data_PCOD9051807
_publ_section_title
;
Structure prediction by ZEFSAII (Michael W. Deem and Ramdas Pophale) SiO2 
 PCOD9051807
Probable space group: P -1
;
_chemical_formula_sum "Si O2"
_cell_formula_units_Z 16
_cell_length_a 6.627419
_cell_length_b 7.926298
_cell_length_c 15.699716
_cell_angle_alpha 82.105219
_cell_angle_beta 114.706538
_cell_angle_gamma 89.493123
_cell_volume 740.110076
_symmetry_space_group_name_H-M "P -1"
_symmetry_group_IT_number 2
_symmetry_cell_setting 'triclinic'
loop_
_space_group_symop_operation_xyz
x,y,z
-x,-y,-z
loop_
_atom_site_type_symbol
_atom_site_label
_atom_site_fract_x
_atom_site_fract_y
_atom_site_fract_z
Si Si1 0.996245 0.814839 0.973851
Si Si2 0.034523 0.373694 0.844003
Si Si3 0.253902 0.198616 0.731088
Si Si4 0.483577 0.227230 0.388868
Si Si5 0.779993 0.093695 0.595876
Si Si6 0.547941 0.857881 0.802722
Si Si7 0.329013 0.647418 0.923639
Si Si8 0.574008 0.383377 0.667335
O O1 0.810093 0.828008 0.867059
O O2 0.228922 0.753781 0.977762
O O3 0.940927 0.694105 0.050754
O O4 0.000000 0.000000 0.000000
O O5 0.778871 0.377930 0.770505
O O6 0.177180 0.262203 0.806882
O O7 0.129322 0.557745 0.849098
O O8 0.347586 0.347002 0.679331
O O9 0.037109 0.120405 0.657448
O O10 0.456343 0.054151 0.778871
O O11 0.697995 0.148824 0.483659
O O12 0.515240 0.214524 0.294274
O O13 0.436077 0.427314 0.388166
O O14 0.292598 0.097369 0.385941
O O15 0.638096 0.229145 0.623349
O O16 0.439456 0.762360 0.867231
O O17 0.500000 0.500000 0.000000
#
# Coordination Sequence:
#
# PCOD9051807 Si02
#       8
#     2   2   2   2   2   2   2   2
#     4  12  27  43  67  97 140 187 228 290 348 409
#     4  11  25  42  69  98 141 178 231 292 343 411
#     4  11  25  44  72 103 139 181 238 292 344 426
#     4  11  24  46  74  98 143 182 228 295 357 415
#     4  10  25  48  67 107 137 180 234 293 354 419
#     4  12  26  43  69 101 138 185 236 283 352 417
#     4  12  27  44  67 103 137 184 241 285 344 419
#     4  11  23  45  71 102 139 183 232 287 356 415
#
# _framework density 21.618406
#
# number of rings (size 3 to 8) (size 9 to 14) (size 15 to 20)
#    0.000    0.750    2.500    3.750   10.500    2.000 
#    0.000    0.000    0.000    0.000    0.000    0.000 
#    0.000    0.000    0.000    0.000    0.000    0.000 
#
# Total GULP energy -89532.881606 kJ/mol
# GULP energy per Si atom -5595.805100 kJ/mol
# Density = 2.156920 g / cm^3
# Si number density = 21.618406 Si / 1000 Ang^3
#
#
#
# Elastic Constant Matrix: (Units=GPa)
#
#
# Indices 1 2 3 4 5 6 
#
# 1 91.6721 32.4226 30.7975 -9.2496 -2.5273 -6.2122
# 2 32.4226 106.5790 24.2669 -21.2504 -5.7878 3.7846
# 3 30.7975 24.2669 91.4973 0.8251 0.4196 -2.1586
# 4 -9.2496 -21.2504 0.8251 29.1411 -0.3487 -4.7058
# 5 -2.5273 -5.7878 0.4196 -0.3487 19.6885 -0.3763
# 6 -6.2122 3.7846 -2.1586 -4.7058 -0.3763 32.8037
#
#
#
# Elastic Compliance Matrix: (Units=1/GPa)
#
#
# Indices 1 2 3 4 5 6 
#
# 1 0.013715 -0.002753 -0.003845 0.002969 0.001145 0.003101
# 2 -0.002753 0.012692 -0.002553 0.008349 0.003562 -0.000915
# 3 -0.003845 -0.002553 0.012937 -0.003484 -0.001583 -0.000100
# 4 0.002969 0.008349 -0.003484 0.042377 0.003765 0.005492
# 5 0.001145 0.003562 -0.001583 0.003765 0.052102 0.000839
# 6 0.003101 -0.000915 -0.000100 0.005492 0.000839 0.031968
#
#
# Mechanical properties :
#
#
# Convention : Reuss Voigt Hill
#
# Bulk Modulus (GPa) = 47.52286 51.63582 49.57934
# Shear Modulus (GPa) = 26.16342 29.81074 27.98708
#
# Velocity S-wave (km/s) = 3.48262 3.71745 3.60195
# Velocity P-wave (km/s) = 6.18076 6.50868 6.34684
#
# Compressibility (1/GPa) = 0.02104251
#
# Stress axis : x y z
#
# Youngs Moduli (GPa) = 72.91216 78.79023 77.29808
#
# Poissons Ratio (x) = 0.21688 0.29723
# Poissons Ratio (y) = 0.20070 0.19733
# Poissons Ratio (z) = 0.28036 0.20114
#
# Static dielectric constant tensor:
#      x y z
#    x 1.783240 0.001430 0.000810 
#    y 0.001430 1.780800 0.022350 
#    z 0.000810 0.022350 1.777570 
# 
# From -- ./inp_files/480456.got.cif
#   From: 2010.05.17/outbox.cif.g08.bks.cpg/sg2_241_cif.got.tgz:480456.got - 2010.06.03 11:33:40.
