data_PCOD9051060
_publ_section_title
;
Structure prediction by ZEFSAII (Michael W. Deem and Ramdas Pophale) SiO2 
 PCOD9051060
Probable space group: P -1
;
_chemical_formula_sum "Si O2"
_cell_formula_units_Z 16
_cell_length_a 13.557765
_cell_length_b 9.626156
_cell_length_c 12.812987
_cell_angle_alpha 85.099674
_cell_angle_beta 47.974911
_cell_angle_gamma 47.513970
_cell_volume 680.492571
_symmetry_space_group_name_H-M "P -1"
_symmetry_group_IT_number 2
_symmetry_cell_setting 'triclinic'
loop_
_space_group_symop_operation_xyz
x,y,z
-x,-y,-z
loop_
_atom_site_type_symbol
_atom_site_label
_atom_site_fract_x
_atom_site_fract_y
_atom_site_fract_z
Si Si1 0.673662 0.255091 0.963897
Si Si2 0.602754 0.421114 0.238389
Si Si3 0.964861 0.366825 0.513608
Si Si4 0.007877 0.694111 0.003504
Si Si5 0.121893 0.413612 0.749888
Si Si6 0.700625 0.935377 0.887541
Si Si7 0.523361 0.762419 0.643747
Si Si8 0.081459 0.997843 0.553491
O O1 0.941941 0.041447 0.741980
O O2 0.608451 0.152130 0.996705
O O3 0.500000 0.500000 0.000000
O O4 0.648548 0.326219 0.094773
O O5 0.538809 0.336058 0.352484
O O6 0.366363 0.726398 0.383467
O O7 0.839464 0.298891 0.109190
O O8 0.724326 0.562222 0.602891
O O9 0.000000 0.500000 0.500000
O O10 0.182684 0.124952 0.301068
O O11 0.988210 0.239725 0.600684
O O12 0.974552 0.654348 0.144498
O O13 0.143465 0.471978 0.842295
O O14 0.729094 0.958988 0.152314
O O15 0.356630 0.236738 0.524281
O O16 0.911226 0.677038 0.819987
O O17 0.500000 0.000000 0.000000
O O18 0.000000 0.000000 0.500000
#
# Coordination Sequence:
#
# PCOD9051060 Si02
#       8
#     2   2   2   2   2   2   2   2
#     4  12  24  41  69 100 143 184 222 288 347 413
#     4  12  26  42  72 103 139 185 236 281 352 415
#     4  11  25  40  67 101 135 181 226 283 353 410
#     4  11  26  44  70 100 135 190 234 280 340 419
#     4  10  25  45  68  95 141 182 231 289 343 402
#     4  11  25  40  68 100 137 176 227 284 349 413
#     4  11  23  46  66  96 138 177 235 288 337 411
#     4  12  22  44  65  99 143 178 224 286 347 413
#
# _framework density 23.512378999999999
#
# number of rings (size 3 to 8) (size 9 to 14) (size 15 to 20)
#    0.000    0.750    3.750    2.250    8.750    3.500 
#    0.000    0.000    0.000    0.000    0.000    0.000 
#    0.000    0.000    0.000    0.000    0.000    0.000 
#
# Total GULP energy -89541.151361 kJ/mol
# GULP energy per Si atom -5596.321960 kJ/mol
# Density = 2.345886 g / cm^3
# Si number density = 23.512379 Si / 1000 Ang^3
#
#
#
# Elastic Constant Matrix: (Units=GPa)
#
#
# Indices 1 2 3 4 5 6 
#
# 1 55.0818 3.0756 35.5649 -6.5047 -15.2197 23.0462
# 2 3.0756 93.3302 14.2126 -7.9635 -11.3241 16.8186
# 3 35.5649 14.2126 145.9656 -2.3875 -17.6351 2.0758
# 4 -6.5047 -7.9635 -2.3875 41.4657 3.8153 -2.2654
# 5 -15.2197 -11.3241 -17.6351 3.8153 33.4706 -6.9281
# 6 23.0462 16.8186 2.0758 -2.2654 -6.9281 32.1556
#
#
#
# Elastic Compliance Matrix: (Units=1/GPa)
#
#
# Indices 1 2 3 4 5 6 
#
# 1 0.037598 0.006419 -0.008271 0.004346 0.008704 -0.027589
# 2 0.006419 0.013408 -0.002216 0.002530 0.003833 -0.010466
# 3 -0.008271 -0.002216 0.009193 -0.000992 0.001859 0.006824
# 4 0.004346 0.002530 -0.000992 0.025177 -0.001150 -0.002848
# 5 0.008704 0.003833 0.001859 -0.001150 0.036104 -0.000665
# 6 -0.027589 -0.010466 0.006824 -0.002848 -0.000665 0.055562
#
#
# Mechanical properties :
#
#
# Convention : Reuss Voigt Hill
#
# Bulk Modulus (GPa) = 19.20745 44.45377 31.83061
# Shear Modulus (GPa) = 24.68738 37.52000 31.10369
#
# Velocity S-wave (km/s) = 3.24384 3.99902 3.64107
# Velocity P-wave (km/s) = 4.71348 6.34590 5.58960
#
# Compressibility (1/GPa) = 0.05206314
#
# Stress axis : x y z
#
# Youngs Moduli (GPa) = 26.59694 74.58478 108.77568
#
# Poissons Ratio (x) = -0.47877 0.89967
# Poissons Ratio (y) = -0.17073 0.24108
# Poissons Ratio (z) = 0.21998 0.16530
#
# Static dielectric constant tensor:
#      x y z
#    x 1.854980 0.038980 -0.002510 
#    y 0.038980 2.001110 -0.079630 
#    z -0.002510 -0.079630 1.938090 
# 
# From -- ./inp_files/455041.got.cif
#   From: 2010.05.17/outbox.cif.g08.bks.cpg/sg2_228_cif.got.tgz:455041.got - 2010.06.03 11:33:40.
