data_PCOD9051555
_publ_section_title
;
Structure prediction by ZEFSAII (Michael W. Deem and Ramdas Pophale) SiO2 
 PCOD9051555
Probable space group: P -1
;
_chemical_formula_sum "Si O2"
_cell_formula_units_Z 12
_cell_length_a 22.652501
_cell_length_b 22.981763
_cell_length_c 10.169606
_cell_angle_alpha 154.926240
_cell_angle_beta 27.172799
_cell_angle_gamma 167.230162
_cell_volume 494.804816
_symmetry_space_group_name_H-M "P -1"
_symmetry_group_IT_number 2
_symmetry_cell_setting 'triclinic'
loop_
_space_group_symop_operation_xyz
x,y,z
-x,-y,-z
loop_
_atom_site_type_symbol
_atom_site_label
_atom_site_fract_x
_atom_site_fract_y
_atom_site_fract_z
Si Si1 0.327554 0.911772 0.547130
Si Si2 0.743761 0.183621 0.802314
Si Si3 0.168130 0.326347 0.578662
Si Si4 0.061200 0.215124 0.278466
Si Si5 0.788404 0.526423 0.931791
Si Si6 0.717593 0.691602 0.226774
O O1 0.500000 0.000000 0.500000
O O2 0.320196 0.841544 0.273566
O O3 0.497894 0.210844 0.811291
O O4 0.025917 0.656263 0.668351
O O5 0.817786 0.089906 0.470258
O O6 0.000000 0.500000 0.000000
O O7 0.500000 0.000000 0.000000
O O8 0.198420 0.461955 0.913354
O O9 0.412875 0.448368 0.355641
O O10 0.183597 0.390251 0.528511
O O11 0.889373 0.988066 0.463942
O O12 0.241472 0.367075 0.102529
O O13 0.000000 0.000000 0.000000
O O14 0.829988 0.716771 0.181353
#
# Coordination Sequence:
#
# PCOD9051555 Si02
#       6
#     2   2   2   2   2   2
#     4  12  28  48  73 101 143 196 246 303 365 435
#     4  12  29  50  79 108 148 194 251 302 367 442
#     4  11  24  39  69 107 140 188 238 296 359 442
#     4  10  25  46  75 106 150 189 246 301 371 427
#     4  12  24  44  72  99 145 184 247 294 372 424
#     4  11  22  43  66 103 146 186 237 296 368 428
#
# _framework density 24.251987
#
# number of rings (size 3 to 8) (size 9 to 14) (size 15 to 20)
#    0.000    0.667    1.667    5.000    7.000    2.667 
#    0.000    0.000    0.000    0.000    0.000    0.000 
#    0.000    0.000    0.000    0.000    0.000    0.000 
#
# Total GULP energy -67188.050583 kJ/mol
# GULP energy per Si atom -5599.004215 kJ/mol
# Density = 2.419679 g / cm^3
# Si number density = 24.251987 Si / 1000 Ang^3
#
#
#
# Elastic Constant Matrix: (Units=GPa)
#
#
# Indices 1 2 3 4 5 6 
#
# 1 162.0198 23.5792 56.6238 -11.2176 31.9752 3.8257
# 2 23.5792 96.2996 33.3737 -9.5522 18.5985 -2.9302
# 3 56.6238 33.3737 89.2414 -12.4440 26.0819 -13.2876
# 4 -11.2176 -9.5522 -12.4440 51.3521 2.4223 10.3550
# 5 31.9752 18.5985 26.0819 2.4223 71.1182 -1.7582
# 6 3.8257 -2.9302 -13.2876 10.3550 -1.7582 25.4525
#
#
#
# Elastic Compliance Matrix: (Units=1/GPa)
#
#
# Indices 1 2 3 4 5 6 
#
# 1 0.008721 0.000198 -0.005485 0.001722 -0.002143 -0.005000
# 2 0.000198 0.012263 -0.004167 0.001731 -0.001867 -0.001626
# 3 -0.005485 -0.004167 0.018678 0.000768 -0.003083 0.009570
# 4 0.001722 0.001731 0.000768 0.022268 -0.002487 -0.008889
# 5 -0.002143 -0.001867 -0.003083 -0.002487 0.016745 0.000666
# 6 -0.005000 -0.001626 0.009570 -0.008889 0.000666 0.048512
#
#
# Mechanical properties :
#
#
# Convention : Reuss Voigt Hill
#
# Bulk Modulus (GPa) = 48.18619 63.85714 56.02167
# Shear Modulus (GPa) = 32.67750 45.18349 38.93050
#
# Velocity S-wave (km/s) = 3.67470 4.32103 4.01090
# Velocity P-wave (km/s) = 6.15765 7.16121 6.67831
#
# Compressibility (1/GPa) = 0.02075283
#
# Stress axis : x y z
#
# Youngs Moduli (GPa) = 114.67144 81.54927 53.54012
#
# Poissons Ratio (x) = -0.01618 0.29369
# Poissons Ratio (y) = -0.02275 0.22310
# Poissons Ratio (z) = 0.62902 0.33981
#
# Static dielectric constant tensor:
#      x y z
#    x 1.930460 -0.031150 -0.024290 
#    y -0.031150 1.883860 0.097820 
#    z -0.024290 0.097820 1.978320 
# 
# From -- ./inp_files/119070.got.cif
#   From: 2010.05.17/outbox.cif.g08.bks.cpg/sg2_60_cif.got.tgz:119070.got - 2010.06.03 11:33:40.
