data_PCOD9051400
_publ_section_title
;
Structure prediction by ZEFSAII (Michael W. Deem and Ramdas Pophale) SiO2 
 PCOD9051400
Probable space group: P -1
;
_chemical_formula_sum "Si O2"
_cell_formula_units_Z 14
_cell_length_a 12.463915
_cell_length_b 5.923522
_cell_length_c 11.789230
_cell_angle_alpha 135.365474
_cell_angle_beta 66.951912
_cell_angle_gamma 113.866505
_cell_volume 551.921803
_symmetry_space_group_name_H-M "P -1"
_symmetry_group_IT_number 2
_symmetry_cell_setting 'triclinic'
loop_
_space_group_symop_operation_xyz
x,y,z
-x,-y,-z
loop_
_atom_site_type_symbol
_atom_site_label
_atom_site_fract_x
_atom_site_fract_y
_atom_site_fract_z
Si Si1 0.406796 0.920630 0.617018
Si Si2 0.450614 0.837032 0.140659
Si Si3 0.284412 0.543382 0.925565
Si Si4 0.083588 0.334278 0.122114
Si Si5 0.065133 0.219875 0.328007
Si Si6 0.257576 0.185281 0.421999
Si Si7 0.121942 0.345674 0.741309
O O1 0.333394 0.552348 0.500341
O O2 0.500000 0.000000 0.500000
O O3 0.454460 0.929929 0.732851
O O4 0.333937 0.217145 0.754598
O O5 0.336598 0.912212 0.281716
O O6 0.500000 0.500000 0.000000
O O7 0.391616 0.816042 0.029468
O O8 0.208925 0.619139 0.875290
O O9 0.186034 0.447753 0.029765
O O10 0.135248 0.315188 0.218153
O O11 0.979677 0.543783 0.250940
O O12 0.000000 0.000000 0.000000
O O13 0.154242 0.136205 0.354698
O O14 0.000000 0.500000 0.500000
O O15 0.958527 0.914399 0.236744
O O16 0.200416 0.177568 0.565788
#
# Coordination Sequence:
#
# PCOD9051400 Si02
#       7
#     2   2   2   2   2   2   2
#     4  11  25  50  72 100 141 189 252 306 353 426
#     4  10  25  46  70 101 137 181 249 303 353 410
#     4  11  24  44  72 104 144 196 228 303 367 412
#     4  12  25  43  69 107 156 184 236 289 356 443
#     4  12  26  44  70 113 148 190 237 286 354 445
#     4  12  25  45  77 106 142 197 238 295 367 427
#     4  12  25  46  71 109 152 188 238 282 361 455
#
# _framework density 25.365912999999999
#
# number of rings (size 3 to 8) (size 9 to 14) (size 15 to 20)
#    0.000    0.571    2.857    4.714    6.000    0.000 
#    0.000    3.571    0.000    0.000    0.000    0.000 
#    0.000    0.000    0.000    0.000    0.000    0.000 
#
# Total GULP energy -78170.800393 kJ/mol
# GULP energy per Si atom -5583.628600 kJ/mol
# Density = 2.530818 g / cm^3
# Si number density = 25.365913 Si / 1000 Ang^3
#
#
#
# Elastic Constant Matrix: (Units=GPa)
#
#
# Indices 1 2 3 4 5 6 
#
# 1 134.7313 25.3421 56.4560 -10.9689 20.2992 5.9364
# 2 25.3421 58.1408 30.3252 -9.7389 10.6133 32.7978
# 3 56.4560 30.3252 144.2776 -10.7308 -8.7820 11.7873
# 4 -10.9689 -9.7389 -10.7308 39.4540 -1.3346 10.2202
# 5 20.2992 10.6133 -8.7820 -1.3346 78.7816 -1.0484
# 6 5.9364 32.7978 11.7873 10.2202 -1.0484 39.7188
#
#
#
# Elastic Compliance Matrix: (Units=1/GPa)
#
#
# Indices 1 2 3 4 5 6 
#
# 1 0.009758 -0.002913 -0.003464 0.000507 -0.002476 0.001780
# 2 -0.002913 0.053830 -0.004878 0.023550 -0.007296 -0.048819
# 3 -0.003464 -0.004878 0.009317 -0.000026 0.002613 0.001857
# 4 0.000507 0.023550 -0.000026 0.038856 -0.003042 -0.029593
# 5 -0.002476 -0.007296 0.002613 -0.003042 0.014644 0.006788
# 6 0.001780 -0.048819 0.001857 -0.029593 0.006788 0.072466
#
#
# Mechanical properties :
#
#
# Convention : Reuss Voigt Hill
#
# Bulk Modulus (GPa) = 19.84400 62.37736 41.11068
# Shear Modulus (GPa) = 20.99244 46.59265 33.79254
#
# Velocity S-wave (km/s) = 2.87990 4.29046 3.65390
# Velocity P-wave (km/s) = 4.34724 7.01345 5.83468
#
# Compressibility (1/GPa) = 0.05039307
#
# Stress axis : x y z
#
# Youngs Moduli (GPa) = 102.48445 18.57700 107.32549
#
# Poissons Ratio (x) = 0.05412 0.37180
# Poissons Ratio (y) = 0.29857 0.52358
# Poissons Ratio (z) = 0.35503 0.09063
#
# Static dielectric constant tensor:
#      x y z
#    x 2.015480 -0.040020 0.017650 
#    y -0.040020 2.081250 0.065000 
#    z 0.017650 0.065000 1.971810 
# 
# From -- ./inp_files/138411.got.cif
#   From: 2010.05.17/outbox.cif.g08.bks.cpg/sg2_70_cif.got.tgz:138411.got - 2010.06.03 11:33:40.
