data_PCOD9051212
_publ_section_title
;
Structure prediction by ZEFSAII (Michael W. Deem and Ramdas Pophale) SiO2 
 PCOD9051212
Probable space group: P -1
;
_chemical_formula_sum "Si O2"
_cell_formula_units_Z 16
_cell_length_a 8.743449
_cell_length_b 12.584127
_cell_length_c 17.749728
_cell_angle_alpha 148.887476
_cell_angle_beta 44.984329
_cell_angle_gamma 132.665980
_cell_volume 699.316989
_symmetry_space_group_name_H-M "P -1"
_symmetry_group_IT_number 2
_symmetry_cell_setting 'triclinic'
loop_
_space_group_symop_operation_xyz
x,y,z
-x,-y,-z
loop_
_atom_site_type_symbol
_atom_site_label
_atom_site_fract_x
_atom_site_fract_y
_atom_site_fract_z
Si Si1 0.409142 0.824197 0.984849
Si Si2 0.207864 0.525740 0.169249
Si Si3 0.537886 0.940329 0.363628
Si Si4 0.023009 0.044834 0.718311
Si Si5 0.069869 0.430366 0.850443
Si Si6 0.255737 0.106408 0.959962
Si Si7 0.534363 0.236543 0.407824
Si Si8 0.848997 0.610801 0.454449
O O1 0.609808 0.807466 0.959635
O O2 0.212728 0.911022 0.147856
O O3 0.289838 0.599134 0.856644
O O4 0.500000 0.000000 0.000000
O O5 0.376382 0.729279 0.264071
O O6 0.118006 0.563330 0.141017
O O7 0.998154 0.496779 0.281002
O O8 0.286315 0.306855 0.016057
O O9 0.500000 0.000000 0.500000
O O10 0.518338 0.131336 0.431073
O O11 0.788502 0.900742 0.251847
O O12 0.998338 0.803075 0.561362
O O13 0.095728 0.193359 0.711143
O O14 0.000000 0.500000 0.000000
O O15 0.377885 0.931540 0.777448
O O16 0.000000 0.000000 0.000000
O O17 0.707490 0.453594 0.467329
O O18 0.309122 0.286079 0.482745
#
# Coordination Sequence:
#
# PCOD9051212 Si02
#       8
#     2   2   2   2   2   2   2   2
#     4  11  25  45  72 107 146 194 244 306 368 443
#     4  12  26  46  77 105 148 193 249 305 370 436
#     4  12  28  47  72 113 148 196 247 306 368 443
#     4  11  24  48  70 104 150 189 251 294 376 440
#     4  10  25  45  72 106 144 195 241 303 363 442
#     4  12  25  46  73 110 144 187 246 304 370 433
#     4  11  27  46  75 105 149 187 249 307 369 439
#     4  11  24  49  74 105 142 201 241 303 374 441
#
# _framework density 22.879467999999999
#
# number of rings (size 3 to 8) (size 9 to 14) (size 15 to 20)
#    0.000    0.750    3.750    2.250    8.750    2.000 
#    2.250    0.000    0.000    0.000    0.000    0.000 
#    0.000    0.000    0.000    0.000    0.000    0.000 
#
# Total GULP energy -89574.004618 kJ/mol
# GULP energy per Si atom -5598.375289 kJ/mol
# Density = 2.282739 g / cm^3
# Si number density = 22.879468 Si / 1000 Ang^3
#
#
#
# Elastic Constant Matrix: (Units=GPa)
#
#
# Indices 1 2 3 4 5 6 
#
# 1 171.5367 70.4248 27.4369 33.6039 6.6997 10.1045
# 2 70.4248 126.0421 23.0395 34.8065 -0.0852 -2.9477
# 3 27.4369 23.0395 61.9821 27.3570 -0.0864 7.6142
# 4 33.6039 34.8065 27.3570 50.2435 2.0092 -10.9137
# 5 6.6997 -0.0852 -0.0864 2.0092 38.9293 3.6489
# 6 10.1045 -2.9477 7.6142 -10.9137 3.6489 38.0650
#
#
#
# Elastic Compliance Matrix: (Units=1/GPa)
#
#
# Indices 1 2 3 4 5 6 
#
# 1 0.008324 -0.003698 -0.000358 -0.003497 -0.000948 -0.003336
# 2 -0.003698 0.011533 -0.000361 -0.005280 0.000901 0.000347
# 3 -0.000358 -0.000361 0.023999 -0.014621 0.001721 -0.009090
# 4 -0.003497 -0.005280 -0.014621 0.037083 -0.002700 0.014335
# 5 -0.000948 0.000901 0.001721 -0.002700 0.026307 -0.003319
# 6 -0.003336 0.000347 -0.009090 0.014335 -0.003319 0.033430
#
#
# Mechanical properties :
#
#
# Convention : Reuss Voigt Hill
#
# Bulk Modulus (GPa) = 28.55365 66.81813 47.68589
# Shear Modulus (GPa) = 31.02062 41.35818 36.18940
#
# Velocity S-wave (km/s) = 3.68615 4.25626 3.98143
# Velocity P-wave (km/s) = 5.53390 7.30905 6.48253
#
# Compressibility (1/GPa) = 0.03502179
#
# Stress axis : x y z
#
# Youngs Moduli (GPa) = 120.13569 86.70644 41.66905
#
# Poissons Ratio (x) = 0.32068 0.01492
# Poissons Ratio (y) = 0.44432 0.01502
# Poissons Ratio (z) = 0.04300 0.03126
#
# Static dielectric constant tensor:
#      x y z
#    x 1.844310 0.021770 -0.023040 
#    y 0.021770 1.891140 -0.061340 
#    z -0.023040 -0.061340 1.951890 
# 
# From -- ./inp_files/589698.got.cif
#   From: 2010.05.17/outbox.cif.g08.bks.cpg/sg2_295_cif.got.tgz:589698.got - 2010.06.03 11:33:40.
