data_PCOD9051388
_publ_section_title
;
Structure prediction by ZEFSAII (Michael W. Deem and Ramdas Pophale) SiO2 
 PCOD9051388
Probable space group: P -1
;
_chemical_formula_sum "Si O2"
_cell_formula_units_Z 16
_cell_length_a 15.866898
_cell_length_b 9.181106
_cell_length_c 8.871606
_cell_angle_alpha 130.604952
_cell_angle_beta 68.676835
_cell_angle_gamma 76.070995
_cell_volume 674.389869
_symmetry_space_group_name_H-M "P -1"
_symmetry_group_IT_number 2
_symmetry_cell_setting 'triclinic'
loop_
_space_group_symop_operation_xyz
x,y,z
-x,-y,-z
loop_
_atom_site_type_symbol
_atom_site_label
_atom_site_fract_x
_atom_site_fract_y
_atom_site_fract_z
Si Si1 0.415994 0.514117 0.412940
Si Si2 0.867491 0.679506 0.509549
Si Si3 0.375240 0.964093 0.907546
Si Si4 0.196401 0.189431 0.679952
Si Si5 0.359451 0.232231 0.799613
Si Si6 0.391964 0.623656 0.035415
Si Si7 0.165190 0.876405 0.690261
Si Si8 0.017990 0.164715 0.269886
O O1 0.360787 0.769671 0.716314
O O2 0.481880 0.243147 0.271777
O O3 0.534684 0.438900 0.206331
O O4 0.308222 0.616216 0.436698
O O5 0.885090 0.624213 0.282085
O O6 0.943969 0.421251 0.386730
O O7 0.917333 0.815996 0.623467
O O8 0.727267 0.857129 0.778472
O O9 0.350863 0.145517 0.909950
O O10 0.267663 0.256577 0.762618
O O11 0.153288 0.105091 0.781651
O O12 0.290869 0.920648 0.344868
O O13 0.338980 0.487572 0.982046
O O14 0.500000 0.000000 0.500000
O O15 0.500000 0.500000 0.000000
O O16 0.080989 0.853563 0.634126
O O17 0.114974 0.937852 0.935794
#
# Coordination Sequence:
#
# PCOD9051388 Si02
#       8
#     2   2   2   2   2   2   2   2
#     4  11  21  39  68 100 139 175 214 275 341 403
#     4  11  24  46  68  98 131 175 231 283 331 402
#     4  11  22  39  68  99 137 179 216 274 343 403
#     4  12  25  44  68 102 136 175 225 281 338 403
#     4  12  23  41  63  98 146 180 214 266 339 409
#     4  12  22  41  67 102 142 178 215 272 340 413
#     4  11  22  46  69  97 133 180 224 280 339 394
#     4  10  25  46  69  91 133 179 232 279 330 396
#
# _framework density 23.725148999999998
#
# number of rings (size 3 to 8) (size 9 to 14) (size 15 to 20)
#    0.000    0.750    7.500    0.000    1.750    2.000 
#    4.500    1.875    0.000    0.000    0.000    0.000 
#    0.000    0.000    0.000    0.000    0.000    0.000 
#
# Total GULP energy -89480.849549 kJ/mol
# GULP energy per Si atom -5592.553097 kJ/mol
# Density = 2.367115 g / cm^3
# Si number density = 23.725149 Si / 1000 Ang^3
#
#
#
# Elastic Constant Matrix: (Units=GPa)
#
#
# Indices 1 2 3 4 5 6 
#
# 1 158.1285 56.4485 20.7063 -5.4292 9.0011 15.5870
# 2 56.4485 79.8834 14.6656 -14.0317 10.5394 -13.0079
# 3 20.7063 14.6656 56.8113 2.3596 -4.6471 3.1924
# 4 -5.4292 -14.0317 2.3596 33.9456 -1.9393 -1.1931
# 5 9.0011 10.5394 -4.6471 -1.9393 35.8627 7.4479
# 6 15.5870 -13.0079 3.1924 -1.1931 7.4479 30.0009
#
#
#
# Elastic Compliance Matrix: (Units=1/GPa)
#
#
# Indices 1 2 3 4 5 6 
#
# 1 0.010777 -0.010001 -0.000463 -0.002622 0.002222 -0.010542
# 2 -0.010001 0.027028 -0.005703 0.010122 -0.009855 0.020371
# 3 -0.000463 -0.005703 0.020172 -0.003730 0.005424 -0.005874
# 4 -0.002622 0.010122 -0.003730 0.033616 -0.002674 0.008149
# 5 0.002222 -0.009855 0.005424 -0.002674 0.033792 -0.014500
# 6 -0.010542 0.020371 -0.005874 0.008149 -0.014500 0.052191
#
#
# Mechanical properties :
#
#
# Convention : Reuss Voigt Hill
#
# Bulk Modulus (GPa) = 38.99861 53.16268 46.08064
# Shear Modulus (GPa) = 22.88761 33.49537 28.19149
#
# Velocity S-wave (km/s) = 3.10933 3.76148 3.45084
# Velocity P-wave (km/s) = 5.41885 6.42817 5.94497
#
# Compressibility (1/GPa) = 0.02564194
#
# Stress axis : x y z
#
# Youngs Moduli (GPa) = 92.78637 36.99932 49.57372
#
# Poissons Ratio (x) = 0.37003 0.02297
# Poissons Ratio (y) = 0.92795 0.28273
# Poissons Ratio (z) = 0.04300 0.21101
#
# Static dielectric constant tensor:
#      x y z
#    x 1.910900 -0.024270 0.005770 
#    y -0.024270 1.954710 -0.030700 
#    z 0.005770 -0.030700 1.906950 
# 
# From -- ./inp_files/246003.got.cif
#   From: 2010.05.17/outbox.cif.g08.bks.cpg/sg2_124_cif.got.tgz:246003.got - 2010.06.03 11:33:40.
