data_PCOD9051797
_publ_section_title
;
Structure prediction by ZEFSAII (Michael W. Deem and Ramdas Pophale) SiO2 
 PCOD9051797
Probable space group: P -1
;
_chemical_formula_sum "Si O2"
_cell_formula_units_Z 12
_cell_length_a 13.049327
_cell_length_b 12.550686
_cell_length_c 7.946708
_cell_angle_alpha 70.197790
_cell_angle_beta 106.820798
_cell_angle_gamma 157.520904
_cell_volume 467.183401
_symmetry_space_group_name_H-M "P -1"
_symmetry_group_IT_number 2
_symmetry_cell_setting 'triclinic'
loop_
_space_group_symop_operation_xyz
x,y,z
-x,-y,-z
loop_
_atom_site_type_symbol
_atom_site_label
_atom_site_fract_x
_atom_site_fract_y
_atom_site_fract_z
Si Si1 0.262653 0.727549 0.910810
Si Si2 0.477091 0.739321 0.177055
Si Si3 0.785835 0.760440 0.670763
Si Si4 0.421813 0.032960 0.555429
Si Si5 0.540894 0.373151 0.236253
Si Si6 0.084101 0.931475 0.000622
O O1 0.208544 0.751353 0.708481
O O2 0.328715 0.658772 0.993061
O O3 0.000000 0.500000 0.000000
O O4 0.500000 0.000000 0.000000
O O5 0.353269 0.496255 0.281971
O O6 0.445175 0.776319 0.318703
O O7 0.785287 0.025673 0.104428
O O8 0.555167 0.629741 0.666495
O O9 0.000000 0.000000 0.500000
O O10 0.959039 0.910030 0.842615
O O11 0.425423 0.139994 0.370298
O O12 0.500000 0.000000 0.500000
O O13 0.853206 0.673284 0.165971
O O14 0.358340 0.228461 0.067390
#
# Coordination Sequence:
#
# PCOD9051797 Si02
#       6
#     2   2   2   2   2   2
#     4  10  25  47  79 108 154 207 261 322 392 471
#     4  11  27  51  82 116 162 213 270 330 408 473
#     4  12  29  49  85 119 162 210 268 338 402 483
#     4  11  27  50  77 119 158 208 270 328 396 479
#     4  12  29  50  81 120 165 209 268 328 407 478
#     4  12  27  52  79 117 162 212 262 331 404 481
#
# _framework density 25.685845
#
# number of rings (size 3 to 8) (size 9 to 14) (size 15 to 20)
#    0.000    0.667    1.667    3.000   11.667    2.667 
#    0.000    5.000    0.000    0.000    0.000    0.000 
#    0.000    0.000    0.000    0.000    0.000    0.000 
#
# Total GULP energy -66816.665412 kJ/mol
# GULP energy per Si atom -5568.055451 kJ/mol
# Density = 2.562738 g / cm^3
# Si number density = 25.685845 Si / 1000 Ang^3
#
#
#
# Elastic Constant Matrix: (Units=GPa)
#
#
# Indices 1 2 3 4 5 6 
#
# 1 186.0263 58.3348 47.4261 -36.1432 3.5575 -17.9020
# 2 58.3348 100.1813 33.9685 -22.3855 -17.8667 19.7906
# 3 47.4261 33.9685 175.1054 -49.6301 1.9029 6.5874
# 4 -36.1432 -22.3855 -49.6301 52.5746 4.8013 -10.6193
# 5 3.5575 -17.8667 1.9029 4.8013 55.6251 -1.1378
# 6 -17.9020 19.7906 6.5874 -10.6193 -1.1378 56.6879
#
#
#
# Elastic Compliance Matrix: (Units=1/GPa)
#
#
# Indices 1 2 3 4 5 6 
#
# 1 0.008640 -0.005468 -0.000070 0.004897 -0.002617 0.005511
# 2 -0.005468 0.015969 -0.001492 -0.000291 0.005411 -0.007075
# 3 -0.000070 -0.001492 0.008045 0.007214 -0.001355 0.000888
# 4 0.004897 -0.000291 0.007214 0.030674 -0.003168 0.006492
# 5 -0.002617 0.005411 -0.001355 -0.003168 0.020146 -0.002747
# 6 0.005511 -0.007075 0.000888 0.006492 -0.002747 0.022908
#
#
# Mechanical properties :
#
#
# Convention : Reuss Voigt Hill
#
# Bulk Modulus (GPa) = 53.78120 82.30795 68.04458
# Shear Modulus (GPa) = 39.48122 54.41643 46.94883
#
# Velocity S-wave (km/s) = 3.92482 4.60775 4.27993
# Velocity P-wave (km/s) = 6.44379 7.77317 7.13949
#
# Compressibility (1/GPa) = 0.01859386
#
# Stress axis : x y z
#
# Youngs Moduli (GPa) = 115.74025 62.62007 124.29526
#
# Poissons Ratio (x) = 0.34242 0.00872
# Poissons Ratio (y) = 0.63289 0.18546
# Poissons Ratio (z) = 0.00812 0.09343
#
# Static dielectric constant tensor:
#      x y z
#    x 2.212030 -0.111390 0.041300 
#    y -0.111390 2.040980 -0.024930 
#    z 0.041300 -0.024930 1.789480 
# 
# From -- ./inp_files/247829.got.cif
#   From: 2010.05.17/outbox.cif.g08.bks.cpg/sg2_124_cif.got.tgz:247829.got - 2010.06.03 11:33:40.
