data_PCOD9051522
_publ_section_title
;
Structure prediction by ZEFSAII (Michael W. Deem and Ramdas Pophale) SiO2 
 PCOD9051522
Probable space group: P -1
;
_chemical_formula_sum "Si O2"
_cell_formula_units_Z 14
_cell_length_a 6.245927
_cell_length_b 14.349135
_cell_length_c 12.787261
_cell_angle_alpha 62.815204
_cell_angle_beta 131.554840
_cell_angle_gamma 110.276745
_cell_volume 761.242684
_symmetry_space_group_name_H-M "P -1"
_symmetry_group_IT_number 2
_symmetry_cell_setting 'triclinic'
loop_
_space_group_symop_operation_xyz
x,y,z
-x,-y,-z
loop_
_atom_site_type_symbol
_atom_site_label
_atom_site_fract_x
_atom_site_fract_y
_atom_site_fract_z
Si Si1 0.013655 0.858382 0.144984
Si Si2 0.403567 0.542476 0.697079
Si Si3 0.526911 0.621688 0.911876
Si Si4 0.134301 0.628347 0.360640
Si Si5 0.814079 0.057026 0.061832
Si Si6 0.375522 0.776608 0.955643
Si Si7 0.199352 0.617776 0.150096
O O1 0.087322 0.752307 0.281002
O O2 0.027163 0.963754 0.164993
O O3 0.684445 0.836866 0.013086
O O4 0.178778 0.881789 0.078094
O O5 0.418109 0.621404 0.758359
O O6 0.322452 0.595475 0.535535
O O7 0.709367 0.491190 0.813265
O O8 0.158285 0.448177 0.688427
O O9 0.354611 0.696444 0.892951
O O10 0.500000 0.500000 0.000000
O O11 0.869581 0.645626 0.018985
O O12 0.267893 0.611392 0.298137
O O13 0.847809 0.137542 0.128785
O O14 0.500000 0.000000 0.000000
O O15 0.378349 0.705043 0.096876
#
# Coordination Sequence:
#
# PCOD9051522 Si02
#       7
#     2   2   2   2   2   2   2
#     4  10  17  35  53  82 108 136 177 227 275 317
#     4  11  24  35  51  81 114 151 180 217 268 325
#     4  12  21  34  52  77 111 147 187 224 262 316
#     4  11  21  37  54  79 115 143 180 224 269 327
#     4   9  19  30  55  82 106 134 178 228 274 315
#     4  11  19  32  53  80 108 137 176 229 271 311
#     4  12  19  35  55  74 109 146 186 222 264 316
#
# _framework density 18.390982000000001
#
# number of rings (size 3 to 8) (size 9 to 14) (size 15 to 20)
#    0.000    1.143    7.143    0.857    0.000    0.000 
#    0.000    0.000    0.000    0.857    0.000   14.000 
#    0.000    0.000    0.000    0.000    0.000    0.000 
#
# Total GULP energy -77990.755009 kJ/mol
# GULP energy per Si atom -5570.768215 kJ/mol
# Density = 1.834912 g / cm^3
# Si number density = 18.390982 Si / 1000 Ang^3
#
#
#
# Elastic Constant Matrix: (Units=GPa)
#
#
# Indices 1 2 3 4 5 6 
#
# 1 102.4629 50.5954 35.2157 -0.0132 -22.6445 -19.9520
# 2 50.5954 101.3850 32.5850 -10.3812 -13.1666 -38.8493
# 3 35.2157 32.5850 65.2378 0.4182 -23.1626 -6.2855
# 4 -0.0132 -10.3812 0.4182 23.9657 -3.9147 -3.7719
# 5 -22.6445 -13.1666 -23.1626 -3.9147 25.5041 -3.6907
# 6 -19.9520 -38.8493 -6.2855 -3.7719 -3.6907 55.7642
#
#
#
# Elastic Compliance Matrix: (Units=1/GPa)
#
#
# Indices 1 2 3 4 5 6 
#
# 1 0.015546 -0.004758 -0.002365 -0.000037 0.009571 0.002612
# 2 -0.004758 0.021020 -0.004359 0.012410 0.006559 0.013724
# 3 -0.002365 -0.004359 0.025569 0.000824 0.019043 0.000315
# 4 -0.000037 0.012410 0.000824 0.051974 0.017035 0.013369
# 5 0.009571 0.006559 0.019043 0.017035 0.073339 0.016147
# 6 0.002612 0.013724 0.000315 0.013369 0.016147 0.030437
#
#
# Mechanical properties :
#
#
# Convention : Reuss Voigt Hill
#
# Bulk Modulus (GPa) = 25.52972 56.20865 40.86919
# Shear Modulus (GPa) = 19.69227 31.09277 25.39252
#
# Velocity S-wave (km/s) = 3.27579 4.11622 3.71981
# Velocity P-wave (km/s) = 5.31221 7.29524 6.38122
#
# Compressibility (1/GPa) = 0.03917003
#
# Stress axis : x y z
#
# Youngs Moduli (GPa) = 64.32687 47.57315 39.10989
#
# Poissons Ratio (x) = 0.22634 0.09251
# Poissons Ratio (y) = 0.30605 0.17049
# Poissons Ratio (z) = 0.15215 0.20739
#
# Static dielectric constant tensor:
#      x y z
#    x 1.690300 -0.030300 0.008090 
#    y -0.030300 1.716950 -0.008250 
#    z 0.008090 -0.008250 1.600900 
# 
# From -- ./inp_files/36255.got.cif
#   From: 2010.05.17/outbox.cif.g08.bks.cpg/sg2_19_cif.got.tgz:36255.got - 2010.06.03 11:33:40.
