data_PCOD9051029
_publ_section_title
;
Structure prediction by ZEFSAII (Michael W. Deem and Ramdas Pophale) SiO2 
 PCOD9051029
Probable space group: P -1
;
_chemical_formula_sum "Si O2"
_cell_formula_units_Z 16
_cell_length_a 22.763030
_cell_length_b 25.272986
_cell_length_c 14.164466
_cell_angle_alpha 153.192318
_cell_angle_beta 153.575767
_cell_angle_gamma 10.504236
_cell_volume 653.816185
_symmetry_space_group_name_H-M "P -1"
_symmetry_group_IT_number 2
_symmetry_cell_setting 'triclinic'
loop_
_space_group_symop_operation_xyz
x,y,z
-x,-y,-z
loop_
_atom_site_type_symbol
_atom_site_label
_atom_site_fract_x
_atom_site_fract_y
_atom_site_fract_z
Si Si1 0.344380 0.748494 0.201692
Si Si2 0.531575 0.784960 0.654467
Si Si3 0.266646 0.173928 0.734955
Si Si4 0.839131 0.026396 0.026350
Si Si5 0.428348 0.359348 0.134924
Si Si6 0.259278 0.236044 0.614458
Si Si7 0.724048 0.016142 0.188481
Si Si8 0.658996 0.602771 0.254644
O O1 0.570058 0.626576 0.410272
O O2 0.374310 0.804221 0.241380
O O3 0.500000 0.500000 0.000000
O O4 0.998345 0.001690 0.155519
O O5 0.343657 0.922187 0.700039
O O6 0.904694 0.526404 0.793547
O O7 0.331043 0.024129 0.669659
O O8 0.268025 0.149351 0.584623
O O9 0.559765 0.026192 0.939286
O O10 0.724981 0.158440 0.175209
O O11 0.516774 0.243648 0.853196
O O12 0.097260 0.708949 0.897365
O O13 0.337489 0.301891 0.872590
O O14 0.537768 0.259617 0.241769
O O15 0.105170 0.700832 0.207764
O O16 0.893894 0.515040 0.490095
O O17 0.500000 0.000000 0.500000
#
# Coordination Sequence:
#
# PCOD9051029 Si02
#       8
#     2   2   2   2   2   2   2   2
#     4  10  25  45  67  99 131 171 225 274 318 384
#     4  12  24  44  71  93 132 174 222 272 329 379
#     4  11  24  41  66 100 134 171 216 267 330 397
#     4  11  24  42  63  91 130 179 212 270 316 385
#     4  11  24  42  63  96 138 170 216 268 330 389
#     4  11  23  40  64 103 137 172 209 266 332 408
#     4  11  24  43  66  99 130 172 219 274 326 393
#     4  11  23  40  64  93 132 168 220 259 330 384
#
# _framework density 24.471708
#
# number of rings (size 3 to 8) (size 9 to 14) (size 15 to 20)
#    0.000    1.000    2.500    4.125    3.500    3.500 
#    0.000    1.250    0.000    0.000    0.000    0.000 
#    0.000    0.000    0.000    0.000    0.000    0.000 
#
# Total GULP energy -89550.409354 kJ/mol
# GULP energy per Si atom -5596.900585 kJ/mol
# Density = 2.441601 g / cm^3
# Si number density = 24.471708 Si / 1000 Ang^3
#
#
#
# Elastic Constant Matrix: (Units=GPa)
#
#
# Indices 1 2 3 4 5 6 
#
# 1 144.2205 37.2747 16.4054 -11.4383 -24.0005 -15.3453
# 2 37.2747 94.1570 -6.0521 -6.5806 1.1815 2.0340
# 3 16.4054 -6.0521 20.8898 1.1223 -13.0902 2.2153
# 4 -11.4383 -6.5806 1.1223 19.1098 -3.5699 -5.9510
# 5 -24.0005 1.1815 -13.0902 -3.5699 31.0696 -2.1510
# 6 -15.3453 2.0340 2.2153 -5.9510 -2.1510 43.4277
#
#
#
# Elastic Compliance Matrix: (Units=1/GPa)
#
#
# Indices 1 2 3 4 5 6 
#
# 1 0.011577 -0.004609 -0.006712 0.009148 0.007777 0.006288
# 2 -0.004609 0.012973 0.006802 0.000244 -0.001341 -0.002616
# 3 -0.006712 0.006802 0.070642 -0.003152 0.023572 -0.005558
# 4 0.009148 0.000244 -0.003152 0.064733 0.014063 0.012949
# 5 0.007777 -0.001341 0.023572 0.014063 0.050208 0.006022
# 6 0.006288 -0.002616 -0.005558 0.012949 0.006022 0.027727
#
#
# Mechanical properties :
#
#
# Convention : Reuss Voigt Hill
#
# Bulk Modulus (GPa) = 11.60712 39.39149 25.49930
# Shear Modulus (GPa) = 18.14111 32.83071 25.48591
#
# Velocity S-wave (km/s) = 2.72565 3.66673 3.23064
# Velocity P-wave (km/s) = 3.82870 5.83594 4.93544
#
# Compressibility (1/GPa) = 0.08615400
#
# Stress axis : x y z
#
# Youngs Moduli (GPa) = 86.37658 77.08533 14.15582
#
# Poissons Ratio (x) = 0.35526 0.09502
# Poissons Ratio (y) = 0.39808 -0.09629
# Poissons Ratio (z) = 0.57979 -0.52433
#
# Static dielectric constant tensor:
#      x y z
#    x 1.946960 -0.015730 0.049090 
#    y -0.015730 1.935940 0.011630 
#    z 0.049090 0.011630 1.995390 
# 
# From -- ./inp_files/543443.got.cif
#   From: 2010.05.17/outbox.cif.g08.bks.cpg/sg2_272_cif.got.tgz:543443.got - 2010.06.03 11:33:40.
