data_PCOD9051916
_publ_section_title
;
Structure prediction by ZEFSAII (Michael W. Deem and Ramdas Pophale) SiO2 
 PCOD9051916
Probable space group: P -1
;
_chemical_formula_sum "Si O2"
_cell_formula_units_Z 10
_cell_length_a 8.923980
_cell_length_b 14.091288
_cell_length_c 13.397580
_cell_angle_alpha 20.757632
_cell_angle_beta 129.156926
_cell_angle_gamma 137.377134
_cell_volume 392.927582
_symmetry_space_group_name_H-M "P -1"
_symmetry_group_IT_number 2
_symmetry_cell_setting 'triclinic'
loop_
_space_group_symop_operation_xyz
x,y,z
-x,-y,-z
loop_
_atom_site_type_symbol
_atom_site_label
_atom_site_fract_x
_atom_site_fract_y
_atom_site_fract_z
Si Si1 0.792919 0.795210 0.187992
Si Si2 0.835290 0.120125 0.287121
Si Si3 0.662940 0.620025 0.549218
Si Si4 0.460827 0.721092 0.689703
Si Si5 0.931726 0.407584 0.750882
O O1 0.529356 0.630290 0.206302
O O2 0.839574 0.525445 0.506577
O O3 0.827248 0.040034 0.049284
O O4 0.000000 0.000000 0.000000
O O5 0.747653 0.960753 0.297005
O O6 0.625777 0.912123 0.478662
O O7 0.000000 0.000000 0.500000
O O8 0.000000 0.500000 0.000000
O O9 0.500000 0.500000 0.500000
O O10 0.858575 0.548107 0.674591
O O11 0.197875 0.544299 0.722392
O O12 0.500000 0.000000 0.500000
O O13 0.500000 0.500000 0.000000
#
# Coordination Sequence:
#
# PCOD9051916 Si02
#       5
#     2   2   2   2   2
#     4  11  23  42  71 108 146 192 247 314 385 460
#     4  12  28  49  76 111 152 202 260 322 389 465
#     4  10  25  48  75 109 151 197 250 316 390 466
#     4  12  26  47  73 106 150 205 259 317 386 465
#     4  11  24  44  70 104 145 194 250 317 384 456
#
# _framework density 25.449981000000001
#
# number of rings (size 3 to 8) (size 9 to 14) (size 15 to 20)
#    0.000    0.800    0.000    6.000    0.000   14.400 
#    0.000    0.000    0.000    0.000    0.000    0.000 
#    0.000    0.000    0.000    0.000    0.000    0.000 
#
# Total GULP energy -55774.402991 kJ/mol
# GULP energy per Si atom -5577.440299 kJ/mol
# Density = 2.539206 g / cm^3
# Si number density = 25.449981 Si / 1000 Ang^3
#
#
#
# Elastic Constant Matrix: (Units=GPa)
#
#
# Indices 1 2 3 4 5 6 
#
# 1 203.2487 62.4924 75.6633 -22.3362 -8.5706 4.2444
# 2 62.4924 99.1727 63.3309 -34.7038 0.6817 -3.3976
# 3 75.6633 63.3309 187.1885 -41.9964 21.9610 -0.4721
# 4 -22.3362 -34.7038 -41.9964 59.0088 2.7982 2.1438
# 5 -8.5706 0.6817 21.9610 2.7982 46.9315 -11.6282
# 6 4.2444 -3.3976 -0.4721 2.1438 -11.6282 68.0477
#
#
#
# Elastic Compliance Matrix: (Units=1/GPa)
#
#
# Indices 1 2 3 4 5 6 
#
# 1 0.006686 -0.003237 -0.002088 -0.000960 0.002259 -0.000177
# 2 -0.003237 0.016101 -0.002778 0.006221 0.000313 0.000844
# 3 -0.002088 -0.002778 0.008571 0.003936 -0.004808 -0.000895
# 4 -0.000960 0.006221 0.003936 0.023256 -0.003735 -0.000973
# 5 0.002259 0.000313 -0.004808 -0.003735 0.025247 0.004273
# 6 -0.000177 0.000844 -0.000895 -0.000973 0.004273 0.015503
#
#
# Mechanical properties :
#
#
# Convention : Reuss Voigt Hill
#
# Bulk Modulus (GPa) = 65.99711 99.17589 82.58650
# Shear Modulus (GPa) = 42.87370 54.00581 48.43975
#
# Velocity S-wave (km/s) = 4.10887 4.61155 4.36745
# Velocity P-wave (km/s) = 6.96411 8.21029 7.61274
#
# Compressibility (1/GPa) = 0.01515218
#
# Stress axis : x y z
#
# Youngs Moduli (GPa) = 149.56111 62.10812 116.67264
#
# Poissons Ratio (x) = 0.20106 0.24363
# Poissons Ratio (y) = 0.48416 0.32408
# Poissons Ratio (z) = 0.31230 0.17251
#
# Static dielectric constant tensor:
#      x y z
#    x 2.828790 -1.150190 -0.643180 
#    y -1.150190 3.684520 0.757070 
#    z -0.643180 0.757070 2.399480 
# 
# From -- ./inp_files/185591.got.cif
#   From: 2010.05.17/outbox.cif.g08.bks.cpg/sg2_93_cif.got.tgz:185591.got - 2010.06.03 11:33:40.
