data_PCOD9051207
_publ_section_title
;
Structure prediction by ZEFSAII (Michael W. Deem and Ramdas Pophale) SiO2 
 PCOD9051207
Probable space group: P -1
;
_chemical_formula_sum "Si O2"
_cell_formula_units_Z 13
_cell_length_a 15.155606
_cell_length_b 12.789572
_cell_length_c 9.224417
_cell_angle_alpha 29.439769
_cell_angle_beta 131.818221
_cell_angle_gamma 139.208008
_cell_volume 573.990786
_symmetry_space_group_name_H-M "P -1"
_symmetry_group_IT_number 2
_symmetry_cell_setting 'triclinic'
loop_
_space_group_symop_operation_xyz
x,y,z
-x,-y,-z
loop_
_atom_site_type_symbol
_atom_site_label
_atom_site_fract_x
_atom_site_fract_y
_atom_site_fract_z
Si Si1 0.500000 0.500000 0.500000
Si Si2 0.617565 0.963147 0.601766
Si Si3 0.500085 0.826192 0.339594
Si Si4 0.809699 0.865245 0.304658
Si Si5 0.137331 0.541529 0.670362
Si Si6 0.019396 0.340093 0.091253
Si Si7 0.274538 0.379081 0.783268
O O1 0.537362 0.639859 0.527630
O O2 0.650878 0.704427 0.355947
O O3 0.600924 0.979227 0.391868
O O4 0.500000 0.000000 0.500000
O O5 0.753555 0.178516 0.551873
O O6 0.622306 0.718510 0.939486
O O7 0.357619 0.647669 0.477560
O O8 0.500000 0.000000 0.000000
O O9 0.896680 0.769917 0.603608
O O10 0.821911 0.808035 0.218575
O O11 0.877325 0.140651 0.104432
O O12 0.196210 0.396934 0.816179
O O13 0.000000 0.500000 0.500000
O O14 0.109207 0.475248 0.887710
O O15 0.000000 0.500000 0.000000
#
# Coordination Sequence:
#
# PCOD9051207 Si02
#       7
#     1   2   2   2   2   2   2
#     4  10  26  42  74 106 152 184 244 306 386 424
#     4  12  28  47  77 110 151 199 255 312 380 453
#     4  11  27  44  76 111 150 190 253 314 380 447
#     4  10  25  45  72 104 145 192 250 304 377 441
#     4  12  28  46  75 107 151 200 255 306 388 449
#     4  11  26  46  72 104 148 192 252 308 372 450
#     4  11  26  49  75 105 156 196 252 313 379 444
#
# _framework density 22.648447999999998
#
# number of rings (size 3 to 8) (size 9 to 14) (size 15 to 20)
#    0.000    0.923    1.538    2.308   12.923    4.923 
#    0.000    0.000    0.000    0.000    0.000    0.000 
#    0.000    0.000    0.000    0.000    0.000    0.000 
#
# Total GULP energy -72397.957728 kJ/mol
# GULP energy per Si atom -5569.073671 kJ/mol
# Density = 2.259690 g / cm^3
# Si number density = 22.648448 Si / 1000 Ang^3
#
#
#
# Elastic Constant Matrix: (Units=GPa)
#
#
# Indices 1 2 3 4 5 6 
#
# 1 149.9739 40.7858 46.5362 -14.2562 -7.5216 -30.5762
# 2 40.7858 156.4463 42.7039 -21.5928 -5.2505 -14.8235
# 3 46.5362 42.7039 106.6561 13.2664 -4.5078 0.4819
# 4 -14.2562 -21.5928 13.2664 40.0864 -5.0591 -6.7410
# 5 -7.5216 -5.2505 -4.5078 -5.0591 21.4122 5.2525
# 6 -30.5762 -14.8235 0.4819 -6.7410 5.2525 50.7268
#
#
#
# Elastic Compliance Matrix: (Units=1/GPa)
#
#
# Indices 1 2 3 4 5 6 
#
# 1 0.010653 0.000643 -0.005775 0.007627 0.002671 0.007401
# 2 0.000643 0.009009 -0.004752 0.007588 0.002286 0.003837
# 3 -0.005775 -0.004752 0.015129 -0.010815 -0.001007 -0.006346
# 4 0.007627 0.007588 -0.010815 0.038277 0.008580 0.011116
# 5 0.002671 0.002286 -0.001007 0.008580 0.050457 -0.001797
# 6 0.007401 0.003837 -0.006346 0.011116 -0.001797 0.027019
#
#
# Mechanical properties :
#
#
# Convention : Reuss Voigt Hill
#
# Bulk Modulus (GPa) = 66.56344 74.79202 70.67773
# Shear Modulus (GPa) = 28.51925 41.31511 34.91718
#
# Velocity S-wave (km/s) = 3.55239 4.27569 3.93071
# Velocity P-wave (km/s) = 6.80291 7.58090 7.20242
#
# Compressibility (1/GPa) = 0.01502326
#
# Stress axis : x y z
#
# Youngs Moduli (GPa) = 93.87295 110.99908 66.09624
#
# Poissons Ratio (x) = -0.07133 0.38168
# Poissons Ratio (y) = -0.06033 0.31409
# Poissons Ratio (z) = 0.54208 0.52747
#
# Static dielectric constant tensor:
#      x y z
#    x 1.860240 0.005310 -0.004310 
#    y 0.005310 1.831690 -0.035410 
#    z -0.004310 -0.035410 1.900520 
# 
# From -- ./inp_files/282663.got.cif
#   From: 2010.05.17/outbox.cif.g08.bks.cpg/sg2_142_cif.got.tgz:282663.got - 2010.06.03 11:33:40.
