data_PCOD9051410
_publ_section_title
;
Structure prediction by ZEFSAII (Michael W. Deem and Ramdas Pophale) SiO2 
 PCOD9051410
Probable space group: P -1
;
_chemical_formula_sum "Si O2"
_cell_formula_units_Z 15
_cell_length_a 11.848762
_cell_length_b 12.649803
_cell_length_c 10.138697
_cell_angle_alpha 130.453611
_cell_angle_beta 97.009634
_cell_angle_gamma 43.027976
_cell_volume 579.653591
_symmetry_space_group_name_H-M "P -1"
_symmetry_group_IT_number 2
_symmetry_cell_setting 'triclinic'
loop_
_space_group_symop_operation_xyz
x,y,z
-x,-y,-z
loop_
_atom_site_type_symbol
_atom_site_label
_atom_site_fract_x
_atom_site_fract_y
_atom_site_fract_z
Si Si1 0.197089 0.020475 0.227010
Si Si2 0.270652 0.193634 0.690747
Si Si3 0.107276 0.829149 0.013978
Si Si4 0.403368 0.765452 0.488850
Si Si5 0.862558 0.565197 0.738223
Si Si6 0.000000 0.000000 0.500000
Si Si7 0.679762 0.598716 0.967296
Si Si8 0.271212 0.977510 0.908193
O O1 0.986227 0.349089 0.463423
O O2 0.289371 0.901136 0.996206
O O3 0.110358 0.961701 0.219231
O O4 0.427104 0.832976 0.172641
O O5 0.080393 0.362028 0.695012
O O6 0.500000 0.000000 0.500000
O O7 0.320965 0.005506 0.631627
O O8 0.213260 0.385815 0.927033
O O9 0.361487 0.515752 0.774749
O O10 0.960023 0.849028 0.039300
O O11 0.000000 0.000000 0.000000
O O12 0.219795 0.849988 0.481653
O O13 0.443040 0.738070 0.630564
O O14 0.694731 0.639919 0.851921
O O15 0.751529 0.832686 0.924236
O O16 0.164793 0.696916 0.240954
#
# Coordination Sequence:
#
# PCOD9051410 Si02
#       8
#     2   2   2   2   2   1   2   2
#     4  11  26  45  69 104 142 187 237 297 345 421
#     4  12  24  46  74 101 142 185 228 297 354 424
#     4  10  25  46  70 104 143 190 237 289 351 421
#     4  12  25  48  75 107 142 190 237 292 361 419
#     4  12  24  45  71 102 143 183 239 290 356 424
#     4  12  26  44  76 106 144 188 232 292 358 426
#     4  12  25  47  69 105 143 185 234 295 361 415
#     4  11  26  46  74 102 142 190 242 288 355 425
#
# _framework density 25.877526
#
# number of rings (size 3 to 8) (size 9 to 14) (size 15 to 20)
#    0.000    0.533    5.333    2.400    1.867    4.800 
#    0.000    2.667    0.000    0.000    0.000    0.000 
#    0.000    0.000    0.000    0.000    0.000    0.000 
#
# Total GULP energy -83757.259688 kJ/mol
# GULP energy per Si atom -5583.817313 kJ/mol
# Density = 2.581863 g / cm^3
# Si number density = 25.877526 Si / 1000 Ang^3
#
#
#
# Elastic Constant Matrix: (Units=GPa)
#
#
# Indices 1 2 3 4 5 6 
#
# 1 125.6325 6.6928 21.1240 9.3470 16.1156 -15.6330
# 2 6.6928 53.8503 -7.6053 6.7395 9.7250 -6.2654
# 3 21.1240 -7.6053 107.8927 12.6991 26.4324 -12.7235
# 4 9.3470 6.7395 12.6991 41.2825 -1.6990 -0.6417
# 5 16.1156 9.7250 26.4324 -1.6990 53.0266 7.6030
# 6 -15.6330 -6.2654 -12.7235 -0.6417 7.6030 35.6441
#
#
#
# Elastic Compliance Matrix: (Units=1/GPa)
#
#
# Indices 1 2 3 4 5 6 
#
# 1 0.009168 0.000318 -0.000083 -0.002174 -0.003556 0.004766
# 2 0.000318 0.022183 0.004934 -0.005420 -0.007856 0.007378
# 3 -0.000083 0.004934 0.013222 -0.005097 -0.008682 0.007310
# 4 -0.002174 -0.005420 -0.005097 0.027334 0.005710 -0.004452
# 5 -0.003556 -0.007856 -0.008682 0.005710 0.027585 -0.011821
# 6 0.004766 0.007378 0.007310 -0.004452 -0.011821 0.036493
#
#
# Mechanical properties :
#
#
# Convention : Reuss Voigt Hill
#
# Bulk Modulus (GPa) = 18.21209 36.42206 27.31708
# Shear Modulus (GPa) = 34.73398 43.80156 39.26777
#
# Velocity S-wave (km/s) = 3.66764 4.11864 3.89967
# Velocity P-wave (km/s) = 4.99885 6.05995 5.55480
#
# Compressibility (1/GPa) = 0.05490857
#
# Stress axis : x y z
#
# Youngs Moduli (GPa) = 109.07712 45.08006 75.63420
#
# Poissons Ratio (x) = -0.01432 0.00631
# Poissons Ratio (y) = -0.03465 -0.37318
# Poissons Ratio (z) = 0.00910 -0.22242
#
# Static dielectric constant tensor:
#      x y z
#    x 2.096660 0.038160 -0.001590 
#    y 0.038160 2.095730 -0.098160 
#    z -0.001590 -0.098160 2.132640 
# 
# From -- ./inp_files/431965.got.cif
#   From: 2010.05.17/outbox.cif.g08.bks.cpg/sg2_216_cif.got.tgz:431965.got - 2010.06.03 11:33:40.
