data_PCOD9051878
_publ_section_title
;
Structure prediction by ZEFSAII (Michael W. Deem and Ramdas Pophale) SiO2 
 PCOD9051878
Probable space group: P -1
;
_chemical_formula_sum "Si O2"
_cell_formula_units_Z 12
_cell_length_a 10.974603
_cell_length_b 5.772048
_cell_length_c 11.498496
_cell_angle_alpha 110.120734
_cell_angle_beta 42.954669
_cell_angle_gamma 99.857623
_cell_volume 462.333242
_symmetry_space_group_name_H-M "P -1"
_symmetry_group_IT_number 2
_symmetry_cell_setting 'triclinic'
loop_
_space_group_symop_operation_xyz
x,y,z
-x,-y,-z
loop_
_atom_site_type_symbol
_atom_site_label
_atom_site_fract_x
_atom_site_fract_y
_atom_site_fract_z
Si Si1 0.184047 0.355714 0.898126
Si Si2 0.334892 0.523534 0.208382
Si Si3 0.131819 0.011864 0.520138
Si Si4 0.127994 0.202301 0.164177
Si Si5 0.574308 0.207034 0.151755
Si Si6 0.611896 0.731474 0.486237
O O1 0.304249 0.567775 0.891005
O O2 0.306983 0.208541 0.685607
O O3 0.123863 0.219851 0.031448
O O4 0.000000 0.500000 0.000000
O O5 0.293326 0.795874 0.337668
O O6 0.161957 0.455525 0.247371
O O7 0.395102 0.322905 0.231050
O O8 0.500000 0.500000 0.000000
O O9 0.033826 0.909337 0.682177
O O10 0.208143 0.259684 0.557552
O O11 0.000000 0.000000 0.500000
O O12 0.309597 0.016516 0.032350
O O13 0.530700 0.127324 0.299166
O O14 0.500000 0.500000 0.500000
#
# Coordination Sequence:
#
# PCOD9051878 Si02
#       6
#     2   2   2   2   2   2
#     4  11  26  45  73 107 153 198 255 307 371 457
#     4  12  24  45  76 109 152 192 255 313 378 449
#     4  12  27  46  80 114 151 199 252 318 386 446
#     4  12  26  46  76 111 155 198 248 313 386 442
#     4  11  24  47  73 107 148 198 255 311 370 450
#     4  10  25  48  73 106 153 195 254 306 371 446
#
# _framework density 25.955302
#
# number of rings (size 3 to 8) (size 9 to 14) (size 15 to 20)
#    0.000    0.667    1.667    5.000    4.667    3.333 
#    3.000    0.000    0.000    0.000    0.000    0.000 
#    0.000    0.000    0.000    0.000    0.000    0.000 
#
# Total GULP energy -67043.525022 kJ/mol
# GULP energy per Si atom -5586.960418 kJ/mol
# Density = 2.589623 g / cm^3
# Si number density = 25.955302 Si / 1000 Ang^3
#
#
#
# Elastic Constant Matrix: (Units=GPa)
#
#
# Indices 1 2 3 4 5 6 
#
# 1 161.0763 61.1485 37.3603 -15.8899 17.6554 13.0361
# 2 61.1485 62.7962 53.7003 -15.3271 18.8322 11.3647
# 3 37.3603 53.7003 178.0638 -32.2983 28.2898 -7.4246
# 4 -15.8899 -15.3271 -32.2983 59.8279 -8.2299 3.1029
# 5 17.6554 18.8322 28.2898 -8.2299 36.3226 -5.6099
# 6 13.0361 11.3647 -7.4246 3.1029 -5.6099 63.4204
#
#
#
# Elastic Compliance Matrix: (Units=1/GPa)
#
#
# Indices 1 2 3 4 5 6 
#
# 1 0.010035 -0.010605 0.001230 0.000587 -0.000215 -0.000066
# 2 -0.010605 0.036715 -0.007416 0.001712 -0.008662 -0.006118
# 3 0.001230 -0.007416 0.008543 0.002598 -0.002552 0.001723
# 4 0.000587 0.001712 0.002598 0.018890 0.000935 -0.000965
# 5 -0.000215 -0.008662 -0.002552 0.000935 0.034998 0.004348
# 6 -0.000066 -0.006118 0.001723 -0.000965 0.004348 0.017511
#
#
# Mechanical properties :
#
#
# Convention : Reuss Voigt Hill
#
# Bulk Modulus (GPa) = 46.05438 78.48382 62.26910
# Shear Modulus (GPa) = 29.84880 48.56266 39.20573
#
# Velocity S-wave (km/s) = 3.39486 4.33021 3.89074
# Velocity P-wave (km/s) = 5.75751 7.43671 6.65033
#
# Compressibility (1/GPa) = 0.02171346
#
# Stress axis : x y z
#
# Youngs Moduli (GPa) = 99.64693 27.23659 117.05630
#
# Poissons Ratio (x) = 0.28883 -0.14403
# Poissons Ratio (y) = 1.05671 0.86809
# Poissons Ratio (z) = -0.12261 0.20199
#
# Static dielectric constant tensor:
#      x y z
#    x 2.221860 0.038440 -0.060380 
#    y 0.038440 2.115940 -0.011390 
#    z -0.060380 -0.011390 2.010480 
# 
# From -- ./inp_files/410951.got.cif
#   From: 2010.05.17/outbox.cif.g08.bks.cpg/sg2_206_cif.got.tgz:410951.got - 2010.06.03 11:33:40.
