data_PCOD9051347
_publ_section_title
;
Structure prediction by ZEFSAII (Michael W. Deem and Ramdas Pophale) SiO2 
 PCOD9051347
Probable space group: P -1
;
_chemical_formula_sum "Si O2"
_cell_formula_units_Z 16
_cell_length_a 14.399742
_cell_length_b 14.501304
_cell_length_c 14.123480
_cell_angle_alpha 138.406656
_cell_angle_beta 158.913003
_cell_angle_gamma 41.082793
_cell_volume 684.772385
_symmetry_space_group_name_H-M "P -1"
_symmetry_group_IT_number 2
_symmetry_cell_setting 'triclinic'
loop_
_space_group_symop_operation_xyz
x,y,z
-x,-y,-z
loop_
_atom_site_type_symbol
_atom_site_label
_atom_site_fract_x
_atom_site_fract_y
_atom_site_fract_z
Si Si1 0.415657 0.962285 0.624681
Si Si2 0.737973 0.317128 0.784820
Si Si3 0.166463 0.669825 0.337435
Si Si4 0.706287 0.057347 0.802915
Si Si5 0.570614 0.339610 0.977863
Si Si6 0.164705 0.479465 0.352169
Si Si7 0.575881 0.853535 0.900768
Si Si8 0.061672 0.266839 0.532978
O O1 0.289751 0.845540 0.361645
O O2 0.553317 0.893126 0.798380
O O3 0.633033 0.010410 0.802388
O O4 0.178956 0.098363 0.531336
O O5 0.768596 0.344545 0.722752
O O6 0.454696 0.415744 0.620855
O O7 0.980413 0.367380 0.102283
O O8 0.190316 0.519672 0.297352
O O9 0.369538 0.753633 0.642742
O O10 0.869761 0.766442 0.137508
O O11 0.638921 0.228359 0.871394
O O12 0.500000 0.000000 0.500000
O O13 0.000000 0.000000 0.000000
O O14 0.310748 0.314627 0.762253
O O15 0.500000 0.500000 0.000000
O O16 0.820910 0.298884 0.254568
O O17 0.032888 0.631081 0.390061
O O18 0.500000 0.000000 0.000000
#
# Coordination Sequence:
#
# PCOD9051347 Si02
#       8
#     2   2   2   2   2   2   2   2
#     4  10  25  46  68 100 139 173 226 281 333 402
#     4  11  24  41  65  97 134 180 222 279 333 388
#     4  11  23  40  61  93 137 181 224 276 332 390
#     4  11  25  44  70 100 131 176 220 274 339 398
#     4  11  25  47  69  96 131 167 213 272 338 405
#     4  12  24  42  66  99 133 176 231 273 327 403
#     4  11  23  40  67 100 135 184 227 275 335 397
#     4  11  25  44  69  97 130 173 212 274 339 391
#
# _framework density 23.365428000000001
#
# number of rings (size 3 to 8) (size 9 to 14) (size 15 to 20)
#    0.000    1.000    0.000    6.750    0.000   15.000 
#    0.000    0.000    0.000    0.000    0.000    0.000 
#    0.000    0.000    0.000    0.000    0.000    0.000 
#
# Total GULP energy -89674.814286 kJ/mol
# GULP energy per Si atom -5604.675893 kJ/mol
# Density = 2.331225 g / cm^3
# Si number density = 23.365428 Si / 1000 Ang^3
#
#
#
# Elastic Constant Matrix: (Units=GPa)
#
#
# Indices 1 2 3 4 5 6 
#
# 1 48.6073 21.9927 35.0646 5.4498 8.4367 -12.1894
# 2 21.9927 132.8065 47.9049 9.6096 16.2003 -10.7530
# 3 35.0646 47.9049 165.2814 -10.1778 27.9562 -11.4282
# 4 5.4498 9.6096 -10.1778 43.1056 -3.6212 2.2095
# 5 8.4367 16.2003 27.9562 -3.6212 34.3248 -1.2105
# 6 -12.1894 -10.7530 -11.4282 2.2095 -1.2105 40.7243
#
#
#
# Elastic Compliance Matrix: (Units=1/GPa)
#
#
# Indices 1 2 3 4 5 6 
#
# 1 0.027350 -0.001647 -0.004767 -0.004750 -0.002331 0.006602
# 2 -0.001647 0.009107 -0.001917 -0.002563 -0.002552 0.001437
# 3 -0.004767 -0.001917 0.008576 0.002657 -0.004621 0.000192
# 4 -0.004750 -0.002563 0.002657 0.025369 0.002796 -0.002646
# 5 -0.002331 -0.002552 -0.004621 0.002796 0.034907 -0.001782
# 6 0.006602 0.001437 0.000192 -0.002646 -0.001782 0.027055
#
#
# Mechanical properties :
#
#
# Convention : Reuss Voigt Hill
#
# Bulk Modulus (GPa) = 35.24726 61.84662 48.54694
# Shear Modulus (GPa) = 31.54948 39.74648 35.64798
#
# Velocity S-wave (km/s) = 3.67858 4.12889 3.91022
# Velocity P-wave (km/s) = 5.75852 7.01834 6.41941
#
# Compressibility (1/GPa) = 0.02837100
#
# Stress axis : x y z
#
# Youngs Moduli (GPa) = 36.56355 109.80523 116.60914
#
# Poissons Ratio (x) = 0.18086 0.55583
# Poissons Ratio (y) = 0.06022 0.22354
# Poissons Ratio (z) = 0.17428 0.21049
#
# Static dielectric constant tensor:
#      x y z
#    x 1.915310 -0.000630 -0.015110 
#    y -0.000630 1.873230 0.025780 
#    z -0.015110 0.025780 1.837640 
# 
# From -- ./inp_files/534485.got.cif
#   From: 2010.05.17/outbox.cif.g08.bks.cpg/sg2_268_cif.got.tgz:534485.got - 2010.06.03 11:33:40.
