data_PCOD9051103
_publ_section_title
;
Structure prediction by ZEFSAII (Michael W. Deem and Ramdas Pophale) SiO2 
 PCOD9051103
Probable space group: P -1
;
_chemical_formula_sum "Si O2"
_cell_formula_units_Z 16
_cell_length_a 9.520868
_cell_length_b 15.017405
_cell_length_c 9.438609
_cell_angle_alpha 39.627182
_cell_angle_beta 67.579887
_cell_angle_gamma 78.310778
_cell_volume 786.084223
_symmetry_space_group_name_H-M "P -1"
_symmetry_group_IT_number 2
_symmetry_cell_setting 'triclinic'
loop_
_space_group_symop_operation_xyz
x,y,z
-x,-y,-z
loop_
_atom_site_type_symbol
_atom_site_label
_atom_site_fract_x
_atom_site_fract_y
_atom_site_fract_z
Si Si1 0.549769 0.377821 0.534270
Si Si2 0.597167 0.387524 0.171327
Si Si3 0.903076 0.369919 0.886655
Si Si4 0.423280 0.933433 0.470080
Si Si5 0.953230 0.064100 0.794535
Si Si6 0.136149 0.655985 0.398088
Si Si7 0.923437 0.080077 0.311310
Si Si8 0.377468 0.081617 0.021517
O O1 0.500000 0.500000 0.500000
O O2 0.596625 0.415723 0.306749
O O3 0.698695 0.335811 0.604601
O O4 0.414938 0.243481 0.761520
O O5 0.525499 0.218841 0.396322
O O6 0.500000 0.500000 0.000000
O O7 0.762630 0.398689 0.010059
O O8 0.845323 0.328146 0.799166
O O9 0.026747 0.509874 0.651184
O O10 0.994907 0.241903 0.054207
O O11 0.243687 0.894582 0.614742
O O12 0.500000 0.000000 0.500000
O O13 0.420279 0.050353 0.205448
O O14 0.939550 0.222712 0.644072
O O15 0.082346 0.027083 0.684640
O O16 0.793346 0.988658 0.875945
O O17 0.000000 0.000000 0.000000
O O18 0.000000 0.000000 0.500000
O O19 0.500000 0.000000 0.000000
#
# Coordination Sequence:
#
# PCOD9051103 Si02
#       8
#     2   2   2   2   2   2   2   2
#     4  12  28  44  72  99 139 186 231 282 353 408
#     4  11  25  47  66  99 140 177 230 288 336 417
#     4  10  25  45  69  98 140 175 230 289 338 410
#     4  11  26  43  73 101 136 185 228 285 349 403
#     4  12  25  43  72 103 135 180 230 282 345 411
#     4  11  24  46  69 100 134 183 227 284 348 410
#     4  11  24  45  66  99 139 174 225 285 338 405
#     4  12  25  47  70 101 140 177 234 291 338 416
#
# _framework density 20.354053
#
# number of rings (size 3 to 8) (size 9 to 14) (size 15 to 20)
#    0.000    0.750    5.000    0.750   10.500    2.500 
#    0.000    0.000    0.000    0.000    0.000    0.000 
#    0.000    0.000    0.000    0.000    0.000    0.000 
#
# Total GULP energy -89205.261413 kJ/mol
# GULP energy per Si atom -5575.328838 kJ/mol
# Density = 2.030773 g / cm^3
# Si number density = 20.354053 Si / 1000 Ang^3
#
#
#
# Elastic Constant Matrix: (Units=GPa)
#
#
# Indices 1 2 3 4 5 6 
#
# 1 58.7184 10.2461 27.5685 -7.7143 28.9910 8.8924
# 2 10.2461 140.4272 56.9150 -2.8526 20.3770 -8.4961
# 3 27.5685 56.9150 103.2165 -0.3956 22.2205 8.5512
# 4 -7.7143 -2.8526 -0.3956 45.0148 0.3730 10.3559
# 5 28.9910 20.3770 22.2205 0.3730 36.8307 2.7963
# 6 8.8924 -8.4961 8.5512 10.3559 2.7963 39.6940
#
#
#
# Elastic Compliance Matrix: (Units=1/GPa)
#
#
# Indices 1 2 3 4 5 6 
#
# 1 0.032251 0.002701 -0.004461 0.007211 -0.023815 -0.005890
# 2 0.002701 0.009999 -0.005492 0.000411 -0.004571 0.002933
# 3 -0.004461 -0.005492 0.014600 -0.000251 -0.002020 -0.003114
# 4 0.007211 0.000411 -0.000251 0.025288 -0.005425 -0.007689
# 5 -0.023815 -0.004571 -0.002020 -0.005425 0.049493 0.002720
# 6 -0.005890 0.002933 -0.003114 -0.007689 0.002720 0.029625
#
#
# Mechanical properties :
#
#
# Convention : Reuss Voigt Hill
#
# Bulk Modulus (GPa) = 23.61536 54.64681 39.13108
# Shear Modulus (GPa) = 26.33289 38.15007 32.24148
#
# Velocity S-wave (km/s) = 3.60076 4.33404 3.98431
# Velocity P-wave (km/s) = 5.37725 7.20775 6.35871
#
# Compressibility (1/GPa) = 0.04234532
#
# Stress axis : x y z
#
# Youngs Moduli (GPa) = 31.00693 100.00729 68.49230
#
# Poissons Ratio (x) = -0.27008 0.30552
# Poissons Ratio (y) = -0.08374 0.37619
# Poissons Ratio (z) = 0.13831 0.54928
#
# Static dielectric constant tensor:
#      x y z
#    x 1.666000 0.052620 -0.039810 
#    y 0.052620 1.678050 0.055970 
#    z -0.039810 0.055970 1.795280 
# 
# From -- ./inp_files/205088.got.cif
#   From: 2010.05.17/outbox.cif.g08.bks.cpg/sg2_103_cif.got.tgz:205088.got - 2010.06.03 11:33:40.
