data_PCOD9051445
_publ_section_title
;
Structure prediction by ZEFSAII (Michael W. Deem and Ramdas Pophale) SiO2 
 PCOD9051445
Probable space group: P -1
;
_chemical_formula_sum "Si O2"
_cell_formula_units_Z 16
_cell_length_a 14.522406
_cell_length_b 13.938062
_cell_length_c 8.527402
_cell_angle_alpha 89.765948
_cell_angle_beta 112.725193
_cell_angle_gamma 146.974912
_cell_volume 669.448451
_symmetry_space_group_name_H-M "P -1"
_symmetry_group_IT_number 2
_symmetry_cell_setting 'triclinic'
loop_
_space_group_symop_operation_xyz
x,y,z
-x,-y,-z
loop_
_atom_site_type_symbol
_atom_site_label
_atom_site_fract_x
_atom_site_fract_y
_atom_site_fract_z
Si Si1 0.585206 0.864334 0.493800
Si Si2 0.367732 0.478865 0.350059
Si Si3 0.676038 0.351969 0.220958
Si Si4 0.777833 0.347881 0.952828
Si Si5 0.838854 0.001597 0.121007
Si Si6 0.992795 0.179928 0.553162
Si Si7 0.282572 0.315088 0.975952
Si Si8 0.485650 0.050579 0.328328
O O1 0.532299 0.710271 0.504217
O O2 0.342993 0.687988 0.254132
O O3 0.664064 0.992439 0.696528
O O4 0.772253 0.044151 0.479618
O O5 0.500000 0.500000 0.500000
O O6 0.355763 0.452209 0.157237
O O7 0.093163 0.255555 0.218511
O O8 0.695337 0.290498 0.375025
O O9 0.806320 0.565344 0.347430
O O10 0.779822 0.401832 0.123222
O O11 0.394156 0.133415 0.025738
O O12 0.618420 0.112986 0.864597
O O13 0.000000 0.500000 0.000000
O O14 0.775344 0.842951 0.006343
O O15 0.909371 0.049108 0.349136
O O16 0.069623 0.174797 0.739452
O O17 0.500000 0.500000 0.000000
O O18 0.500000 0.000000 0.500000
#
# Coordination Sequence:
#
# PCOD9051445 Si02
#       8
#     2   2   2   2   2   2   2   2
#     4  11  24  46  72 109 145 194 251 307 381 444
#     4  12  27  45  73 109 154 199 250 309 370 451
#     4  12  25  46  77 109 148 194 250 311 384 452
#     4  11  24  48  73 109 145 194 251 313 379 450
#     4  12  26  44  71 110 151 195 255 302 376 451
#     4  12  24  46  74 105 152 196 247 313 371 450
#     4  12  24  44  70 105 151 200 250 301 371 441
#     4  10  25  46  71 103 146 188 245 307 379 447
#
# _framework density 23.900272000000001
#
# number of rings (size 3 to 8) (size 9 to 14) (size 15 to 20)
#    0.000    0.500    2.500    5.625    5.250    0.000 
#    0.000    5.000    0.000    0.000    0.000    0.000 
#    0.000    0.000    0.000    0.000    0.000    0.000 
#
# Total GULP energy -89349.328993 kJ/mol
# GULP energy per Si atom -5584.333062 kJ/mol
# Density = 2.384587 g / cm^3
# Si number density = 23.900272 Si / 1000 Ang^3
#
#
#
# Elastic Constant Matrix: (Units=GPa)
#
#
# Indices 1 2 3 4 5 6 
#
# 1 96.2853 22.1762 22.0254 1.8385 -4.4109 -6.2362
# 2 22.1762 89.4103 10.7209 7.7649 17.5013 -3.9314
# 3 22.0254 10.7209 57.1209 -3.9769 19.3856 2.3482
# 4 1.8385 7.7649 -3.9769 37.8218 1.7803 -3.5250
# 5 -4.4109 17.5013 19.3856 1.7803 38.3762 13.4805
# 6 -6.2362 -3.9314 2.3482 -3.5250 13.4805 51.0247
#
#
#
# Elastic Compliance Matrix: (Units=1/GPa)
#
#
# Indices 1 2 3 4 5 6 
#
# 1 0.013065 -0.003674 -0.006663 -0.000913 0.006656 -0.000201
# 2 -0.003674 0.013823 0.001385 -0.001883 -0.008253 0.002603
# 3 -0.006663 0.001385 0.025083 0.003607 -0.015067 0.002368
# 4 -0.000913 -0.001883 0.003607 0.027615 -0.003165 0.002321
# 5 0.006656 -0.008253 -0.015067 -0.003165 0.042014 -0.010448
# 6 -0.000201 0.002603 0.002368 0.002321 -0.010448 0.022586
#
#
# Mechanical properties :
#
#
# Convention : Reuss Voigt Hill
#
# Bulk Modulus (GPa) = 29.35283 39.18461 34.26872
# Shear Modulus (GPa) = 28.82741 37.97080 33.39910
#
# Velocity S-wave (km/s) = 3.47674 3.99020 3.74229
# Velocity P-wave (km/s) = 5.33151 6.13674 5.74824
#
# Compressibility (1/GPa) = 0.03406826
#
# Stress axis : x y z
#
# Youngs Moduli (GPa) = 76.53824 72.34363 39.86755
#
# Poissons Ratio (x) = 0.26579 0.26562
# Poissons Ratio (y) = 0.28120 -0.05522
# Poissons Ratio (z) = 0.50994 -0.10020
#
# Static dielectric constant tensor:
#      x y z
#    x 1.160980 0.004250 -0.850060 
#    y 0.004250 1.927210 0.004020 
#    z -0.850060 0.004020 0.991060 
# 
# From -- ./inp_files/315320.got.cif
#   From: 2010.05.17/outbox.cif.g08.bks.cpg/sg2_158_cif.got.tgz:315320.got - 2010.06.03 11:33:40.
