data_PCOD9051423
_publ_section_title
;
Structure prediction by ZEFSAII (Michael W. Deem and Ramdas Pophale) SiO2 
 PCOD9051423
Probable space group: P -1
;
_chemical_formula_sum "Si O2"
_cell_formula_units_Z 12
_cell_length_a 6.210397
_cell_length_b 9.423990
_cell_length_c 11.286026
_cell_angle_alpha 60.551393
_cell_angle_beta 113.620338
_cell_angle_gamma 89.873286
_cell_volume 510.311800
_symmetry_space_group_name_H-M "P -1"
_symmetry_group_IT_number 2
_symmetry_cell_setting 'triclinic'
loop_
_space_group_symop_operation_xyz
x,y,z
-x,-y,-z
loop_
_atom_site_type_symbol
_atom_site_label
_atom_site_fract_x
_atom_site_fract_y
_atom_site_fract_z
Si Si1 0.955514 0.121136 0.175686
Si Si2 0.285508 0.275475 0.348641
Si Si3 0.067254 0.569171 0.362706
Si Si4 0.368553 0.835387 0.331233
Si Si5 0.291998 0.517939 0.053133
Si Si6 0.328891 0.134262 0.825622
O O1 0.085609 0.190122 0.284084
O O2 0.821500 0.976435 0.235372
O O3 0.771872 0.283225 0.011454
O O4 0.175304 0.012206 0.189748
O O5 0.156062 0.423669 0.348457
O O6 0.482029 0.150600 0.523759
O O7 0.398521 0.370742 0.231221
O O8 0.255864 0.678255 0.389284
O O9 0.000000 0.500000 0.500000
O O10 0.841545 0.712983 0.203978
O O11 0.531554 0.789148 0.272046
O O12 0.500000 0.500000 0.000000
O O13 0.000000 0.500000 0.000000
O O14 0.500000 0.000000 0.000000
#
# Coordination Sequence:
#
# PCOD9051423 Si02
#       6
#     2   2   2   2   2   2
#     4  10  26  45  69 106 141 187 245 301 379 431
#     4  11  24  46  76 103 146 189 250 314 361 447
#     4  11  25  47  69 108 141 192 250 299 372 446
#     4  11  25  46  68 107 141 194 245 296 383 439
#     4  10  25  46  70 110 147 193 244 308 380 441
#     4  11  27  44  72  99 150 194 239 305 371 453
#
# _framework density 23.515035999999998
#
# number of rings (size 3 to 8) (size 9 to 14) (size 15 to 20)
#    0.000    1.333    1.667    1.000    9.333    6.000 
#    0.000    0.000    0.000    0.000    0.000    0.000 
#    0.000    0.000    0.000    0.000    0.000    0.000 
#
# Total GULP energy -66924.814141 kJ/mol
# GULP energy per Si atom -5577.067845 kJ/mol
# Density = 2.346151 g / cm^3
# Si number density = 23.515036 Si / 1000 Ang^3
#
#
#
# Elastic Constant Matrix: (Units=GPa)
#
#
# Indices 1 2 3 4 5 6 
#
# 1 108.3793 35.2458 39.6443 0.1767 -17.2298 0.1781
# 2 35.2458 116.2554 -4.7872 -5.2232 3.7433 -1.3319
# 3 39.6443 -4.7872 74.3114 -9.4283 -5.2312 -4.9258
# 4 0.1767 -5.2232 -9.4283 38.8005 -7.5173 7.0190
# 5 -17.2298 3.7433 -5.2312 -7.5173 39.7014 -9.4275
# 6 0.1781 -1.3319 -4.9258 7.0190 -9.4275 31.6521
#
#
#
# Elastic Compliance Matrix: (Units=1/GPa)
#
#
# Indices 1 2 3 4 5 6 
#
# 1 0.014646 -0.005016 -0.007922 -0.001676 0.005589 0.000510
# 2 -0.005016 0.010420 0.003400 0.001809 -0.002397 -0.000119
# 3 -0.007922 0.003400 0.018636 0.004661 0.000072 0.002076
# 4 -0.001676 0.001809 0.004661 0.028740 0.004129 -0.004333
# 5 0.005589 -0.002397 0.000072 0.004129 0.030545 0.008061
# 6 0.000510 -0.000119 0.002076 -0.004333 0.008061 0.035270
#
#
# Mechanical properties :
#
#
# Convention : Reuss Voigt Hill
#
# Bulk Modulus (GPa) = 40.60763 48.79465 44.70114
# Shear Modulus (GPa) = 30.20349 37.28701 33.74525
#
# Velocity S-wave (km/s) = 3.58779 3.98636 3.79231
# Velocity P-wave (km/s) = 5.87105 6.47947 6.18275
#
# Compressibility (1/GPa) = 0.02462592
#
# Stress axis : x y z
#
# Youngs Moduli (GPa) = 68.27570 95.97286 53.65831
#
# Poissons Ratio (x) = 0.48141 0.42510
# Poissons Ratio (y) = 0.34248 -0.18245
# Poissons Ratio (z) = 0.54090 -0.32632
#
# Static dielectric constant tensor:
#      x y z
#    x 1.987030 0.018560 0.107300 
#    y 0.018560 1.867690 0.007620 
#    z 0.107300 0.007620 1.942050 
# 
# From -- ./inp_files/26467.got.cif
#   From: 2010.05.17/outbox.cif.g08.bks.cpg/sg2_14_cif.got.tgz:26467.got - 2010.06.03 11:33:40.
