data_PCOD9051583
_publ_section_title
;
Structure prediction by ZEFSAII (Michael W. Deem and Ramdas Pophale) SiO2 
 PCOD9051583
Probable space group: P -1
;
_chemical_formula_sum "Si O2"
_cell_formula_units_Z 12
_cell_length_a 11.203018
_cell_length_b 9.546820
_cell_length_c 5.266173
_cell_angle_alpha 124.137117
_cell_angle_beta 88.805500
_cell_angle_gamma 84.870907
_cell_volume 462.594382
_symmetry_space_group_name_H-M "P -1"
_symmetry_group_IT_number 2
_symmetry_cell_setting 'triclinic'
loop_
_space_group_symop_operation_xyz
x,y,z
-x,-y,-z
loop_
_atom_site_type_symbol
_atom_site_label
_atom_site_fract_x
_atom_site_fract_y
_atom_site_fract_z
Si Si1 0.276165 0.444527 0.884866
Si Si2 0.684462 0.885829 0.738154
Si Si3 0.491974 0.661385 0.475314
Si Si4 0.726762 0.192690 0.702687
Si Si5 0.103655 0.035987 0.841818
Si Si6 0.064064 0.422022 0.167276
O O1 0.257153 0.635253 0.966492
O O2 0.203742 0.451814 0.157187
O O3 0.239709 0.284760 0.562855
O O4 0.418630 0.388494 0.819902
O O5 0.561262 0.812600 0.745856
O O6 0.670504 0.042838 0.701025
O O7 0.768786 0.946364 0.010799
O O8 0.500000 0.500000 0.500000
O O9 0.363737 0.733687 0.442829
O O10 0.855938 0.107918 0.511622
O O11 0.061796 0.222968 0.939870
O O12 0.000000 0.000000 0.000000
O O13 0.000000 0.500000 0.500000
O O14 0.000000 0.500000 0.000000
#
# Coordination Sequence:
#
# PCOD9051583 Si02
#       6
#     2   2   2   2   2   2
#     4  10  25  48  75 113 157 200 265 321 404 469
#     4  10  26  48  73 109 159 197 264 322 406 465
#     4  10  25  46  79 113 156 206 265 322 404 473
#     4  12  25  47  77 108 154 203 261 326 397 477
#     4  12  28  48  76 114 152 205 270 328 397 478
#     4  12  27  49  79 112 160 212 263 334 406 479
#
# _framework density 25.940650999999999
#
# number of rings (size 3 to 8) (size 9 to 14) (size 15 to 20)
#    1.000    0.000    1.667    3.000    7.000    1.333 
#    0.000    0.000    0.000    0.000    0.000    0.000 
#    0.000    0.000    0.000    0.000    0.000    0.000 
#
# Total GULP energy -67125.883329 kJ/mol
# GULP energy per Si atom -5593.823611 kJ/mol
# Density = 2.588161 g / cm^3
# Si number density = 25.940651 Si / 1000 Ang^3
#
#
#
# Elastic Constant Matrix: (Units=GPa)
#
#
# Indices 1 2 3 4 5 6 
#
# 1 111.5170 55.0838 43.7214 -1.5650 -6.7636 16.9747
# 2 55.0838 229.4417 50.0885 26.2487 -1.4240 5.2805
# 3 43.7214 50.0885 136.7244 27.7582 -27.1562 -5.1009
# 4 -1.5650 26.2487 27.7582 54.2756 0.1405 1.2169
# 5 -6.7636 -1.4240 -27.1562 0.1405 56.2841 2.9860
# 6 16.9747 5.2805 -5.1009 1.2169 2.9860 46.2546
#
#
#
# Elastic Compliance Matrix: (Units=1/GPa)
#
#
# Indices 1 2 3 4 5 6 
#
# 1 0.012565 -0.002435 -0.004130 0.003762 -0.000295 -0.004869
# 2 -0.002435 0.005372 -0.000836 -0.002246 -0.000570 0.000284
# 3 -0.004130 -0.000836 0.011082 -0.005454 0.004701 0.002673
# 4 0.003762 -0.002246 -0.005454 0.022463 -0.002177 -0.002176
# 5 -0.000295 -0.000570 0.004701 -0.002177 0.020020 -0.000543
# 6 -0.004869 0.000284 0.002673 -0.002176 -0.000543 0.023761
#
#
# Mechanical properties :
#
#
# Convention : Reuss Voigt Hill
#
# Bulk Modulus (GPa) = 70.33906 86.16337 78.25121
# Shear Modulus (GPa) = 43.55219 53.28216 48.41718
#
# Velocity S-wave (km/s) = 4.10190 4.53703 4.32494
# Velocity P-wave (km/s) = 7.04332 7.79319 7.42773
#
# Compressibility (1/GPa) = 0.01421685
#
# Stress axis : x y z
#
# Youngs Moduli (GPa) = 79.58402 186.13649 90.23774
#
# Poissons Ratio (x) = 0.45328 0.37269
# Poissons Ratio (y) = 0.19380 0.07544
# Poissons Ratio (z) = 0.32869 0.15561
#
# Static dielectric constant tensor:
#      x y z
#    x 2.234920 0.915830 -0.506760 
#    y 0.915830 10.423260 -5.238050 
#    z -0.506760 -5.238050 5.399050 
# 
# From -- ./inp_files/61262.got.cif
#   From: 2010.05.17/outbox.cif.g08.bks.cpg/sg2_31_cif.got.tgz:61262.got - 2010.06.03 11:33:40.
