data_PCOD9051386
_publ_section_title
;
Structure prediction by ZEFSAII (Michael W. Deem and Ramdas Pophale) SiO2 
 PCOD9051386
Probable space group: P -1
;
_chemical_formula_sum "Si O2"
_cell_formula_units_Z 13
_cell_length_a 12.125256
_cell_length_b 12.872982
_cell_length_c 5.183252
_cell_angle_alpha 59.582120
_cell_angle_beta 75.088813
_cell_angle_gamma 47.096005
_cell_volume 506.139990
_symmetry_space_group_name_H-M "P -1"
_symmetry_group_IT_number 2
_symmetry_cell_setting 'triclinic'
loop_
_space_group_symop_operation_xyz
x,y,z
-x,-y,-z
loop_
_atom_site_type_symbol
_atom_site_label
_atom_site_fract_x
_atom_site_fract_y
_atom_site_fract_z
Si Si1 0.091858 0.260770 0.747281
Si Si2 0.232960 0.278032 0.139991
Si Si3 0.500000 0.000000 0.000000
Si Si4 0.330976 0.882974 0.134901
Si Si5 0.850226 0.179310 0.353073
Si Si6 0.612536 0.377021 0.864409
Si Si7 0.208521 0.561133 0.599822
O O1 0.120739 0.298055 0.964186
O O2 0.917240 0.379481 0.618275
O O3 0.183140 0.069215 0.919213
O O4 0.181379 0.278869 0.456787
O O5 0.238584 0.415670 0.909330
O O6 0.392096 0.107902 0.180355
O O7 0.444319 0.898153 0.172273
O O8 0.407471 0.749200 0.035089
O O9 0.274273 0.817399 0.438676
O O10 0.786586 0.248901 0.024017
O O11 0.870153 0.289766 0.348474
O O12 0.000000 0.000000 0.500000
O O13 0.500000 0.500000 0.000000
O O14 0.638424 0.471421 0.533546
#
# Coordination Sequence:
#
# PCOD9051386 Si02
#       7
#     2   2   1   2   2   2   2
#     4  11  25  46  73 107 145 197 244 315 358 456
#     4  11  27  44  72 107 149 193 248 300 378 437
#     4  10  26  44  72 100 148 192 240 300 366 450
#     4  10  25  46  69 105 140 187 254 290 380 435
#     4  11  25  45  76 100 142 193 244 308 365 446
#     4  11  27  43  74 104 147 190 245 316 374 448
#     4  11  26  43  71 105 142 187 249 303 374 436
#
# _framework density 25.684595000000002
#
# number of rings (size 3 to 8) (size 9 to 14) (size 15 to 20)
#    0.000    1.231    0.000    2.769   17.231    6.154 
#    0.000    0.000    0.000    0.000    0.000    0.000 
#    0.000    0.000    0.000    0.000    0.000    0.000 
#
# Total GULP energy -72512.674748 kJ/mol
# GULP energy per Si atom -5577.898058 kJ/mol
# Density = 2.562614 g / cm^3
# Si number density = 25.684595 Si / 1000 Ang^3
#
#
#
# Elastic Constant Matrix: (Units=GPa)
#
#
# Indices 1 2 3 4 5 6 
#
# 1 67.1865 23.7512 13.7329 -7.8784 -35.6405 21.2828
# 2 23.7512 145.3820 15.0725 -21.5328 -22.5917 34.7765
# 3 13.7329 15.0725 83.1806 -14.8559 -30.9752 14.7069
# 4 -7.8784 -21.5328 -14.8559 30.3265 -4.2125 -5.3148
# 5 -35.6405 -22.5917 -30.9752 -4.2125 54.1136 -5.7612
# 6 21.2828 34.7765 14.7069 -5.3148 -5.7612 46.8962
#
#
#
# Elastic Compliance Matrix: (Units=1/GPa)
#
#
# Indices 1 2 3 4 5 6 
#
# 1 0.035419 0.005037 0.011713 0.019904 0.031842 -0.017316
# 2 0.005037 0.011160 0.004808 0.011401 0.010608 -0.009475
# 3 0.011713 0.004808 0.023316 0.019171 0.023374 -0.011149
# 4 0.019904 0.011401 0.019171 0.057787 0.031955 -0.013025
# 5 0.031842 0.010608 0.023374 0.031955 0.057731 -0.018933
# 6 -0.017316 -0.009475 -0.011149 -0.013025 -0.018933 0.035902
#
#
# Mechanical properties :
#
#
# Convention : Reuss Voigt Hill
#
# Bulk Modulus (GPa) = 8.84862 44.54026 26.69444
# Shear Modulus (GPa) = 23.16202 42.48009 32.82106
#
# Velocity S-wave (km/s) = 3.00623 4.07125 3.57858
# Velocity P-wave (km/s) = 3.93732 6.28323 5.24316
#
# Compressibility (1/GPa) = 0.11301194
#
# Stress axis : x y z
#
# Youngs Moduli (GPa) = 28.23334 89.60189 42.88882
#
# Poissons Ratio (x) = -0.45135 -0.50237
# Poissons Ratio (y) = -0.14222 -0.20619
# Poissons Ratio (z) = -0.33071 -0.43077
#
# Static dielectric constant tensor:
#      x y z
#    x 2.125730 -0.037050 0.057000 
#    y -0.037050 2.015120 0.062320 
#    z 0.057000 0.062320 2.109470 
# 
# From -- ./inp_files/64510.got.cif
#   From: 2010.05.17/outbox.cif.g08.bks.cpg/sg2_33_cif.got.tgz:64510.got - 2010.06.03 11:33:40.
