data_PCOD9051092
_publ_section_title
;
Structure prediction by ZEFSAII (Michael W. Deem and Ramdas Pophale) SiO2 
 PCOD9051092
Probable space group: P -1
;
_chemical_formula_sum "Si O2"
_cell_formula_units_Z 14
_cell_length_a 5.173735
_cell_length_b 8.062858
_cell_length_c 15.224752
_cell_angle_alpha 96.566892
_cell_angle_beta 95.646423
_cell_angle_gamma 109.306985
_cell_volume 589.135078
_symmetry_space_group_name_H-M "P -1"
_symmetry_group_IT_number 2
_symmetry_cell_setting 'triclinic'
loop_
_space_group_symop_operation_xyz
x,y,z
-x,-y,-z
loop_
_atom_site_type_symbol
_atom_site_label
_atom_site_fract_x
_atom_site_fract_y
_atom_site_fract_z
Si Si1 0.640050 0.363606 0.551476
Si Si2 0.039082 0.151418 0.583318
Si Si3 0.081657 0.934247 0.729314
Si Si4 0.598469 0.685913 0.797730
Si Si5 0.290923 0.552190 0.062436
Si Si6 0.221609 0.644931 0.637089
Si Si7 0.498524 0.027909 0.897896
O O1 0.608990 0.365990 0.445067
O O2 0.784980 0.218502 0.565982
O O3 0.902028 0.537403 0.596782
O O4 0.342510 0.297382 0.584031
O O5 0.029882 0.081345 0.677510
O O6 0.000000 0.000000 0.500000
O O7 0.265321 0.850882 0.671018
O O8 0.217800 0.995466 0.831983
O O9 0.812618 0.769087 0.732817
O O10 0.697441 0.561607 0.857592
O O11 0.314953 0.585373 0.729595
O O12 0.586767 0.863645 0.856284
O O13 0.354583 0.760498 0.098836
O O14 0.500000 0.500000 0.000000
O O15 0.000000 0.500000 0.000000
O O16 0.500000 0.000000 0.000000
#
# Coordination Sequence:
#
# PCOD9051092 Si02
#       7
#     2   2   2   2   2   2   2
#     4  11  26  44  74 103 147 197 248 301 368 448
#     4  12  25  45  70 104 146 190 247 303 372 440
#     4  11  26  43  71 104 146 194 243 314 367 446
#     4  11  26  48  75 107 156 194 254 312 373 455
#     4  12  28  49  78 110 145 194 249 309 380 448
#     4  10  25  45  69 106 145 196 245 308 372 432
#     4  11  25  48  74 107 146 195 249 306 381 442
#
# _framework density 23.763646999999999
#
# number of rings (size 3 to 8) (size 9 to 14) (size 15 to 20)
#    0.000    0.857    2.857    2.143   12.000    2.286 
#    0.000    0.000    0.000    0.000    0.000    0.000 
#    0.000    0.000    0.000    0.000    0.000    0.000 
#
# Total GULP energy -78222.992059 kJ/mol
# GULP energy per Si atom -5587.356576 kJ/mol
# Density = 2.370956 g / cm^3
# Si number density = 23.763647 Si / 1000 Ang^3
#
#
#
# Elastic Constant Matrix: (Units=GPa)
#
#
# Indices 1 2 3 4 5 6 
#
# 1 76.9711 31.0534 52.2692 -15.0424 18.2215 3.5092
# 2 31.0534 131.5003 68.0965 -26.0566 12.0387 -18.1176
# 3 52.2692 68.0965 182.3035 -17.2399 21.3064 -8.6158
# 4 -15.0424 -26.0566 -17.2399 61.8029 -8.9743 3.1233
# 5 18.2215 12.0387 21.3064 -8.9743 51.5197 -2.2087
# 6 3.5092 -18.1176 -8.6158 3.1233 -2.2087 40.4660
#
#
#
# Elastic Compliance Matrix: (Units=1/GPa)
#
#
# Indices 1 2 3 4 5 6 
#
# 1 0.017975 -0.001928 -0.003934 0.002056 -0.004078 -0.003641
# 2 -0.001928 0.010776 -0.003003 0.003044 0.000113 0.004124
# 3 -0.003934 -0.003003 0.007881 -0.000228 -0.001179 0.000628
# 4 0.002056 0.003044 -0.000228 0.018173 0.001814 -0.000168
# 5 -0.004078 0.000113 -0.001179 0.001814 0.021681 0.001196
# 6 -0.003641 0.004124 0.000628 -0.000168 0.001196 0.027086
#
#
# Mechanical properties :
#
#
# Convention : Reuss Voigt Hill
#
# Bulk Modulus (GPa) = 52.90762 77.06813 64.98788
# Shear Modulus (GPa) = 39.18438 46.71477 42.94958
#
# Velocity S-wave (km/s) = 4.06510 4.43855 4.25592
# Velocity P-wave (km/s) = 6.65926 7.66611 7.18035
#
# Compressibility (1/GPa) = 0.01890087
#
# Stress axis : x y z
#
# Youngs Moduli (GPa) = 55.63361 92.80023 126.88852
#
# Poissons Ratio (x) = 0.17893 0.49924
# Poissons Ratio (y) = 0.10727 0.38101
# Poissons Ratio (z) = 0.21889 0.27865
#
# Static dielectric constant tensor:
#      x y z
#    x 2.263250 -0.041080 0.018400 
#    y -0.041080 1.985660 0.038760 
#    z 0.018400 0.038760 1.894040 
# 
# From -- ./inp_files/479865.got.cif
#   From: 2010.05.17/outbox.cif.g08.bks.cpg/sg2_240_cif.got.tgz:479865.got - 2010.06.03 11:33:40.
