data_PCOD9051232
_publ_section_title
;
Structure prediction by ZEFSAII (Michael W. Deem and Ramdas Pophale) SiO2 
 PCOD9051232
Probable space group: P -1
;
_chemical_formula_sum "Si O2"
_cell_formula_units_Z 10
_cell_length_a 5.214913
_cell_length_b 20.522806
_cell_length_c 5.057151
_cell_angle_alpha 112.602042
_cell_angle_beta 91.889059
_cell_angle_gamma 57.375906
_cell_volume 410.133324
_symmetry_space_group_name_H-M "P -1"
_symmetry_group_IT_number 2
_symmetry_cell_setting 'triclinic'
loop_
_space_group_symop_operation_xyz
x,y,z
-x,-y,-z
loop_
_atom_site_type_symbol
_atom_site_label
_atom_site_fract_x
_atom_site_fract_y
_atom_site_fract_z
Si Si1 0.281655 0.854786 0.790112
Si Si2 0.870266 0.563183 0.844141
Si Si3 0.255721 0.995529 0.313827
Si Si4 0.635414 0.306771 0.290917
Si Si5 0.156908 0.307201 0.635254
O O1 0.249551 0.792313 0.887197
O O2 0.548823 0.792376 0.486188
O O3 0.392972 0.908285 0.019764
O O4 0.947101 0.923317 0.759595
O O5 0.501852 0.632341 0.873451
O O6 0.000000 0.500000 0.500000
O O7 0.955634 0.631582 0.019546
O O8 0.000000 0.500000 0.000000
O O9 0.500000 0.000000 0.500000
O O10 0.000000 0.000000 0.500000
O O11 0.329780 0.338624 0.508838
O O12 0.885247 0.311919 0.471393
#
# Coordination Sequence:
#
# PCOD9051232 Si02
#       5
#     2   2   2   2   2
#     4   9  25  44  67 100 140 180 241 282 351 421
#     4  12  25  50  73 111 144 187 239 302 361 432
#     4  11  26  39  68 100 140 183 230 294 347 411
#     4  10  25  45  73 101 140 188 238 288 358 423
#     4  10  25  45  73 101 140 188 238 288 358 423
#
# _framework density 24.382318999999999
#
# number of rings (size 3 to 8) (size 9 to 14) (size 15 to 20)
#    1.200    0.400    2.000    0.000    8.400    4.800 
#    0.000    0.000    0.000    0.000    0.000    0.000 
#    0.000    0.000    0.000    0.000    0.000    0.000 
#
# Total GULP energy -55774.995858 kJ/mol
# GULP energy per Si atom -5577.499586 kJ/mol
# Density = 2.432682 g / cm^3
# Si number density = 24.382319 Si / 1000 Ang^3
#
#
#
# Elastic Constant Matrix: (Units=GPa)
#
#
# Indices 1 2 3 4 5 6 
#
# 1 135.6419 11.3789 69.8178 3.7620 38.4140 -16.8308
# 2 11.3789 -4.2096 161.3526 91.5122 -21.9189 -59.9910
# 3 69.8178 161.3526 198.2753 -3.7887 63.7053 1.1292
# 4 3.7620 91.5122 -3.7887 19.0645 17.5212 22.2464
# 5 38.4140 -21.9189 63.7053 17.5212 38.3281 -36.6089
# 6 -16.8308 -59.9910 1.1292 22.2464 -36.6089 -7.1266
#
#
#
# Elastic Compliance Matrix: (Units=1/GPa)
#
#
# Indices 1 2 3 4 5 6 
#
# 1 0.010440 0.002090 -0.002798 -0.000743 -0.008004 -0.003900
# 2 0.002090 0.010493 -0.004381 -0.003845 -0.014943 -0.029197
# 3 -0.002798 -0.004381 0.008049 -0.001437 0.004410 0.017623
# 4 -0.000743 -0.003845 -0.001437 0.024193 0.015979 0.027331
# 5 -0.008004 -0.014943 0.004410 0.015979 0.033429 0.023552
# 6 -0.003900 -0.029197 0.017623 0.027331 0.023552 0.081794
#
#
# Mechanical properties :
#
#
# Convention : Reuss Voigt Hill
#
# Bulk Modulus (GPa) = 53.17526 90.53401 71.85464
# Shear Modulus (GPa) = 27.05007 15.86374 21.45690
#
# Velocity S-wave (km/s) = 3.33440 2.55350 2.96973
# Velocity P-wave (km/s) = 6.05645 6.77536 6.42596
#
# Compressibility (1/GPa) = 0.01880574
#
# Stress axis : x y z
#
# Youngs Moduli (GPa) = 95.78130 95.30567 124.23878
#
# Poissons Ratio (x) = -0.19922 0.34759
# Poissons Ratio (y) = -0.20022 0.54425
# Poissons Ratio (z) = 0.26798 0.41751
#
# Static dielectric constant tensor:
#      x y z
#    x 1.954760 0.033630 -0.079170 
#    y 0.033630 2.014220 0.001170 
#    z -0.079170 0.001170 2.008970 
# 
# From -- ./inp_files/5556.got.cif
#   From: 2010.05.17/outbox.cif.g08.bks.cpg/sg2_3_cif.got.tgz:5556.got - 2010.06.03 11:33:40.
