data_PCOD9051610
_publ_section_title
;
Structure prediction by ZEFSAII (Michael W. Deem and Ramdas Pophale) SiO2 
 PCOD9051610
Probable space group: P -1
;
_chemical_formula_sum "Si O2"
_cell_formula_units_Z 16
_cell_length_a 12.019819
_cell_length_b 7.934032
_cell_length_c 8.811981
_cell_angle_alpha 116.497494
_cell_angle_beta 68.865264
_cell_angle_gamma 91.158276
_cell_volume 691.464871
_symmetry_space_group_name_H-M "P -1"
_symmetry_group_IT_number 2
_symmetry_cell_setting 'triclinic'
loop_
_space_group_symop_operation_xyz
x,y,z
-x,-y,-z
loop_
_atom_site_type_symbol
_atom_site_label
_atom_site_fract_x
_atom_site_fract_y
_atom_site_fract_z
Si Si1 0.777373 0.284810 0.633781
Si Si2 0.130593 0.447428 0.833120
Si Si3 0.886313 0.954829 0.249549
Si Si4 0.515798 0.769688 0.711629
Si Si5 0.854326 0.999198 0.941471
Si Si6 0.694429 0.400046 0.381542
Si Si7 0.955590 0.545335 0.706147
Si Si8 0.378316 0.861742 0.102811
O O1 0.746095 0.363417 0.511734
O O2 0.851058 0.424344 0.743141
O O3 0.670421 0.250607 0.781616
O O4 0.856601 0.081886 0.464964
O O5 0.174445 0.233536 0.781211
O O6 0.230109 0.580955 0.805952
O O7 0.077092 0.456810 0.695987
O O8 0.000000 0.500000 0.000000
O O9 0.843067 0.053982 0.148733
O O10 0.032277 0.912323 0.144607
O O11 0.619337 0.613634 0.527344
O O12 0.399205 0.745072 0.660299
O O13 0.558517 0.972626 0.787001
O O14 0.473460 0.737124 0.892628
O O15 0.906500 0.770332 0.835279
O O16 0.736598 0.042360 0.909275
O O17 0.000000 0.500000 0.500000
#
# Coordination Sequence:
#
# PCOD9051610 Si02
#       8
#     2   2   2   2   2   2   2   2
#     4  12  25  40  69  99 134 171 217 276 332 394
#     4  12  25  42  69 102 137 176 216 264 335 406
#     4  11  24  39  64 101 132 180 210 261 338 402
#     4  10  25  47  68  90 128 178 228 274 326 378
#     4  11  23  42  64  93 141 173 217 268 327 399
#     4  11  24  46  68  94 135 175 219 274 324 397
#     4  12  23  40  63 103 138 174 210 267 341 397
#     4  11  25  43  67  97 125 175 226 281 323 377
#
# _framework density 23.139281
#
# number of rings (size 3 to 8) (size 9 to 14) (size 15 to 20)
#    0.000    0.750    3.750    3.000    7.000    2.000 
#    0.000    5.000    0.000    0.000    0.000    0.000 
#    0.000    0.000    0.000    0.000    0.000    0.000 
#
# Total GULP energy -89255.884475 kJ/mol
# GULP energy per Si atom -5578.492780 kJ/mol
# Density = 2.308661 g / cm^3
# Si number density = 23.139281 Si / 1000 Ang^3
#
#
#
# Elastic Constant Matrix: (Units=GPa)
#
#
# Indices 1 2 3 4 5 6 
#
# 1 38.4859 12.5906 -15.5679 2.1862 2.9384 16.9885
# 2 12.5906 104.0037 0.9152 -18.5124 -4.5231 28.3138
# 3 -15.5679 0.9152 73.3972 -14.8013 -14.7746 6.2698
# 4 2.1862 -18.5124 -14.8013 42.3838 9.3053 2.1537
# 5 2.9384 -4.5231 -14.7746 9.3053 31.8121 0.8815
# 6 16.9885 28.3138 6.2698 2.1537 0.8815 36.5196
#
#
#
# Elastic Compliance Matrix: (Units=1/GPa)
#
#
# Indices 1 2 3 4 5 6 
#
# 1 0.039205 0.001742 0.011120 0.003421 0.001393 -0.021733
# 2 0.001742 0.014308 0.003118 0.007584 0.001461 -0.012921
# 3 0.011120 0.003118 0.019677 0.006730 0.006906 -0.011533
# 4 0.003421 0.007584 0.006730 0.030657 -0.004794 -0.010319
# 5 0.001393 0.001461 0.006906 -0.004794 0.036222 -0.003558
# 6 -0.021733 -0.012921 -0.011533 -0.010319 -0.003558 0.050185
#
#
# Mechanical properties :
#
#
# Convention : Reuss Voigt Hill
#
# Bulk Modulus (GPa) = 9.51012 23.52917 16.51965
# Shear Modulus (GPa) = 25.86097 36.67301 31.26699
#
# Velocity S-wave (km/s) = 3.34671 3.98538 3.67993
# Velocity P-wave (km/s) = 4.36496 5.60073 5.02101
#
# Compressibility (1/GPa) = 0.10515110
#
# Stress axis : x y z
#
# Youngs Moduli (GPa) = 25.50722 69.89123 50.82142
#
# Poissons Ratio (x) = -0.12175 -0.56516
# Poissons Ratio (y) = -0.04443 -0.15849
# Poissons Ratio (z) = -0.28365 -0.21796
#
# Static dielectric constant tensor:
#      x y z
#    x 1.918520 0.048740 -0.008910 
#    y 0.048740 1.890580 -0.003490 
#    z -0.008910 -0.003490 2.057560 
# 
# From -- ./inp_files/180707.got.cif
#   From: 2010.05.17/outbox.cif.g08.bks.cpg/sg2_91_cif.got.tgz:180707.got - 2010.06.03 11:33:40.
