data_PCOD9051875
_publ_section_title
;
Structure prediction by ZEFSAII (Michael W. Deem and Ramdas Pophale) SiO2 
 PCOD9051875
Probable space group: P -1
;
_chemical_formula_sum "Si O2"
_cell_formula_units_Z 16
_cell_length_a 7.985165
_cell_length_b 8.456364
_cell_length_c 16.042773
_cell_angle_alpha 112.315075
_cell_angle_beta 57.205681
_cell_angle_gamma 125.302175
_cell_volume 739.666905
_symmetry_space_group_name_H-M "P -1"
_symmetry_group_IT_number 2
_symmetry_cell_setting 'triclinic'
loop_
_space_group_symop_operation_xyz
x,y,z
-x,-y,-z
loop_
_atom_site_type_symbol
_atom_site_label
_atom_site_fract_x
_atom_site_fract_y
_atom_site_fract_z
Si Si1 0.228039 0.386904 0.386908
Si Si2 0.378537 0.926582 0.180525
Si Si3 0.970129 0.551793 0.163105
Si Si4 0.567220 0.245071 0.324762
Si Si5 0.213710 0.421164 0.939998
Si Si6 0.245720 0.152183 0.993990
Si Si7 0.300442 0.781000 0.527984
Si Si8 0.337604 0.256160 0.167756
O O1 0.357698 0.293781 0.386753
O O2 0.310352 0.605086 0.440465
O O3 0.299266 0.386790 0.271613
O O4 0.953806 0.257513 0.434018
O O5 0.579676 0.931772 0.070910
O O6 0.176226 0.707593 0.193249
O O7 0.481367 0.035630 0.261562
O O8 0.284982 0.058869 0.188521
O O9 0.760636 0.407341 0.246203
O O10 0.905671 0.666983 0.132824
O O11 0.052383 0.432847 0.056474
O O12 0.668688 0.252511 0.389487
O O13 0.338280 0.318833 0.932150
O O14 0.399594 0.636336 0.907849
O O15 0.215354 0.222281 0.106403
O O16 0.000000 0.000000 0.000000
O O17 0.500000 0.000000 0.500000
#
# Coordination Sequence:
#
# PCOD9051875 Si02
#       8
#     2   2   2   2   2   2   2   2
#     4  10  25  48  73 105 139 179 229 296 354 421
#     4  11  24  41  64  98 137 189 230 274 332 415
#     4  11  23  42  67  94 144 189 228 272 344 403
#     4  11  25  48  73 104 143 185 227 285 357 420
#     4  11  23  40  63  96 141 190 232 274 328 406
#     4  12  25  36  60  99 139 190 235 283 325 398
#     4  11  27  49  78 106 134 173 236 304 359 422
#     4  11  23  44  65  97 144 184 234 277 344 410
#
# _framework density 21.631356
#
# number of rings (size 3 to 8) (size 9 to 14) (size 15 to 20)
#    0.000    1.000    3.750    2.625    5.250    5.500 
#    0.000    0.000    0.000    0.000    0.000    0.000 
#    0.000    0.000    0.000    0.000    0.000    0.000 
#
# Total GULP energy -89368.106144 kJ/mol
# GULP energy per Si atom -5585.506634 kJ/mol
# Density = 2.158212 g / cm^3
# Si number density = 21.631356 Si / 1000 Ang^3
#
#
#
# Elastic Constant Matrix: (Units=GPa)
#
#
# Indices 1 2 3 4 5 6 
#
# 1 73.8004 48.3629 44.3247 -2.5965 19.5746 25.4320
# 2 48.3629 105.5995 49.0870 7.1167 7.6081 27.8563
# 3 44.3247 49.0870 100.7897 8.0826 17.8851 7.7794
# 4 -2.5965 7.1167 8.0826 23.5489 10.6534 7.5853
# 5 19.5746 7.6081 17.8851 10.6534 37.8495 -0.6679
# 6 25.4320 27.8563 7.7794 7.5853 -0.6679 37.1830
#
#
#
# Elastic Compliance Matrix: (Units=1/GPa)
#
#
# Indices 1 2 3 4 5 6 
#
# 1 0.041561 -0.007030 -0.010911 0.030096 -0.023880 -0.027445
# 2 -0.007030 0.016400 -0.004788 -0.003910 0.003603 -0.005614
# 3 -0.010911 -0.004788 0.016810 -0.009208 0.001420 0.009437
# 4 0.030096 -0.003910 -0.009208 0.074783 -0.032033 -0.031560
# 5 -0.023880 0.003603 0.001420 -0.032033 0.046757 0.020711
# 6 -0.027445 -0.005614 0.009437 -0.031560 0.020711 0.054707
#
#
# Mechanical properties :
#
#
# Convention : Reuss Voigt Hill
#
# Bulk Modulus (GPa) = 34.11572 62.63766 48.37669
# Shear Modulus (GPa) = 16.32674 28.94394 22.63534
#
# Velocity S-wave (km/s) = 2.75029 3.66191 3.23834
# Velocity P-wave (km/s) = 5.08833 6.84830 6.03284
#
# Compressibility (1/GPa) = 0.02931200
#
# Stress axis : x y z
#
# Youngs Moduli (GPa) = 24.06115 60.97591 59.48878
#
# Poissons Ratio (x) = 0.42868 0.64908
# Poissons Ratio (y) = 0.16916 0.28483
# Poissons Ratio (z) = 0.26253 0.29195
#
# Static dielectric constant tensor:
#      x y z
#    x 1.900040 -0.043200 0.003530 
#    y -0.043200 1.852510 0.004830 
#    z 0.003530 0.004830 1.777230 
# 
# From -- ./inp_files/556379.got.cif
#   From: 2010.05.17/outbox.cif.g08.bks.cpg/sg2_279_cif.got.tgz:556379.got - 2010.06.03 11:33:40.
