data_PCOD9051976
_publ_section_title
;
Structure prediction by ZEFSAII (Michael W. Deem and Ramdas Pophale) SiO2 
 PCOD9051976
Probable space group: P -1
;
_chemical_formula_sum "Si O2"
_cell_formula_units_Z 14
_cell_length_a 6.514106
_cell_length_b 19.288337
_cell_length_c 9.021776
_cell_angle_alpha 139.443751
_cell_angle_beta 114.618438
_cell_angle_gamma 88.569647
_cell_volume 582.867439
_symmetry_space_group_name_H-M "P -1"
_symmetry_group_IT_number 2
_symmetry_cell_setting 'triclinic'
loop_
_space_group_symop_operation_xyz
x,y,z
-x,-y,-z
loop_
_atom_site_type_symbol
_atom_site_label
_atom_site_fract_x
_atom_site_fract_y
_atom_site_fract_z
Si Si1 0.695129 0.995483 0.248489
Si Si2 0.920838 0.426059 0.702946
Si Si3 0.693591 0.913631 0.788464
Si Si4 0.766541 0.691343 0.403741
Si Si5 0.257171 0.185833 0.810796
Si Si6 0.633566 0.417162 0.134684
Si Si7 0.342857 0.362662 0.373944
O O1 0.687676 0.911006 0.244262
O O2 0.486718 0.041678 0.273614
O O3 0.641808 0.919775 0.957183
O O4 0.990916 0.109388 0.514737
O O5 0.630135 0.382724 0.502992
O O6 0.966684 0.309353 0.549187
O O7 0.107483 0.518160 0.780348
O O8 0.000000 0.500000 0.000000
O O9 0.661504 0.786951 0.515441
O O10 0.000000 0.000000 0.000000
O O11 0.765185 0.679956 0.562416
O O12 0.580935 0.592467 0.065167
O O13 0.507960 0.284003 0.954872
O O14 0.200700 0.265039 0.044313
O O15 0.655366 0.509157 0.421517
#
# Coordination Sequence:
#
# PCOD9051976 Si02
#       7
#     2   2   2   2   2   2   2
#     4  10  25  49  72 101 146 194 234 300 360 414
#     4  11  21  40  71 104 143 186 236 294 356 416
#     4  11  24  45  75 107 132 188 255 293 344 428
#     4  11  22  40  69 104 138 182 243 291 345 435
#     4  11  24  46  72 106 151 187 232 296 373 425
#     4  11  23  41  66 108 142 183 241 286 354 444
#     4  11  22  42  69 101 149 185 228 294 359 433
#
# _framework density 24.019186000000001
#
# number of rings (size 3 to 8) (size 9 to 14) (size 15 to 20)
#    0.000    1.143    4.286    2.143    2.000    2.857 
#    0.000   13.571    0.000    0.000    0.000    0.000 
#    0.000    0.000    0.000    0.000    0.000    0.000 
#
# Total GULP energy -78203.927565 kJ/mol
# GULP energy per Si atom -5585.994826 kJ/mol
# Density = 2.396452 g / cm^3
# Si number density = 24.019186 Si / 1000 Ang^3
#
#
#
# Elastic Constant Matrix: (Units=GPa)
#
#
# Indices 1 2 3 4 5 6 
#
# 1 133.6453 44.0242 33.1610 7.9786 -12.9207 -22.8223
# 2 44.0242 97.6377 25.1564 6.1486 -11.6238 -20.0281
# 3 33.1610 25.1564 107.6227 -7.9227 -25.8027 -6.9665
# 4 7.9786 6.1486 -7.9227 33.6478 -1.4166 -2.9096
# 5 -12.9207 -11.6238 -25.8027 -1.4166 37.0767 -0.5480
# 6 -22.8223 -20.0281 -6.9665 -2.9096 -0.5480 37.0357
#
#
#
# Elastic Compliance Matrix: (Units=1/GPa)
#
#
# Indices 1 2 3 4 5 6 
#
# 1 0.009814 -0.002841 -0.001962 -0.001874 0.001151 0.004012
# 2 -0.002841 0.013307 -0.001509 -0.001585 0.002146 0.005069
# 3 -0.001962 -0.001509 0.012433 0.004055 0.007661 0.000746
# 4 -0.001874 -0.001585 0.004055 0.031641 0.002900 0.001280
# 5 0.001151 0.002146 0.007661 0.002900 0.033547 0.004035
# 6 0.004012 0.005069 0.000746 0.001280 0.004035 0.032514
#
#
# Mechanical properties :
#
#
# Convention : Reuss Voigt Hill
#
# Bulk Modulus (GPa) = 43.61408 60.39878 52.00643
# Shear Modulus (GPa) = 32.56837 37.32298 34.94567
#
# Velocity S-wave (km/s) = 3.68629 3.94621 3.81846
# Velocity P-wave (km/s) = 6.02626 6.77968 6.41404
#
# Compressibility (1/GPa) = 0.02292838
#
# Stress axis : x y z
#
# Youngs Moduli (GPa) = 101.90021 75.14932 80.43395
#
# Poissons Ratio (x) = 0.21353 0.15780
# Poissons Ratio (y) = 0.28954 0.12138
# Poissons Ratio (z) = 0.19991 0.11340
#
# Static dielectric constant tensor:
#      x y z
#    x 1.862820 0.058020 0.064450 
#    y 0.058020 1.959990 -0.061370 
#    z 0.064450 -0.061370 1.638620 
# 
# From -- ./inp_files/141759.got.cif
#   From: 2010.05.17/outbox.cif.g08.bks.cpg/sg2_71_cif.got.tgz:141759.got - 2010.06.03 11:33:40.
