data_PCOD9051786
_publ_section_title
;
Structure prediction by ZEFSAII (Michael W. Deem and Ramdas Pophale) SiO2 
 PCOD9051786
Probable space group: P -1
;
_chemical_formula_sum "Si O2"
_cell_formula_units_Z 16
_cell_length_a 8.401728
_cell_length_b 13.589949
_cell_length_c 13.484549
_cell_angle_alpha 41.532999
_cell_angle_beta 76.783942
_cell_angle_gamma 105.944545
_cell_volume 718.667975
_symmetry_space_group_name_H-M "P -1"
_symmetry_group_IT_number 2
_symmetry_cell_setting 'triclinic'
loop_
_space_group_symop_operation_xyz
x,y,z
-x,-y,-z
loop_
_atom_site_type_symbol
_atom_site_label
_atom_site_fract_x
_atom_site_fract_y
_atom_site_fract_z
Si Si1 0.945234 0.999727 0.295010
Si Si2 0.731992 0.016223 0.506189
Si Si3 0.393367 0.786984 0.228419
Si Si4 0.984145 0.464607 0.674973
Si Si5 0.876663 0.050772 0.041705
Si Si6 0.592733 0.573076 0.042987
Si Si7 0.737448 0.344797 0.186170
Si Si8 0.893225 0.677317 0.628777
O O1 0.784649 0.969035 0.428121
O O2 0.902848 0.045171 0.160054
O O3 0.928569 0.811192 0.431052
O O4 0.198311 0.189407 0.151799
O O5 0.703296 0.174544 0.380474
O O6 0.960994 0.149233 0.437193
O O7 0.487523 0.807769 0.738597
O O8 0.242471 0.625384 0.283403
O O9 0.201327 0.662145 0.435449
O O10 0.615932 0.862966 0.189838
O O11 0.500000 0.000000 0.000000
O O12 0.974314 0.559220 0.702056
O O13 0.964429 0.274212 0.834123
O O14 0.000000 0.000000 0.000000
O O15 0.693295 0.478229 0.136634
O O16 0.372021 0.485285 0.196370
O O17 0.500000 0.500000 0.000000
O O18 0.000000 0.500000 0.000000
#
# Coordination Sequence:
#
# PCOD9051786 Si02
#       8
#     2   2   2   2   2   2   2   2
#     4  12  26  42  70 105 143 187 239 295 357 420
#     4  11  24  43  67  99 146 188 236 291 351 426
#     4   9  22  48  76 101 141 180 241 294 359 427
#     4  10  25  47  77 103 140 192 236 291 370 426
#     4  11  28  47  74 107 144 182 240 303 358 424
#     4  12  24  42  69 100 145 190 241 287 353 427
#     4  11  22  40  66  94 141 191 233 285 348 417
#     4  12  26  44  72 105 142 189 240 293 358 430
#
# _framework density 22.263408999999999
#
# number of rings (size 3 to 8) (size 9 to 14) (size 15 to 20)
#    0.000    1.000    3.750    1.125    8.750    5.500 
#    0.000    0.000    0.000    0.000    0.000    0.000 
#    0.000    0.000    0.000    0.000    0.000    0.000 
#
# Total GULP energy -89094.905227 kJ/mol
# GULP energy per Si atom -5568.431577 kJ/mol
# Density = 2.221274 g / cm^3
# Si number density = 22.263409 Si / 1000 Ang^3
#
#
#
# Elastic Constant Matrix: (Units=GPa)
#
#
# Indices 1 2 3 4 5 6 
#
# 1 117.0424 61.9268 62.0543 -7.5352 -15.5890 -1.4615
# 2 61.9268 90.2755 42.6595 -3.5020 -13.5783 -10.7437
# 3 62.0543 42.6595 148.0660 -26.9151 -28.6921 -8.5479
# 4 -7.5352 -3.5020 -26.9151 26.5210 7.1959 6.9553
# 5 -15.5890 -13.5783 -28.6921 7.1959 57.4718 -18.7865
# 6 -1.4615 -10.7437 -8.5479 6.9553 -18.7865 47.4267
#
#
#
# Elastic Compliance Matrix: (Units=1/GPa)
#
#
# Indices 1 2 3 4 5 6 
#
# 1 0.015385 -0.009028 -0.004203 -0.000138 -0.000914 -0.002670
# 2 -0.009028 0.019022 -0.001348 -0.003992 0.003793 0.005876
# 3 -0.004203 -0.001348 0.011287 0.008611 0.003685 0.001796
# 4 -0.000138 -0.003992 0.008611 0.049824 -0.005856 -0.008983
# 5 -0.000914 0.003793 0.003685 -0.005856 0.024572 0.012087
# 6 -0.002670 0.005876 0.001796 -0.008983 0.012087 0.028763
#
#
# Mechanical properties :
#
#
# Convention : Reuss Voigt Hill
#
# Bulk Modulus (GPa) = 60.47729 76.51835 68.49782
# Shear Modulus (GPa) = 27.24429 38.86680 33.05555
#
# Velocity S-wave (km/s) = 3.50197 4.18277 3.85742
# Velocity P-wave (km/s) = 6.60115 7.60077 7.11853
#
# Compressibility (1/GPa) = 0.01653513
#
# Stress axis : x y z
#
# Youngs Moduli (GPa) = 64.99714 52.56961 88.59838
#
# Poissons Ratio (x) = 0.47462 0.37239
# Poissons Ratio (y) = 0.58682 0.11945
# Poissons Ratio (z) = 0.27319 0.07088
#
# Static dielectric constant tensor:
#      x y z
#    x 1.876000 0.035540 -0.017180 
#    y 0.035540 1.910250 -0.010000 
#    z -0.017180 -0.010000 2.085200 
# 
# From -- ./inp_files/505249.got.cif
#   From: 2010.05.17/outbox.cif.g08.bks.cpg/sg2_253_cif.got.tgz:505249.got - 2010.06.03 11:33:40.
