data_PCOD9051302
_publ_section_title
;
Structure prediction by ZEFSAII (Michael W. Deem and Ramdas Pophale) SiO2 
 PCOD9051302
Probable space group: P -1
;
_chemical_formula_sum "Si O2"
_cell_formula_units_Z 12
_cell_length_a 8.569237
_cell_length_b 8.853020
_cell_length_c 9.253161
_cell_angle_alpha 51.192705
_cell_angle_beta 107.974672
_cell_angle_gamma 90.031743
_cell_volume 502.405404
_symmetry_space_group_name_H-M "P -1"
_symmetry_group_IT_number 2
_symmetry_cell_setting 'triclinic'
loop_
_space_group_symop_operation_xyz
x,y,z
-x,-y,-z
loop_
_atom_site_type_symbol
_atom_site_label
_atom_site_fract_x
_atom_site_fract_y
_atom_site_fract_z
Si Si1 0.503119 0.215780 0.812599
Si Si2 0.892635 0.215105 0.900315
Si Si3 0.085211 0.835164 0.504921
Si Si4 0.806049 0.656635 0.545922
Si Si5 0.653578 0.558713 0.087707
Si Si6 0.828219 0.810955 0.784918
O O1 0.697241 0.217498 0.854712
O O2 0.387004 0.272582 0.604130
O O3 0.408851 0.369702 0.814393
O O4 0.500000 0.000000 0.000000
O O5 0.885740 0.419802 0.689086
O O6 0.982327 0.244889 0.059636
O O7 0.000000 0.000000 0.000000
O O8 0.192247 0.636867 0.731723
O O9 0.923521 0.777133 0.423387
O O10 0.204312 0.947251 0.384093
O O11 0.000000 0.000000 0.500000
O O12 0.812642 0.713204 0.683626
O O13 0.500000 0.500000 0.000000
O O14 0.712950 0.729925 0.913671
#
# Coordination Sequence:
#
# PCOD9051302 Si02
#       6
#     2   2   2   2   2   2
#     4  12  29  49  72 113 163 196 258 324 382 455
#     4  12  26  48  79 114 152 206 258 318 390 456
#     4  10  25  45  79 112 154 200 259 310 389 454
#     4  11  25  49  80 111 154 203 259 319 384 460
#     4  12  28  48  77 115 156 201 257 321 386 456
#     4  11  25  50  82 107 153 203 256 308 390 459
#
# _framework density 23.885095
#
# number of rings (size 3 to 8) (size 9 to 14) (size 15 to 20)
#    0.000    0.667    1.667    4.000   14.000    1.333 
#    3.000    0.000    0.000    0.000    0.000    0.000 
#    0.000    0.000    0.000    0.000    0.000    0.000 
#
# Total GULP energy -67190.947075 kJ/mol
# GULP energy per Si atom -5599.245590 kJ/mol
# Density = 2.383073 g / cm^3
# Si number density = 23.885095 Si / 1000 Ang^3
#
#
#
# Elastic Constant Matrix: (Units=GPa)
#
#
# Indices 1 2 3 4 5 6 
#
# 1 155.7282 78.3642 56.4913 8.7557 1.1431 25.3229
# 2 78.3642 118.0191 54.9387 3.6378 5.6997 12.3837
# 3 56.4913 54.9387 105.7227 6.6317 4.6278 15.2322
# 4 8.7557 3.6378 6.6317 54.1186 22.2532 -0.4037
# 5 1.1431 5.6997 4.6278 22.2532 45.3101 -6.6873
# 6 25.3229 12.3837 15.2322 -0.4037 -6.6873 54.0592
#
#
#
# Elastic Compliance Matrix: (Units=1/GPa)
#
#
# Indices 1 2 3 4 5 6 
#
# 1 0.010680 -0.005736 -0.002251 -0.001491 0.000980 -0.002944
# 2 -0.005736 0.014358 -0.004462 0.001230 -0.001744 0.000448
# 3 -0.002251 -0.004462 0.013307 -0.000712 -0.000651 -0.001759
# 4 -0.001491 0.001230 -0.000712 0.023528 -0.011696 -0.000654
# 5 0.000980 -0.001744 -0.000651 -0.011696 0.028603 0.003575
# 6 -0.002944 0.000448 -0.001759 -0.000654 0.003575 0.020708
#
#
# Mechanical properties :
#
#
# Convention : Reuss Voigt Hill
#
# Bulk Modulus (GPa) = 74.36525 84.33982 79.35253
# Shear Modulus (GPa) = 35.57112 43.34262 39.45687
#
# Velocity S-wave (km/s) = 3.86328 4.26447 4.06882
# Velocity P-wave (km/s) = 7.14857 7.72236 7.44100
#
# Compressibility (1/GPa) = 0.01344714
#
# Stress axis : x y z
#
# Youngs Moduli (GPa) = 93.63427 69.64765 75.15078
#
# Poissons Ratio (x) = 0.39949 0.16917
# Poissons Ratio (y) = 0.53707 0.33530
# Poissons Ratio (z) = 0.21078 0.31074
#
# Static dielectric constant tensor:
#      x y z
#    x 1.844030 0.044620 0.035140 
#    y 0.044620 1.929640 -0.044620 
#    z 0.035140 -0.044620 1.841870 
# 
# From -- ./inp_files/156515.got.cif
#   From: 2010.05.17/outbox.cif.g08.bks.cpg/sg2_79_cif.got.tgz:156515.got - 2010.06.03 11:33:40.
