data_PCOD9051702
_publ_section_title
;
Structure prediction by ZEFSAII (Michael W. Deem and Ramdas Pophale) SiO2 
 PCOD9051702
Probable space group: P -1
;
_chemical_formula_sum "Si O2"
_cell_formula_units_Z 12
_cell_length_a 9.259161
_cell_length_b 15.346246
_cell_length_c 11.947889
_cell_angle_alpha 27.718370
_cell_angle_beta 129.127745
_cell_angle_gamma 138.528928
_cell_volume 520.065548
_symmetry_space_group_name_H-M "P -1"
_symmetry_group_IT_number 2
_symmetry_cell_setting 'triclinic'
loop_
_space_group_symop_operation_xyz
x,y,z
-x,-y,-z
loop_
_atom_site_type_symbol
_atom_site_label
_atom_site_fract_x
_atom_site_fract_y
_atom_site_fract_z
Si Si1 0.247961 0.427896 0.957665
Si Si2 0.766664 0.469328 0.411493
Si Si3 0.916817 0.267275 0.161237
Si Si4 0.520553 0.967685 0.917944
Si Si5 0.135834 0.179031 0.769677
Si Si6 0.233181 0.851554 0.540675
O O1 0.207962 0.391964 0.845862
O O2 0.207089 0.623609 0.745636
O O3 0.500000 0.500000 0.000000
O O4 0.094976 0.265682 0.167699
O O5 0.741478 0.581178 0.382939
O O6 0.000000 0.500000 0.500000
O O7 0.603845 0.204222 0.628948
O O8 0.708791 0.206222 0.052817
O O9 0.828811 0.117821 0.398833
O O10 0.000000 0.500000 0.000000
O O11 0.682524 0.878048 0.102915
O O12 0.500000 0.000000 0.000000
O O13 0.949832 0.140554 0.633362
O O14 0.000000 0.000000 0.000000
O O15 0.500000 0.000000 0.500000
#
# Coordination Sequence:
#
# PCOD9051702 Si02
#       6
#     2   2   2   2   2   2
#     4  11  25  44  74 102 146 197 246 317 379 449
#     4  12  24  47  74 111 150 193 267 304 381 463
#     4  10  25  47  72 109 153 196 257 317 380 455
#     4  12  28  49  77 112 154 201 256 322 385 457
#     4  12  26  45  80 108 149 205 251 316 385 451
#     4  11  24  45  72 110 150 194 253 308 384 459
#
# _framework density 23.074013000000001
#
# number of rings (size 3 to 8) (size 9 to 14) (size 15 to 20)
#    0.000    0.667    3.333    3.000    9.333    2.000 
#    0.000    2.500    0.000    0.000    0.000    0.000 
#    0.000    0.000    0.000    0.000    0.000    0.000 
#
# Total GULP energy -66878.741098 kJ/mol
# GULP energy per Si atom -5573.228425 kJ/mol
# Density = 2.302150 g / cm^3
# Si number density = 23.074013 Si / 1000 Ang^3
#
#
#
# Elastic Constant Matrix: (Units=GPa)
#
#
# Indices 1 2 3 4 5 6 
#
# 1 219.5948 88.7188 72.9192 33.4232 7.6268 9.8890
# 2 88.7188 182.9146 50.8804 31.5194 4.0121 -0.1886
# 3 72.9192 50.8804 64.0006 12.9341 14.1882 -4.6803
# 4 33.4232 31.5194 12.9341 58.4801 -8.5176 -1.4339
# 5 7.6268 4.0121 14.1882 -8.5176 49.1347 3.3907
# 6 9.8890 -0.1886 -4.6803 -1.4339 3.3907 36.5096
#
#
#
# Elastic Compliance Matrix: (Units=1/GPa)
#
#
# Indices 1 2 3 4 5 6 
#
# 1 0.008386 -0.001351 -0.008580 -0.002084 0.001171 -0.003569
# 2 -0.001351 0.007695 -0.004201 -0.002394 0.000398 -0.000264
# 3 -0.008580 -0.004201 0.031152 -0.000704 -0.007926 0.007004
# 4 -0.002084 -0.002394 -0.000704 0.020369 0.004193 0.000872
# 5 0.001171 0.000398 -0.007926 0.004193 0.023384 -0.003338
# 6 -0.003569 -0.000264 0.007004 0.000872 -0.003338 0.029598
#
#
# Mechanical properties :
#
#
# Convention : Reuss Voigt Hill
#
# Bulk Modulus (GPa) = 52.72058 99.06077 75.89068
# Shear Modulus (GPa) = 32.22237 45.75766 38.99001
#
# Velocity S-wave (km/s) = 3.74100 4.45801 4.11515
# Velocity P-wave (km/s) = 6.44657 8.33807 7.45257
#
# Compressibility (1/GPa) = 0.01896792
#
# Stress axis : x y z
#
# Youngs Moduli (GPa) = 119.24615 129.96069 32.10024
#
# Poissons Ratio (x) = 0.17559 0.27542
# Poissons Ratio (y) = 0.16111 0.13487
# Poissons Ratio (z) = 1.02313 0.54603
#
# Static dielectric constant tensor:
#      x y z
#    x 1.787060 -0.036720 -0.101040 
#    y -0.036720 1.770400 0.003120 
#    z -0.101040 0.003120 1.915550 
# 
# From -- ./inp_files/148653.got.cif
#   From: 2010.05.17/outbox.cif.g08.bks.cpg/sg2_75_cif.got.tgz:148653.got - 2010.06.03 11:33:40.
