data_PCOD9051746
_publ_section_title
;
Structure prediction by ZEFSAII (Michael W. Deem and Ramdas Pophale) SiO2 
 PCOD9051746
Probable space group: P -1
;
_chemical_formula_sum "Si O2"
_cell_formula_units_Z 13
_cell_length_a 7.991287
_cell_length_b 7.234202
_cell_length_c 10.213015
_cell_angle_alpha 92.703956
_cell_angle_beta 95.678781
_cell_angle_gamma 118.127348
_cell_volume 515.167674
_symmetry_space_group_name_H-M "P -1"
_symmetry_group_IT_number 2
_symmetry_cell_setting 'triclinic'
loop_
_space_group_symop_operation_xyz
x,y,z
-x,-y,-z
loop_
_atom_site_type_symbol
_atom_site_label
_atom_site_fract_x
_atom_site_fract_y
_atom_site_fract_z
Si Si1 0.183411 0.108221 0.109788
Si Si2 0.408610 0.144560 0.360086
Si Si3 0.701498 0.956347 0.355547
Si Si4 0.500000 0.500000 0.500000
Si Si5 0.932696 0.595758 0.611444
Si Si6 0.140765 0.523518 0.126852
Si Si7 0.541388 0.722707 0.077203
O O1 0.224121 0.035996 0.250140
O O2 0.181714 0.326745 0.140585
O O3 0.352149 0.125567 0.029662
O O4 0.000000 0.000000 0.000000
O O5 0.548234 0.045403 0.351800
O O6 0.523611 0.393358 0.355828
O O7 0.353664 0.167284 0.511358
O O8 0.914423 0.153900 0.371253
O O9 0.669333 0.812480 0.221199
O O10 0.711270 0.527903 0.570663
O O11 0.946375 0.480098 0.740224
O O12 0.000000 0.500000 0.500000
O O13 0.344260 0.708078 0.107115
O O14 0.000000 0.500000 0.000000
O O15 0.500000 0.500000 0.000000
#
# Coordination Sequence:
#
# PCOD9051746 Si02
#       7
#     2   2   2   1   2   2   2
#     4  11  25  48  71 112 149 200 252 316 391 466
#     4  11  26  46  80 110 155 202 255 327 388 467
#     4  11  26  48  76 115 152 202 265 320 389 471
#     4  12  24  50  76 112 160 192 258 318 390 464
#     4  12  26  48  77 115 152 205 258 326 391 458
#     4  11  26  47  70 105 148 198 252 313 383 461
#     4  10  25  47  74 108 153 199 252 317 390 456
#
# _framework density 25.234504000000001
#
# number of rings (size 3 to 8) (size 9 to 14) (size 15 to 20)
#    0.000    0.923    3.077    1.846    8.615    1.231 
#    8.308    0.000    0.000    0.000    0.000    0.000 
#    0.000    0.000    0.000    0.000    0.000    0.000 
#
# Total GULP energy -72416.042464 kJ/mol
# GULP energy per Si atom -5570.464805 kJ/mol
# Density = 2.517707 g / cm^3
# Si number density = 25.234504 Si / 1000 Ang^3
#
#
#
# Elastic Constant Matrix: (Units=GPa)
#
#
# Indices 1 2 3 4 5 6 
#
# 1 83.8964 25.9368 63.5538 -8.8289 8.6012 10.6090
# 2 25.9368 76.4504 49.4145 14.5938 2.4774 5.6197
# 3 63.5538 49.4145 215.6547 14.3512 -3.3455 13.2945
# 4 -8.8289 14.5938 14.3512 40.2973 5.7158 3.5154
# 5 8.6012 2.4774 -3.3455 5.7158 58.8285 7.7074
# 6 10.6090 5.6197 13.2945 3.5154 7.7074 52.0531
#
#
#
# Elastic Compliance Matrix: (Units=1/GPa)
#
#
# Indices 1 2 3 4 5 6 
#
# 1 0.018406 -0.004356 -0.004881 0.007997 -0.003289 -0.002088
# 2 -0.004356 0.017216 -0.002223 -0.006454 0.000416 -0.000029
# 3 -0.004881 -0.002223 0.006833 -0.002869 0.001546 -0.000546
# 4 0.007997 -0.006454 -0.002869 0.030616 -0.003812 -0.001703
# 5 -0.003289 0.000416 0.001546 -0.003812 0.018209 -0.002208
# 6 -0.002088 -0.000029 -0.000546 -0.001703 -0.002208 0.020221
#
#
# Mechanical properties :
#
#
# Convention : Reuss Voigt Hill
#
# Bulk Modulus (GPa) = 51.19027 72.64574 61.91801
# Shear Modulus (GPa) = 35.47738 46.04221 40.75980
#
# Velocity S-wave (km/s) = 3.75361 4.27614 4.02337
# Velocity P-wave (km/s) = 6.25428 7.29597 6.79512
#
# Compressibility (1/GPa) = 0.01953496
#
# Stress axis : x y z
#
# Youngs Moduli (GPa) = 54.32948 58.08540 146.34052
#
# Poissons Ratio (x) = 0.25305 0.71423
# Poissons Ratio (y) = 0.23668 0.32535
# Poissons Ratio (z) = 0.26516 0.12914
#
# Static dielectric constant tensor:
#      x y z
#    x 1.982400 0.014970 -0.004010 
#    y 0.014970 0.914130 0.109530 
#    z -0.004010 0.109530 2.069300 
# 
# From -- ./inp_files/155654.got.cif
#   From: 2010.05.17/outbox.cif.g08.bks.cpg/sg2_78_cif.got.tgz:155654.got - 2010.06.03 11:33:40.
