data_PCOD9051072
_publ_section_title
;
Structure prediction by ZEFSAII (Michael W. Deem and Ramdas Pophale) SiO2 
 PCOD9051072
Probable space group: P -1
;
_chemical_formula_sum "Si O2"
_cell_formula_units_Z 16
_cell_length_a 22.528937
_cell_length_b 4.868643
_cell_length_c 9.357252
_cell_angle_alpha 66.549142
_cell_angle_beta 133.733594
_cell_angle_gamma 95.592864
_cell_volume 655.459956
_symmetry_space_group_name_H-M "P -1"
_symmetry_group_IT_number 2
_symmetry_cell_setting 'triclinic'
loop_
_space_group_symop_operation_xyz
x,y,z
-x,-y,-z
loop_
_atom_site_type_symbol
_atom_site_label
_atom_site_fract_x
_atom_site_fract_y
_atom_site_fract_z
Si Si1 0.386712 0.713195 0.121249
Si Si2 0.449671 0.767608 0.526905
Si Si3 0.879211 0.708134 0.516112
Si Si4 0.307135 0.335284 0.702393
Si Si5 0.786733 0.350324 0.085537
Si Si6 0.011525 0.960843 0.195865
Si Si7 0.177250 0.016695 0.045339
Si Si8 0.683029 0.026275 0.485149
O O1 0.403962 0.689998 0.325064
O O2 0.474982 0.525228 0.236761
O O3 0.302246 0.591469 0.990096
O O4 0.360576 0.062912 0.948176
O O5 0.385237 0.921073 0.512131
O O6 0.500000 0.000000 0.500000
O O7 0.792215 0.639619 0.439259
O O8 0.934522 0.390216 0.605111
O O9 0.849684 0.028952 0.311969
O O10 0.938325 0.798066 0.716534
O O11 0.329504 0.658091 0.691474
O O12 0.322754 0.233798 0.583560
O O13 0.819720 0.654194 0.085632
O O14 0.774783 0.264628 0.918650
O O15 0.917679 0.013415 0.092282
O O16 0.000000 0.000000 0.000000
O O17 0.225978 0.013626 0.277038
#
# Coordination Sequence:
#
# PCOD9051072 Si02
#       8
#     2   2   2   2   2   2   2   2
#     4  10  25  45  69 101 135 180 222 274 345 399
#     4  11  25  45  73  98 138 177 226 276 337 411
#     4  11  24  44  66  96 136 174 226 272 342 391
#     4  11  26  45  70 100 139 179 223 282 333 403
#     4  11  24  43  69  98 130 177 220 279 332 403
#     4  12  25  42  64  95 133 181 219 280 336 397
#     4  12  24  41  68  97 135 172 230 274 335 392
#     4  12  26  45  70 102 136 179 229 277 335 404
#
# _framework density 24.410340999999999
#
# number of rings (size 3 to 8) (size 9 to 14) (size 15 to 20)
#    0.000    0.750    1.250    5.625    5.250    6.000 
#    0.000    0.000    0.000    0.000    0.000    0.000 
#    0.000    0.000    0.000    0.000    0.000    0.000 
#
# Total GULP energy -89689.661214 kJ/mol
# GULP energy per Si atom -5605.603826 kJ/mol
# Density = 2.435478 g / cm^3
# Si number density = 24.410341 Si / 1000 Ang^3
#
#
#
# Elastic Constant Matrix: (Units=GPa)
#
#
# Indices 1 2 3 4 5 6 
#
# 1 89.0313 -0.9192 21.5666 -3.5078 15.1364 -1.1566
# 2 -0.9192 83.1979 2.3841 1.4058 0.6013 4.8299
# 3 21.5666 2.3841 94.8748 -16.2020 9.4291 -0.5794
# 4 -3.5078 1.4058 -16.2020 27.5804 -2.2094 -9.9070
# 5 15.1364 0.6013 9.4291 -2.2094 37.0343 -3.8305
# 6 -1.1566 4.8299 -0.5794 -9.9070 -3.8305 41.7313
#
#
#
# Elastic Compliance Matrix: (Units=1/GPa)
#
#
# Indices 1 2 3 4 5 6 
#
# 1 0.012594 0.000260 -0.002469 -0.000301 -0.004562 -0.000206
# 2 0.000260 0.012178 -0.000614 -0.001645 -0.000436 -0.001841
# 3 -0.002469 -0.000614 0.012588 0.007655 -0.001538 0.001854
# 4 -0.000301 -0.001645 0.007655 0.044969 0.002037 0.011151
# 5 -0.004562 -0.000436 -0.001538 0.002037 0.029709 0.003113
# 6 -0.000206 -0.001841 0.001854 0.011151 0.003113 0.027129
#
#
# Mechanical properties :
#
#
# Convention : Reuss Voigt Hill
#
# Bulk Modulus (GPa) = 31.53110 34.79634 33.16372
# Shear Modulus (GPa) = 32.17864 37.54070 34.85967
#
# Velocity S-wave (km/s) = 3.63469 3.92586 3.78308
# Velocity P-wave (km/s) = 5.52809 5.90217 5.71819
#
# Compressibility (1/GPa) = 0.03171472
#
# Stress axis : x y z
#
# Youngs Moduli (GPa) = 79.40438 82.11648 79.43981
#
# Poissons Ratio (x) = -0.02134 0.19610
# Poissons Ratio (y) = -0.02063 0.04876
# Poissons Ratio (z) = 0.19601 0.05041
#
# Static dielectric constant tensor:
#      x y z
#    x 1.920550 -0.006550 -0.003970 
#    y -0.006550 1.939840 0.032330 
#    z -0.003970 0.032330 2.044290 
# 
# From -- ./inp_files/39901.got.cif
#   From: 2010.05.17/outbox.cif.g08.bks.cpg/sg2_20_cif.got.tgz:39901.got - 2010.06.03 11:33:40.
