data_PCOD9051811
_publ_section_title
;
Structure prediction by ZEFSAII (Michael W. Deem and Ramdas Pophale) SiO2 
 PCOD9051811
Probable space group: P -1
;
_chemical_formula_sum "Si O2"
_cell_formula_units_Z 14
_cell_length_a 6.578029
_cell_length_b 13.407510
_cell_length_c 9.257233
_cell_angle_alpha 70.686424
_cell_angle_beta 129.225803
_cell_angle_gamma 100.813940
_cell_volume 596.612073
_symmetry_space_group_name_H-M "P -1"
_symmetry_group_IT_number 2
_symmetry_cell_setting 'triclinic'
loop_
_space_group_symop_operation_xyz
x,y,z
-x,-y,-z
loop_
_atom_site_type_symbol
_atom_site_label
_atom_site_fract_x
_atom_site_fract_y
_atom_site_fract_z
Si Si1 0.285149 0.689642 0.252844
Si Si2 0.755479 0.113731 0.299119
Si Si3 0.827729 0.845400 0.969201
Si Si4 0.820312 0.729158 0.552227
Si Si5 0.286673 0.471826 0.199231
Si Si6 0.823299 0.400289 0.439096
Si Si7 0.992218 0.027140 0.738611
O O1 0.540139 0.761883 0.340970
O O2 0.364015 0.580857 0.259484
O O3 0.218852 0.653451 0.400936
O O4 0.024726 0.750904 0.052054
O O5 0.479640 0.177458 0.145004
O O6 0.804162 0.069521 0.504384
O O7 0.015210 0.179169 0.348103
O O8 0.766594 0.024330 0.222573
O O9 0.862093 0.940826 0.825451
O O10 0.921922 0.884291 0.151196
O O11 0.758350 0.629791 0.672325
O O12 0.021933 0.681702 0.549883
O O13 0.538303 0.438187 0.232595
O O14 0.000000 0.500000 0.000000
O O15 0.000000 0.500000 0.500000
#
# Coordination Sequence:
#
# PCOD9051811 Si02
#       7
#     2   2   2   2   2   2   2
#     4  11  24  42  64  97 132 173 218 269 325 388
#     4  11  25  44  73 100 132 174 229 271 338 403
#     4  11  25  44  73 100 132 176 223 276 339 400
#     4  11  24  43  65  96 131 176 216 269 323 392
#     4  11  25  40  61  96 138 170 216 267 319 385
#     4  11  20  42  66  84 129 180 217 257 322 380
#     4  10  25  48  68  99 137 170 218 287 340 394
#
# _framework density 23.465834999999998
#
# number of rings (size 3 to 8) (size 9 to 14) (size 15 to 20)
#    0.000    1.143    2.857    2.571    4.000   10.857 
#    0.000    0.000    0.000    0.000    0.000    0.000 
#    0.000    0.000    0.000    0.000    0.000    0.000 
#
# Total GULP energy -78251.921674 kJ/mol
# GULP energy per Si atom -5589.422977 kJ/mol
# Density = 2.341243 g / cm^3
# Si number density = 23.465835 Si / 1000 Ang^3
#
#
#
# Elastic Constant Matrix: (Units=GPa)
#
#
# Indices 1 2 3 4 5 6 
#
# 1 105.9679 18.4412 39.8637 2.1089 28.3492 -2.1177
# 2 18.4412 70.9704 15.8763 -1.5862 -3.3575 2.6446
# 3 39.8637 15.8763 80.8232 0.1713 19.3338 3.8115
# 4 2.1089 -1.5862 0.1713 27.4721 -11.5248 -0.5822
# 5 28.3492 -3.3575 19.3338 -11.5248 48.1731 3.9880
# 6 -2.1177 2.6446 3.8115 -0.5822 3.9880 36.6861
#
#
#
# Elastic Compliance Matrix: (Units=1/GPa)
#
#
# Indices 1 2 3 4 5 6 
#
# 1 0.013906 -0.003176 -0.004448 -0.004481 -0.007880 0.002279
# 2 -0.003176 0.015876 -0.002669 0.003219 0.004944 -0.001537
# 3 -0.004448 -0.002669 0.016206 -0.001784 -0.004392 -0.001299
# 4 -0.004481 0.003219 -0.001784 0.042748 0.013898 -0.001138
# 5 -0.007880 0.004944 -0.004392 0.013898 0.031119 -0.003517
# 6 0.002279 -0.001537 -0.001299 -0.001138 -0.003517 0.028000
#
#
# Mechanical properties :
#
#
# Convention : Reuss Voigt Hill
#
# Bulk Modulus (GPa) = 39.36664 45.12487 42.24575
# Shear Modulus (GPa) = 28.26332 34.70494 31.48413
#
# Velocity S-wave (km/s) = 3.47428 3.84989 3.66690
# Velocity P-wave (km/s) = 5.73644 6.24772 5.99753
#
# Compressibility (1/GPa) = 0.02540222
#
# Stress axis : x y z
#
# Youngs Moduli (GPa) = 71.91365 62.98870 61.70447
#
# Poissons Ratio (x) = 0.20007 0.27443
# Poissons Ratio (y) = 0.22841 0.16469
# Poissons Ratio (z) = 0.31984 0.16812
#
# Static dielectric constant tensor:
#      x y z
#    x 1.874420 -0.002220 0.042770 
#    y -0.002220 1.562880 -0.121020 
#    z 0.042770 -0.121020 1.931200 
# 
# From -- ./inp_files/135052.got.cif
#   From: 2010.05.17/outbox.cif.g08.bks.cpg/sg2_68_cif.got.tgz:135052.got - 2010.06.03 11:33:40.
