data_PCOD9051868
_publ_section_title
;
Structure prediction by ZEFSAII (Michael W. Deem and Ramdas Pophale) SiO2 
 PCOD9051868
Probable space group: P -1
;
_chemical_formula_sum "Si O2"
_cell_formula_units_Z 16
_cell_length_a 12.856426
_cell_length_b 15.828215
_cell_length_c 15.323723
_cell_angle_alpha 151.955580
_cell_angle_beta 123.699530
_cell_angle_gamma 37.694492
_cell_volume 776.704040
_symmetry_space_group_name_H-M "P -1"
_symmetry_group_IT_number 2
_symmetry_cell_setting 'triclinic'
loop_
_space_group_symop_operation_xyz
x,y,z
-x,-y,-z
loop_
_atom_site_type_symbol
_atom_site_label
_atom_site_fract_x
_atom_site_fract_y
_atom_site_fract_z
Si Si1 0.843558 0.181451 0.516306
Si Si2 0.790401 0.826813 0.191438
Si Si3 0.544036 0.903315 0.834797
Si Si4 0.073686 0.726735 0.542946
Si Si5 0.570674 0.861597 0.266516
Si Si6 0.073999 0.006020 0.951709
Si Si7 0.174828 0.372623 0.656416
Si Si8 0.535367 0.247687 0.046959
O O1 0.928947 0.176855 0.465113
O O2 0.654981 0.494255 0.749678
O O3 0.794969 0.026246 0.345506
O O4 0.000000 0.000000 0.500000
O O5 0.660395 0.921677 0.302522
O O6 0.670334 0.875498 0.102266
O O7 0.000000 0.500000 0.000000
O O8 0.698452 0.573036 0.605157
O O9 0.500000 0.000000 0.000000
O O10 0.634291 0.958124 0.866963
O O11 0.943776 0.686693 0.445478
O O12 0.024753 0.923851 0.775053
O O13 0.727323 0.673770 0.247665
O O14 0.360443 0.138903 0.464647
O O15 0.534951 0.730771 0.064351
O O16 0.302983 0.784502 0.881213
O O17 0.964748 0.313975 0.157977
O O18 0.000000 0.000000 0.000000
#
# Coordination Sequence:
#
# PCOD9051868 Si02
#       8
#     2   2   2   2   2   2   2   2
#     4  12  26  43  69 111 144 183 241 292 365 436
#     4  11  26  43  73  99 145 189 229 295 363 422
#     4  11  23  42  68 102 140 182 228 286 363 419
#     4  12  27  46  74 110 145 192 241 298 360 434
#     4  10  25  48  73 101 136 198 235 294 366 417
#     4  12  29  45  74 106 141 194 244 296 357 430
#     4  11  26  50  73 100 145 189 248 296 355 421
#     4  11  24  44  72 103 144 184 235 299 361 426
#
# _framework density 20.599867
#
# number of rings (size 3 to 8) (size 9 to 14) (size 15 to 20)
#    0.000    0.750    2.500    3.750   12.250    2.000 
#    0.000    1.875    0.000    0.000    0.000    0.000 
#    0.000    0.000    0.000    0.000    0.000    0.000 
#
# Total GULP energy -89223.430339 kJ/mol
# GULP energy per Si atom -5576.464396 kJ/mol
# Density = 2.055298 g / cm^3
# Si number density = 20.599867 Si / 1000 Ang^3
#
#
#
# Elastic Constant Matrix: (Units=GPa)
#
#
# Indices 1 2 3 4 5 6 
#
# 1 139.9241 88.6718 68.2771 -7.3252 3.0248 9.4180
# 2 88.6718 156.1652 58.5840 -6.2498 -6.9900 5.1460
# 3 68.2771 58.5840 108.1799 -6.3818 5.2160 7.8775
# 4 -7.3252 -6.2498 -6.3818 34.0330 4.4066 -3.1357
# 5 3.0248 -6.9900 5.2160 4.4066 32.2669 -2.9748
# 6 9.4180 5.1460 7.8775 -3.1357 -2.9748 38.0415
#
#
#
# Elastic Compliance Matrix: (Units=1/GPa)
#
#
# Indices 1 2 3 4 5 6 
#
# 1 0.013483 -0.005722 -0.005144 0.000995 -0.001952 -0.001569
# 2 -0.005722 0.010667 -0.002382 -0.000082 0.003310 0.000719
# 3 -0.005144 -0.002382 0.014087 0.001306 -0.002620 -0.001419
# 4 0.000995 -0.000082 0.001306 0.030543 -0.004339 0.001673
# 5 -0.001952 0.003310 -0.002620 -0.004339 0.033167 0.002814
# 6 -0.001569 0.000719 -0.001419 0.001673 0.002814 0.027230
#
#
# Mechanical properties :
#
#
# Convention : Reuss Voigt Hill
#
# Bulk Modulus (GPa) = 85.16933 92.81503 88.99218
# Shear Modulus (GPa) = 31.33102 33.45069 32.39085
#
# Velocity S-wave (km/s) = 3.90414 4.03405 3.96963
# Velocity P-wave (km/s) = 7.85859 8.17631 8.01902
#
# Compressibility (1/GPa) = 0.01174132
#
# Stress axis : x y z
#
# Youngs Moduli (GPa) = 74.17014 93.74548 70.98713
#
# Poissons Ratio (x) = 0.53638 0.36514
# Poissons Ratio (y) = 0.42438 0.16911
# Poissons Ratio (z) = 0.38151 0.22333
#
# Static dielectric constant tensor:
#      x y z
#    x 1.717790 0.025920 0.005670 
#    y 0.025920 1.699430 0.006910 
#    z 0.005670 0.006910 1.711580 
# 
# From -- ./inp_files/522658.got.cif
#   From: 2010.05.17/outbox.cif.g08.bks.cpg/sg2_262_cif.got.tgz:522658.got - 2010.06.03 11:33:40.
