data_PCOD9051125
_publ_section_title
;
Structure prediction by ZEFSAII (Michael W. Deem and Ramdas Pophale) SiO2 
 PCOD9051125
Probable space group: P -1
;
_chemical_formula_sum "Si O2"
_cell_formula_units_Z 12
_cell_length_a 8.721854
_cell_length_b 10.537974
_cell_length_c 8.963636
_cell_angle_alpha 66.205418
_cell_angle_beta 108.486370
_cell_angle_gamma 136.687117
_cell_volume 516.746954
_symmetry_space_group_name_H-M "P -1"
_symmetry_group_IT_number 2
_symmetry_cell_setting 'triclinic'
loop_
_space_group_symop_operation_xyz
x,y,z
-x,-y,-z
loop_
_atom_site_type_symbol
_atom_site_label
_atom_site_fract_x
_atom_site_fract_y
_atom_site_fract_z
Si Si1 0.621452 0.687451 0.549517
Si Si2 0.893596 0.104312 0.476247
Si Si3 0.567796 0.397047 0.147407
Si Si4 0.945160 0.405857 0.215563
Si Si5 0.745920 0.202658 0.940987
Si Si6 0.139273 0.973768 0.152632
O O1 0.500000 0.500000 0.500000
O O2 0.473114 0.603687 0.690899
O O3 0.878113 0.785997 0.597777
O O4 0.689945 0.891571 0.446288
O O5 0.866681 0.253451 0.390442
O O6 0.936360 0.086936 0.670001
O O7 0.798634 0.458421 0.155873
O O8 0.387572 0.179288 0.141700
O O9 0.500000 0.500000 0.000000
O O10 0.202388 0.610910 0.194473
O O11 0.878624 0.288964 0.097660
O O12 0.843706 0.156523 0.871341
O O13 0.500000 0.000000 0.000000
O O14 0.000000 0.000000 0.000000
#
# Coordination Sequence:
#
# PCOD9051125 Si02
#       6
#     2   2   2   2   2   2
#     4  10  25  45  70 103 140 188 231 295 351 424
#     4  10  26  47  67 106 143 183 241 293 355 422
#     4  11  25  45  71 105 140 185 241 290 357 428
#     4  11  26  46  70 102 146 182 239 301 351 423
#     4  11  25  46  69 104 137 188 233 293 357 426
#     4  11  25  45  72 101 144 187 235 295 355 425
#
# _framework density 23.222200000000001
#
# number of rings (size 3 to 8) (size 9 to 14) (size 15 to 20)
#    0.000    1.333    1.667    1.000   16.333    4.667 
#    0.000    0.000    0.000    0.000    0.000    0.000 
#    0.000    0.000    0.000    0.000    0.000    0.000 
#
# Total GULP energy -66950.167523 kJ/mol
# GULP energy per Si atom -5579.180627 kJ/mol
# Density = 2.316935 g / cm^3
# Si number density = 23.222200 Si / 1000 Ang^3
#
#
#
# Elastic Constant Matrix: (Units=GPa)
#
#
# Indices 1 2 3 4 5 6 
#
# 1 64.1941 34.3448 28.8352 3.9021 -14.8817 -8.1701
# 2 34.3448 225.4789 66.4897 -1.5976 -8.9341 -7.2289
# 3 28.8352 66.4897 92.3710 -14.2483 -4.0045 -10.8232
# 4 3.9021 -1.5976 -14.2483 38.9730 -15.5861 -4.6287
# 5 -14.8817 -8.9341 -4.0045 -15.5861 29.2512 -1.4580
# 6 -8.1701 -7.2289 -10.8232 -4.6287 -1.4580 36.4709
#
#
#
# Elastic Compliance Matrix: (Units=1/GPa)
#
#
# Indices 1 2 3 4 5 6 
#
# 1 0.021188 -0.001314 -0.004709 0.000625 0.010245 0.003578
# 2 -0.001314 0.005787 -0.004002 -0.001197 -0.000111 -0.000491
# 3 -0.004709 -0.004002 0.017163 0.008507 0.003487 0.004464
# 4 0.000625 -0.001197 0.008507 0.038428 0.022000 0.008184
# 5 0.010245 -0.000111 0.003487 0.022000 0.051973 0.008178
# 6 0.003578 -0.000491 0.004464 0.008184 0.008178 0.030814
#
#
# Mechanical properties :
#
#
# Convention : Reuss Voigt Hill
#
# Bulk Modulus (GPa) = 41.51391 71.26480 56.38936
# Shear Modulus (GPa) = 25.84904 37.76397 31.80650
#
# Velocity S-wave (km/s) = 3.33996 4.03699 3.70491
# Velocity P-wave (km/s) = 5.72620 7.24463 6.52970
#
# Compressibility (1/GPa) = 0.02408831
#
# Stress axis : x y z
#
# Youngs Moduli (GPa) = 47.19618 172.81099 58.26430
#
# Poissons Ratio (x) = 0.22703 0.27435
# Poissons Ratio (y) = 0.06200 0.23319
# Poissons Ratio (z) = 0.22224 0.69164
#
# Static dielectric constant tensor:
#      x y z
#    x 1.962940 0.012490 0.048220 
#    y 0.012490 1.962240 -0.053150 
#    z 0.048220 -0.053150 1.972520 
# 
# From -- ./inp_files/157551.got.cif
#   From: 2010.05.17/outbox.cif.g08.bks.cpg/sg2_79_cif.got.tgz:157551.got - 2010.06.03 11:33:40.
