data_PCOD9051604
_publ_section_title
;
Structure prediction by ZEFSAII (Michael W. Deem and Ramdas Pophale) SiO2 
 PCOD9051604
Probable space group: P -1
;
_chemical_formula_sum "Si O2"
_cell_formula_units_Z 16
_cell_length_a 8.776020
_cell_length_b 12.667885
_cell_length_c 21.384081
_cell_angle_alpha 29.523987
_cell_angle_beta 140.092665
_cell_angle_gamma 144.814226
_cell_volume 661.848733
_symmetry_space_group_name_H-M "P -1"
_symmetry_group_IT_number 2
_symmetry_cell_setting 'triclinic'
loop_
_space_group_symop_operation_xyz
x,y,z
-x,-y,-z
loop_
_atom_site_type_symbol
_atom_site_label
_atom_site_fract_x
_atom_site_fract_y
_atom_site_fract_z
Si Si1 0.523165 0.756450 0.627980
Si Si2 0.063516 0.330148 0.651786
Si Si3 0.792454 0.233321 0.182862
Si Si4 0.690566 0.843487 0.843673
Si Si5 0.649781 0.503759 0.901591
Si Si6 0.566022 0.760503 0.281769
Si Si7 0.187634 0.258445 0.395518
Si Si8 0.821821 0.020849 0.989636
O O1 0.233985 0.515736 0.664771
O O2 0.710669 0.700495 0.763777
O O3 0.622844 0.764316 0.585159
O O4 0.500000 0.000000 0.500000
O O5 0.243655 0.237193 0.716717
O O6 0.000000 0.500000 0.500000
O O7 0.796346 0.101271 0.709947
O O8 0.510264 0.187101 0.148416
O O9 0.999654 0.326502 0.257139
O O10 0.741309 0.967827 0.279972
O O11 0.839115 0.417081 0.045029
O O12 0.557794 0.627243 0.863915
O O13 0.967317 0.862619 0.948002
O O14 0.416726 0.250004 0.933360
O O15 0.384238 0.478045 0.389082
O O16 0.341978 0.836361 0.150912
O O17 0.000000 0.000000 0.500000
O O18 0.000000 0.000000 0.000000
#
# Coordination Sequence:
#
# PCOD9051604 Si02
#       8
#     2   2   2   2   2   2   2   2
#     4  11  26  47  71 101 140 189 233 293 357 422
#     4  11  26  46  68 100 141 187 239 290 354 422
#     4  11  26  44  71 106 138 185 236 286 361 414
#     4  12  24  41  73 103 140 186 232 290 350 422
#     4  11  24  43  71 103 140 181 239 280 355 422
#     4  10  25  47  68 100 142 180 233 289 351 418
#     4  11  28  47  69 104 140 182 237 293 351 425
#     4  11  22  44  69 104 145 181 230 292 355 416
#
# _framework density 24.174706
#
# number of rings (size 3 to 8) (size 9 to 14) (size 15 to 20)
#    0.000    1.000    3.750    1.875   10.500    2.500 
#    4.500    0.000    0.000    0.000    0.000    0.000 
#    0.000    0.000    0.000    0.000    0.000    0.000 
#
# Total GULP energy -89414.830621 kJ/mol
# GULP energy per Si atom -5588.426914 kJ/mol
# Density = 2.411968 g / cm^3
# Si number density = 24.174706 Si / 1000 Ang^3
#
#
#
# Elastic Constant Matrix: (Units=GPa)
#
#
# Indices 1 2 3 4 5 6 
#
# 1 59.6702 13.0009 36.1484 -15.3023 1.2087 -2.8611
# 2 13.0009 96.9978 12.6621 -22.2431 5.5978 -8.3051
# 3 36.1484 12.6621 140.8059 -12.6954 -3.6384 -0.0490
# 4 -15.3023 -22.2431 -12.6954 55.4693 5.6733 9.2173
# 5 1.2087 5.5978 -3.6384 5.6733 40.5028 -3.2116
# 6 -2.8611 -8.3051 -0.0490 9.2173 -3.2116 31.0283
#
#
#
# Elastic Compliance Matrix: (Units=1/GPa)
#
#
# Indices 1 2 3 4 5 6 
#
# 1 0.021180 -0.001075 -0.004984 0.004396 -0.001532 0.000193
# 2 -0.001075 0.011746 -0.000449 0.004267 -0.002106 0.001559
# 3 -0.004984 -0.000449 0.008480 0.000395 0.000870 -0.000594
# 4 0.004396 0.004267 0.000395 0.022400 -0.004263 -0.005547
# 5 -0.001532 -0.002106 0.000870 -0.004263 0.025959 0.003250
# 6 0.000193 0.001559 -0.000594 -0.005547 0.003250 0.034647
#
#
# Mechanical properties :
#
#
# Convention : Reuss Voigt Hill
#
# Bulk Modulus (GPa) = 35.22578 46.78852 41.00715
# Shear Modulus (GPa) = 34.03875 41.11092 37.57483
#
# Velocity S-wave (km/s) = 3.75645 4.12828 3.94674
# Velocity P-wave (km/s) = 5.78079 6.48999 6.14562
#
# Compressibility (1/GPa) = 0.02838830
#
# Stress axis : x y z
#
# Youngs Moduli (GPa) = 47.21465 85.13727 117.92729
#
# Poissons Ratio (x) = 0.09155 0.58774
# Poissons Ratio (y) = 0.05077 0.05299
# Poissons Ratio (z) = 0.23531 0.03826
#
# Static dielectric constant tensor:
#      x y z
#    x 1.895890 0.018250 -0.033760 
#    y 0.018250 1.963530 -0.002560 
#    z -0.033760 -0.002560 1.900880 
# 
# From -- ./inp_files/589401.got.cif
#   From: 2010.05.17/outbox.cif.g08.bks.cpg/sg2_295_cif.got.tgz:589401.got - 2010.06.03 11:33:40.
