data_PCOD9051281
_publ_section_title
;
Structure prediction by ZEFSAII (Michael W. Deem and Ramdas Pophale) SiO2 
 PCOD9051281
Probable space group: P -1
;
_chemical_formula_sum "Si O2"
_cell_formula_units_Z 16
_cell_length_a 14.636221
_cell_length_b 14.405137
_cell_length_c 15.075995
_cell_angle_alpha 43.111149
_cell_angle_beta 39.771886
_cell_angle_gamma 20.515693
_cell_volume 711.911638
_symmetry_space_group_name_H-M "P -1"
_symmetry_group_IT_number 2
_symmetry_cell_setting 'triclinic'
loop_
_space_group_symop_operation_xyz
x,y,z
-x,-y,-z
loop_
_atom_site_type_symbol
_atom_site_label
_atom_site_fract_x
_atom_site_fract_y
_atom_site_fract_z
Si Si1 0.310615 0.686969 0.096160
Si Si2 0.741692 0.289019 0.537772
Si Si3 0.118121 0.542871 0.330098
Si Si4 0.483793 0.680792 0.148167
Si Si5 0.286224 0.994030 0.832216
Si Si6 0.310932 0.201283 0.807733
Si Si7 0.933837 0.740602 0.907127
Si Si8 0.916482 0.746076 0.703791
O O1 0.157863 0.668992 0.251275
O O2 0.483887 0.600838 0.111472
O O3 0.500000 0.500000 0.000000
O O4 0.163459 0.947991 0.988156
O O5 0.500000 0.500000 0.500000
O O6 0.600458 0.343105 0.690542
O O7 0.867624 0.327591 0.446590
O O8 0.000000 0.000000 0.500000
O O9 0.426494 0.258300 0.261124
O O10 0.000000 0.500000 0.500000
O O11 0.914470 0.750216 0.256907
O O12 0.777816 0.502363 0.084501
O O13 0.232906 0.992669 0.120745
O O14 0.350205 0.029821 0.846373
O O15 0.044095 0.495607 0.762919
O O16 0.608901 0.029440 0.702637
O O17 0.251463 0.230193 0.936583
O O18 0.941739 0.741031 0.795290
#
# Coordination Sequence:
#
# PCOD9051281 Si02
#       8
#     2   2   2   2   2   2   2   2
#     4  10  25  45  75 107 140 184 244 294 359 430
#     4  12  23  45  67  93 137 185 234 285 342 420
#     4  11  25  47  74 104 142 181 228 302 369 427
#     4  12  24  42  71 101 133 189 230 292 344 415
#     4  11  24  45  72 101 142 186 237 292 355 434
#     4  12  25  40  67 100 138 181 232 286 346 415
#     4  12  24  42  67  97 142 175 240 279 347 405
#     4  12  24  42  65 100 139 189 229 287 347 408
#
# _framework density 22.474699000000001
#
# number of rings (size 3 to 8) (size 9 to 14) (size 15 to 20)
#    0.000    0.500    3.750    4.500    3.500    4.000 
#    0.000    0.000    0.000    0.000    0.000    0.000 
#    0.000    0.000    0.000    0.000    0.000    0.000 
#
# Total GULP energy -89224.160350 kJ/mol
# GULP energy per Si atom -5576.510022 kJ/mol
# Density = 2.242355 g / cm^3
# Si number density = 22.474699 Si / 1000 Ang^3
#
#
#
# Elastic Constant Matrix: (Units=GPa)
#
#
# Indices 1 2 3 4 5 6 
#
# 1 109.2452 34.8459 19.2442 -1.3267 2.2775 2.8994
# 2 34.8459 122.9164 6.3585 -6.5155 9.1199 -12.8080
# 3 19.2442 6.3585 128.6481 -6.8214 -21.9075 -3.7915
# 4 -1.3267 -6.5155 -6.8214 28.8964 -8.3730 -1.8615
# 5 2.2775 9.1199 -21.9075 -8.3730 35.8476 -2.6272
# 6 2.8994 -12.8080 -3.7915 -1.8615 -2.6272 36.2511
#
#
#
# Elastic Compliance Matrix: (Units=1/GPa)
#
#
# Indices 1 2 3 4 5 6 
#
# 1 0.010531 -0.003088 -0.001797 -0.001198 -0.001429 -0.002286
# 2 -0.003088 0.009605 -0.000090 0.001764 -0.001626 0.003604
# 3 -0.001797 -0.000090 0.009542 0.004331 0.007116 0.001848
# 4 -0.001198 0.001764 0.004331 0.039663 0.011836 0.004066
# 5 -0.001429 -0.001626 0.007116 0.011836 0.035769 0.003484
# 6 -0.002286 0.003604 0.001848 0.004066 0.003484 0.029696
#
#
# Mechanical properties :
#
#
# Convention : Reuss Voigt Hill
#
# Bulk Modulus (GPa) = 50.68864 53.52299 52.10582
# Shear Modulus (GPa) = 33.03954 40.22308 36.63131
#
# Velocity S-wave (km/s) = 3.83832 4.23508 4.04157
# Velocity P-wave (km/s) = 6.49971 6.91238 6.70922
#
# Compressibility (1/GPa) = 0.01972829
#
# Stress axis : x y z
#
# Youngs Moduli (GPa) = 94.95524 104.10709 104.79770
#
# Poissons Ratio (x) = 0.32152 0.18832
# Poissons Ratio (y) = 0.29325 0.00943
# Poissons Ratio (z) = 0.17063 0.00937
#
# Static dielectric constant tensor:
#      x y z
#    x 1.980120 0.070500 -0.007830 
#    y 0.070500 1.868640 -0.071600 
#    z -0.007830 -0.071600 1.916910 
# 
# From -- ./inp_files/534246.got.cif
#   From: 2010.05.17/outbox.cif.g08.bks.cpg/sg2_268_cif.got.tgz:534246.got - 2010.06.03 11:33:40.
