data_PCOD9051117
_publ_section_title
;
Structure prediction by ZEFSAII (Michael W. Deem and Ramdas Pophale) SiO2 
 PCOD9051117
Probable space group: P -1
;
_chemical_formula_sum "Si O2"
_cell_formula_units_Z 15
_cell_length_a 14.766201
_cell_length_b 8.472915
_cell_length_c 9.147595
_cell_angle_alpha 86.755881
_cell_angle_beta 39.207981
_cell_angle_gamma 66.224485
_cell_volume 593.827674
_symmetry_space_group_name_H-M "P -1"
_symmetry_group_IT_number 2
_symmetry_cell_setting 'triclinic'
loop_
_space_group_symop_operation_xyz
x,y,z
-x,-y,-z
loop_
_atom_site_type_symbol
_atom_site_label
_atom_site_fract_x
_atom_site_fract_y
_atom_site_fract_z
Si Si1 0.854294 0.318849 0.839717
Si Si2 0.472369 0.655840 0.736258
Si Si3 0.000000 0.000000 0.500000
Si Si4 0.621898 0.222669 0.485804
Si Si5 0.736197 0.690888 0.592056
Si Si6 0.321282 0.233781 0.011811
Si Si7 0.979974 0.751540 0.756117
Si Si8 0.943675 0.818027 0.135854
O O1 0.786753 0.535170 0.889641
O O2 0.885093 0.274335 0.974157
O O3 0.017477 0.165453 0.548456
O O4 0.713577 0.276441 0.961902
O O5 0.571714 0.425291 0.604111
O O6 0.435179 0.740898 0.614972
O O7 0.579728 0.707445 0.697854
O O8 0.026651 0.894014 0.629938
O O9 0.820112 0.047543 0.268143
O O10 0.506486 0.162474 0.715495
O O11 0.672383 0.796346 0.821655
O O12 0.835764 0.752062 0.362011
O O13 0.877301 0.465047 0.462310
O O14 0.214431 0.172010 0.057903
O O15 0.982824 0.740681 0.927882
#
# Coordination Sequence:
#
# PCOD9051117 Si02
#       8
#     2   2   1   2   2   2   2   2
#     4  11  25  46  71 106 143 191 226 296 344 428
#     4  10  25  45  70 101 147 183 234 281 365 408
#     4  12  26  42  70 102 148 176 236 286 354 398
#     4  10  25  45  70 103 143 184 229 297 345 421
#     4  12  25  45  74 105 137 190 236 291 348 423
#     4  11  24  49  73  97 148 187 236 281 363 412
#     4  12  26  45  72 107 140 190 232 298 343 426
#     4  12  27  44  77 106 139 182 248 281 352 413
#
# _framework density 25.259855000000002
#
# number of rings (size 3 to 8) (size 9 to 14) (size 15 to 20)
#    0.000    0.800    2.667    3.200    7.467    8.000 
#    0.000    0.000    0.000    0.000    0.000    0.000 
#    0.000    0.000    0.000    0.000    0.000    0.000 
#
# Total GULP energy -83901.771394 kJ/mol
# GULP energy per Si atom -5593.451426 kJ/mol
# Density = 2.520236 g / cm^3
# Si number density = 25.259855 Si / 1000 Ang^3
#
#
#
# Elastic Constant Matrix: (Units=GPa)
#
#
# Indices 1 2 3 4 5 6 
#
# 1 137.4644 -10.9210 34.4944 -13.9418 -3.7465 -6.7274
# 2 -10.9210 111.8097 10.8974 -3.2383 -5.6888 -18.4448
# 3 34.4944 10.8974 71.4813 -27.8756 -1.3070 -13.8179
# 4 -13.9418 -3.2383 -27.8756 49.4666 -0.8793 -0.3505
# 5 -3.7465 -5.6888 -1.3070 -0.8793 42.7887 -9.8411
# 6 -6.7274 -18.4448 -13.8179 -0.3505 -9.8411 28.5852
#
#
#
# Elastic Compliance Matrix: (Units=1/GPa)
#
#
# Indices 1 2 3 4 5 6 
#
# 1 0.008515 0.001533 -0.003895 0.000337 0.001188 0.001523
# 2 0.001533 0.010708 -0.000260 0.001108 0.003496 0.008362
# 3 -0.003895 -0.000260 0.022728 0.011827 0.003120 0.011121
# 4 0.000337 0.001108 0.011827 0.027155 0.002900 0.007843
# 5 0.001188 0.003496 0.003120 0.002900 0.027185 0.013438
# 6 0.001523 0.008362 0.011121 0.007843 0.013438 0.050836
#
#
# Mechanical properties :
#
#
# Convention : Reuss Voigt Hill
#
# Bulk Modulus (GPa) = 27.24266 43.29968 35.27117
# Shear Modulus (GPa) = 30.37546 43.25372 36.81459
#
# Velocity S-wave (km/s) = 3.47150 4.14254 3.82178
# Velocity P-wave (km/s) = 5.18428 6.32928 5.78518
#
# Compressibility (1/GPa) = 0.03670713
#
# Stress axis : x y z
#
# Youngs Moduli (GPa) = 117.44151 93.38666 43.99852
#
# Poissons Ratio (x) = -0.14314 0.17138
# Poissons Ratio (y) = -0.18001 0.01143
# Poissons Ratio (z) = 0.45744 0.02425
#
# Static dielectric constant tensor:
#      x y z
#    x 2.001350 -0.031810 -0.142280 
#    y -0.031810 2.040310 0.252350 
#    z -0.142280 0.252350 3.409570 
# 
# From -- ./inp_files/243085.got.cif
#   From: 2010.05.17/outbox.cif.g08.bks.cpg/sg2_122_cif.got.tgz:243085.got - 2010.06.03 11:33:40.
