data_PCOD9051466
_publ_section_title
;
Structure prediction by ZEFSAII (Michael W. Deem and Ramdas Pophale) SiO2 
 PCOD9051466
Probable space group: P -1
;
_chemical_formula_sum "Si O2"
_cell_formula_units_Z 16
_cell_length_a 14.319519
_cell_length_b 11.796584
_cell_length_c 4.828128
_cell_angle_alpha 111.162911
_cell_angle_beta 62.594510
_cell_angle_gamma 115.741466
_cell_volume 638.817288
_symmetry_space_group_name_H-M "P -1"
_symmetry_group_IT_number 2
_symmetry_cell_setting 'triclinic'
loop_
_space_group_symop_operation_xyz
x,y,z
-x,-y,-z
loop_
_atom_site_type_symbol
_atom_site_label
_atom_site_fract_x
_atom_site_fract_y
_atom_site_fract_z
Si Si1 0.237843 0.678585 0.793042
Si Si2 0.930320 0.580894 0.313956
Si Si3 0.875016 0.251863 0.482295
Si Si4 0.751672 0.980589 0.574478
Si Si5 0.549720 0.325569 0.769306
Si Si6 0.643849 0.592470 0.138486
Si Si7 0.781268 0.726317 0.557260
Si Si8 0.594964 0.943625 0.225126
O O1 0.186295 0.532692 0.619582
O O2 0.168590 0.749428 0.768035
O O3 0.365224 0.718920 0.573198
O O4 0.206128 0.695790 0.166138
O O5 0.895846 0.695875 0.325958
O O6 0.003406 0.647818 0.536952
O O7 0.000000 0.500000 0.000000
O O8 0.854739 0.106336 0.473759
O O9 0.784970 0.866213 0.571737
O O10 0.675792 0.939768 0.367424
O O11 0.671645 0.017861 0.937207
O O12 0.615459 0.442898 0.977915
O O13 0.469256 0.200385 0.920100
O O14 0.468170 0.375696 0.738132
O O15 0.740061 0.686364 0.891890
O O16 0.685960 0.626790 0.418419
O O17 0.500000 0.000000 0.500000
#
# Coordination Sequence:
#
# PCOD9051466 Si02
#       8
#     2   2   2   2   2   2   2   2
#     4  11  24  42  70 100 136 170 226 281 334 399
#     4  10  25  46  72 100 133 173 227 290 346 390
#     4  11  25  44  68  99 129 181 227 278 335 394
#     4  12  24  45  66  95 140 178 228 272 326 404
#     4  11  23  42  67  99 134 180 214 268 336 402
#     4  11  26  40  67  99 137 176 221 271 337 407
#     4  12  24  47  66  99 139 177 222 287 330 398
#     4  12  25  43  65 100 138 182 222 269 325 400
#
# _framework density 25.046285000000001
#
# number of rings (size 3 to 8) (size 9 to 14) (size 15 to 20)
#    0.000    0.750    3.750    3.000    3.500    7.500 
#    0.000    0.000    0.000    6.750    0.000    0.000 
#    0.000    0.000    0.000    0.000    0.000    0.000 
#
# Total GULP energy -89588.043357 kJ/mol
# GULP energy per Si atom -5599.252710 kJ/mol
# Density = 2.498928 g / cm^3
# Si number density = 25.046285 Si / 1000 Ang^3
#
#
#
# Elastic Constant Matrix: (Units=GPa)
#
#
# Indices 1 2 3 4 5 6 
#
# 1 53.0264 18.2238 9.3088 17.0114 -12.4839 -11.2050
# 2 18.2238 133.4325 3.2275 11.7820 0.7951 -1.5905
# 3 9.3088 3.2275 56.6546 7.9372 1.4961 -6.4364
# 4 17.0114 11.7820 7.9372 33.1854 -6.5405 0.8854
# 5 -12.4839 0.7951 1.4961 -6.5405 32.1210 7.6195
# 6 -11.2050 -1.5905 -6.4364 0.8854 7.6195 33.3823
#
#
#
# Elastic Compliance Matrix: (Units=1/GPa)
#
#
# Indices 1 2 3 4 5 6 
#
# 1 0.026782 -0.002569 -0.002026 -0.011235 0.006553 0.007279
# 2 -0.002569 0.008017 0.000273 -0.001909 -0.001595 -0.000013
# 3 -0.002026 0.000273 0.019130 -0.004434 -0.003524 0.003943
# 4 -0.011235 -0.001909 -0.004434 0.038895 0.005467 -0.006996
# 5 0.006553 -0.001595 -0.003524 0.005467 0.036673 -0.007072
# 6 0.007279 -0.000013 0.003943 -0.006996 -0.007072 0.034959
#
#
# Mechanical properties :
#
#
# Convention : Reuss Voigt Hill
#
# Bulk Modulus (GPa) = 22.08211 33.84819 27.96515
# Shear Modulus (GPa) = 26.56819 33.89463 30.23141
#
# Velocity S-wave (km/s) = 3.26047 3.68269 3.47799
# Velocity P-wave (km/s) = 4.79686 5.62374 5.22668
#
# Compressibility (1/GPa) = 0.04528554
#
# Stress axis : x y z
#
# Youngs Moduli (GPa) = 37.33813 124.74161 52.27294
#
# Poissons Ratio (x) = 0.32047 0.10592
# Poissons Ratio (y) = 0.09592 -0.01430
# Poissons Ratio (z) = 0.07566 -0.03412
#
# Static dielectric constant tensor:
#      x y z
#    x 1.928990 -0.000730 -0.033250 
#    y -0.000730 2.047570 0.003500 
#    z -0.033250 0.003500 1.955400 
# 
# From -- ./inp_files/95242.got.cif
#   From: 2010.05.17/outbox.cif.g08.bks.cpg/sg2_48_cif.got.tgz:95242.got - 2010.06.03 11:33:40.
