data_PCOD9051915
_publ_section_title
;
Structure prediction by ZEFSAII (Michael W. Deem and Ramdas Pophale) SiO2 
 PCOD9051915
Probable space group: P -1
;
_chemical_formula_sum "Si O2"
_cell_formula_units_Z 14
_cell_length_a 12.686121
_cell_length_b 7.672245
_cell_length_c 14.060529
_cell_angle_alpha 73.373354
_cell_angle_beta 148.619209
_cell_angle_gamma 111.576372
_cell_volume 661.594404
_symmetry_space_group_name_H-M "P -1"
_symmetry_group_IT_number 2
_symmetry_cell_setting 'triclinic'
loop_
_space_group_symop_operation_xyz
x,y,z
-x,-y,-z
loop_
_atom_site_type_symbol
_atom_site_label
_atom_site_fract_x
_atom_site_fract_y
_atom_site_fract_z
Si Si1 0.124025 0.257933 0.090802
Si Si2 0.624684 0.745863 0.902422
Si Si3 0.691715 0.672768 0.498371
Si Si4 0.905953 0.634546 0.273094
Si Si5 0.761427 0.555055 0.375683
Si Si6 0.992368 0.019265 0.208386
Si Si7 0.716982 0.373744 0.713788
O O1 0.281875 0.235818 0.134010
O O2 0.081132 0.098649 0.162610
O O3 0.214359 0.452393 0.186269
O O4 0.902590 0.271375 0.874046
O O5 0.381762 0.651758 0.727787
O O6 0.724374 0.596119 0.060591
O O7 0.740519 0.939895 0.013916
O O8 0.654287 0.646857 0.361809
O O9 0.910672 0.816598 0.669615
O O10 0.693192 0.473245 0.579994
O O11 0.507024 0.738170 0.401442
O O12 0.813470 0.664713 0.300410
O O13 0.029312 0.477828 0.410021
O O14 0.052096 0.830128 0.317280
#
# Coordination Sequence:
#
# PCOD9051915 Si02
#       7
#     2   2   2   2   2   2   2
#     4  10  17  35  55  83 111 148 177 228 279 332
#     4  10  20  37  57  83 110 148 181 231 271 334
#     4  10  19  36  55  85 110 147 183 232 271 335
#     4   9  23  38  57  86 109 144 194 234 261 336
#     4  11  20  39  65  75 109 155 192 219 280 323
#     4   9  22  36  53  84 123 133 184 237 278 321
#     4   9  19  31  56  83 113 140 189 222 272 337
#
# _framework density 21.161003000000001
#
# number of rings (size 3 to 8) (size 9 to 14) (size 15 to 20)
#    0.857    1.429    1.429    1.714    0.000    1.714 
#    0.000    1.429    0.000    2.571    0.000    0.000 
#    0.000    0.000    0.000    0.000    0.000    0.000 
#
# Total GULP energy -77988.869127 kJ/mol
# GULP energy per Si atom -5570.633509 kJ/mol
# Density = 2.111284 g / cm^3
# Si number density = 21.161003 Si / 1000 Ang^3
#
#
#
# Elastic Constant Matrix: (Units=GPa)
#
#
# Indices 1 2 3 4 5 6 
#
# 1 46.8150 19.4477 10.1305 -1.0474 -8.2038 17.5831
# 2 19.4477 43.9328 12.9041 2.7636 -7.1988 7.0117
# 3 10.1305 12.9041 65.5072 7.1399 -3.5308 12.1394
# 4 -1.0474 2.7636 7.1399 32.1772 5.0324 -13.6839
# 5 -8.2038 -7.1988 -3.5308 5.0324 25.4507 -2.9150
# 6 17.5831 7.0117 12.1394 -13.6839 -2.9150 16.6252
#
#
#
# Elastic Compliance Matrix: (Units=1/GPa)
#
#
# Indices 1 2 3 4 5 6 
#
# 1 0.083249 -0.010619 0.028995 -0.075902 0.024196 -0.162970
# 2 -0.010619 0.029543 -0.003547 -0.002964 0.005004 -0.000202
# 3 0.028995 -0.003547 0.033856 -0.046396 0.011907 -0.089991
# 4 -0.075902 -0.002964 -0.046396 0.139992 -0.033684 0.224723
# 5 0.024196 0.005004 0.011907 -0.033684 0.050489 -0.055268
# 6 -0.162970 -0.000202 -0.089991 0.224723 -0.055268 0.473580
#
#
# Mechanical properties :
#
#
# Convention : Reuss Voigt Hill
#
# Bulk Modulus (GPa) = 5.67194 26.80216 16.23705
# Shear Modulus (GPa) = 5.95367 22.43547 14.19457
#
# Velocity S-wave (km/s) = 1.67917 3.25965 2.59277
# Velocity P-wave (km/s) = 2.53883 5.18270 4.08081
#
# Compressibility (1/GPa) = 0.17630663
#
# Stress axis : x y z
#
# Youngs Moduli (GPa) = 12.01218 33.84873 29.53722
#
# Poissons Ratio (x) = 0.35943 -0.85644
# Poissons Ratio (y) = 0.12755 0.10478
# Poissons Ratio (z) = -0.34830 0.12007
#
# Static dielectric constant tensor:
#      x y z
#    x 1.767730 -0.002920 0.011830 
#    y -0.002920 1.778190 0.020280 
#    z 0.011830 0.020280 1.809630 
# 
# From -- ./inp_files/234243.got.cif
#   From: 2010.05.17/outbox.cif.g08.bks.cpg/sg2_118_cif.got.tgz:234243.got - 2010.06.03 11:33:40.
