data_PCOD9051315
_publ_section_title
;
Structure prediction by ZEFSAII (Michael W. Deem and Ramdas Pophale) SiO2 
 PCOD9051315
Probable space group: P -1
;
_chemical_formula_sum "Si O2"
_cell_formula_units_Z 16
_cell_length_a 9.548180
_cell_length_b 9.887062
_cell_length_c 12.215802
_cell_angle_alpha 127.355181
_cell_angle_beta 106.533186
_cell_angle_gamma 50.729016
_cell_volume 700.318239
_symmetry_space_group_name_H-M "P -1"
_symmetry_group_IT_number 2
_symmetry_cell_setting 'triclinic'
loop_
_space_group_symop_operation_xyz
x,y,z
-x,-y,-z
loop_
_atom_site_type_symbol
_atom_site_label
_atom_site_fract_x
_atom_site_fract_y
_atom_site_fract_z
Si Si1 0.219159 0.853256 0.484166
Si Si2 0.465471 0.119334 0.166686
Si Si3 0.971480 0.167889 0.941774
Si Si4 0.659599 0.434373 0.842802
Si Si5 0.289333 0.176746 0.723652
Si Si6 0.714090 0.270631 0.315423
Si Si7 0.286267 0.545937 0.796705
Si Si8 0.122310 0.419551 0.128716
O O1 0.294458 0.701446 0.322937
O O2 0.269511 0.731724 0.552047
O O3 0.293061 0.994652 0.571391
O O4 0.000000 0.000000 0.500000
O O5 0.554451 0.244825 0.245362
O O6 0.244150 0.296646 0.204348
O O7 0.568818 0.951670 0.207127
O O8 0.500000 0.000000 0.000000
O O9 0.782064 0.277279 0.890196
O O10 0.902451 0.249452 0.091112
O O11 0.109419 0.939012 0.805933
O O12 0.071843 0.276396 0.993601
O O13 0.446369 0.562038 0.877862
O O14 0.743373 0.561084 0.904707
O O15 0.325621 0.329702 0.745040
O O16 0.071067 0.349584 0.786498
O O17 0.701162 0.451516 0.330997
#
# Coordination Sequence:
#
# PCOD9051315 Si02
#       8
#     2   2   2   2   2   2   2   2
#     4  11  22  44  74  95 128 179 237 276 323 391
#     4  11  22  37  67 101 132 172 232 277 328 395
#     4  11  23  40  67 100 140 172 214 281 345 398
#     4  12  23  41  70  99 130 182 223 278 333 399
#     4  10  25  46  64  99 136 177 222 284 333 396
#     4  11  22  43  67 100 133 176 225 277 326 406
#     4  11  26  42  64 100 144 170 216 275 356 399
#     4  11  22  39  70  99 131 177 228 278 330 391
#
# _framework density 22.846755999999999
#
# number of rings (size 3 to 8) (size 9 to 14) (size 15 to 20)
#    0.000    1.000    5.000    1.875    3.500    2.000 
#    4.500    0.625    0.000    0.000    0.000    0.000 
#    0.000    0.000    0.000    0.000    0.000    0.000 
#
# Total GULP energy -89347.021099 kJ/mol
# GULP energy per Si atom -5584.188819 kJ/mol
# Density = 2.279476 g / cm^3
# Si number density = 22.846756 Si / 1000 Ang^3
#
#
#
# Elastic Constant Matrix: (Units=GPa)
#
#
# Indices 1 2 3 4 5 6 
#
# 1 112.8471 32.8449 20.0913 -11.3954 0.9629 3.3481
# 2 32.8449 107.9486 31.0248 -16.8342 -3.7311 1.9753
# 3 20.0913 31.0248 95.4500 -23.0906 -0.8142 9.5843
# 4 -11.3954 -16.8342 -23.0906 34.1055 -7.0980 -0.7321
# 5 0.9629 -3.7311 -0.8142 -7.0980 26.0549 -3.7386
# 6 3.3481 1.9753 9.5843 -0.7321 -3.7386 48.9844
#
#
#
# Elastic Compliance Matrix: (Units=1/GPa)
#
#
# Indices 1 2 3 4 5 6 
#
# 1 0.009917 -0.002560 -0.000893 0.001342 -0.000455 -0.000415
# 2 -0.002560 0.011372 -0.002254 0.003814 0.002753 0.000424
# 3 -0.000893 -0.002254 0.013620 0.008188 0.002046 -0.002234
# 4 0.001342 0.003814 0.008188 0.039576 0.011479 -0.000380
# 5 -0.000455 0.002753 0.002046 0.011479 0.042403 0.002928
# 6 -0.000415 0.000424 -0.002234 -0.000380 0.002928 0.021081
#
#
# Mechanical properties :
#
#
# Convention : Reuss Voigt Hill
#
# Bulk Modulus (GPa) = 42.56090 53.79640 48.17865
# Shear Modulus (GPa) = 31.80352 37.31460 34.55906
#
# Velocity S-wave (km/s) = 3.73505 4.04574 3.89349
# Velocity P-wave (km/s) = 6.10492 6.73957 6.43008
#
# Compressibility (1/GPa) = 0.02349574
#
# Stress axis : x y z
#
# Youngs Moduli (GPa) = 100.83443 87.93153 73.42165
#
# Poissons Ratio (x) = 0.22507 0.06558
# Poissons Ratio (y) = 0.25810 0.16551
# Poissons Ratio (z) = 0.09006 0.19822
#
# Static dielectric constant tensor:
#      x y z
#    x 1.853250 0.002290 -0.015790 
#    y 0.002290 2.011810 -0.016590 
#    z -0.015790 -0.016590 1.818380 
# 
# From -- ./inp_files/383285.got.cif
#   From: 2010.05.17/outbox.cif.g08.bks.cpg/sg2_192_cif.got.tgz:383285.got - 2010.06.03 11:33:40.
