data_PCOD9051048
_publ_section_title
;
Structure prediction by ZEFSAII (Michael W. Deem and Ramdas Pophale) SiO2 
 PCOD9051048
Probable space group: P -1
;
_chemical_formula_sum "Si O2"
_cell_formula_units_Z 16
_cell_length_a 16.580061
_cell_length_b 9.252959
_cell_length_c 10.836915
_cell_angle_alpha 77.378993
_cell_angle_beta 136.532973
_cell_angle_gamma 67.139652
_cell_volume 646.853414
_symmetry_space_group_name_H-M "P -1"
_symmetry_group_IT_number 2
_symmetry_cell_setting 'triclinic'
loop_
_space_group_symop_operation_xyz
x,y,z
-x,-y,-z
loop_
_atom_site_type_symbol
_atom_site_label
_atom_site_fract_x
_atom_site_fract_y
_atom_site_fract_z
Si Si1 0.808925 0.538181 0.421746
Si Si2 0.249171 0.150259 0.095554
Si Si3 0.066959 0.561968 0.973655
Si Si4 0.343947 0.884932 0.682721
Si Si5 0.591702 0.273813 0.486672
Si Si6 0.550782 0.991854 0.905017
Si Si7 0.815654 0.251007 0.906859
Si Si8 0.126726 0.847235 0.543437
O O1 0.025782 0.329205 0.768953
O O2 0.620911 0.731936 0.273464
O O3 0.809332 0.389334 0.365394
O O4 0.761034 0.742636 0.257674
O O5 0.224853 0.336313 0.093405
O O6 0.395104 0.004440 0.168465
O O7 0.338929 0.952577 0.335918
O O8 0.875783 0.817424 0.639806
O O9 0.000000 0.500000 0.000000
O O10 0.147421 0.621093 0.121815
O O11 0.418130 0.730895 0.668632
O O12 0.469488 0.906630 0.832666
O O13 0.300946 0.795213 0.746449
O O14 0.765162 0.203697 0.742815
O O15 0.382338 0.541185 0.264051
O O16 0.992037 0.017858 0.238671
O O17 0.000000 0.000000 0.500000
#
# Coordination Sequence:
#
# PCOD9051048 Si02
#       8
#     2   2   2   2   2   2   2   2
#     4  11  26  49  71 104 144 189 247 297 357 422
#     4  12  24  44  75 103 142 191 234 298 363 427
#     4  11  23  40  68 101 145 183 231 290 361 427
#     4  11  25  44  69 106 144 185 238 300 358 427
#     4  11  24  44  69 105 144 184 240 296 358 432
#     4  11  27  46  74 108 142 190 244 301 354 428
#     4  10  25  45  68 105 141 189 240 294 356 430
#     4  11  27  48  75 101 142 197 240 297 362 429
#
# _framework density 24.735123999999999
#
# number of rings (size 3 to 8) (size 9 to 14) (size 15 to 20)
#    0.000    1.000    3.750    1.125    7.000    8.500 
#    0.000    0.000    0.000    0.000    0.000    0.000 
#    0.000    0.000    0.000    0.000    0.000    0.000 
#
# Total GULP energy -89550.253124 kJ/mol
# GULP energy per Si atom -5596.890820 kJ/mol
# Density = 2.467883 g / cm^3
# Si number density = 24.735124 Si / 1000 Ang^3
#
#
#
# Elastic Constant Matrix: (Units=GPa)
#
#
# Indices 1 2 3 4 5 6 
#
# 1 122.2010 37.8112 4.9128 -2.1115 6.0203 -14.4028
# 2 37.8112 138.9873 15.0582 -6.6413 11.1874 -11.9702
# 3 4.9128 15.0582 62.9899 -8.5691 5.5184 9.4097
# 4 -2.1115 -6.6413 -8.5691 38.7680 2.3479 3.3653
# 5 6.0203 11.1874 5.5184 2.3479 27.9428 -1.5568
# 6 -14.4028 -11.9702 9.4097 3.3653 -1.5568 40.5632
#
#
#
# Elastic Compliance Matrix: (Units=1/GPa)
#
#
# Indices 1 2 3 4 5 6 
#
# 1 0.009236 -0.002154 -0.000568 -0.000180 -0.000847 0.002758
# 2 -0.002154 0.008388 -0.001786 0.000907 -0.002509 0.001953
# 3 -0.000568 -0.001786 0.018039 0.004325 -0.003390 -0.005402
# 4 -0.000180 0.000907 0.004325 0.027396 -0.003660 -0.003213
# 5 -0.000847 -0.002509 -0.003390 -0.003660 0.038035 0.001509
# 6 0.002758 0.001953 -0.005402 -0.003213 0.001509 0.027786
#
#
# Mechanical properties :
#
#
# Convention : Reuss Voigt Hill
#
# Bulk Modulus (GPa) = 37.52603 48.86028 43.19315
# Shear Modulus (GPa) = 34.06488 39.21453 36.63970
#
# Velocity S-wave (km/s) = 3.71507 3.98600 3.85292
# Velocity P-wave (km/s) = 5.79711 6.40161 6.10684
#
# Compressibility (1/GPa) = 0.02664817
#
# Stress axis : x y z
#
# Youngs Moduli (GPa) = 108.26920 119.21935 55.43549
#
# Poissons Ratio (x) = 0.25681 0.03147
# Poissons Ratio (y) = 0.23322 0.09899
# Poissons Ratio (z) = 0.06146 0.21289
#
# Static dielectric constant tensor:
#      x y z
#    x 1.939570 0.020450 0.039950 
#    y 0.020450 1.977070 0.062690 
#    z 0.039950 0.062690 2.084050 
# 
# From -- ./inp_files/461267.got.cif
#   From: 2010.05.17/outbox.cif.g08.bks.cpg/sg2_231_cif.got.tgz:461267.got - 2010.06.03 11:33:40.
