data_PCOD9051165
_publ_section_title
;
Structure prediction by ZEFSAII (Michael W. Deem and Ramdas Pophale) SiO2 
 PCOD9051165
Probable space group: P -1
;
_chemical_formula_sum "Si O2"
_cell_formula_units_Z 16
_cell_length_a 9.207204
_cell_length_b 9.873602
_cell_length_c 11.988315
_cell_angle_alpha 135.225583
_cell_angle_beta 90.740790
_cell_angle_gamma 68.159530
_cell_volume 657.816645
_symmetry_space_group_name_H-M "P -1"
_symmetry_group_IT_number 2
_symmetry_cell_setting 'triclinic'
loop_
_space_group_symop_operation_xyz
x,y,z
-x,-y,-z
loop_
_atom_site_type_symbol
_atom_site_label
_atom_site_fract_x
_atom_site_fract_y
_atom_site_fract_z
Si Si1 0.261239 0.041020 0.554648
Si Si2 0.732139 0.209928 0.914389
Si Si3 0.914612 0.388491 0.862895
Si Si4 0.266652 0.592885 0.335095
Si Si5 0.965778 0.300752 0.397364
Si Si6 0.524431 0.139572 0.178199
Si Si7 0.547244 0.028929 0.699104
Si Si8 0.189542 0.817051 0.858108
O O1 0.071260 0.185010 0.680340
O O2 0.378728 0.089665 0.665012
O O3 0.305251 0.784045 0.409228
O O4 0.302632 0.088707 0.459228
O O5 0.567327 0.229621 0.867132
O O6 0.822711 0.309155 0.900943
O O7 0.865066 0.939948 0.761629
O O8 0.712040 0.290216 0.088501
O O9 0.782374 0.508770 0.830318
O O10 0.000000 0.500000 0.000000
O O11 0.419357 0.396969 0.290746
O O12 0.112314 0.697716 0.483026
O O13 0.000000 0.500000 0.500000
O O14 0.831454 0.335138 0.320317
O O15 0.719864 0.069587 0.138656
O O16 0.456428 0.107246 0.274638
O O17 0.500000 0.000000 0.000000
O O18 0.000000 0.000000 0.000000
#
# Coordination Sequence:
#
# PCOD9051165 Si02
#       8
#     2   2   2   2   2   2   2   2
#     4  11  25  51  77 108 152 197 251 306 369 452
#     4  11  22  47  71 106 150 192 244 306 359 451
#     4  12  28  47  78 108 149 203 253 304 369 441
#     4  12  26  47  76 106 149 199 245 309 370 436
#     4  11  24  40  73 109 149 186 247 299 373 441
#     4  12  27  47  76 109 151 191 248 312 372 446
#     4  11  24  46  80 106 149 194 248 308 377 431
#     4  10  25  45  71 105 147 192 236 302 371 442
#
# _framework density 24.322887999999999
#
# number of rings (size 3 to 8) (size 9 to 14) (size 15 to 20)
#    0.000    0.750    3.750    2.625    7.000    3.000 
#    4.500    1.875    0.000    0.000    0.000    0.000 
#    0.000    0.000    0.000    0.000    0.000    0.000 
#
# Total GULP energy -89620.582502 kJ/mol
# GULP energy per Si atom -5601.286406 kJ/mol
# Density = 2.426753 g / cm^3
# Si number density = 24.322888 Si / 1000 Ang^3
#
#
#
# Elastic Constant Matrix: (Units=GPa)
#
#
# Indices 1 2 3 4 5 6 
#
# 1 129.9206 56.0958 54.7550 -8.1281 16.6233 41.0893
# 2 56.0958 125.9337 66.6199 -28.1066 -1.9001 39.5771
# 3 54.7550 66.6199 135.4515 -35.8603 34.5394 17.1135
# 4 -8.1281 -28.1066 -35.8603 50.0848 -2.6279 -5.1463
# 5 16.6233 -1.9001 34.5394 -2.6279 66.3929 -1.5726
# 6 41.0893 39.5771 17.1135 -5.1463 -1.5726 43.1502
#
#
#
# Elastic Compliance Matrix: (Units=1/GPa)
#
#
# Indices 1 2 3 4 5 6 
#
# 1 0.013032 -0.001298 -0.003473 -0.002241 -0.001823 -0.010176
# 2 -0.001298 0.015735 -0.005948 0.003502 0.003765 -0.010283
# 3 -0.003473 -0.005948 0.014719 0.006647 -0.006612 0.003477
# 4 -0.002241 0.003502 0.006647 0.026166 -0.001777 -0.000658
# 5 -0.001823 0.003765 -0.006612 -0.001777 0.019029 0.001387
# 6 -0.010176 -0.010283 0.003477 -0.000658 0.001387 0.040889
#
#
# Mechanical properties :
#
#
# Convention : Reuss Voigt Hill
#
# Bulk Modulus (GPa) = 45.35343 82.91636 64.13490
# Shear Modulus (GPa) = 31.57419 46.18127 38.87773
#
# Velocity S-wave (km/s) = 3.60686 4.36211 4.00234
# Velocity P-wave (km/s) = 6.00273 7.71586 6.91257
#
# Compressibility (1/GPa) = 0.02204905
#
# Stress axis : x y z
#
# Youngs Moduli (GPa) = 76.73266 63.55129 67.94038
#
# Poissons Ratio (x) = 0.08247 0.23593
# Poissons Ratio (y) = 0.09957 0.40414
# Poissons Ratio (z) = 0.26646 0.37803
#
# Static dielectric constant tensor:
#      x y z
#    x 1.986510 -0.069600 0.010230 
#    y -0.069600 1.914600 -0.009500 
#    z 0.010230 -0.009500 1.930070 
# 
# From -- ./inp_files/391635.got.cif
#   From: 2010.05.17/outbox.cif.g08.bks.cpg/sg2_196_cif.got.tgz:391635.got - 2010.06.03 11:33:40.
