data_PCOD9051620
_publ_section_title
;
Structure prediction by ZEFSAII (Michael W. Deem and Ramdas Pophale) SiO2 
 PCOD9051620
Probable space group: P -1
;
_chemical_formula_sum "Si O2"
_cell_formula_units_Z 15
_cell_length_a 23.112583
_cell_length_b 6.660397
_cell_length_c 5.419521
_cell_angle_alpha 104.973620
_cell_angle_beta 123.192691
_cell_angle_gamma 65.059944
_cell_volume 632.630624
_symmetry_space_group_name_H-M "P -1"
_symmetry_group_IT_number 2
_symmetry_cell_setting 'triclinic'
loop_
_space_group_symop_operation_xyz
x,y,z
-x,-y,-z
loop_
_atom_site_type_symbol
_atom_site_label
_atom_site_fract_x
_atom_site_fract_y
_atom_site_fract_z
Si Si1 0.864842 0.336115 0.230339
Si Si2 0.738446 0.722905 0.278119
Si Si3 0.772196 0.083870 0.759804
Si Si4 0.043746 0.011675 0.351831
Si Si5 0.453681 0.070106 0.664514
Si Si6 0.000000 0.500000 0.500000
Si Si7 0.347383 0.528539 0.694059
Si Si8 0.657144 0.100727 0.868007
O O1 0.792077 0.547891 0.162486
O O2 0.929493 0.412565 0.300645
O O3 0.887865 0.215584 0.513512
O O4 0.843271 0.154702 0.965855
O O5 0.703441 0.591522 0.334928
O O6 0.781784 0.857729 0.569251
O O7 0.672197 0.905059 0.038961
O O8 0.706348 0.281170 0.541758
O O9 0.738173 0.072302 0.945044
O O10 0.054647 0.246859 0.463840
O O11 0.000000 0.000000 0.500000
O O12 0.000000 0.000000 0.000000
O O13 0.411680 0.334456 0.651972
O O14 0.500000 0.000000 0.500000
O O15 0.393060 0.948977 0.473102
O O16 0.500000 0.000000 0.000000
O O17 0.375869 0.661368 0.007530
#
# Coordination Sequence:
#
# PCOD9051620 Si02
#       8
#     2   2   2   2   2   1   2   2
#     4  11  25  43  73 107 139 191 251 300 382 444
#     4  11  24  44  75 108 145 194 245 319 371 440
#     4  11  25  43  75 109 139 190 251 311 369 444
#     4  10  25  47  69 101 144 191 239 295 365 448
#     4  12  28  47  75 111 155 205 248 299 379 452
#     4  10  26  46  70 100 154 188 236 308 368 446
#     4  11  25  46  75 106 151 190 250 313 369 436
#     4  11  25  47  73 108 150 190 252 309 366 443
#
# _framework density 23.710519000000001
#
# number of rings (size 3 to 8) (size 9 to 14) (size 15 to 20)
#    0.000    1.067    2.667    1.600    5.600    8.533 
#    0.000    0.000    0.000    0.000    0.000    0.000 
#    0.000    0.000    0.000    0.000    0.000    0.000 
#
# Total GULP energy -83668.388741 kJ/mol
# GULP energy per Si atom -5577.892583 kJ/mol
# Density = 2.365655 g / cm^3
# Si number density = 23.710519 Si / 1000 Ang^3
#
#
#
# Elastic Constant Matrix: (Units=GPa)
#
#
# Indices 1 2 3 4 5 6 
#
# 1 72.0165 9.0455 6.0146 3.2427 1.5428 -6.8279
# 2 9.0455 123.2207 46.7692 32.2978 5.7845 4.0900
# 3 6.0146 46.7692 131.2214 22.1679 6.4565 7.2011
# 4 3.2427 32.2978 22.1679 39.5623 4.5762 -4.5500
# 5 1.5428 5.7845 6.4565 4.5762 32.1368 2.2054
# 6 -6.8279 4.0900 7.2011 -4.5500 2.2054 30.3865
#
#
#
# Elastic Compliance Matrix: (Units=1/GPa)
#
#
# Indices 1 2 3 4 5 6 
#
# 1 0.014402 -0.001074 -0.000524 0.000490 -0.000712 0.003630
# 2 -0.001074 0.011329 -0.002496 -0.008012 -0.000183 -0.002361
# 3 -0.000524 -0.002496 0.009261 -0.003299 -0.000751 -0.002416
# 4 0.000490 -0.008012 -0.003299 0.034874 -0.003395 0.007439
# 5 -0.000712 -0.000183 -0.000751 -0.003395 0.032010 -0.002789
# 6 0.003630 -0.002361 -0.002416 0.007439 -0.002789 0.035932
#
#
# Mechanical properties :
#
#
# Convention : Reuss Voigt Hill
#
# Bulk Modulus (GPa) = 37.30898 50.01303 43.66100
# Shear Modulus (GPa) = 32.27238 38.05906 35.16572
#
# Velocity S-wave (km/s) = 3.69331 4.01079 3.85532
# Velocity P-wave (km/s) = 5.82724 6.52591 6.18645
#
# Compressibility (1/GPa) = 0.02680320
#
# Stress axis : x y z
#
# Youngs Moduli (GPa) = 69.43626 88.26941 107.97452
#
# Poissons Ratio (x) = 0.09477 0.05662
# Poissons Ratio (y) = 0.07455 0.26956
# Poissons Ratio (z) = 0.03641 0.22036
#
# Static dielectric constant tensor:
#      x y z
#    x 1.988510 -0.064490 0.010830 
#    y -0.064490 1.928880 -0.050250 
#    z 0.010830 -0.050250 1.939400 
# 
# From -- ./inp_files/121866.got.cif
#   From: 2010.05.17/outbox.cif.g08.bks.cpg/sg2_61_cif.got.tgz:121866.got - 2010.06.03 11:33:40.
