data_PCOD9051255
_publ_section_title
;
Structure prediction by ZEFSAII (Michael W. Deem and Ramdas Pophale) SiO2 
 PCOD9051255
Probable space group: P -1
;
_chemical_formula_sum "Si O2"
_cell_formula_units_Z 16
_cell_length_a 11.082404
_cell_length_b 5.018262
_cell_length_c 12.634373
_cell_angle_alpha 85.949540
_cell_angle_beta 66.576988
_cell_angle_gamma 92.243410
_cell_volume 641.403718
_symmetry_space_group_name_H-M "P -1"
_symmetry_group_IT_number 2
_symmetry_cell_setting 'triclinic'
loop_
_space_group_symop_operation_xyz
x,y,z
-x,-y,-z
loop_
_atom_site_type_symbol
_atom_site_label
_atom_site_fract_x
_atom_site_fract_y
_atom_site_fract_z
Si Si1 0.607688 0.739669 0.990704
Si Si2 0.843706 0.809120 0.761964
Si Si3 0.574601 0.238199 0.573878
Si Si4 0.961154 0.401734 0.899633
Si Si5 0.263510 0.281937 0.422469
Si Si6 0.697457 0.230899 0.070842
Si Si7 0.094816 0.165821 0.682676
Si Si8 0.675361 0.139575 0.326453
O O1 0.688320 0.544320 0.041046
O O2 0.593301 0.010236 0.057120
O O3 0.500000 0.500000 0.000000
O O4 0.698032 0.839131 0.857637
O O5 0.908980 0.612332 0.827366
O O6 0.820562 0.705117 0.654551
O O7 0.944477 0.069719 0.711455
O O8 0.620495 0.484683 0.623752
O O9 0.608637 0.303908 0.437273
O O10 0.665042 0.994673 0.581683
O O11 0.423982 0.128093 0.634773
O O12 0.085238 0.299114 0.796976
O O13 0.840139 0.178724 0.971952
O O14 0.000000 0.500000 0.000000
O O15 0.168046 0.316487 0.555546
O O16 0.687140 0.218726 0.199591
O O17 0.181937 0.916643 0.678448
#
# Coordination Sequence:
#
# PCOD9051255 Si02
#       8
#     2   2   2   2   2   2   2   2
#     4  11  26  45  68 101 142 186 239 288 358 426
#     4  11  26  46  68 107 144 186 236 298 352 435
#     4  10  26  48  69 112 136 189 238 302 350 425
#     4  11  26  44  71 105 147 189 237 295 357 430
#     4  11  27  45  78 101 145 187 240 293 366 415
#     4  11  25  43  71 102 135 188 232 296 353 421
#     4  11  25  46  72 103 142 192 238 295 358 426
#     4  10  25  45  74 101 146 182 245 294 358 420
#
# _framework density 24.945288000000001
#
# number of rings (size 3 to 8) (size 9 to 14) (size 15 to 20)
#    0.000    1.250    1.250    1.500   14.000    7.000 
#    0.000    0.000    0.000    0.000    0.000    0.000 
#    0.000    0.000    0.000    0.000    0.000    0.000 
#
# Total GULP energy -89437.952506 kJ/mol
# GULP energy per Si atom -5589.872032 kJ/mol
# Density = 2.488851 g / cm^3
# Si number density = 24.945288 Si / 1000 Ang^3
#
#
#
# Elastic Constant Matrix: (Units=GPa)
#
#
# Indices 1 2 3 4 5 6 
#
# 1 67.7156 26.9932 29.7225 -7.4751 -4.0888 28.1396
# 2 26.9932 113.3536 18.1043 -1.4059 10.9527 15.3018
# 3 29.7225 18.1043 131.9186 -4.0838 13.5696 9.8223
# 4 -7.4751 -1.4059 -4.0838 24.9068 10.0943 2.8178
# 5 -4.0888 10.9527 13.5696 10.0943 41.3262 6.6408
# 6 28.1396 15.3018 9.8223 2.8178 6.6408 47.5397
#
#
#
# Elastic Compliance Matrix: (Units=1/GPa)
#
#
# Indices 1 2 3 4 5 6 
#
# 1 0.024982 -0.003860 -0.004489 0.005761 0.005774 -0.013765
# 2 -0.003860 0.010149 -0.000139 0.000716 -0.003111 -0.000561
# 3 -0.004489 -0.000139 0.008968 0.001566 -0.003945 0.001308
# 4 0.005761 0.000716 0.001566 0.047149 -0.010807 -0.005249
# 5 0.005774 -0.003111 -0.003945 -0.010807 0.030364 -0.005202
# 6 -0.013765 -0.000561 0.001308 -0.005249 -0.005202 0.030131
#
#
# Mechanical properties :
#
#
# Convention : Reuss Voigt Hill
#
# Bulk Modulus (GPa) = 36.87251 51.40307 44.13779
# Shear Modulus (GPa) = 28.12771 38.63240 33.38006
#
# Velocity S-wave (km/s) = 3.36158 3.93960 3.66202
# Velocity P-wave (km/s) = 5.46630 6.43001 5.96764
#
# Compressibility (1/GPa) = 0.02712048
#
# Stress axis : x y z
#
# Youngs Moduli (GPa) = 40.02936 98.53625 111.50849
#
# Poissons Ratio (x) = 0.38037 0.50062
# Poissons Ratio (y) = 0.15452 0.01552
# Poissons Ratio (z) = 0.17971 0.01371
#
# Static dielectric constant tensor:
#      x y z
#    x 2.109700 -0.027690 -0.037920 
#    y -0.027690 2.014140 0.022120 
#    z -0.037920 0.022120 1.933610 
# 
# From -- ./inp_files/69980.got.cif
#   From: 2010.05.17/outbox.cif.g08.bks.cpg/sg2_35_cif.got.tgz:69980.got - 2010.06.03 11:33:40.
