data_PCOD9051254
_publ_section_title
;
Structure prediction by ZEFSAII (Michael W. Deem and Ramdas Pophale) SiO2 
 PCOD9051254
Probable space group: P -1
;
_chemical_formula_sum "Si O2"
_cell_formula_units_Z 14
_cell_length_a 8.935894
_cell_length_b 15.345113
_cell_length_c 11.268296
_cell_angle_alpha 119.406178
_cell_angle_beta 129.429890
_cell_angle_gamma 102.899860
_cell_volume 630.384441
_symmetry_space_group_name_H-M "P -1"
_symmetry_group_IT_number 2
_symmetry_cell_setting 'triclinic'
loop_
_space_group_symop_operation_xyz
x,y,z
-x,-y,-z
loop_
_atom_site_type_symbol
_atom_site_label
_atom_site_fract_x
_atom_site_fract_y
_atom_site_fract_z
Si Si1 0.234730 0.149152 0.311999
Si Si2 0.574302 0.118389 0.382258
Si Si3 0.679498 0.149135 0.786483
Si Si4 0.370998 0.171715 0.823345
Si Si5 0.686022 0.620731 0.064203
Si Si6 0.789383 0.507332 0.842326
Si Si7 0.373072 0.059725 0.992233
O O1 0.487723 0.163221 0.470244
O O2 0.473007 0.330902 0.505126
O O3 0.005134 0.087122 0.262848
O O4 0.000000 0.000000 0.000000
O O5 0.925521 0.215921 0.624787
O O6 0.317728 0.925581 0.148286
O O7 0.544914 0.160803 0.269226
O O8 0.520480 0.181118 0.788823
O O9 0.500000 0.000000 0.500000
O O10 0.002476 0.328868 0.019119
O O11 0.430677 0.313900 0.965002
O O12 0.452772 0.153082 0.977280
O O13 0.000000 0.000000 0.500000
O O14 0.500000 0.500000 0.000000
O O15 0.641830 0.517858 0.875207
O O16 0.000000 0.500000 0.000000
O O17 0.500000 0.000000 0.000000
#
# Coordination Sequence:
#
# PCOD9051254 Si02
#       7
#     2   2   2   2   2   2   2
#     4  10  25  45  74 101 143 198 243 297 373 441
#     4  11  23  47  71 103 149 198 235 309 369 444
#     4  12  23  42  70 106 148 185 249 297 374 432
#     4  12  25  42  73 109 141 197 249 309 365 446
#     4  12  26  42  72 114 148 185 251 312 372 431
#     4  12  24  42  74 107 146 194 246 308 364 444
#     4  11  24  46  73 100 144 196 248 297 384 432
#
# _framework density 22.208670999999999
#
# number of rings (size 3 to 8) (size 9 to 14) (size 15 to 20)
#    0.000    0.571    5.714    0.857   10.000    0.000 
#    0.000    3.571    0.000    0.000    0.000    0.000 
#    0.000    0.000    0.000    0.000    0.000    0.000 
#
# Total GULP energy -77942.881090 kJ/mol
# GULP energy per Si atom -5567.348649 kJ/mol
# Density = 2.215812 g / cm^3
# Si number density = 22.208671 Si / 1000 Ang^3
#
#
#
# Elastic Constant Matrix: (Units=GPa)
#
#
# Indices 1 2 3 4 5 6 
#
# 1 205.7430 63.5176 27.9827 15.3136 5.8093 -5.7749
# 2 63.5176 156.7089 49.0050 23.0591 -3.7998 -6.1348
# 3 27.9827 49.0050 93.2025 28.9017 -10.0186 5.3235
# 4 15.3136 23.0591 28.9017 41.6338 2.8026 2.9592
# 5 5.8093 -3.7998 -10.0186 2.8026 32.3734 8.2011
# 6 -5.7749 -6.1348 5.3235 2.9592 8.2011 44.3783
#
#
#
# Elastic Compliance Matrix: (Units=1/GPa)
#
#
# Indices 1 2 3 4 5 6 
#
# 1 0.005688 -0.002016 -0.000755 -0.000402 -0.001681 0.000889
# 2 -0.002016 0.008589 -0.003447 -0.001731 0.000089 0.001437
# 3 -0.000755 -0.003447 0.016608 -0.009557 0.006491 -0.003129
# 4 -0.000402 -0.001731 -0.009557 0.032167 -0.005819 -0.000215
# 5 -0.001681 0.000089 0.006491 -0.005819 0.035529 -0.007163
# 6 0.000889 0.001437 -0.003129 -0.000215 -0.007163 0.024561
#
#
# Mechanical properties :
#
#
# Convention : Reuss Voigt Hill
#
# Bulk Modulus (GPa) = 54.19874 81.85166 68.02520
# Shear Modulus (GPa) = 35.27897 44.68704 39.98301
#
# Velocity S-wave (km/s) = 3.98995 4.49056 4.24764
# Velocity P-wave (km/s) = 6.75896 7.98890 7.39953
#
# Compressibility (1/GPa) = 0.01845061
#
# Stress axis : x y z
#
# Youngs Moduli (GPa) = 175.81259 116.42130 60.21165
#
# Poissons Ratio (x) = 0.23474 0.04543
# Poissons Ratio (y) = 0.35450 0.20752
# Poissons Ratio (z) = 0.13266 0.40125
#
# Static dielectric constant tensor:
#      x y z
#    x 5.550040 0.348950 -0.683450 
#    y 0.348950 1.945280 -0.141880 
#    z -0.683450 -0.141880 2.063600 
# 
# From -- ./inp_files/397686.got.cif
#   From: 2010.05.17/outbox.cif.g08.bks.cpg/sg2_199_cif.got.tgz:397686.got - 2010.06.03 11:33:40.
