data_PCOD9051333
_publ_section_title
;
Structure prediction by ZEFSAII (Michael W. Deem and Ramdas Pophale) SiO2 
 PCOD9051333
Probable space group: P -1
;
_chemical_formula_sum "Si O2"
_cell_formula_units_Z 12
_cell_length_a 9.292838
_cell_length_b 8.912363
_cell_length_c 12.337989
_cell_angle_alpha 122.989367
_cell_angle_beta 36.675561
_cell_angle_gamma 102.998728
_cell_volume 463.947049
_symmetry_space_group_name_H-M "P -1"
_symmetry_group_IT_number 2
_symmetry_cell_setting 'triclinic'
loop_
_space_group_symop_operation_xyz
x,y,z
-x,-y,-z
loop_
_atom_site_type_symbol
_atom_site_label
_atom_site_fract_x
_atom_site_fract_y
_atom_site_fract_z
Si Si1 0.140956 0.336502 0.523586
Si Si2 0.836031 0.975525 0.225685
Si Si3 0.655913 0.949465 0.098106
Si Si4 0.487228 0.560134 0.405456
Si Si5 0.905187 0.341621 0.897911
Si Si6 0.380453 0.413883 0.132530
O O1 0.298125 0.461498 0.439103
O O2 0.019170 0.398865 0.743381
O O3 0.898651 0.391183 0.607401
O O4 0.359864 0.113002 0.316814
O O5 0.656998 0.206939 0.429102
O O6 0.723241 0.894079 0.162220
O O7 0.866123 0.855369 0.269254
O O8 0.134682 0.956614 0.015591
O O9 0.699944 0.757412 0.927513
O O10 0.500000 0.500000 0.500000
O O11 0.762446 0.481931 0.142420
O O12 0.646189 0.310935 0.002535
O O13 0.500000 0.500000 0.000000
#
# Coordination Sequence:
#
# PCOD9051333 Si02
#       6
#     2   2   2   2   2   2
#     4  11  24  45  73  99 140 188 222 291 344 410
#     4  11  23  43  71 106 136 179 233 288 344 412
#     4  11  22  44  74  96 143 182 226 289 354 395
#     4  12  23  47  69 102 145 180 228 290 350 409
#     4  11  27  44  69 109 134 185 240 276 351 415
#     4  10  25  46  67 103 142 185 232 283 342 421
#
# _framework density 25.865020000000001
#
# number of rings (size 3 to 8) (size 9 to 14) (size 15 to 20)
#    0.000    1.000    5.000    1.000    0.000    9.333 
#    3.000    0.000    0.000    0.000    0.000    0.000 
#    0.000    0.000    0.000    0.000    0.000    0.000 
#
# Total GULP energy -67093.006684 kJ/mol
# GULP energy per Si atom -5591.083890 kJ/mol
# Density = 2.580615 g / cm^3
# Si number density = 25.865020 Si / 1000 Ang^3
#
#
#
# Elastic Constant Matrix: (Units=GPa)
#
#
# Indices 1 2 3 4 5 6 
#
# 1 86.5030 37.7247 17.9078 5.5167 -29.7429 -29.8635
# 2 37.7247 84.6001 48.9788 1.6109 -9.7276 -29.2969
# 3 17.9078 48.9788 147.2415 -3.2485 -22.2488 -13.1548
# 4 5.5167 1.6109 -3.2485 55.6752 -6.5636 -12.7557
# 5 -29.7429 -9.7276 -22.2488 -6.5636 45.2829 -0.1273
# 6 -29.8635 -29.2969 -13.1548 -12.7557 -0.1273 46.3456
#
#
#
# Elastic Compliance Matrix: (Units=1/GPa)
#
#
# Indices 1 2 3 4 5 6 
#
# 1 0.023180 -0.005627 0.002656 0.002850 0.015771 0.012961
# 2 -0.005627 0.019973 -0.005531 0.001207 -0.001926 0.007757
# 3 0.002656 -0.005531 0.009248 0.001341 0.005298 0.001224
# 4 0.002850 0.001207 0.001341 0.020373 0.005767 0.008603
# 5 0.015771 -0.001926 0.005298 0.005767 0.035502 0.012134
# 6 0.012961 0.007757 0.001224 0.008603 0.012134 0.037581
#
#
# Mechanical properties :
#
#
# Convention : Reuss Voigt Hill
#
# Bulk Modulus (GPa) = 28.24984 58.61859 43.43422
# Shear Modulus (GPa) = 28.62724 43.70962 36.16843
#
# Velocity S-wave (km/s) = 3.33046 4.11531 3.74351
# Velocity P-wave (km/s) = 5.07297 6.73005 5.95939
#
# Compressibility (1/GPa) = 0.03539843
#
# Stress axis : x y z
#
# Youngs Moduli (GPa) = 43.14148 50.06650 108.13298
#
# Poissons Ratio (x) = 0.28170 -0.28724
# Poissons Ratio (y) = 0.24274 0.59808
# Poissons Ratio (z) = -0.11460 0.27692
#
# Static dielectric constant tensor:
#      x y z
#    x 2.338780 -0.011450 0.106640 
#    y -0.011450 1.953220 -0.040690 
#    z 0.106640 -0.040690 2.105000 
# 
# From -- ./inp_files/373287.got.cif
#   From: 2010.05.17/outbox.cif.g08.bks.cpg/sg2_187_cif.got.tgz:373287.got - 2010.06.03 11:33:40.
