data_PCOD9051842
_publ_section_title
;
Structure prediction by ZEFSAII (Michael W. Deem and Ramdas Pophale) SiO2 
 PCOD9051842
Probable space group: P -1
;
_chemical_formula_sum "Si O2"
_cell_formula_units_Z 16
_cell_length_a 8.562493
_cell_length_b 4.924898
_cell_length_c 18.661794
_cell_angle_alpha 93.654897
_cell_angle_beta 82.555673
_cell_angle_gamma 127.528361
_cell_volume 618.721902
_symmetry_space_group_name_H-M "P -1"
_symmetry_group_IT_number 2
_symmetry_cell_setting 'triclinic'
loop_
_space_group_symop_operation_xyz
x,y,z
-x,-y,-z
loop_
_atom_site_type_symbol
_atom_site_label
_atom_site_fract_x
_atom_site_fract_y
_atom_site_fract_z
Si Si1 0.949160 0.586517 0.843009
Si Si2 0.320824 0.587101 0.786210
Si Si3 0.631819 0.088736 0.580967
Si Si4 0.272295 0.847161 0.016996
Si Si5 0.794623 0.734242 0.074285
Si Si6 0.682661 0.339530 0.720906
Si Si7 0.631642 0.750183 0.343885
Si Si8 0.771924 0.718761 0.488943
O O1 0.134646 0.590582 0.811071
O O2 0.803946 0.273255 0.900273
O O3 0.833363 0.550790 0.778171
O O4 0.032480 0.932335 0.887223
O O5 0.366252 0.487219 0.857474
O O6 0.256995 0.289591 0.727469
O O7 0.500981 0.970694 0.758002
O O8 0.769742 0.269512 0.645878
O O9 0.422984 0.996404 0.621775
O O10 0.705252 0.360233 0.518090
O O11 0.646664 0.805292 0.544695
O O12 0.161061 0.509827 0.967036
O O13 0.500000 0.000000 0.000000
O O14 0.261446 0.126972 0.984546
O O15 0.585551 0.498854 0.688743
O O16 0.730422 0.732648 0.408752
O O17 0.000000 0.000000 0.500000
#
# Coordination Sequence:
#
# PCOD9051842 Si02
#       8
#     2   2   2   2   2   2   2   2
#     4  12  28  48  81 114 159 206 262 334 392 477
#     4  12  26  48  76 114 158 204 268 321 404 469
#     4  10  25  48  71 109 150 203 263 315 397 460
#     4  12  28  51  83 116 155 210 262 324 398 469
#     4  12  27  52  76 114 157 197 264 324 390 463
#     4  10  27  49  76 110 159 211 260 317 407 470
#     4  10  26  43  75 104 159 200 264 319 393 469
#     4  12  25  44  78 112 153 203 267 331 390 462
#
# _framework density 25.859763000000001
#
# number of rings (size 3 to 8) (size 9 to 14) (size 15 to 20)
#    0.750    0.000    1.250    4.500    7.000    3.000 
#    0.000    0.000    0.000    0.000    0.000    0.000 
#    0.000    0.000    0.000    0.000    0.000    0.000 
#
# Total GULP energy -89395.549993 kJ/mol
# GULP energy per Si atom -5587.221875 kJ/mol
# Density = 2.580090 g / cm^3
# Si number density = 25.859763 Si / 1000 Ang^3
#
#
#
# Elastic Constant Matrix: (Units=GPa)
#
#
# Indices 1 2 3 4 5 6 
#
# 1 85.7495 39.6751 28.0443 26.5735 0.8014 -4.9906
# 2 39.6751 92.6897 21.4547 0.0319 -0.4981 -10.7447
# 3 28.0443 21.4547 139.1408 33.1548 12.0648 -7.8969
# 4 26.5735 0.0319 33.1548 34.3161 -8.7067 1.3553
# 5 0.8014 -0.4981 12.0648 -8.7067 56.2467 4.8945
# 6 -4.9906 -10.7447 -7.8969 1.3553 4.8945 34.2913
#
#
#
# Elastic Compliance Matrix: (Units=1/GPa)
#
#
# Indices 1 2 3 4 5 6 
#
# 1 0.021839 -0.009685 0.002454 -0.020441 -0.004272 0.002126
# 2 -0.009685 0.015939 -0.003287 0.011227 0.002546 0.002021
# 3 0.002454 -0.003287 0.011147 -0.014035 -0.004902 0.003149
# 4 -0.020441 0.011227 -0.014035 0.062265 0.013657 -0.007099
# 5 -0.004272 0.002546 -0.004902 0.013657 0.021424 -0.004550
# 6 0.002126 0.002021 0.003149 -0.007099 -0.004550 0.031760
#
#
# Mechanical properties :
#
#
# Convention : Reuss Voigt Hill
#
# Bulk Modulus (GPa) = 35.85761 55.10313 45.48037
# Shear Modulus (GPa) = 25.67946 40.19786 32.93866
#
# Velocity S-wave (km/s) = 3.15465 3.94694 3.57282
# Velocity P-wave (km/s) = 5.21204 6.49044 5.88605
#
# Compressibility (1/GPa) = 0.02788808
#
# Stress axis : x y z
#
# Youngs Moduli (GPa) = 45.78943 62.73775 89.70785
#
# Poissons Ratio (x) = 0.60764 -0.22011
# Poissons Ratio (y) = 0.44349 0.29487
# Poissons Ratio (z) = -0.11235 0.20622
#
# Static dielectric constant tensor:
#      x y z
#    x 2.071370 0.031860 -0.023890 
#    y 0.031860 2.164100 -0.024790 
#    z -0.023890 -0.024790 2.102420 
# 
# From -- ./inp_files/552695.got.cif
#   From: 2010.05.17/outbox.cif.g08.bks.cpg/sg2_277_cif.got.tgz:552695.got - 2010.06.03 11:33:40.
