data_PCOD9051477
_publ_section_title
;
Structure prediction by ZEFSAII (Michael W. Deem and Ramdas Pophale) SiO2 
 PCOD9051477
Probable space group: P -1
;
_chemical_formula_sum "Si O2"
_cell_formula_units_Z 12
_cell_length_a 16.927064
_cell_length_b 9.726477
_cell_length_c 12.637278
_cell_angle_alpha 139.385385
_cell_angle_beta 157.494851
_cell_angle_gamma 41.528004
_cell_volume 508.981760
_symmetry_space_group_name_H-M "P -1"
_symmetry_group_IT_number 2
_symmetry_cell_setting 'triclinic'
loop_
_space_group_symop_operation_xyz
x,y,z
-x,-y,-z
loop_
_atom_site_type_symbol
_atom_site_label
_atom_site_fract_x
_atom_site_fract_y
_atom_site_fract_z
Si Si1 0.624802 0.689844 0.235699
Si Si2 0.590457 0.634333 0.913891
Si Si3 0.930771 0.206206 0.114116
Si Si4 0.130791 0.181027 0.788273
Si Si5 0.296941 0.025791 0.133662
Si Si6 0.175191 0.484024 0.298954
O O1 0.583280 0.713777 0.072453
O O2 0.517282 0.883042 0.291842
O O3 0.500000 0.500000 0.000000
O O4 0.641569 0.386264 0.423257
O O5 0.738176 0.395021 0.950013
O O6 0.690552 0.792426 0.056498
O O7 0.128021 0.320813 0.449092
O O8 0.850442 0.111849 0.068686
O O9 0.000000 0.000000 0.000000
O O10 0.961219 0.403279 0.707760
O O11 0.218627 0.121149 0.978478
O O12 0.000000 0.000000 0.500000
O O13 0.286998 0.240452 0.315123
O O14 0.000000 0.500000 0.000000
#
# Coordination Sequence:
#
# PCOD9051477 Si02
#       6
#     2   2   2   2   2   2
#     4  12  27  44  73 106 148 187 242 299 354 427
#     4  12  26  44  76 105 144 192 243 293 366 427
#     4  12  27  45  74 106 145 193 243 293 365 432
#     4  11  25  44  73 103 143 186 243 300 359 427
#     4  11  25  45  70 103 147 184 238 295 362 420
#     4  10  25  46  72 104 148 187 241 296 360 429
#
# _framework density 23.576483
#
# number of rings (size 3 to 8) (size 9 to 14) (size 15 to 20)
#    0.000    0.667    1.667    4.500    7.000    9.333 
#    0.000    0.000    0.000    0.000    0.000    0.000 
#    0.000    0.000    0.000    0.000    0.000    0.000 
#
# Total GULP energy -67101.986396 kJ/mol
# GULP energy per Si atom -5591.832200 kJ/mol
# Density = 2.352282 g / cm^3
# Si number density = 23.576483 Si / 1000 Ang^3
#
#
#
# Elastic Constant Matrix: (Units=GPa)
#
#
# Indices 1 2 3 4 5 6 
#
# 1 191.7419 44.4422 65.4369 -7.9182 33.8539 11.9127
# 2 44.4422 76.4082 25.9219 -6.8189 -5.4111 -16.7882
# 3 65.4369 25.9219 155.9418 -27.8332 28.9378 2.7947
# 4 -7.9182 -6.8189 -27.8332 33.8549 -8.5140 5.3341
# 5 33.8539 -5.4111 28.9378 -8.5140 47.1661 3.8052
# 6 11.9127 -16.7882 2.7947 5.3341 3.8052 40.5864
#
#
#
# Elastic Compliance Matrix: (Units=1/GPa)
#
#
# Indices 1 2 3 4 5 6 
#
# 1 0.008234 -0.005585 -0.001685 -0.001334 -0.005441 -0.003925
# 2 -0.005585 0.019693 -0.002195 0.001204 0.007097 0.009112
# 3 -0.001685 -0.002195 0.009255 0.006136 -0.003489 -0.001530
# 4 -0.001334 0.001204 0.006136 0.036328 0.004269 -0.004707
# 5 -0.005441 0.007097 -0.003489 0.004269 0.028710 0.001520
# 6 -0.003925 0.009112 -0.001530 -0.004707 0.001520 0.030142
#
#
# Mechanical properties :
#
#
# Convention : Reuss Voigt Hill
#
# Bulk Modulus (GPa) = 54.78885 77.29934 66.04410
# Shear Modulus (GPa) = 31.77107 43.54089 37.65598
#
# Velocity S-wave (km/s) = 3.67492 4.30210 4.00081
# Velocity P-wave (km/s) = 6.42619 7.58519 7.02962
#
# Compressibility (1/GPa) = 0.01825189
#
# Stress axis : x y z
#
# Youngs Moduli (GPa) = 121.44294 50.77984 108.05239
#
# Poissons Ratio (x) = 0.28359 0.18207
# Poissons Ratio (y) = 0.67821 0.23721
# Poissons Ratio (z) = 0.20464 0.11148
#
# Static dielectric constant tensor:
#      x y z
#    x 1.913280 -0.022740 -0.058120 
#    y -0.022740 1.986090 0.048410 
#    z -0.058120 0.048410 1.865780 
# 
# From -- ./inp_files/537882.got.cif
#   From: 2010.05.17/outbox.cif.g08.bks.cpg/sg2_269_cif.got.tgz:537882.got - 2010.06.03 11:33:40.
