data_PCOD9051485
_publ_section_title
;
Structure prediction by ZEFSAII (Michael W. Deem and Ramdas Pophale) SiO2 
 PCOD9051485
Probable space group: P -1
;
_chemical_formula_sum "Si O2"
_cell_formula_units_Z 12
_cell_length_a 5.395082
_cell_length_b 15.729899
_cell_length_c 8.664124
_cell_angle_alpha 116.005439
_cell_angle_beta 47.036004
_cell_angle_gamma 99.598577
_cell_volume 473.730471
_symmetry_space_group_name_H-M "P -1"
_symmetry_group_IT_number 2
_symmetry_cell_setting 'triclinic'
loop_
_space_group_symop_operation_xyz
x,y,z
-x,-y,-z
loop_
_atom_site_type_symbol
_atom_site_label
_atom_site_fract_x
_atom_site_fract_y
_atom_site_fract_z
Si Si1 0.476295 0.734616 0.539174
Si Si2 0.279316 0.559111 0.368801
Si Si3 0.335107 0.098433 0.563535
Si Si4 0.628047 0.975605 0.095538
Si Si5 0.427463 0.788611 0.961610
Si Si6 0.222366 0.614998 0.075486
O O1 0.232543 0.657998 0.563449
O O2 0.420718 0.825367 0.518121
O O3 0.829991 0.669696 0.272043
O O4 0.517253 0.763004 0.723288
O O5 0.256896 0.588459 0.221062
O O6 0.000000 0.500000 0.500000
O O7 0.638453 0.479860 0.161348
O O8 0.970667 0.151914 0.824023
O O9 0.500000 0.000000 0.500000
O O10 0.314857 0.049093 0.369081
O O11 0.633556 0.861768 0.017144
O O12 0.500000 0.000000 0.000000
O O13 0.000000 0.000000 0.000000
O O14 0.431106 0.694817 0.989848
#
# Coordination Sequence:
#
# PCOD9051485 Si02
#       6
#     2   2   2   2   2   2
#     4  11  25  47  73 105 150 190 251 306 387 445
#     4  11  25  46  73 108 146 190 244 313 383 453
#     4  11  26  46  74 110 149 203 258 313 385 458
#     4  12  26  49  77 110 156 206 258 320 388 459
#     4  11  25  48  72 108 147 200 253 314 384 457
#     4  10  25  46  72 107 143 190 250 299 388 455
#
# _framework density 25.330857999999999
#
# number of rings (size 3 to 8) (size 9 to 14) (size 15 to 20)
#    0.000    1.000    1.667    3.000    2.333   10.667 
#    0.000    0.000    0.000    0.000    0.000    0.000 
#    0.000    0.000    0.000    0.000    0.000    0.000 
#
# Total GULP energy -67062.251645 kJ/mol
# GULP energy per Si atom -5588.520970 kJ/mol
# Density = 2.527320 g / cm^3
# Si number density = 25.330858 Si / 1000 Ang^3
#
#
#
# Elastic Constant Matrix: (Units=GPa)
#
#
# Indices 1 2 3 4 5 6 
#
# 1 67.0446 51.7079 16.5125 -5.0366 -5.0566 15.1992
# 2 51.7079 249.9612 45.6239 9.4225 1.5492 23.0676
# 3 16.5125 45.6239 135.8682 15.5772 -11.3014 9.9759
# 4 -5.0366 9.4225 15.5772 46.1766 3.6899 2.9038
# 5 -5.0566 1.5492 -11.3014 3.6899 40.2145 2.9806
# 6 15.1992 23.0676 9.9759 2.9038 2.9806 54.2704
#
#
#
# Elastic Compliance Matrix: (Units=1/GPa)
#
#
# Indices 1 2 3 4 5 6 
#
# 1 0.019231 -0.003558 -0.001034 0.003242 0.002262 -0.003981
# 2 -0.003558 0.005068 -0.001172 -0.000908 -0.000826 -0.000848
# 3 -0.001034 -0.001172 0.008485 -0.002898 0.002622 -0.000761
# 4 0.003242 -0.000908 -0.002898 0.023437 -0.002440 -0.001109
# 5 0.002262 -0.000826 0.002622 -0.002440 0.026298 -0.002078
# 6 -0.003981 -0.000848 -0.000761 -0.001109 -0.002078 0.020215
#
#
# Mechanical properties :
#
#
# Convention : Reuss Voigt Hill
#
# Bulk Modulus (GPa) = 47.04253 75.61807 61.33030
# Shear Modulus (GPa) = 41.20384 50.73428 45.96906
#
# Velocity S-wave (km/s) = 4.03752 4.48019 4.26460
# Velocity P-wave (km/s) = 6.35193 7.52860 6.96516
#
# Compressibility (1/GPa) = 0.02125736
#
# Stress axis : x y z
#
# Youngs Moduli (GPa) = 51.99909 197.30785 117.84985
#
# Poissons Ratio (x) = 0.70210 0.12180
# Poissons Ratio (y) = 0.18503 0.13809
# Poissons Ratio (z) = 0.05374 0.23120
#
# Static dielectric constant tensor:
#      x y z
#    x 1.878160 0.311880 -0.292590 
#    y 0.311880 1.759080 0.369590 
#    z -0.292590 0.369590 1.635660 
# 
# From -- ./inp_files/135799.got.cif
#   From: 2010.05.17/outbox.cif.g08.bks.cpg/sg2_68_cif.got.tgz:135799.got - 2010.06.03 11:33:40.
