data_PCOD9051476
_publ_section_title
;
Structure prediction by ZEFSAII (Michael W. Deem and Ramdas Pophale) SiO2 
 PCOD9051476
Probable space group: P -1
;
_chemical_formula_sum "Si O2"
_cell_formula_units_Z 11
_cell_length_a 5.002700
_cell_length_b 14.012429
_cell_length_c 12.310687
_cell_angle_alpha 39.066511
_cell_angle_beta 123.147696
_cell_angle_gamma 128.600876
_cell_volume 421.614007
_symmetry_space_group_name_H-M "P -1"
_symmetry_group_IT_number 2
_symmetry_cell_setting 'triclinic'
loop_
_space_group_symop_operation_xyz
x,y,z
-x,-y,-z
loop_
_atom_site_type_symbol
_atom_site_label
_atom_site_fract_x
_atom_site_fract_y
_atom_site_fract_z
Si Si1 0.500000 0.000000 0.500000
Si Si2 0.020211 0.902090 0.785481
Si Si3 0.827459 0.510253 0.289815
Si Si4 0.861461 0.135467 0.923193
Si Si5 0.273634 0.843957 0.352802
Si Si6 0.138842 0.575620 0.079273
O O1 0.293979 0.923282 0.406596
O O2 0.719473 0.882423 0.650339
O O3 0.337657 0.071276 0.681488
O O4 0.909594 0.860085 0.923671
O O5 0.178184 0.763642 0.917894
O O6 0.839393 0.348859 0.488091
O O7 0.480622 0.540820 0.213662
O O8 0.139878 0.680328 0.237097
O O9 0.858806 0.493095 0.182856
O O10 0.942249 0.120959 0.826748
O O11 0.500000 0.000000 0.000000
O O12 0.000000 0.500000 0.000000
#
# Coordination Sequence:
#
# PCOD9051476 Si02
#       6
#     1   2   2   2   2   2
#     4  12  26  42  72 108 150 188 254 298 384 432
#     4  10  25  46  72 104 144 201 249 306 369 451
#     4  11  25  46  74 113 147 194 253 314 373 442
#     4   9  22  51  75 106 143 201 252 310 372 449
#     4  11  25  44  74 108 151 190 251 311 377 443
#     4  11  25  46  74 108 156 198 248 305 383 450
#
# _framework density 26.090214
#
# number of rings (size 3 to 8) (size 9 to 14) (size 15 to 20)
#    0.000    1.455    0.000    2.727   10.182    0.727 
#   13.091    4.545    0.000    0.000    0.000    0.000 
#    0.000    0.000    0.000    0.000    0.000    0.000 
#
# Total GULP energy -61277.676412 kJ/mol
# GULP energy per Si atom -5570.697856 kJ/mol
# Density = 2.603083 g / cm^3
# Si number density = 26.090214 Si / 1000 Ang^3
#
#
#
# Elastic Constant Matrix: (Units=GPa)
#
#
# Indices 1 2 3 4 5 6 
#
# 1 99.4527 11.5257 26.9159 4.8334 5.4967 -6.9412
# 2 11.5257 114.4924 57.1122 -4.9756 -19.9269 -22.2644
# 3 26.9159 57.1122 163.8325 -9.3186 5.9371 13.3155
# 4 4.8334 -4.9756 -9.3186 51.7077 7.2131 -11.1846
# 5 5.4967 -19.9269 5.9371 7.2131 34.9696 14.0400
# 6 -6.9412 -22.2644 13.3155 -11.1846 14.0400 40.2664
#
#
#
# Elastic Compliance Matrix: (Units=1/GPa)
#
#
# Indices 1 2 3 4 5 6 
#
# 1 0.011000 0.000122 -0.002052 -0.000258 -0.002663 0.003499
# 2 0.000122 0.014214 -0.005768 0.001339 0.005470 0.008252
# 3 -0.002052 -0.005768 0.009013 0.000370 -0.002317 -0.005613
# 4 -0.000258 0.001339 0.000370 0.022726 -0.007804 0.009607
# 5 -0.002663 0.005470 -0.002317 -0.007804 0.039148 -0.012486
# 6 0.003499 0.008252 -0.005613 0.009607 -0.012486 0.038879
#
#
# Mechanical properties :
#
#
# Convention : Reuss Voigt Hill
#
# Bulk Modulus (GPa) = 53.10361 63.20947 58.15654
# Shear Modulus (GPa) = 31.91765 44.20365 38.06065
#
# Velocity S-wave (km/s) = 3.50145 4.12061 3.82358
# Velocity P-wave (km/s) = 6.06175 6.84975 6.46776
#
# Compressibility (1/GPa) = 0.01883111
#
# Stress axis : x y z
#
# Youngs Moduli (GPa) = 90.90686 70.35236 110.95185
#
# Poissons Ratio (x) = -0.00860 0.22772
# Poissons Ratio (y) = -0.01112 0.63997
# Poissons Ratio (z) = 0.18658 0.40579
#
# Static dielectric constant tensor:
#      x y z
#    x 2.027110 -0.165680 0.018090 
#    y -0.165680 2.099790 -0.019900 
#    z 0.018090 -0.019900 2.042310 
# 
# From -- ./inp_files/287038.got.cif
#   From: 2010.05.17/outbox.cif.g08.bks.cpg/sg2_144_cif.got.tgz:287038.got - 2010.06.03 11:33:40.
