data_PCOD9051042
_publ_section_title
;
Structure prediction by ZEFSAII (Michael W. Deem and Ramdas Pophale) SiO2 
 PCOD9051042
Probable space group: P -1
;
_chemical_formula_sum "Si O2"
_cell_formula_units_Z 16
_cell_length_a 23.180881
_cell_length_b 15.301702
_cell_length_c 8.343755
_cell_angle_alpha 130.929160
_cell_angle_beta 137.251082
_cell_angle_gamma 19.201796
_cell_volume 650.904712
_symmetry_space_group_name_H-M "P -1"
_symmetry_group_IT_number 2
_symmetry_cell_setting 'triclinic'
loop_
_space_group_symop_operation_xyz
x,y,z
-x,-y,-z
loop_
_atom_site_type_symbol
_atom_site_label
_atom_site_fract_x
_atom_site_fract_y
_atom_site_fract_z
Si Si1 0.303856 0.662527 0.796803
Si Si2 0.324191 0.111680 0.850214
Si Si3 0.155559 0.052670 0.142896
Si Si4 0.231165 0.402508 0.803706
Si Si5 0.218554 0.785486 0.405232
Si Si6 0.965247 0.424628 0.938547
Si Si7 0.829458 0.392627 0.384557
Si Si8 0.422003 0.748260 0.623498
O O1 0.228111 0.739968 0.555083
O O2 0.319573 0.517907 0.736841
O O3 0.500000 0.500000 0.000000
O O4 0.155584 0.927418 0.910869
O O5 0.299363 0.011984 0.738561
O O6 0.222907 0.275294 0.673761
O O7 0.560062 0.824032 0.960526
O O8 0.226912 0.312412 0.026585
O O9 0.961569 0.306747 0.160931
O O10 0.341237 0.829671 0.374698
O O11 0.137551 0.171322 0.109147
O O12 0.254506 0.417531 0.690651
O O13 0.357135 0.727400 0.585123
O O14 0.338511 0.545973 0.253409
O O15 0.002130 0.100783 0.307917
O O16 0.922908 0.363805 0.671786
O O17 0.000000 0.500000 0.000000
#
# Coordination Sequence:
#
# PCOD9051042 Si02
#       8
#     2   2   2   2   2   2   2   2
#     4  12  27  45  69 106 145 184 240 300 361 426
#     4  10  25  46  69 101 143 187 237 296 346 425
#     4  11  24  44  69 104 140 191 234 295 357 422
#     4  10  25  45  68 102 139 185 247 285 355 428
#     4  11  24  44  68 107 142 182 237 290 359 422
#     4  11  26  44  74 107 146 189 238 291 357 433
#     4  12  26  45  76 104 144 191 236 295 364 422
#     4  11  24  43  75 102 146 188 233 294 349 426
#
# _framework density 24.581168999999999
#
# number of rings (size 3 to 8) (size 9 to 14) (size 15 to 20)
#    0.000    1.000    3.750    1.125    5.250    4.000 
#    0.000    0.000    0.000    0.000    0.000    0.000 
#    0.000    0.000    0.000    0.000    0.000    0.000 
#
# Total GULP energy -89398.264202 kJ/mol
# GULP energy per Si atom -5587.391513 kJ/mol
# Density = 2.452522 g / cm^3
# Si number density = 24.581169 Si / 1000 Ang^3
#
#
#
# Elastic Constant Matrix: (Units=GPa)
#
#
# Indices 1 2 3 4 5 6 
#
# 1 101.1365 34.6530 26.2622 -10.8738 2.4050 29.0902
# 2 34.6530 109.2272 30.1212 6.9833 2.8346 14.2559
# 3 26.2622 30.1212 48.6799 -0.6465 1.6199 1.7537
# 4 -10.8738 6.9833 -0.6465 35.6046 4.0368 1.7400
# 5 2.4050 2.8346 1.6199 4.0368 30.5745 -4.3985
# 6 29.0902 14.2559 1.7537 1.7400 -4.3985 42.2752
#
#
#
# Elastic Compliance Matrix: (Units=1/GPa)
#
#
# Indices 1 2 3 4 5 6 
#
# 1 0.016222 -0.002175 -0.006837 0.006128 -0.003063 -0.010717
# 2 -0.002175 0.012061 -0.006230 -0.002971 -0.000548 -0.002247
# 3 -0.006837 -0.006230 0.027851 -0.000704 0.000558 0.005737
# 4 0.006128 -0.002971 -0.000704 0.031342 -0.005026 -0.004998
# 5 -0.003063 -0.000548 0.000558 -0.005026 0.034505 0.006066
# 6 -0.010717 -0.002247 0.005737 -0.004998 0.006066 0.032385
#
#
# Mechanical properties :
#
#
# Convention : Reuss Voigt Hill
#
# Bulk Modulus (GPa) = 38.98427 49.01293 43.99860
# Shear Modulus (GPa) = 25.85341 32.89136 29.37238
#
# Velocity S-wave (km/s) = 3.24660 3.66193 3.46050
# Velocity P-wave (km/s) = 5.47245 6.15323 5.82280
#
# Compressibility (1/GPa) = 0.02565137
#
# Stress axis : x y z
#
# Youngs Moduli (GPa) = 61.64401 82.91518 35.90592
#
# Poissons Ratio (x) = 0.18033 0.24547
# Poissons Ratio (y) = 0.13407 0.22368
# Poissons Ratio (z) = 0.42143 0.51652
#
# Static dielectric constant tensor:
#      x y z
#    x 2.060440 0.006870 0.087680 
#    y 0.006870 1.960630 0.008990 
#    z 0.087680 0.008990 2.007060 
# 
# From -- ./inp_files/354429.got.cif
#   From: 2010.05.17/outbox.cif.g08.bks.cpg/sg2_178_cif.got.tgz:354429.got - 2010.06.03 11:33:40.
