data_PCOD9051431
_publ_section_title
;
Structure prediction by ZEFSAII (Michael W. Deem and Ramdas Pophale) SiO2 
 PCOD9051431
Probable space group: P -1
;
_chemical_formula_sum "Si O2"
_cell_formula_units_Z 14
_cell_length_a 11.523310
_cell_length_b 17.255786
_cell_length_c 5.989364
_cell_angle_alpha 98.361600
_cell_angle_beta 101.447340
_cell_angle_gamma 28.702540
_cell_volume 559.549429
_symmetry_space_group_name_H-M "P -1"
_symmetry_group_IT_number 2
_symmetry_cell_setting 'triclinic'
loop_
_space_group_symop_operation_xyz
x,y,z
-x,-y,-z
loop_
_atom_site_type_symbol
_atom_site_label
_atom_site_fract_x
_atom_site_fract_y
_atom_site_fract_z
Si Si1 0.642279 0.073933 0.327814
Si Si2 0.015403 0.769907 0.630856
Si Si3 0.995649 0.091496 0.959774
Si Si4 0.953476 0.589348 0.213613
Si Si5 0.375896 0.332036 0.631778
Si Si6 0.262091 0.176927 0.092726
Si Si7 0.503186 0.570090 0.207110
O O1 0.611027 0.167411 0.513701
O O2 0.377533 0.187716 0.251969
O O3 0.824024 0.904014 0.425902
O O4 0.751340 0.035555 0.117369
O O5 0.880025 0.790388 0.763663
O O6 0.284888 0.579796 0.602822
O O7 0.048638 0.830574 0.807649
O O8 0.778879 0.245831 0.773188
O O9 0.000000 0.000000 0.000000
O O10 0.712126 0.692733 0.276934
O O11 0.163459 0.472308 0.428885
O O12 0.910907 0.695792 0.120424
O O13 0.000000 0.500000 0.000000
O O14 0.410629 0.391196 0.812458
O O15 0.500000 0.000000 0.000000
O O16 0.500000 0.500000 0.000000
#
# Coordination Sequence:
#
# PCOD9051431 Si02
#       7
#     2   2   2   2   2   2   2
#     4  12  26  44  71 108 140 191 238 293 359 431
#     4  11  25  45  69 103 142 184 238 296 361 424
#     4  11  26  48  71  98 139 192 243 298 351 420
#     4  11  24  44  68 109 146 189 232 290 362 431
#     4  11  25  43  74 105 143 190 240 290 359 434
#     4  12  24  42  71 105 148 184 227 297 369 422
#     4  10  25  46  71 100 139 187 240 298 349 416
#
# _framework density 25.020132
#
# number of rings (size 3 to 8) (size 9 to 14) (size 15 to 20)
#    0.000    0.857    2.857    3.000    6.000    4.000 
#    0.000    4.286    0.000    0.000    0.000    0.000 
#    0.000    0.000    0.000    0.000    0.000    0.000 
#
# Total GULP energy -78296.141096 kJ/mol
# GULP energy per Si atom -5592.581507 kJ/mol
# Density = 2.496319 g / cm^3
# Si number density = 25.020132 Si / 1000 Ang^3
#
#
#
# Elastic Constant Matrix: (Units=GPa)
#
#
# Indices 1 2 3 4 5 6 
#
# 1 102.4469 42.3794 22.6962 -7.5276 11.1074 18.7444
# 2 42.3794 142.0383 28.2466 -15.9466 3.4682 2.2919
# 3 22.6962 28.2466 52.5561 -10.7444 1.1201 4.5728
# 4 -7.5276 -15.9466 -10.7444 60.4863 7.4715 10.3110
# 5 11.1074 3.4682 1.1201 7.4715 33.1160 0.6567
# 6 18.7444 2.2919 4.5728 10.3110 0.6567 45.6026
#
#
#
# Elastic Compliance Matrix: (Units=1/GPa)
#
#
# Indices 1 2 3 4 5 6 
#
# 1 0.013257 -0.002924 -0.003244 0.001741 -0.004318 -0.005308
# 2 -0.002924 0.008681 -0.003220 0.001228 -0.000113 0.000812
# 3 -0.003244 -0.003220 0.022918 0.003076 -0.000014 -0.001498
# 4 0.001741 0.001228 0.003076 0.019152 -0.005032 -0.005344
# 5 -0.004318 -0.000113 -0.000014 -0.005032 0.032744 0.002448
# 6 -0.005308 0.000812 -0.001498 -0.005344 0.002448 0.025393
#
#
# Mechanical properties :
#
#
# Convention : Reuss Voigt Hill
#
# Bulk Modulus (GPa) = 38.34282 53.74286 46.04284
# Shear Modulus (GPa) = 33.41972 41.42223 37.42098
#
# Velocity S-wave (km/s) = 3.65871 4.07327 3.87154
# Velocity P-wave (km/s) = 5.76248 6.60670 6.19898
#
# Compressibility (1/GPa) = 0.02608050
#
# Stress axis : x y z
#
# Youngs Moduli (GPa) = 75.43460 115.19977 43.63367
#
# Poissons Ratio (x) = 0.33681 0.14153
# Poissons Ratio (y) = 0.22055 0.14050
# Poissons Ratio (z) = 0.24468 0.37095
#
# Static dielectric constant tensor:
#      x y z
#    x 2.003530 -0.007040 0.056690 
#    y -0.007040 2.009300 0.007330 
#    z 0.056690 0.007330 2.027310 
# 
# From -- ./inp_files/76102.got.cif
#   From: 2010.05.17/outbox.cif.g08.bks.cpg/sg2_39_cif.got.tgz:76102.got - 2010.06.03 11:33:40.
