data_PCOD9051607
_publ_section_title
;
Structure prediction by ZEFSAII (Michael W. Deem and Ramdas Pophale) SiO2 
 PCOD9051607
Probable space group: P -1
;
_chemical_formula_sum "Si O2"
_cell_formula_units_Z 16
_cell_length_a 9.441690
_cell_length_b 11.487706
_cell_length_c 9.067803
_cell_angle_alpha 82.333813
_cell_angle_beta 132.827346
_cell_angle_gamma 101.119226
_cell_volume 707.777903
_symmetry_space_group_name_H-M "P -1"
_symmetry_group_IT_number 2
_symmetry_cell_setting 'triclinic'
loop_
_space_group_symop_operation_xyz
x,y,z
-x,-y,-z
loop_
_atom_site_type_symbol
_atom_site_label
_atom_site_fract_x
_atom_site_fract_y
_atom_site_fract_z
Si Si1 0.283830 0.029057 0.886148
Si Si2 0.047212 0.601093 0.783994
Si Si3 0.853428 0.192695 0.998322
Si Si4 0.502442 0.188908 0.559727
Si Si5 0.302900 0.463362 0.782155
Si Si6 0.203045 0.230985 0.594928
Si Si7 0.669484 0.445489 0.547119
Si Si8 0.812597 0.894838 0.882676
O O1 0.187433 0.101258 0.679235
O O2 0.281376 0.105587 0.022495
O O3 0.500000 0.000000 0.000000
O O4 0.156655 0.904632 0.862065
O O5 0.145958 0.519877 0.756306
O O6 0.961731 0.704059 0.611585
O O7 0.870790 0.512505 0.744419
O O8 0.181987 0.680493 0.983357
O O9 0.677509 0.138076 0.775901
O O10 0.062985 0.209241 0.063021
O O11 0.366594 0.229467 0.585578
O O12 0.617162 0.304674 0.542974
O O13 0.357999 0.109880 0.359227
O O14 0.266023 0.322852 0.755933
O O15 0.318449 0.517705 0.620968
O O16 0.500000 0.500000 0.000000
O O17 0.500000 0.500000 0.500000
O O18 0.000000 0.000000 0.000000
#
# Coordination Sequence:
#
# PCOD9051607 Si02
#       8
#     2   2   2   2   2   2   2   2
#     4  11  25  44  74 104 139 189 246 292 370 425
#     4  11  24  45  71 107 151 187 250 297 364 443
#     4  11  24  46  72 106 146 194 241 303 359 431
#     4  12  23  44  74 102 147 192 241 299 363 433
#     4  11  25  43  70 104 147 191 242 303 365 435
#     4  11  22  45  68 102 150 186 239 306 354 434
#     4  11  22  41  66 102 139 191 234 293 364 427
#     4  10  25  47  68 103 141 183 246 303 353 434
#
# _framework density 22.60596
#
# number of rings (size 3 to 8) (size 9 to 14) (size 15 to 20)
#    0.000    1.000    5.000    2.250    1.750    5.000 
#    0.000    0.000    0.000    0.000    0.000    0.000 
#    0.000    0.000    0.000    0.000    0.000    0.000 
#
# Total GULP energy -89302.132100 kJ/mol
# GULP energy per Si atom -5581.383256 kJ/mol
# Density = 2.255451 g / cm^3
# Si number density = 22.605960 Si / 1000 Ang^3
#
#
#
# Elastic Constant Matrix: (Units=GPa)
#
#
# Indices 1 2 3 4 5 6 
#
# 1 148.5619 34.1839 21.2918 2.9462 -1.3175 -18.3304
# 2 34.1839 121.6186 43.3769 9.9552 -11.8412 11.4446
# 3 21.2918 43.3769 109.8516 18.2204 12.6059 9.2227
# 4 2.9462 9.9552 18.2204 45.3119 -0.2413 -7.3221
# 5 -1.3175 -11.8412 12.6059 -0.2413 23.7392 -0.9605
# 6 -18.3304 11.4446 9.2227 -7.3221 -0.9605 29.2392
#
#
#
# Elastic Compliance Matrix: (Units=1/GPa)
#
#
# Indices 1 2 3 4 5 6 
#
# 1 0.008416 -0.002619 -0.001542 0.001822 0.000291 0.007253
# 2 -0.002619 0.011905 -0.004449 -0.001421 0.007939 -0.004993
# 3 -0.001542 -0.004449 0.013588 -0.005271 -0.009783 -0.005152
# 4 0.001822 -0.001421 -0.005271 0.026008 0.002859 0.009968
# 5 0.000291 0.007939 -0.009783 0.002859 0.051428 0.002566
# 6 0.007253 -0.004993 -0.005152 0.009968 0.002566 0.044908
#
#
# Mechanical properties :
#
#
# Convention : Reuss Voigt Hill
#
# Bulk Modulus (GPa) = 59.91930 64.19303 62.05617
# Shear Modulus (GPa) = 27.92728 38.40335 33.16532
#
# Velocity S-wave (km/s) = 3.51863 4.12614 3.83444
# Velocity P-wave (km/s) = 6.56287 7.15250 6.86401
#
# Compressibility (1/GPa) = 0.01668911
#
# Stress axis : x y z
#
# Youngs Moduli (GPa) = 118.81837 84.00127 73.59288
#
# Poissons Ratio (x) = 0.22000 0.11345
# Poissons Ratio (y) = 0.31119 0.32744
# Poissons Ratio (z) = 0.18317 0.37375
#
# Static dielectric constant tensor:
#      x y z
#    x 1.873590 -0.113230 -0.046920 
#    y -0.113230 2.062380 0.043580 
#    z -0.046920 0.043580 1.888730 
# 
# From -- ./inp_files/187088.got.cif
#   From: 2010.05.17/outbox.cif.g08.bks.cpg/sg2_94_cif.got.tgz:187088.got - 2010.06.03 11:33:40.
