data_PCOD9051204
_publ_section_title
;
Structure prediction by ZEFSAII (Michael W. Deem and Ramdas Pophale) SiO2 
 PCOD9051204
Probable space group: P -1
;
_chemical_formula_sum "Si O2"
_cell_formula_units_Z 16
_cell_length_a 5.584710
_cell_length_b 21.885752
_cell_length_c 16.664502
_cell_angle_alpha 22.246706
_cell_angle_beta 100.056436
_cell_angle_gamma 87.713560
_cell_volume 638.783933
_symmetry_space_group_name_H-M "P -1"
_symmetry_group_IT_number 2
_symmetry_cell_setting 'triclinic'
loop_
_space_group_symop_operation_xyz
x,y,z
-x,-y,-z
loop_
_atom_site_type_symbol
_atom_site_label
_atom_site_fract_x
_atom_site_fract_y
_atom_site_fract_z
Si Si1 0.119416 0.998051 0.694279
Si Si2 0.524514 0.830424 0.259791
Si Si3 0.880152 0.521308 0.769790
Si Si4 0.842556 0.981718 0.839583
Si Si5 0.294998 0.268467 0.346793
Si Si6 0.794175 0.474975 0.579921
Si Si7 0.642918 0.107698 0.416065
Si Si8 0.464303 0.677076 0.004471
O O1 0.063077 0.017749 0.760757
O O2 0.095519 0.183973 0.430955
O O3 0.415740 0.808212 0.918734
O O4 0.898589 0.973329 0.656308
O O5 0.762393 0.722825 0.473573
O O6 0.653001 0.645998 0.430821
O O7 0.236675 0.939712 0.169125
O O8 0.500000 0.000000 0.000000
O O9 0.854204 0.545351 0.834618
O O10 0.653912 0.457215 0.816358
O O11 0.209151 0.404602 0.903749
O O12 0.559699 0.109647 0.611924
O O13 0.993623 0.753940 0.111535
O O14 0.424459 0.270504 0.267553
O O15 0.500000 0.500000 0.500000
O O16 0.000000 0.500000 0.500000
O O17 0.500000 0.000000 0.500000
O O18 0.710631 0.198234 0.235740
#
# Coordination Sequence:
#
# PCOD9051204 Si02
#       8
#     2   2   2   2   2   2   2   2
#     4  11  24  43  76 102 146 200 248 302 365 447
#     4  11  25  53  79 108 152 199 251 313 379 455
#     4  11  29  47  70 111 148 196 239 312 386 433
#     4  10  25  48  73 107 153 195 248 311 380 442
#     4  10  25  45  72 103 146 197 247 302 370 445
#     4  12  28  48  76 115 145 190 253 307 377 448
#     4  11  23  43  73 108 143 198 255 300 368 439
#     4  12  26  46  74 107 153 190 251 308 365 448
#
# _framework density 25.047594
#
# number of rings (size 3 to 8) (size 9 to 14) (size 15 to 20)
#    0.000    1.000    2.500    1.875   12.250    2.500 
#    2.250    0.000    0.000    0.000    0.000    0.000 
#    0.000    0.000    0.000    0.000    0.000    0.000 
#
# Total GULP energy -89192.586554 kJ/mol
# GULP energy per Si atom -5574.536660 kJ/mol
# Density = 2.499058 g / cm^3
# Si number density = 25.047594 Si / 1000 Ang^3
#
#
#
# Elastic Constant Matrix: (Units=GPa)
#
#
# Indices 1 2 3 4 5 6 
#
# 1 106.7812 73.2530 33.2974 -14.4051 -14.4847 -36.2431
# 2 73.2530 192.4222 33.8333 -26.8425 -3.5567 -58.5629
# 3 33.2974 33.8333 107.6696 -4.9680 11.1945 -15.1589
# 4 -14.4051 -26.8425 -4.9680 40.9083 -4.1338 0.5642
# 5 -14.4847 -3.5567 11.1945 -4.1338 30.3672 -6.3902
# 6 -36.2431 -58.5629 -15.1589 0.5642 -6.3902 54.7385
#
#
#
# Elastic Compliance Matrix: (Units=1/GPa)
#
#
# Indices 1 2 3 4 5 6 
#
# 1 0.018123 -0.001991 -0.004656 0.005687 0.013015 0.010041
# 2 -0.001991 0.009859 -0.001270 0.005831 0.003406 0.009216
# 3 -0.004656 -0.001270 0.011509 -0.001784 -0.007294 -0.002088
# 4 0.005687 0.005831 -0.001784 0.030970 0.010460 0.010412
# 5 0.013015 0.003406 -0.007294 0.010460 0.046935 0.015613
# 6 0.010041 0.009216 -0.002088 0.010412 0.015613 0.035914
#
#
# Mechanical properties :
#
#
# Convention : Reuss Voigt Hill
#
# Bulk Modulus (GPa) = 42.27028 76.40449 59.33738
# Shear Modulus (GPa) = 28.24363 42.96876 35.60620
#
# Velocity S-wave (km/s) = 3.36162 4.14633 3.77442
# Velocity P-wave (km/s) = 5.65508 7.31387 6.53730
#
# Compressibility (1/GPa) = 0.02365728
#
# Stress axis : x y z
#
# Youngs Moduli (GPa) = 55.17767 101.42689 86.88938
#
# Poissons Ratio (x) = 0.20193 0.40457
# Poissons Ratio (y) = 0.10985 0.11035
# Poissons Ratio (z) = 0.25692 0.12882
#
# Static dielectric constant tensor:
#      x y z
#    x 2.123700 0.013760 0.085930 
#    y 0.013760 1.974060 -0.039950 
#    z 0.085930 -0.039950 2.079810 
# 
# From -- ./inp_files/551211.got.cif
#   From: 2010.05.17/outbox.cif.g08.bks.cpg/sg2_276_cif.got.tgz:551211.got - 2010.06.03 11:33:40.
