data_PCOD9051282
_publ_section_title
;
Structure prediction by ZEFSAII (Michael W. Deem and Ramdas Pophale) SiO2 
 PCOD9051282
Probable space group: P -1
;
_chemical_formula_sum "Si O2"
_cell_formula_units_Z 12
_cell_length_a 14.682491
_cell_length_b 14.796533
_cell_length_c 9.785623
_cell_angle_alpha 148.644036
_cell_angle_beta 37.565341
_cell_angle_gamma 150.570192
_cell_volume 533.520248
_symmetry_space_group_name_H-M "P -1"
_symmetry_group_IT_number 2
_symmetry_cell_setting 'triclinic'
loop_
_space_group_symop_operation_xyz
x,y,z
-x,-y,-z
loop_
_atom_site_type_symbol
_atom_site_label
_atom_site_fract_x
_atom_site_fract_y
_atom_site_fract_z
Si Si1 0.279142 0.478923 0.824352
Si Si2 0.879135 0.065383 0.295540
Si Si3 0.938573 0.254921 0.754155
Si Si4 0.789813 0.331151 0.586109
Si Si5 0.525141 0.328263 0.680970
Si Si6 0.549622 0.775133 0.650675
O O1 0.419660 0.689455 0.830526
O O2 0.371017 0.365078 0.616699
O O3 0.091085 0.287656 0.720443
O O4 0.235844 0.568408 0.120475
O O5 0.979244 0.226752 0.512755
O O6 0.792189 0.133798 0.375561
O O7 0.694015 0.864214 0.326277
O O8 0.000000 0.000000 0.000000
O O9 0.724864 0.038823 0.773186
O O10 0.000000 0.500000 0.000000
O O11 0.642104 0.290786 0.596642
O O12 0.000000 0.500000 0.500000
O O13 0.588293 0.330878 0.454721
O O14 0.500000 0.500000 0.000000
#
# Coordination Sequence:
#
# PCOD9051282 Si02
#       6
#     2   2   2   2   2   2
#     4  11  24  47  73 108 148 194 252 305 379 449
#     4  11  26  46  73 108 145 200 249 304 375 443
#     4  11  24  46  73 107 146 190 248 309 373 444
#     4  12  26  46  71 109 147 198 248 304 375 448
#     4  11  23  46  72 103 150 190 247 309 372 445
#     4  10  25  45  75 107 144 199 246 308 379 450
#
# _framework density 22.492115999999999
#
# number of rings (size 3 to 8) (size 9 to 14) (size 15 to 20)
#    0.000    1.000    3.333    2.000    7.000    0.667 
#    6.000    0.000    0.000    0.000    0.000    0.000 
#    0.000    0.000    0.000    0.000    0.000    0.000 
#
# Total GULP energy -66941.829641 kJ/mol
# GULP energy per Si atom -5578.485803 kJ/mol
# Density = 2.244092 g / cm^3
# Si number density = 22.492116 Si / 1000 Ang^3
#
#
#
# Elastic Constant Matrix: (Units=GPa)
#
#
# Indices 1 2 3 4 5 6 
#
# 1 167.0231 20.3477 74.8530 -5.6040 24.1031 6.5843
# 2 20.3477 136.0331 52.4636 -5.0098 15.8513 1.2254
# 3 74.8530 52.4636 152.9638 -14.0782 8.2103 -1.5766
# 4 -5.6040 -5.0098 -14.0782 39.2391 -5.0948 0.7510
# 5 24.1031 15.8513 8.2103 -5.0948 29.9241 1.5197
# 6 6.5843 1.2254 -1.5766 0.7510 1.5197 36.6836
#
#
#
# Elastic Compliance Matrix: (Units=1/GPa)
#
#
# Indices 1 2 3 4 5 6 
#
# 1 0.008827 0.001147 -0.004469 -0.001023 -0.006588 -0.001521
# 2 0.001147 0.009064 -0.003465 -0.000542 -0.004844 -0.000446
# 3 -0.004469 -0.003465 0.010024 0.002899 0.003119 0.001160
# 4 -0.001023 -0.000542 0.002899 0.026957 0.004927 -0.000430
# 5 -0.006588 -0.004844 0.003119 0.004927 0.041290 -0.000333
# 6 -0.001521 -0.000446 0.001160 -0.000430 -0.000333 0.027620
#
#
# Mechanical properties :
#
#
# Convention : Reuss Voigt Hill
#
# Bulk Modulus (GPa) = 69.72661 83.48317 76.60489
# Shear Modulus (GPa) = 35.17738 41.72641 38.45189
#
# Velocity S-wave (km/s) = 3.95902 4.31183 4.13918
# Velocity P-wave (km/s) = 7.20876 7.87314 7.54826
#
# Compressibility (1/GPa) = 0.01434173
#
# Stress axis : x y z
#
# Youngs Moduli (GPa) = 113.29436 110.32250 99.76115
#
# Poissons Ratio (x) = -0.12653 0.44582
# Poissons Ratio (y) = -0.12994 0.34563
# Poissons Ratio (z) = 0.50630 0.38223
#
# Static dielectric constant tensor:
#      x y z
#    x 2.247020 -0.422960 0.457220 
#    y -0.422960 1.973390 -0.399470 
#    z 0.457220 -0.399470 2.366970 
# 
# From -- ./inp_files/156429.got.cif
#   From: 2010.05.17/outbox.cif.g08.bks.cpg/sg2_79_cif.got.tgz:156429.got - 2010.06.03 11:33:40.
