data_PCOD9051926
_publ_section_title
;
Structure prediction by ZEFSAII (Michael W. Deem and Ramdas Pophale) SiO2 
 PCOD9051926
Probable space group: P -1
;
_chemical_formula_sum "Si O2"
_cell_formula_units_Z 15
_cell_length_a 11.347826
_cell_length_b 11.622220
_cell_length_c 12.163753
_cell_angle_alpha 36.099034
_cell_angle_beta 84.598103
_cell_angle_gamma 58.405679
_cell_volume 607.715417
_symmetry_space_group_name_H-M "P -1"
_symmetry_group_IT_number 2
_symmetry_cell_setting 'triclinic'
loop_
_space_group_symop_operation_xyz
x,y,z
-x,-y,-z
loop_
_atom_site_type_symbol
_atom_site_label
_atom_site_fract_x
_atom_site_fract_y
_atom_site_fract_z
Si Si1 0.714008 0.356624 0.304867
Si Si2 0.673070 0.645647 0.282831
Si Si3 0.041641 0.197849 0.152784
Si Si4 0.500000 0.500000 0.000000
Si Si5 0.279395 0.240207 0.126047
Si Si6 0.950272 0.623677 0.532255
Si Si7 0.789929 0.233043 0.040898
Si Si8 0.689732 0.605874 0.574599
O O1 0.644133 0.489480 0.332206
O O2 0.586020 0.412930 0.184925
O O3 0.888090 0.001177 0.589378
O O4 0.735606 0.547578 0.109361
O O5 0.689734 0.589026 0.455832
O O6 0.861353 0.522167 0.328075
O O7 0.500000 0.000000 0.000000
O O8 0.199787 0.147699 0.143656
O O9 0.979091 0.104545 0.149667
O O10 0.861777 0.552812 0.920944
O O11 0.644537 0.481720 0.953177
O O12 0.489413 0.934336 0.371650
O O13 0.841375 0.574697 0.624646
O O14 0.000000 0.500000 0.500000
O O15 0.806518 0.983982 0.262415
O O16 0.736298 0.349923 0.832309
#
# Coordination Sequence:
#
# PCOD9051926 Si02
#       8
#     2   2   2   1   2   2   2   2
#     4  12  24  51  74 105 151 198 245 311 380 443
#     4  11  24  47  78 109 150 196 252 309 379 444
#     4  11  26  45  74 110 151 197 250 309 373 450
#     4  12  28  46  76 110 150 194 250 310 380 440
#     4  11  24  47  70 110 149 197 249 307 371 447
#     4  10  25  48  77 108 151 201 242 316 370 450
#     4  12  26  47  74 115 150 199 252 307 376 454
#     4  11  26  48  76 111 153 200 250 310 372 450
#
# _framework density 24.682604999999999
#
# number of rings (size 3 to 8) (size 9 to 14) (size 15 to 20)
#    0.000    0.800    4.000    2.000    3.733    2.667 
#    7.200    2.667    0.000    0.000    0.000    0.000 
#    0.000    0.000    0.000    0.000    0.000    0.000 
#
# Total GULP energy -83603.381066 kJ/mol
# GULP energy per Si atom -5573.558738 kJ/mol
# Density = 2.462643 g / cm^3
# Si number density = 24.682605 Si / 1000 Ang^3
#
#
#
# Elastic Constant Matrix: (Units=GPa)
#
#
# Indices 1 2 3 4 5 6 
#
# 1 108.4360 9.2514 35.9234 14.6000 6.3903 -3.9478
# 2 9.2514 59.1429 28.0368 19.3233 22.6381 17.4725
# 3 35.9234 28.0368 96.3481 26.3423 19.1894 -1.3084
# 4 14.6000 19.3233 26.3423 39.9887 -4.0317 6.6435
# 5 6.3903 22.6381 19.1894 -4.0317 46.9031 3.3859
# 6 -3.9478 17.4725 -1.3084 6.6435 3.3859 42.0363
#
#
#
# Elastic Compliance Matrix: (Units=1/GPa)
#
#
# Indices 1 2 3 4 5 6 
#
# 1 0.010670 0.000575 -0.003427 -0.002149 -0.000589 0.001044
# 2 0.000575 0.030661 -0.002925 -0.012925 -0.014098 -0.009603
# 3 -0.003427 -0.002925 0.016202 -0.009140 -0.005774 0.003308
# 4 -0.002149 -0.012925 -0.009140 0.039879 0.013881 -0.002535
# 5 -0.000589 -0.014098 -0.005774 0.013881 0.031698 0.000878
# 6 0.001044 -0.009603 0.003308 -0.002535 0.000878 0.028311
#
#
# Mechanical properties :
#
#
# Convention : Reuss Voigt Hill
#
# Bulk Modulus (GPa) = 21.74912 45.59446 33.67179
# Shear Modulus (GPa) = 27.12941 38.49998 32.81469
#
# Velocity S-wave (km/s) = 3.31891 3.95372 3.65014
# Velocity P-wave (km/s) = 4.84949 6.27335 5.60680
#
# Compressibility (1/GPa) = 0.04597888
#
# Stress axis : x y z
#
# Youngs Moduli (GPa) = 93.71860 32.61445 61.72161
#
# Poissons Ratio (x) = -0.01874 0.21149
# Poissons Ratio (y) = -0.05385 0.18055
# Poissons Ratio (z) = 0.32113 0.09541
#
# Static dielectric constant tensor:
#      x y z
#    x 1.969950 -0.049490 0.049920 
#    y -0.049490 2.032370 -0.081950 
#    z 0.049920 -0.081950 1.995910 
# 
# From -- ./inp_files/425013.got.cif
#   From: 2010.05.17/outbox.cif.g08.bks.cpg/sg2_213_cif.got.tgz:425013.got - 2010.06.03 11:33:40.
