data_PCOD9051760
_publ_section_title
;
Structure prediction by ZEFSAII (Michael W. Deem and Ramdas Pophale) SiO2 
 PCOD9051760
Probable space group: P -1
;
_chemical_formula_sum "Si O2"
_cell_formula_units_Z 14
_cell_length_a 8.964531
_cell_length_b 4.767324
_cell_length_c 14.112674
_cell_angle_alpha 60.947803
_cell_angle_beta 91.482171
_cell_angle_gamma 92.141861
_cell_volume 526.854622
_symmetry_space_group_name_H-M "P -1"
_symmetry_group_IT_number 2
_symmetry_cell_setting 'triclinic'
loop_
_space_group_symop_operation_xyz
x,y,z
-x,-y,-z
loop_
_atom_site_type_symbol
_atom_site_label
_atom_site_fract_x
_atom_site_fract_y
_atom_site_fract_z
Si Si1 0.314158 0.205705 0.376126
Si Si2 0.930295 0.404851 0.116337
Si Si3 0.657108 0.688549 0.975784
Si Si4 0.239381 0.615559 0.157733
Si Si5 0.011388 0.974215 0.614486
Si Si6 0.408885 0.193540 0.588350
Si Si7 0.161744 0.318086 0.707986
O O1 0.297762 0.559007 0.274425
O O2 0.161400 0.063227 0.352073
O O3 0.310833 0.134288 0.500329
O O4 0.468446 0.076190 0.360374
O O5 0.059079 0.589984 0.151256
O O6 0.898866 0.019010 0.190150
O O7 0.764899 0.544804 0.082142
O O8 0.000000 0.500000 0.000000
O O9 0.718353 0.646818 0.876761
O O10 0.677024 0.065576 0.931319
O O11 0.500000 0.500000 0.000000
O O12 0.122481 0.671403 0.689004
O O13 0.000000 0.000000 0.500000
O O14 0.070218 0.292095 0.613350
O O15 0.500000 0.500000 0.500000
O O16 0.326392 0.269447 0.673213
#
# Coordination Sequence:
#
# PCOD9051760 Si02
#       7
#     2   2   2   2   2   2   2
#     4  11  26  43  73 103 150 190 247 295 381 444
#     4  10  25  47  75 108 148 194 256 314 373 441
#     4  11  26  47  71 109 143 191 247 315 374 444
#     4  11  25  45  75 103 144 194 247 305 378 443
#     4  12  25  46  72 109 139 190 251 306 357 447
#     4  11  27  46  69 109 153 198 237 311 376 453
#     4  12  27  45  75 105 145 195 249 303 372 437
#
# _framework density 26.572797999999999
#
# number of rings (size 3 to 8) (size 9 to 14) (size 15 to 20)
#    0.000    0.857    2.857    2.143   12.000    2.286 
#    0.000    0.000    0.000    0.000    0.000    0.000 
#    0.000    0.000    0.000    0.000    0.000    0.000 
#
# Total GULP energy -78070.866004 kJ/mol
# GULP energy per Si atom -5576.490429 kJ/mol
# Density = 2.651232 g / cm^3
# Si number density = 26.572798 Si / 1000 Ang^3
#
#
#
# Elastic Constant Matrix: (Units=GPa)
#
#
# Indices 1 2 3 4 5 6 
#
# 1 167.8611 33.6910 39.3160 -14.9480 5.1263 11.3043
# 2 33.6910 116.2796 15.2739 -17.9586 6.7029 -10.0349
# 3 39.3160 15.2739 119.4278 -26.3772 8.6833 -4.9265
# 4 -14.9480 -17.9586 -26.3772 29.4972 -0.2736 -7.7212
# 5 5.1263 6.7029 8.6833 -0.2736 52.9405 5.3679
# 6 11.3043 -10.0349 -4.9265 -7.7212 5.3679 37.9264
#
#
#
# Elastic Compliance Matrix: (Units=1/GPa)
#
#
# Indices 1 2 3 4 5 6 
#
# 1 0.007082 -0.002128 -0.002348 -0.000628 0.000285 -0.003147
# 2 -0.002128 0.010923 0.001545 0.008432 -0.001967 0.005720
# 3 -0.002348 0.001545 0.011964 0.011845 -0.002419 0.005417
# 4 -0.000628 0.008432 0.011845 0.053303 -0.004236 0.015408
# 5 0.000285 -0.001967 -0.002419 -0.004236 0.019952 -0.004606
# 6 -0.003147 0.005720 0.005417 0.015408 -0.004606 0.033311
#
#
# Mechanical properties :
#
#
# Convention : Reuss Voigt Hill
#
# Bulk Modulus (GPa) = 41.48461 64.45894 52.97178
# Shear Modulus (GPa) = 33.23721 45.09199 39.16460
#
# Velocity S-wave (km/s) = 3.54050 4.12384 3.84325
# Velocity P-wave (km/s) = 5.68851 6.85455 6.29857
#
# Compressibility (1/GPa) = 0.02410532
#
# Stress axis : x y z
#
# Youngs Moduli (GPa) = 141.20580 91.54928 83.58327
#
# Poissons Ratio (x) = 0.19486 0.19629
# Poissons Ratio (y) = 0.30056 -0.12914
# Poissons Ratio (z) = 0.33162 -0.14145
#
# Static dielectric constant tensor:
#      x y z
#    x 2.305850 -0.021400 -0.058800 
#    y -0.021400 2.080920 0.024910 
#    z -0.058800 0.024910 2.281090 
# 
# From -- ./inp_files/553173.got.cif
#   From: 2010.05.17/outbox.cif.g08.bks.cpg/sg2_277_cif.got.tgz:553173.got - 2010.06.03 11:33:40.
