data_PCOD9051994
_publ_section_title
;
Structure prediction by ZEFSAII (Michael W. Deem and Ramdas Pophale) SiO2 
 PCOD9051994
Probable space group: P -1
;
_chemical_formula_sum "Si O2"
_cell_formula_units_Z 14
_cell_length_a 13.746700
_cell_length_b 8.185601
_cell_length_c 5.125603
_cell_angle_alpha 95.415699
_cell_angle_beta 91.637480
_cell_angle_gamma 69.393793
_cell_volume 537.441775
_symmetry_space_group_name_H-M "P -1"
_symmetry_group_IT_number 2
_symmetry_cell_setting 'triclinic'
loop_
_space_group_symop_operation_xyz
x,y,z
-x,-y,-z
loop_
_atom_site_type_symbol
_atom_site_label
_atom_site_fract_x
_atom_site_fract_y
_atom_site_fract_z
Si Si1 0.653946 0.334686 0.481926
Si Si2 0.475666 0.179268 0.365205
Si Si3 0.932081 0.517060 0.741812
Si Si4 0.369008 0.420958 0.979366
Si Si5 0.732979 0.795988 0.846666
Si Si6 0.179181 0.958403 0.873494
Si Si7 0.036169 0.849588 0.261048
O O1 0.438563 0.743481 0.518382
O O2 0.654221 0.434811 0.768616
O O3 0.624400 0.481740 0.270975
O O4 0.758863 0.179736 0.365326
O O5 0.466940 0.250200 0.065747
O O6 0.351061 0.220858 0.364979
O O7 0.500000 0.000000 0.500000
O O8 0.844215 0.702030 0.729026
O O9 0.898288 0.348414 0.692290
O O10 0.000000 0.500000 0.500000
O O11 0.000000 0.500000 0.000000
O O12 0.280082 0.334186 0.947767
O O13 0.731844 0.981950 0.975822
O O14 0.109966 0.886231 0.051034
O O15 0.083122 0.133852 0.813669
O O16 0.000000 0.000000 0.500000
#
# Coordination Sequence:
#
# PCOD9051994 Si02
#       7
#     2   2   2   2   2   2   2
#     4  12  26  50  77 112 152 201 252 312 377 457
#     4  10  26  49  79 110 155 200 257 310 385 447
#     4  12  26  48  76 105 149 195 249 312 376 450
#     4  10  27  49  77 108 155 196 253 310 379 447
#     4  10  25  49  73 110 151 198 252 311 381 449
#     4  11  26  46  74 108 151 194 254 310 377 448
#     4  11  26  46  73 108 148 199 250 312 378 449
#
# _framework density 26.049330999999999
#
# number of rings (size 3 to 8) (size 9 to 14) (size 15 to 20)
#    0.857    0.286    1.429    2.571    8.000    4.000 
#    2.571    0.000    0.000    0.000    0.000    0.000 
#    0.000    0.000    0.000    0.000    0.000    0.000 
#
# Total GULP energy -77939.069286 kJ/mol
# GULP energy per Si atom -5567.076378 kJ/mol
# Density = 2.599004 g / cm^3
# Si number density = 26.049331 Si / 1000 Ang^3
#
#
#
# Elastic Constant Matrix: (Units=GPa)
#
#
# Indices 1 2 3 4 5 6 
#
# 1 135.6508 22.5185 53.4195 16.7664 3.2719 10.3503
# 2 22.5185 99.8013 35.1779 2.8098 -8.3721 10.5396
# 3 53.4195 35.1779 139.3168 17.3969 -18.4177 1.4289
# 4 16.7664 2.8098 17.3969 38.0000 6.3691 -4.2710
# 5 3.2719 -8.3721 -18.4177 6.3691 27.2580 -0.4031
# 6 10.3503 10.5396 1.4289 -4.2710 -0.4031 47.2581
#
#
#
# Elastic Compliance Matrix: (Units=1/GPa)
#
#
# Indices 1 2 3 4 5 6 
#
# 1 0.009406 -0.000886 -0.003535 -0.002131 -0.003321 -0.001976
# 2 -0.000886 0.011425 -0.002244 -0.000029 0.002072 -0.002271
# 3 -0.003535 -0.002244 0.010710 -0.004453 0.008021 0.000617
# 4 -0.002131 -0.000029 -0.004453 0.031357 -0.010039 0.003356
# 5 -0.003321 0.002072 0.008021 -0.010039 0.045480 -0.000497
# 6 -0.001976 -0.002271 0.000617 0.003356 -0.000497 0.022380
#
#
# Mechanical properties :
#
#
# Convention : Reuss Voigt Hill
#
# Bulk Modulus (GPa) = 54.91530 66.33343 60.62436
# Shear Modulus (GPa) = 33.29804 40.08009 36.68906
#
# Velocity S-wave (km/s) = 3.57917 3.92678 3.75700
# Velocity P-wave (km/s) = 6.18123 6.78818 6.49180
#
# Compressibility (1/GPa) = 0.01820986
#
# Stress axis : x y z
#
# Youngs Moduli (GPa) = 106.32050 87.52428 93.36813
#
# Poissons Ratio (x) = 0.07754 0.33009
# Poissons Ratio (y) = 0.09419 0.20955
# Poissons Ratio (z) = 0.37588 0.19644
#
# Static dielectric constant tensor:
#      x y z
#    x 2.148320 -0.050160 0.009260 
#    y -0.050160 2.400700 0.285700 
#    z 0.009260 0.285700 2.278330 
# 
# From -- ./inp_files/105378.got.cif
#   From: 2010.05.17/outbox.cif.g08.bks.cpg/sg2_53_cif.got.tgz:105378.got - 2010.06.03 11:33:40.
