data_PCOD9051890
_publ_section_title
;
Structure prediction by ZEFSAII (Michael W. Deem and Ramdas Pophale) SiO2 
 PCOD9051890
Probable space group: P -1
;
_chemical_formula_sum "Si O2"
_cell_formula_units_Z 15
_cell_length_a 8.902811
_cell_length_b 10.095700
_cell_length_c 9.154084
_cell_angle_alpha 47.352943
_cell_angle_beta 90.046184
_cell_angle_gamma 71.787936
_cell_volume 547.621545
_symmetry_space_group_name_H-M "P -1"
_symmetry_group_IT_number 2
_symmetry_cell_setting 'triclinic'
loop_
_space_group_symop_operation_xyz
x,y,z
-x,-y,-z
loop_
_atom_site_type_symbol
_atom_site_label
_atom_site_fract_x
_atom_site_fract_y
_atom_site_fract_z
Si Si1 0.693737 0.356096 0.774279
Si Si2 0.762944 0.949651 0.937324
Si Si3 0.000000 0.000000 0.500000
Si Si4 0.800834 0.628340 0.414087
Si Si5 0.483448 0.345933 0.005482
Si Si6 0.354327 0.069073 0.326764
Si Si7 0.066412 0.652516 0.959549
Si Si8 0.207076 0.056114 0.617432
O O1 0.712800 0.485637 0.546909
O O2 0.510027 0.407036 0.798089
O O3 0.788539 0.401970 0.878191
O O4 0.777364 0.125412 0.895962
O O5 0.737071 0.796822 0.162835
O O6 0.622552 0.045922 0.739014
O O7 0.913800 0.805258 0.944793
O O8 0.893658 0.232609 0.259548
O O9 0.021810 0.082016 0.607172
O O10 0.774952 0.755908 0.466665
O O11 0.000000 0.500000 0.500000
O O12 0.343339 0.280901 0.111880
O O13 0.646350 0.135354 0.177329
O O14 0.500000 0.500000 0.000000
O O15 0.211019 0.045620 0.444488
O O16 0.500000 0.000000 0.500000
O O17 0.000000 0.500000 0.000000
#
# Coordination Sequence:
#
# PCOD9051890 Si02
#       8
#     2   2   1   2   2   2   2   2
#     4  12  26  47  72 110 157 191 253 308 384 451
#     4  12  26  47  75 110 154 201 239 319 383 450
#     4  12  22  38  74 108 144 182 246 298 386 430
#     4  12  26  43  73 110 156 193 236 302 394 459
#     4  11  24  46  75  99 145 203 257 311 360 437
#     4  10  25  48  74 102 144 201 262 310 370 428
#     4  12  26  41  74 112 153 196 243 305 382 459
#     4  11  23  46  71 108 149 193 246 319 363 456
#
# _framework density 27.391178
#
# number of rings (size 3 to 8) (size 9 to 14) (size 15 to 20)
#    0.000    0.533    5.333    2.000    3.733    0.533 
#    4.800    0.667    0.000    0.000    0.000    0.000 
#    0.000    0.000    0.000    0.000    0.000    0.000 
#
# Total GULP energy -83618.576149 kJ/mol
# GULP energy per Si atom -5574.571743 kJ/mol
# Density = 2.732883 g / cm^3
# Si number density = 27.391178 Si / 1000 Ang^3
#
#
#
# Elastic Constant Matrix: (Units=GPa)
#
#
# Indices 1 2 3 4 5 6 
#
# 1 99.0098 47.0385 52.2070 9.0554 -8.3535 13.1881
# 2 47.0385 168.7184 70.0008 -3.7523 -15.0268 7.1838
# 3 52.2070 70.0008 210.6393 7.5969 -42.8270 19.0703
# 4 9.0554 -3.7523 7.5969 46.2931 13.2776 -1.1141
# 5 -8.3535 -15.0268 -42.8270 13.2776 65.5424 9.6585
# 6 13.1881 7.1838 19.0703 -1.1141 9.6585 40.3283
#
#
#
# Elastic Compliance Matrix: (Units=1/GPa)
#
#
# Indices 1 2 3 4 5 6 
#
# 1 0.013112 -0.002775 -0.001730 -0.002863 0.000969 -0.003287
# 2 -0.002775 0.007505 -0.001994 0.001595 -0.000354 0.000642
# 3 -0.001730 -0.001994 0.007347 -0.002621 0.005225 -0.003877
# 4 -0.002863 0.001595 -0.002621 0.024950 -0.007408 0.004355
# 5 0.000969 -0.000354 0.005225 -0.007408 0.021402 -0.008055
# 6 -0.003287 0.000642 -0.003877 0.004355 -0.008055 0.029640
#
#
# Mechanical properties :
#
#
# Convention : Reuss Voigt Hill
#
# Bulk Modulus (GPa) = 66.81936 90.76222 78.79079
# Shear Modulus (GPa) = 41.00340 51.04084 46.02212
#
# Velocity S-wave (km/s) = 3.87325 4.32140 4.10345
# Velocity P-wave (km/s) = 6.66710 7.62278 7.16090
#
# Compressibility (1/GPa) = 0.01496572
#
# Stress axis : x y z
#
# Youngs Moduli (GPa) = 76.26610 133.25124 136.11702
#
# Poissons Ratio (x) = 0.36983 0.23543
# Poissons Ratio (y) = 0.21167 0.27138
# Poissons Ratio (z) = 0.13191 0.26566
#
# Static dielectric constant tensor:
#      x y z
#    x 1.606790 -0.154200 0.347150 
#    y -0.154200 2.122440 0.062920 
#    z 0.347150 0.062920 2.128150 
# 
# From -- ./inp_files/236698.got.cif
#   From: 2010.05.17/outbox.cif.g08.bks.cpg/sg2_119_cif.got.tgz:236698.got - 2010.06.03 11:33:40.
