data_PCOD9051738
_publ_section_title
;
Structure prediction by ZEFSAII (Michael W. Deem and Ramdas Pophale) SiO2 
 PCOD9051738
Probable space group: P -1
;
_chemical_formula_sum "Si O2"
_cell_formula_units_Z 16
_cell_length_a 13.392604
_cell_length_b 5.077779
_cell_length_c 10.015884
_cell_angle_alpha 81.215035
_cell_angle_beta 101.063850
_cell_angle_gamma 85.338546
_cell_volume 656.318012
_symmetry_space_group_name_H-M "P -1"
_symmetry_group_IT_number 2
_symmetry_cell_setting 'triclinic'
loop_
_space_group_symop_operation_xyz
x,y,z
-x,-y,-z
loop_
_atom_site_type_symbol
_atom_site_label
_atom_site_fract_x
_atom_site_fract_y
_atom_site_fract_z
Si Si1 0.088002 0.770787 0.085729
Si Si2 0.082645 0.461214 0.839770
Si Si3 0.301751 0.331781 0.873582
Si Si4 0.304661 0.781775 0.265070
Si Si5 0.972594 0.737252 0.581057
Si Si6 0.729422 0.774492 0.566398
Si Si7 0.630042 0.120227 0.265906
Si Si8 0.435355 0.447413 0.122830
O O1 0.196853 0.837255 0.154352
O O2 0.025354 0.653689 0.197520
O O3 0.100858 0.553592 0.987520
O O4 0.000000 0.000000 0.000000
O O5 0.183744 0.282677 0.835493
O O6 0.056121 0.716813 0.723380
O O7 0.313976 0.616635 0.780951
O O8 0.367474 0.082908 0.841985
O O9 0.336336 0.349541 0.034336
O O10 0.296589 0.525824 0.382431
O O11 0.393114 0.692695 0.187569
O O12 0.312557 0.040473 0.335400
O O13 0.852586 0.765145 0.587508
O O14 0.000000 0.500000 0.500000
O O15 0.000000 0.000000 0.500000
O O16 0.679596 0.931713 0.411703
O O17 0.513061 0.247619 0.244453
O O18 0.500000 0.500000 0.000000
#
# Coordination Sequence:
#
# PCOD9051738 Si02
#       8
#     2   2   2   2   2   2   2   2
#     4  11  25  41  68  97 138 182 228 285 343 419
#     4  11  24  41  65 100 132 182 228 275 348 414
#     4  11  23  43  71 101 139 175 233 293 348 410
#     4  12  26  47  71 101 144 183 230 300 344 413
#     4  12  25  42  67  99 141 187 228 278 335 411
#     4  12  26  46  69 101 146 186 238 279 347 421
#     4  11  25  45  70 102 135 185 233 288 346 414
#     4  10  25  47  74 105 137 178 236 297 360 410
#
# _framework density 24.378428
#
# number of rings (size 3 to 8) (size 9 to 14) (size 15 to 20)
#    0.000    0.750    2.500    4.125    5.250    5.000 
#    0.000    0.000    0.000    0.000    0.000    0.000 
#    0.000    0.000    0.000    0.000    0.000    0.000 
#
# Total GULP energy -89462.511991 kJ/mol
# GULP energy per Si atom -5591.406999 kJ/mol
# Density = 2.432294 g / cm^3
# Si number density = 24.378428 Si / 1000 Ang^3
#
#
#
# Elastic Constant Matrix: (Units=GPa)
#
#
# Indices 1 2 3 4 5 6 
#
# 1 107.4570 24.7973 22.9013 -5.2618 2.3571 -34.4304
# 2 24.7973 113.8738 9.3258 1.7994 -8.8201 -16.4659
# 3 22.9013 9.3258 67.7060 -4.5404 9.5985 -18.1581
# 4 -5.2618 1.7994 -4.5404 46.5119 -13.8415 2.4621
# 5 2.3571 -8.8201 9.5985 -13.8415 35.7096 -6.6760
# 6 -34.4304 -16.4659 -18.1581 2.4621 -6.6760 44.3910
#
#
#
# Elastic Compliance Matrix: (Units=1/GPa)
#
#
# Indices 1 2 3 4 5 6 
#
# 1 0.012890 -0.001265 -0.001928 0.001301 0.001522 0.008896
# 2 -0.001265 0.009774 -0.000596 0.000248 0.003293 0.002882
# 3 -0.001928 -0.000596 0.017330 0.000133 -0.003728 0.004804
# 4 0.001301 0.000248 0.000133 0.024457 0.009653 0.001251
# 5 0.001522 0.003293 -0.003728 0.009653 0.034494 0.005529
# 6 0.008896 0.002882 0.004804 0.001251 0.005529 0.033223
#
#
# Mechanical properties :
#
#
# Convention : Reuss Voigt Hill
#
# Bulk Modulus (GPa) = 30.84972 44.78730 37.81851
# Shear Modulus (GPa) = 33.21131 40.78998 37.00064
#
# Velocity S-wave (km/s) = 3.69497 4.09491 3.90007
# Velocity P-wave (km/s) = 5.55749 6.38509 5.98561
#
# Compressibility (1/GPa) = 0.03241521
#
# Stress axis : x y z
#
# Youngs Moduli (GPa) = 77.58099 102.31478 57.70366
#
# Poissons Ratio (x) = 0.12945 0.11127
# Poissons Ratio (y) = 0.09816 0.03436
# Poissons Ratio (z) = 0.14960 0.06093
#
# Static dielectric constant tensor:
#      x y z
#    x 2.005590 0.100950 -0.101420 
#    y 0.100950 2.057790 -0.157820 
#    z -0.101420 -0.157820 2.008090 
# 
# From -- ./inp_files/110969.got.cif
#   From: 2010.05.17/outbox.cif.g08.bks.cpg/sg2_56_cif.got.tgz:110969.got - 2010.06.03 11:33:40.
