data_PCOD9051149
_publ_section_title
;
Structure prediction by ZEFSAII (Michael W. Deem and Ramdas Pophale) SiO2 
 PCOD9051149
Probable space group: P -1
;
_chemical_formula_sum "Si O2"
_cell_formula_units_Z 16
_cell_length_a 10.868819
_cell_length_b 7.806905
_cell_length_c 25.118524
_cell_angle_alpha 131.851841
_cell_angle_beta 149.425665
_cell_angle_gamma 39.747349
_cell_volume 693.103579
_symmetry_space_group_name_H-M "P -1"
_symmetry_group_IT_number 2
_symmetry_cell_setting 'triclinic'
loop_
_space_group_symop_operation_xyz
x,y,z
-x,-y,-z
loop_
_atom_site_type_symbol
_atom_site_label
_atom_site_fract_x
_atom_site_fract_y
_atom_site_fract_z
Si Si1 0.769198 0.197255 0.538951
Si Si2 0.684713 0.728760 0.364546
Si Si3 0.904841 0.795838 0.904765
Si Si4 0.320114 0.218582 0.746154
Si Si5 0.298352 0.254446 0.941947
Si Si6 0.125611 0.910144 0.246561
Si Si7 0.165901 0.148030 0.411273
Si Si8 0.199017 0.689219 0.881527
O O1 0.500000 0.500000 0.500000
O O2 0.038980 0.213934 0.626436
O O3 0.704689 0.991992 0.440149
O O4 0.861525 0.053257 0.601047
O O5 0.584773 0.744281 0.269410
O O6 0.456614 0.727009 0.319554
O O7 0.983684 0.453863 0.425059
O O8 0.096644 0.530284 0.955633
O O9 0.020063 0.703426 0.868664
O O10 0.569986 0.943402 0.808018
O O11 0.000000 0.000000 0.000000
O O12 0.268227 0.445580 0.816804
O O13 0.054954 0.206928 0.819188
O O14 0.520209 0.296111 0.999004
O O15 0.500000 0.000000 0.000000
O O16 0.073871 0.141757 0.315864
O O17 0.992544 0.044859 0.169109
O O18 0.500000 0.000000 0.500000
#
# Coordination Sequence:
#
# PCOD9051149 Si02
#       8
#     2   2   2   2   2   2   2   2
#     4  12  28  47  73 109 146 192 241 302 358 430
#     4  12  25  50  71 103 148 188 240 299 360 431
#     4  12  26  44  75 106 142 191 240 295 358 427
#     4  12  26  44  76 105 142 193 238 294 362 421
#     4  10  25  45  71 101 144 184 234 294 353 423
#     4  11  24  45  72 103 142 190 235 293 362 425
#     4  12  26  45  74 101 145 189 240 293 366 424
#     4  11  23  50  68 103 147 185 234 297 358 422
#
# _framework density 23.084572999999999
#
# number of rings (size 3 to 8) (size 9 to 14) (size 15 to 20)
#    0.000    0.500    5.000    2.625    3.500    0.000 
#    0.000    1.875    0.000    0.000    0.000    0.000 
#    0.000    0.000    0.000    0.000    0.000    0.000 
#
# Total GULP energy -89278.627791 kJ/mol
# GULP energy per Si atom -5579.914237 kJ/mol
# Density = 2.303203 g / cm^3
# Si number density = 23.084573 Si / 1000 Ang^3
#
#
#
# Elastic Constant Matrix: (Units=GPa)
#
#
# Indices 1 2 3 4 5 6 
#
# 1 91.3222 26.4722 26.6399 8.7900 8.4564 -12.0983
# 2 26.4722 190.0975 57.1143 -21.7960 16.6173 -9.1544
# 3 26.6399 57.1143 104.3436 4.6849 21.2967 -22.3283
# 4 8.7900 -21.7960 4.6849 40.6007 -4.0143 -3.9224
# 5 8.4564 16.6173 21.2967 -4.0143 45.0591 -3.5210
# 6 -12.0983 -9.1544 -22.3283 -3.9224 -3.5210 35.3690
#
#
#
# Elastic Compliance Matrix: (Units=1/GPa)
#
#
# Indices 1 2 3 4 5 6 
#
# 1 0.012554 -0.001441 -0.001490 -0.003197 -0.001210 0.002506
# 2 -0.001441 0.007110 -0.003810 0.004493 -0.000196 -0.000579
# 3 -0.001490 -0.003810 0.014700 -0.003245 -0.005011 0.006926
# 4 -0.003197 0.004493 -0.003245 0.028564 0.003139 0.001501
# 5 -0.001210 -0.000196 -0.005011 0.003139 0.025079 -0.000783
# 6 0.002506 -0.000579 0.006926 0.001501 -0.000783 0.033441
#
#
# Mechanical properties :
#
#
# Convention : Reuss Voigt Hill
#
# Bulk Modulus (GPa) = 47.88448 67.35733 57.62091
# Shear Modulus (GPa) = 35.23845 42.57489 38.90667
#
# Velocity S-wave (km/s) = 3.91128 4.29919 4.10981
# Velocity P-wave (km/s) = 6.41760 7.34070 6.89462
#
# Compressibility (1/GPa) = 0.02088359
#
# Stress axis : x y z
#
# Youngs Moduli (GPa) = 79.65454 140.64482 68.02818
#
# Poissons Ratio (x) = 0.20263 0.10136
# Poissons Ratio (y) = 0.11476 0.25916
# Poissons Ratio (z) = 0.11868 0.53579
#
# Static dielectric constant tensor:
#      x y z
#    x 27.823640 0.118620 -2.588490 
#    y 0.118620 1.922230 -0.009990 
#    z -2.588490 -0.009990 2.237380 
# 
# From -- ./inp_files/39941.got.cif
#   From: 2010.05.17/outbox.cif.g08.bks.cpg/sg2_20_cif.got.tgz:39941.got - 2010.06.03 11:33:40.
