data_PCOD9051492
_publ_section_title
;
Structure prediction by ZEFSAII (Michael W. Deem and Ramdas Pophale) SiO2 
 PCOD9051492
Probable space group: P -1
;
_chemical_formula_sum "Si O2"
_cell_formula_units_Z 16
_cell_length_a 13.202790
_cell_length_b 8.998680
_cell_length_c 9.065862
_cell_angle_alpha 134.367709
_cell_angle_beta 66.100570
_cell_angle_gamma 115.458226
_cell_volume 686.031628
_symmetry_space_group_name_H-M "P -1"
_symmetry_group_IT_number 2
_symmetry_cell_setting 'triclinic'
loop_
_space_group_symop_operation_xyz
x,y,z
-x,-y,-z
loop_
_atom_site_type_symbol
_atom_site_label
_atom_site_fract_x
_atom_site_fract_y
_atom_site_fract_z
Si Si1 0.775265 0.848215 0.198622
Si Si2 0.419762 0.313060 0.324356
Si Si3 0.373183 0.948656 0.336676
Si Si4 0.978410 0.235592 0.658965
Si Si5 0.440848 0.272296 0.942958
Si Si6 0.215358 0.606811 0.996150
Si Si7 0.899935 0.283786 0.421224
Si Si8 0.781197 0.472824 0.375358
O O1 0.690673 0.780484 0.064225
O O2 0.697966 0.949269 0.430539
O O3 0.885709 0.031164 0.214644
O O4 0.805625 0.641844 0.114784
O O5 0.500000 0.500000 0.500000
O O6 0.298717 0.375307 0.424434
O O7 0.402322 0.109824 0.296117
O O8 0.457793 0.281117 0.114665
O O9 0.490713 0.893912 0.279159
O O10 0.299585 0.734762 0.157312
O O11 0.900433 0.305410 0.878219
O O12 0.902601 0.256726 0.575679
O O13 0.098750 0.390472 0.660758
O O14 0.000000 0.000000 0.500000
O O15 0.500000 0.500000 0.000000
O O16 0.268835 0.645968 0.827914
O O17 0.803146 0.338948 0.411176
O O18 0.000000 0.500000 0.500000
#
# Coordination Sequence:
#
# PCOD9051492 Si02
#       8
#     2   2   2   2   2   2   2   2
#     4  12  25  47  76 109 151 200 251 319 374 447
#     4  12  27  47  74 110 156 195 253 310 376 454
#     4  12  25  48  73 105 155 194 255 311 376 452
#     4  11  23  48  77 105 146 196 245 306 373 447
#     4  12  27  45  75 115 147 202 254 308 383 447
#     4  12  24  46  77 109 146 197 254 300 385 451
#     4  10  25  46  72 108 151 195 248 309 375 439
#     4  11  25  44  71 109 146 194 245 308 367 444
#
# _framework density 23.322541000000001
#
# number of rings (size 3 to 8) (size 9 to 14) (size 15 to 20)
#    0.000    0.500    3.750    4.125    7.000    0.000 
#    0.000    3.125    0.000    0.000    0.000    0.000 
#    0.000    0.000    0.000    0.000    0.000    0.000 
#
# Total GULP energy -89324.958502 kJ/mol
# GULP energy per Si atom -5582.809906 kJ/mol
# Density = 2.326946 g / cm^3
# Si number density = 23.322541 Si / 1000 Ang^3
#
#
#
# Elastic Constant Matrix: (Units=GPa)
#
#
# Indices 1 2 3 4 5 6 
#
# 1 77.8336 29.6602 34.5264 0.3376 -3.3277 -9.8542
# 2 29.6602 124.5377 43.7763 18.3186 -3.4427 -25.5220
# 3 34.5264 43.7763 111.4767 -0.7820 -11.3355 -8.8391
# 4 0.3376 18.3186 -0.7820 36.7103 -2.5069 -0.7617
# 5 -3.3277 -3.4427 -11.3355 -2.5069 56.3876 6.9458
# 6 -9.8542 -25.5220 -8.8391 -0.7617 6.9458 44.3251
#
#
#
# Elastic Compliance Matrix: (Units=1/GPa)
#
#
# Indices 1 2 3 4 5 6 
#
# 1 0.015567 -0.002186 -0.003854 0.000887 -0.000131 0.001470
# 2 -0.002186 0.011848 -0.003680 -0.005928 -0.001108 0.005674
# 3 -0.003854 -0.003680 0.011768 0.002249 0.002127 -0.000924
# 4 0.000887 -0.005928 0.002249 0.030309 0.001801 -0.002529
# 5 -0.000131 -0.001108 0.002127 0.001801 0.018551 -0.003119
# 6 0.001470 0.005674 -0.000924 -0.002529 -0.003119 0.026415
#
#
# Mechanical properties :
#
#
# Convention : Reuss Voigt Hill
#
# Bulk Modulus (GPa) = 50.64809 58.86373 54.75591
# Shear Modulus (GPa) = 35.59269 41.21027 38.40148
#
# Velocity S-wave (km/s) = 3.91078 4.20810 4.06216
# Velocity P-wave (km/s) = 6.49275 6.99318 6.74760
#
# Compressibility (1/GPa) = 0.01974408
#
# Stress axis : x y z
#
# Youngs Moduli (GPa) = 64.23893 84.40228 84.97627
#
# Poissons Ratio (x) = 0.18449 0.32746
# Poissons Ratio (y) = 0.14041 0.31271
# Poissons Ratio (z) = 0.24755 0.31060
#
# Static dielectric constant tensor:
#      x y z
#    x 1.924830 0.032750 0.074630 
#    y 0.032750 2.011600 -0.198420 
#    z 0.074630 -0.198420 2.217350 
# 
# From -- ./inp_files/299813.got.cif
#   From: 2010.05.17/outbox.cif.g08.bks.cpg/sg2_150_cif.got.tgz:299813.got - 2010.06.03 11:33:40.
