data_PCOD9051934
_publ_section_title
;
Structure prediction by ZEFSAII (Michael W. Deem and Ramdas Pophale) SiO2 
 PCOD9051934
Probable space group: P -1
;
_chemical_formula_sum "Si O2"
_cell_formula_units_Z 12
_cell_length_a 19.828124
_cell_length_b 5.134733
_cell_length_c 12.388564
_cell_angle_alpha 84.826082
_cell_angle_beta 156.764319
_cell_angle_gamma 87.672200
_cell_volume 470.465619
_symmetry_space_group_name_H-M "P -1"
_symmetry_group_IT_number 2
_symmetry_cell_setting 'triclinic'
loop_
_space_group_symop_operation_xyz
x,y,z
-x,-y,-z
loop_
_atom_site_type_symbol
_atom_site_label
_atom_site_fract_x
_atom_site_fract_y
_atom_site_fract_z
Si Si1 0.550990 0.631112 0.855247
Si Si2 0.660008 0.089881 0.276972
Si Si3 0.210693 0.020947 0.075528
Si Si4 0.912303 0.208103 0.461158
Si Si5 0.984588 0.772619 0.900958
Si Si6 0.458566 0.210089 0.580793
O O1 0.563584 0.346038 0.204077
O O2 0.766028 0.483758 0.189952
O O3 0.518965 0.937685 0.754086
O O4 0.466813 0.466292 0.653662
O O5 0.792149 0.864961 0.556887
O O6 0.500000 0.000000 0.000000
O O7 0.072673 0.211710 0.778454
O O8 0.219556 0.883478 0.647885
O O9 0.118778 0.816229 0.004458
O O10 0.387418 0.838592 0.280993
O O11 0.000000 0.000000 0.500000
O O12 0.720961 0.801722 0.743001
O O13 0.000000 0.500000 0.000000
O O14 0.000000 0.000000 0.000000
#
# Coordination Sequence:
#
# PCOD9051934 Si02
#       6
#     2   2   2   2   2   2
#     4  12  26  49  80 114 162 211 263 325 397 475
#     4  11  27  50  80 117 157 212 263 327 397 477
#     4  10  25  48  78 118 155 209 262 327 394 471
#     4  11  24  50  76 115 161 210 266 328 391 470
#     4  11  27  50  79 113 155 204 264 324 391 466
#     4  11  26  49  79 117 161 204 265 325 405 471
#
# _framework density 25.506647000000001
#
# number of rings (size 3 to 8) (size 9 to 14) (size 15 to 20)
#    0.000    1.000    1.667    2.500    0.000   15.333 
#    0.000    2.500    0.000    0.000    0.000    0.000 
#    0.000    0.000    0.000    0.000    0.000    0.000 
#
# Total GULP energy -67284.328331 kJ/mol
# GULP energy per Si atom -5607.027361 kJ/mol
# Density = 2.544859 g / cm^3
# Si number density = 25.506647 Si / 1000 Ang^3
#
#
#
# Elastic Constant Matrix: (Units=GPa)
#
#
# Indices 1 2 3 4 5 6 
#
# 1 191.1947 54.6460 44.9026 -8.8759 16.0702 -11.8687
# 2 54.6460 96.3249 34.9217 2.7379 -0.6292 -1.9932
# 3 44.9026 34.9217 217.5168 9.7552 -2.5237 2.5836
# 4 -8.8759 2.7379 9.7552 39.4584 2.6523 -7.7092
# 5 16.0702 -0.6292 -2.5237 2.6523 45.0376 -0.9549
# 6 -11.8687 -1.9932 2.5836 -7.7092 -0.9549 43.5640
#
#
#
# Elastic Compliance Matrix: (Units=1/GPa)
#
#
# Indices 1 2 3 4 5 6 
#
# 1 0.007010 -0.003648 -0.001041 0.002705 -0.002723 0.002224
# 2 -0.003648 0.012940 -0.001227 -0.001630 0.001497 -0.000585
# 3 -0.001041 -0.001227 0.005102 -0.001637 0.000717 -0.000916
# 4 0.002705 -0.001630 -0.001637 0.027740 -0.002594 0.005611
# 5 -0.002723 0.001497 0.000717 -0.002594 0.023375 -0.000662
# 6 0.002224 -0.000585 -0.000916 0.005611 -0.000662 0.024567
#
#
# Mechanical properties :
#
#
# Convention : Reuss Voigt Hill
#
# Bulk Modulus (GPa) = 75.64226 85.99744 80.81985
# Shear Modulus (GPa) = 42.74550 50.31643 46.53097
#
# Velocity S-wave (km/s) = 4.09816 4.44630 4.27578
# Velocity P-wave (km/s) = 7.21897 7.75554 7.49206
#
# Compressibility (1/GPa) = 0.01322012
#
# Stress axis : x y z
#
# Youngs Moduli (GPa) = 142.65814 77.28000 196.00938
#
# Poissons Ratio (x) = 0.28192 0.20398
# Poissons Ratio (y) = 0.52043 0.24050
# Poissons Ratio (z) = 0.14846 0.09482
#
# Static dielectric constant tensor:
#      x y z
#    x 2.071520 -0.032000 -0.011400 
#    y -0.032000 2.009390 -0.054180 
#    z -0.011400 -0.054180 2.023730 
# 
# From -- ./inp_files/468127.got.cif
#   From: 2010.05.17/outbox.cif.g08.bks.cpg/sg2_235_cif.got.tgz:468127.got - 2010.06.03 11:33:40.
