data_PCOD9051911
_publ_section_title
;
Structure prediction by ZEFSAII (Michael W. Deem and Ramdas Pophale) SiO2 
 PCOD9051911
Probable space group: P -1
;
_chemical_formula_sum "Si O2"
_cell_formula_units_Z 14
_cell_length_a 10.605645
_cell_length_b 5.416425
_cell_length_c 18.998996
_cell_angle_alpha 119.292953
_cell_angle_beta 135.659199
_cell_angle_gamma 46.266030
_cell_volume 551.138431
_symmetry_space_group_name_H-M "P -1"
_symmetry_group_IT_number 2
_symmetry_cell_setting 'triclinic'
loop_
_space_group_symop_operation_xyz
x,y,z
-x,-y,-z
loop_
_atom_site_type_symbol
_atom_site_label
_atom_site_fract_x
_atom_site_fract_y
_atom_site_fract_z
Si Si1 0.273925 0.063101 0.942877
Si Si2 0.912869 0.844181 0.889002
Si Si3 0.463634 0.993071 0.151909
Si Si4 0.312248 0.929824 0.417748
Si Si5 0.765826 0.837340 0.434909
Si Si6 0.914284 0.327417 0.223095
Si Si7 0.456030 0.568098 0.677990
O O1 0.064033 0.443242 0.912025
O O2 0.214747 0.850892 0.841713
O O3 0.500000 0.000000 0.000000
O O4 0.332209 0.954292 0.031916
O O5 0.963579 0.829444 0.824292
O O6 0.661387 0.009106 0.829467
O O7 0.000000 0.000000 0.000000
O O8 0.715788 0.718560 0.197651
O O9 0.443319 0.347425 0.204900
O O10 0.376437 0.626609 0.347074
O O11 0.500000 0.000000 0.500000
O O12 0.281687 0.900041 0.483515
O O13 0.087466 0.244535 0.340107
O O14 0.624823 0.671381 0.364690
O O15 0.000000 0.500000 0.500000
O O16 0.720872 0.060364 0.377572
#
# Coordination Sequence:
#
# PCOD9051911 Si02
#       7
#     2   2   2   2   2   2   2
#     4  12  25  47  71 113 152 200 251 312 383 469
#     4  12  26  44  77 102 154 201 252 316 384 465
#     4  12  26  46  74 111 151 199 256 314 388 469
#     4  10  25  48  75 105 148 193 259 319 383 459
#     4  11  24  48  74 109 146 197 253 317 387 457
#     4  12  26  50  70 110 149 202 254 317 388 454
#     4  11  26  46  74 109 146 198 249 317 385 455
#
# _framework density 25.401966000000002
#
# number of rings (size 3 to 8) (size 9 to 14) (size 15 to 20)
#    0.000    0.571    2.857    4.286    6.000    3.429 
#    7.714    0.000    0.000    0.000    0.000    0.000 
#    0.000    0.000    0.000    0.000    0.000    0.000 
#
# Total GULP energy -78262.799765 kJ/mol
# GULP energy per Si atom -5590.199983 kJ/mol
# Density = 2.534415 g / cm^3
# Si number density = 25.401966 Si / 1000 Ang^3
#
#
#
# Elastic Constant Matrix: (Units=GPa)
#
#
# Indices 1 2 3 4 5 6 
#
# 1 107.4649 10.8551 28.9083 -8.8249 2.4640 -11.2697
# 2 10.8551 79.0096 11.0870 2.7162 -10.8815 3.6780
# 3 28.9083 11.0870 126.9865 -6.6622 0.8655 0.7037
# 4 -8.8249 2.7162 -6.6622 57.1209 2.7551 -9.3302
# 5 2.4640 -10.8815 0.8655 2.7551 26.4822 2.3237
# 6 -11.2697 3.6780 0.7037 -9.3302 2.3237 29.5013
#
#
#
# Elastic Compliance Matrix: (Units=1/GPa)
#
#
# Indices 1 2 3 4 5 6 
#
# 1 0.010923 -0.001870 -0.002204 0.002528 -0.002454 0.005451
# 2 -0.001870 0.014184 -0.000941 -0.001978 0.006555 -0.003602
# 3 -0.002204 -0.000941 0.008497 0.000603 -0.000461 -0.000700
# 4 0.002528 -0.001978 0.000603 0.019495 -0.003768 0.007660
# 5 -0.002454 0.006555 -0.000461 -0.003768 0.041635 -0.006215
# 6 0.005451 -0.003602 -0.000700 0.007660 -0.006215 0.039357
#
#
# Mechanical properties :
#
#
# Convention : Reuss Voigt Hill
#
# Bulk Modulus (GPa) = 42.42022 46.12910 44.27466
# Shear Modulus (GPa) = 32.89910 40.12824 36.51367
#
# Velocity S-wave (km/s) = 3.60271 3.97889 3.79546
# Velocity P-wave (km/s) = 5.83454 6.26960 6.05598
#
# Compressibility (1/GPa) = 0.02357366
#
# Stress axis : x y z
#
# Youngs Moduli (GPa) = 91.55256 70.50152 117.68230
#
# Poissons Ratio (x) = 0.13184 0.25939
# Poissons Ratio (y) = 0.17120 0.11076
# Poissons Ratio (z) = 0.20179 0.06635
#
# Static dielectric constant tensor:
#      x y z
#    x 2.071940 0.046390 -0.004960 
#    y 0.046390 1.937900 0.062990 
#    z -0.004960 0.062990 2.071140 
# 
# From -- ./inp_files/98067.got.cif
#   From: 2010.05.17/outbox.cif.g08.bks.cpg/sg2_50_cif.got.tgz:98067.got - 2010.06.03 11:33:40.
