data_PCOD9051454
_publ_section_title
;
Structure prediction by ZEFSAII (Michael W. Deem and Ramdas Pophale) SiO2 
 PCOD9051454
Probable space group: P -1
;
_chemical_formula_sum "Si O2"
_cell_formula_units_Z 12
_cell_length_a 11.330805
_cell_length_b 13.910081
_cell_length_c 12.307388
_cell_angle_alpha 40.823598
_cell_angle_beta 62.414329
_cell_angle_gamma 29.575938
_cell_volume 498.602554
_symmetry_space_group_name_H-M "P -1"
_symmetry_group_IT_number 2
_symmetry_cell_setting 'triclinic'
loop_
_space_group_symop_operation_xyz
x,y,z
-x,-y,-z
loop_
_atom_site_type_symbol
_atom_site_label
_atom_site_fract_x
_atom_site_fract_y
_atom_site_fract_z
Si Si1 0.676829 0.863588 0.932182
Si Si2 0.848397 0.774560 0.258235
Si Si3 0.240853 0.345844 0.250757
Si Si4 0.306547 0.746221 0.706781
Si Si5 0.687462 0.148932 0.171688
Si Si6 0.326287 0.784111 0.416893
O O1 0.489950 0.947725 0.856599
O O2 0.646601 0.069433 0.748222
O O3 0.023564 0.482482 0.138529
O O4 0.500000 0.000000 0.000000
O O5 0.000000 0.500000 0.500000
O O6 0.017255 0.622380 0.203365
O O7 0.887691 0.878221 0.226020
O O8 0.401506 0.325824 0.147998
O O9 0.500000 0.000000 0.500000
O O10 0.191319 0.977181 0.648935
O O11 0.407483 0.684320 0.595628
O O12 0.588727 0.400402 0.947164
O O13 0.025245 0.913774 0.684588
O O14 0.500000 0.500000 0.500000
#
# Coordination Sequence:
#
# PCOD9051454 Si02
#       6
#     2   2   2   2   2   2
#     4  10  25  46  71 108 145 189 245 302 366 435
#     4  11  25  43  71 106 143 190 241 303 372 428
#     4  11  23  44  69 104 143 189 242 304 368 428
#     4  10  26  45  70 103 142 195 243 299 362 440
#     4  11  24  46  68 101 147 187 250 296 363 441
#     4  11  25  46  74 105 145 190 245 301 369 436
#
# _framework density 24.067264999999999
#
# number of rings (size 3 to 8) (size 9 to 14) (size 15 to 20)
#    0.000    1.333    3.333    0.000    9.333    0.667 
#    3.000    3.333    0.000    0.000    0.000    0.000 
#    0.000    0.000    0.000    0.000    0.000    0.000 
#
# Total GULP energy -66916.815204 kJ/mol
# GULP energy per Si atom -5576.401267 kJ/mol
# Density = 2.401249 g / cm^3
# Si number density = 24.067265 Si / 1000 Ang^3
#
#
#
# Elastic Constant Matrix: (Units=GPa)
#
#
# Indices 1 2 3 4 5 6 
#
# 1 107.0513 36.0297 37.7649 16.0075 17.7202 13.1265
# 2 36.0297 122.5204 27.3045 25.4618 1.8695 10.5692
# 3 37.7649 27.3045 118.8514 17.9306 13.9220 12.4128
# 4 16.0075 25.4618 17.9306 37.7583 -2.3348 7.8438
# 5 17.7202 1.8695 13.9220 -2.3348 41.3563 6.7597
# 6 13.1265 10.5692 12.4128 7.8438 6.7597 50.7865
#
#
#
# Elastic Compliance Matrix: (Units=1/GPa)
#
#
# Indices 1 2 3 4 5 6 
#
# 1 0.012185 -0.002386 -0.002329 -0.002481 -0.004284 -0.001130
# 2 -0.002386 0.010186 -0.000792 -0.005325 0.000621 -0.000570
# 3 -0.002329 -0.000792 0.010213 -0.003293 -0.002444 -0.000895
# 4 -0.002481 -0.005325 -0.003293 0.033674 0.004852 -0.003292
# 5 -0.004284 0.000621 -0.002444 0.004852 0.027548 -0.002841
# 6 -0.001130 -0.000570 -0.000895 -0.003292 -0.002841 0.021206
#
#
# Mechanical properties :
#
#
# Convention : Reuss Voigt Hill
#
# Bulk Modulus (GPa) = 46.36218 61.18013 53.77116
# Shear Modulus (GPa) = 37.53285 42.46851 40.00068
#
# Velocity S-wave (km/s) = 3.95333 4.20524 4.08123
# Velocity P-wave (km/s) = 6.33592 7.00389 6.67826
#
# Compressibility (1/GPa) = 0.02156930
#
# Stress axis : x y z
#
# Youngs Moduli (GPa) = 82.07016 98.17222 97.91851
#
# Poissons Ratio (x) = 0.23420 0.22810
# Poissons Ratio (y) = 0.19579 0.07755
# Poissons Ratio (z) = 0.19118 0.07775
#
# Static dielectric constant tensor:
#      x y z
#    x 2.022380 0.082080 0.015290 
#    y 0.082080 1.986200 -0.060910 
#    z 0.015290 -0.060910 1.963110 
# 
# From -- ./inp_files/218524.got.cif
#   From: 2010.05.17/outbox.cif.g08.bks.cpg/sg2_110_cif.got.tgz:218524.got - 2010.06.03 11:33:40.
