data_PCOD9051174
_publ_section_title
;
Structure prediction by ZEFSAII (Michael W. Deem and Ramdas Pophale) SiO2 
 PCOD9051174
Probable space group: P -1
;
_chemical_formula_sum "Si O2"
_cell_formula_units_Z 16
_cell_length_a 15.555779
_cell_length_b 11.390271
_cell_length_c 7.285708
_cell_angle_alpha 78.120517
_cell_angle_beta 45.360414
_cell_angle_gamma 48.870670
_cell_volume 607.614936
_symmetry_space_group_name_H-M "P -1"
_symmetry_group_IT_number 2
_symmetry_cell_setting 'triclinic'
loop_
_space_group_symop_operation_xyz
x,y,z
-x,-y,-z
loop_
_atom_site_type_symbol
_atom_site_label
_atom_site_fract_x
_atom_site_fract_y
_atom_site_fract_z
Si Si1 0.651299 0.311730 0.738842
Si Si2 0.919112 0.428340 0.031106
Si Si3 0.340162 0.923048 0.934301
Si Si4 0.618758 0.182581 0.506463
Si Si5 0.762625 0.611643 0.845316
Si Si6 0.941059 0.244813 0.518215
Si Si7 0.004029 0.123006 0.852819
Si Si8 0.715414 0.738169 0.492017
O O1 0.431232 0.264672 0.816752
O O2 0.500000 0.500000 0.000000
O O3 0.640683 0.191985 0.899625
O O4 0.832638 0.249612 0.529611
O O5 0.783796 0.564001 0.349902
O O6 0.884361 0.536750 0.867550
O O7 0.892416 0.312926 0.043444
O O8 0.126760 0.294526 0.815240
O O9 0.142952 0.121846 0.191524
O O10 0.355714 0.844875 0.740001
O O11 0.505538 0.895520 0.710656
O O12 0.620508 0.308004 0.571619
O O13 0.788337 0.991363 0.402678
O O14 0.000000 0.000000 0.000000
O O15 0.738720 0.722926 0.681341
O O16 0.839198 0.436827 0.684184
O O17 0.952519 0.151149 0.710030
#
# Coordination Sequence:
#
# PCOD9051174 Si02
#       8
#     2   2   2   2   2   2   2   2
#     4  12  24  43  65  97 139 185 236 283 346 415
#     4  10  25  45  71 107 133 184 238 285 346 418
#     4  12  25  42  67  99 141 176 233 290 344 410
#     4  12  25  42  65 100 136 181 228 284 345 416
#     4  11  22  46  69 101 136 179 228 286 356 407
#     4  11  24  45  66 103 141 184 231 285 347 421
#     4  11  25  45  70 101 145 181 230 289 354 409
#     4  11  22  46  74  98 142 182 234 291 343 412
#
# _framework density 26.332467000000001
#
# number of rings (size 3 to 8) (size 9 to 14) (size 15 to 20)
#    0.000    0.750    5.000    1.500    3.500    1.500 
#    0.000    7.500    0.000    0.000    0.000    0.000 
#    0.000    0.000    0.000    0.000    0.000    0.000 
#
# Total GULP energy -89611.706726 kJ/mol
# GULP energy per Si atom -5600.731670 kJ/mol
# Density = 2.627253 g / cm^3
# Si number density = 26.332467 Si / 1000 Ang^3
#
#
#
# Elastic Constant Matrix: (Units=GPa)
#
#
# Indices 1 2 3 4 5 6 
#
# 1 107.3424 23.2771 18.4478 -15.8454 18.8555 -30.7063
# 2 23.2771 66.3341 6.5020 -15.9616 15.4911 -12.9699
# 3 18.4478 6.5020 133.1553 6.4134 -1.5904 -11.1940
# 4 -15.8454 -15.9616 6.4134 25.7455 -6.5884 17.6123
# 5 18.8555 15.4911 -1.5904 -6.5884 62.6359 6.0829
# 6 -30.7063 -12.9699 -11.1940 17.6123 6.0829 40.7960
#
#
#
# Elastic Compliance Matrix: (Units=1/GPa)
#
#
# Indices 1 2 3 4 5 6 
#
# 1 0.013564 -0.001709 -0.000925 -0.000905 -0.004801 0.010519
# 2 -0.001709 0.019027 -0.001132 0.009660 -0.003279 0.000770
# 3 -0.000925 -0.001132 0.008308 -0.006052 -0.000243 0.003872
# 4 -0.000905 0.009660 -0.006052 0.068227 0.007809 -0.029890
# 5 -0.004801 -0.003279 -0.000243 0.007809 0.020114 -0.011093
# 6 0.010519 0.000770 0.003872 -0.029890 -0.011093 0.048295
#
#
# Mechanical properties :
#
#
# Convention : Reuss Voigt Hill
#
# Bulk Modulus (GPa) = 29.97063 44.80950 37.39006
# Shear Modulus (GPa) = 25.48567 43.07582 34.28075
#
# Velocity S-wave (km/s) = 3.11439 4.04895 3.61202
# Velocity P-wave (km/s) = 4.93345 6.23798 5.62367
#
# Compressibility (1/GPa) = 0.03336600
#
# Stress axis : x y z
#
# Youngs Moduli (GPa) = 73.72273 52.55791 120.37180
#
# Poissons Ratio (x) = 0.08983 0.11137
# Poissons Ratio (y) = 0.12600 0.13626
# Poissons Ratio (z) = 0.06821 0.05949
#
# Static dielectric constant tensor:
#      x y z
#    x 2.079020 0.012920 -0.026460 
#    y 0.012920 2.098440 -0.014050 
#    z -0.026460 -0.014050 2.070470 
# 
# From -- ./inp_files/315170.got.cif
#   From: 2010.05.17/outbox.cif.g08.bks.cpg/sg2_158_cif.got.tgz:315170.got - 2010.06.03 11:33:40.
