data_PCOD9051763
_publ_section_title
;
Structure prediction by ZEFSAII (Michael W. Deem and Ramdas Pophale) SiO2 
 PCOD9051763
Probable space group: P -1
;
_chemical_formula_sum "Si O2"
_cell_formula_units_Z 14
_cell_length_a 4.983581
_cell_length_b 8.501839
_cell_length_c 12.638116
_cell_angle_alpha 78.025887
_cell_angle_beta 105.000420
_cell_angle_gamma 90.364385
_cell_volume 505.335734
_symmetry_space_group_name_H-M "P -1"
_symmetry_group_IT_number 2
_symmetry_cell_setting 'triclinic'
loop_
_space_group_symop_operation_xyz
x,y,z
-x,-y,-z
loop_
_atom_site_type_symbol
_atom_site_label
_atom_site_fract_x
_atom_site_fract_y
_atom_site_fract_z
Si Si1 0.269683 0.561010 0.193433
Si Si2 0.246422 0.346676 0.427942
Si Si3 0.007512 0.077264 0.698244
Si Si4 0.135277 0.132184 0.925048
Si Si5 0.531435 0.118098 0.322284
Si Si6 0.423103 0.342541 0.081908
Si Si7 0.794285 0.582908 0.358326
O O1 0.239767 0.474198 0.313572
O O2 0.180484 0.430355 0.116814
O O3 0.598728 0.591560 0.233162
O O4 0.097091 0.723782 0.135513
O O5 0.409899 0.198823 0.407092
O O6 0.362116 0.373374 0.552798
O O7 0.917731 0.398867 0.411569
O O8 0.197076 0.061738 0.825701
O O9 0.008702 0.265925 0.648308
O O10 0.174012 0.981320 0.635485
O O11 0.715744 0.003809 0.708018
O O12 0.369090 0.210472 0.007526
O O13 0.000000 0.000000 0.000000
O O14 0.565753 0.246568 0.210773
O O15 0.500000 0.500000 0.000000
#
# Coordination Sequence:
#
# PCOD9051763 Si02
#       7
#     2   2   2   2   2   2   2
#     4  11  24  46  73 109 149 195 253 318 370 457
#     4  10  25  47  75 110 144 199 245 323 370 463
#     4  12  26  48  73 109 152 201 247 316 376 458
#     4  12  25  46  74 109 155 199 258 305 384 446
#     4  11  28  48  74 109 158 194 254 311 384 454
#     4  11  26  43  74 108 149 202 250 310 373 451
#     4  11  24  47  80 106 148 192 258 308 389 442
#
# _framework density 27.704350999999999
#
# number of rings (size 3 to 8) (size 9 to 14) (size 15 to 20)
#    0.000    0.857    2.857    2.571    6.000    2.857 
#    0.000    0.000    0.000    0.000    0.000    0.000 
#    0.000    0.000    0.000    0.000    0.000    0.000 
#
# Total GULP energy -78084.531134 kJ/mol
# GULP energy per Si atom -5577.466510 kJ/mol
# Density = 2.764130 g / cm^3
# Si number density = 27.704351 Si / 1000 Ang^3
#
#
#
# Elastic Constant Matrix: (Units=GPa)
#
#
# Indices 1 2 3 4 5 6 
#
# 1 70.2039 12.8411 4.6644 -3.1210 -3.5880 -6.8296
# 2 12.8411 58.1903 -4.9358 4.7427 -23.8768 -15.6996
# 3 4.6644 -4.9358 136.6322 22.3225 -21.3096 0.1057
# 4 -3.1210 4.7427 22.3225 40.3673 -5.0545 -18.2224
# 5 -3.5880 -23.8768 -21.3096 -5.0545 46.6330 -10.6688
# 6 -6.8296 -15.6996 0.1057 -18.2224 -10.6688 62.2966
#
#
#
# Elastic Compliance Matrix: (Units=1/GPa)
#
#
# Indices 1 2 3 4 5 6 
#
# 1 0.015214 -0.003472 -0.001193 0.002886 -0.000484 0.001556
# 2 -0.003472 0.028644 0.003850 0.001271 0.018676 0.010402
# 3 -0.001193 0.003850 0.009148 -0.004710 0.005644 0.000413
# 4 0.002886 0.001271 -0.004710 0.033097 0.004860 0.011158
# 5 -0.000484 0.018676 0.005644 0.004860 0.036909 0.012387
# 6 0.001556 0.010402 0.000413 0.011158 0.012387 0.024229
#
#
# Mechanical properties :
#
#
# Convention : Reuss Voigt Hill
#
# Bulk Modulus (GPa) = 19.46439 32.24063 25.85251
# Shear Modulus (GPa) = 30.12155 46.68983 38.40569
#
# Velocity S-wave (km/s) = 3.30092 4.10968 3.72730
# Velocity P-wave (km/s) = 4.64426 5.84653 5.27973
#
# Compressibility (1/GPa) = 0.05137587
#
# Stress axis : x y z
#
# Youngs Moduli (GPa) = 65.73092 34.91185 109.31073
#
# Poissons Ratio (x) = 0.12122 0.13039
# Poissons Ratio (y) = 0.22823 -0.42088
# Poissons Ratio (z) = 0.07841 -0.13442
#
# Static dielectric constant tensor:
#      x y z
#    x 2.794280 0.009490 -0.125130 
#    y 0.009490 2.219960 0.035350 
#    z -0.125130 0.035350 2.214480 
# 
# From -- ./inp_files/105321.got.cif
#   From: 2010.05.17/outbox.cif.g08.bks.cpg/sg2_53_cif.got.tgz:105321.got - 2010.06.03 11:33:40.
