data_PCOD9051621
_publ_section_title
;
Structure prediction by ZEFSAII (Michael W. Deem and Ramdas Pophale) SiO2 
 PCOD9051621
Probable space group: P -1
;
_chemical_formula_sum "Si O2"
_cell_formula_units_Z 16
_cell_length_a 8.602833
_cell_length_b 12.291545
_cell_length_c 17.849295
_cell_angle_alpha 140.067773
_cell_angle_beta 42.929403
_cell_angle_gamma 106.923972
_cell_volume 648.465500
_symmetry_space_group_name_H-M "P -1"
_symmetry_group_IT_number 2
_symmetry_cell_setting 'triclinic'
loop_
_space_group_symop_operation_xyz
x,y,z
-x,-y,-z
loop_
_atom_site_type_symbol
_atom_site_label
_atom_site_fract_x
_atom_site_fract_y
_atom_site_fract_z
Si Si1 0.759294 0.627408 0.361972
Si Si2 0.021943 0.650598 0.127903
Si Si3 0.314863 0.552282 0.420378
Si Si4 0.147856 0.643354 0.686994
Si Si5 0.710857 0.968220 0.636239
Si Si6 0.704504 0.056109 0.987654
Si Si7 0.970595 0.975655 0.693069
Si Si8 0.392835 0.641250 0.187055
O O1 0.527987 0.605458 0.397980
O O2 0.950211 0.434497 0.252699
O O3 0.591937 0.842429 0.586493
O O4 0.927360 0.625841 0.230314
O O5 0.365168 0.534047 0.934461
O O6 0.886186 0.904993 0.309528
O O7 0.000000 0.500000 0.000000
O O8 0.123053 0.592722 0.582724
O O9 0.149225 0.716320 0.496880
O O10 0.501695 0.303089 0.210004
O O11 0.500000 0.500000 0.500000
O O12 0.925390 0.902183 0.894996
O O13 0.726316 0.042001 0.752389
O O14 0.054050 0.782291 0.397515
O O15 0.573850 0.172723 0.739329
O O16 0.881471 0.031352 0.839623
O O17 0.500000 0.000000 0.000000
O O18 0.500000 0.500000 0.000000
#
# Coordination Sequence:
#
# PCOD9051621 Si02
#       8
#     2   2   2   2   2   2   2   2
#     4  11  24  44  69 104 133 190 228 281 351 412
#     4  12  26  43  70 105 143 184 230 281 353 424
#     4  10  25  47  69 101 149 180 235 293 346 418
#     4   9  23  47  70 100 140 182 237 295 348 408
#     4  11  24  40  68  95 134 184 229 280 339 408
#     4  11  26  45  75 108 138 187 239 292 360 415
#     4  11  26  44  69 106 146 185 227 291 348 418
#     4  11  22  45  59  94 141 180 233 280 328 408
#
# _framework density 24.673635000000001
#
# number of rings (size 3 to 8) (size 9 to 14) (size 15 to 20)
#    0.000    1.250    2.500    1.500    8.750    4.500 
#    2.250    0.000    0.000    0.000    0.000    0.000 
#    0.000    0.000    0.000    0.000    0.000    0.000 
#
# Total GULP energy -89193.647158 kJ/mol
# GULP energy per Si atom -5574.602947 kJ/mol
# Density = 2.461748 g / cm^3
# Si number density = 24.673635 Si / 1000 Ang^3
#
#
#
# Elastic Constant Matrix: (Units=GPa)
#
#
# Indices 1 2 3 4 5 6 
#
# 1 82.3028 25.0302 18.1385 21.9474 18.1015 8.5575
# 2 25.0302 161.3206 35.8065 18.9865 6.3182 -20.3067
# 3 18.1385 35.8065 98.9692 31.2234 1.0335 -6.5942
# 4 21.9474 18.9865 31.2234 47.0911 2.7681 6.7143
# 5 18.1015 6.3182 1.0335 2.7681 39.4918 1.2456
# 6 8.5575 -20.3067 -6.5942 6.7143 1.2456 34.1745
#
#
#
# Elastic Compliance Matrix: (Units=1/GPa)
#
#
# Indices 1 2 3 4 5 6 
#
# 1 0.016207 -0.001979 -0.000804 -0.005248 -0.006593 -0.004118
# 2 -0.001979 0.007727 -0.001472 -0.001940 -0.000319 0.005196
# 3 -0.000804 -0.001472 0.013776 -0.008733 0.000740 0.003674
# 4 -0.005248 -0.001940 -0.008733 0.031294 0.000994 -0.007708
# 5 -0.006593 -0.000319 0.000740 0.000994 0.028294 0.000378
# 6 -0.004118 0.005196 0.003674 -0.007708 0.000378 0.035590
#
#
# Mechanical properties :
#
#
# Convention : Reuss Voigt Hill
#
# Bulk Modulus (GPa) = 34.24505 55.61591 44.93048
# Shear Modulus (GPa) = 33.08372 41.72597 37.40485
#
# Velocity S-wave (km/s) = 3.66574 4.11678 3.89779
# Velocity P-wave (km/s) = 5.64147 6.72211 6.20536
#
# Compressibility (1/GPa) = 0.02920130
#
# Stress axis : x y z
#
# Youngs Moduli (GPa) = 61.70198 129.41155 72.58823
#
# Poissons Ratio (x) = 0.25605 0.05839
# Poissons Ratio (y) = 0.12208 0.10682
# Poissons Ratio (z) = 0.04964 0.19044
#
# Static dielectric constant tensor:
#      x y z
#    x 2.060500 0.059850 -0.028210 
#    y 0.059850 2.080110 -0.010240 
#    z -0.028210 -0.010240 2.146900 
# 
# From -- ./inp_files/560018.got.cif
#   From: 2010.05.17/outbox.cif.g08.bks.cpg/sg2_281_cif.got.tgz:560018.got - 2010.06.03 11:33:40.
