data_PCOD9051673
_publ_section_title
;
Structure prediction by ZEFSAII (Michael W. Deem and Ramdas Pophale) SiO2 
 PCOD9051673
Probable space group: P -1
;
_chemical_formula_sum "Si O2"
_cell_formula_units_Z 16
_cell_length_a 15.189911
_cell_length_b 12.018662
_cell_length_c 9.864569
_cell_angle_alpha 97.537127
_cell_angle_beta 109.719344
_cell_angle_gamma 29.237730
_cell_volume 774.081964
_symmetry_space_group_name_H-M "P -1"
_symmetry_group_IT_number 2
_symmetry_cell_setting 'triclinic'
loop_
_space_group_symop_operation_xyz
x,y,z
-x,-y,-z
loop_
_atom_site_type_symbol
_atom_site_label
_atom_site_fract_x
_atom_site_fract_y
_atom_site_fract_z
Si Si1 0.916814 0.430116 0.536537
Si Si2 0.906041 0.201312 0.397405
Si Si3 0.321618 0.319279 0.036628
Si Si4 0.396447 0.778270 0.922275
Si Si5 0.067307 0.679271 0.199104
Si Si6 0.487267 0.567229 0.222103
Si Si7 0.719753 0.780950 0.264855
Si Si8 0.087642 0.915109 0.184207
O O1 0.107543 0.309671 0.635973
O O2 0.990082 0.233252 0.481666
O O3 0.830060 0.492228 0.648949
O O4 0.755134 0.657423 0.387038
O O5 0.668787 0.450561 0.348578
O O6 0.000000 0.000000 0.500000
O O7 0.940162 0.135164 0.246796
O O8 0.434301 0.308155 0.030302
O O9 0.138639 0.550295 0.075181
O O10 0.496557 0.071641 0.176890
O O11 0.248901 0.318021 0.876449
O O12 0.424800 0.649613 0.805633
O O13 0.415369 0.697911 0.064441
O O14 0.173118 0.069421 0.855553
O O15 0.117705 0.757451 0.229448
O O16 0.301011 0.750547 0.255303
O O17 0.000000 0.000000 0.000000
#
# Coordination Sequence:
#
# PCOD9051673 Si02
#       8
#     2   2   2   2   2   2   2   2
#     4  11  24  47  68  97 143 180 220 284 352 393
#     4  12  25  43  67  98 144 183 214 275 349 412
#     4  11  24  44  74  99 125 180 238 283 335 396
#     4  11  20  38  64 101 138 166 219 278 338 393
#     4  12  23  40  71  99 136 173 221 285 335 407
#     4  11  22  36  65  98 139 182 211 272 336 408
#     4  10  25  47  71  96 132 182 232 287 337 399
#     4  12  23  40  66 106 135 176 228 270 334 419
#
# _framework density 20.669644999999999
#
# number of rings (size 3 to 8) (size 9 to 14) (size 15 to 20)
#    0.000    0.750    6.250    1.500    1.750    1.500 
#    2.250    0.000    0.000    0.000    0.000    0.000 
#    0.000    0.000    0.000    0.000    0.000    0.000 
#
# Total GULP energy -89454.746548 kJ/mol
# GULP energy per Si atom -5590.921659 kJ/mol
# Density = 2.062260 g / cm^3
# Si number density = 20.669645 Si / 1000 Ang^3
#
#
#
# Elastic Constant Matrix: (Units=GPa)
#
#
# Indices 1 2 3 4 5 6 
#
# 1 96.5066 29.8311 47.6282 -0.8230 -2.5046 12.1965
# 2 29.8311 66.0330 17.5257 3.5288 3.0052 -2.3757
# 3 47.6282 17.5257 77.6356 -5.5304 6.5222 1.2923
# 4 -0.8230 3.5288 -5.5304 28.6772 7.1017 1.5663
# 5 -2.5046 3.0052 6.5222 7.1017 35.2375 2.4637
# 6 12.1965 -2.3757 1.2923 1.5663 2.4637 33.5235
#
#
#
# Elastic Compliance Matrix: (Units=1/GPa)
#
#
# Indices 1 2 3 4 5 6 
#
# 1 0.018186 -0.005885 -0.010190 -0.001445 0.004454 -0.006900
# 2 -0.005885 0.018297 -0.000609 -0.002330 -0.001655 0.003691
# 3 -0.010190 -0.000609 0.020033 0.004858 -0.005575 0.003075
# 4 -0.001445 -0.002330 0.004858 0.038195 -0.008432 -0.000991
# 5 0.004454 -0.001655 -0.005575 -0.008432 0.031810 -0.003467
# 6 -0.006900 0.003691 0.003075 -0.000991 -0.003467 0.032784
#
#
# Mechanical properties :
#
#
# Convention : Reuss Voigt Hill
#
# Bulk Modulus (GPa) = 43.20079 47.79393 45.49736
# Shear Modulus (GPa) = 24.95158 29.16698 27.05928
#
# Velocity S-wave (km/s) = 3.47819 3.76054 3.62212
# Velocity P-wave (km/s) = 6.08904 6.48294 6.28907
#
# Compressibility (1/GPa) = 0.02314773
#
# Stress axis : x y z
#
# Youngs Moduli (GPa) = 54.98875 54.65520 49.91767
#
# Poissons Ratio (x) = 0.32162 0.50868
# Poissons Ratio (y) = 0.32359 0.03038
# Poissons Ratio (z) = 0.56036 0.03326
#
# Static dielectric constant tensor:
#      x y z
#    x 1.739740 0.018380 0.001580 
#    y 0.018380 1.737360 -0.035180 
#    z 0.001580 -0.035180 1.770110 
# 
# From -- ./inp_files/307570.got.cif
#   From: 2010.05.17/outbox.cif.g08.bks.cpg/sg2_154_cif.got.tgz:307570.got - 2010.06.03 11:33:40.
