data_PCOD9051508
_publ_section_title
;
Structure prediction by ZEFSAII (Michael W. Deem and Ramdas Pophale) SiO2 
 PCOD9051508
Probable space group: P -1
;
_chemical_formula_sum "Si O2"
_cell_formula_units_Z 14
_cell_length_a 12.178904
_cell_length_b 22.508475
_cell_length_c 7.939166
_cell_angle_alpha 145.895707
_cell_angle_beta 143.944515
_cell_angle_gamma 27.486344
_cell_volume 539.756706
_symmetry_space_group_name_H-M "P -1"
_symmetry_group_IT_number 2
_symmetry_cell_setting 'triclinic'
loop_
_space_group_symop_operation_xyz
x,y,z
-x,-y,-z
loop_
_atom_site_type_symbol
_atom_site_label
_atom_site_fract_x
_atom_site_fract_y
_atom_site_fract_z
Si Si1 0.949304 0.864795 0.546151
Si Si2 0.538700 0.334324 0.413629
Si Si3 0.788229 0.653778 0.517286
Si Si4 0.903257 0.922371 0.252300
Si Si5 0.159993 0.635271 0.738651
Si Si6 0.638637 0.283909 0.069172
Si Si7 0.552797 0.863321 0.018178
O O1 0.192425 0.717082 0.417874
O O2 0.111713 0.864823 0.890870
O O3 0.837538 0.952830 0.440152
O O4 0.734644 0.870937 0.367830
O O5 0.376160 0.468431 0.645869
O O6 0.447820 0.363572 0.175583
O O7 0.540724 0.211197 0.187862
O O8 0.721127 0.763243 0.834439
O O9 0.000000 0.500000 0.500000
O O10 0.911373 0.662770 0.528865
O O11 0.528577 0.699684 0.248007
O O12 0.672496 0.989337 0.999664
O O13 0.000000 0.000000 0.500000
O O14 0.111186 0.757805 0.077590
O O15 0.240757 0.653602 0.703915
#
# Coordination Sequence:
#
# PCOD9051508 Si02
#       7
#     2   2   2   2   2   2   2
#     4  10  25  46  73 102 147 190 237 295 363 418
#     4  10  25  46  74 105 146 186 240 301 358 420
#     4  12  27  44  74 112 142 189 243 302 355 432
#     4  12  24  48  75 106 143 197 239 300 352 432
#     4  12  26  45  76 106 144 184 248 293 362 427
#     4  10  27  45  69 110 151 187 233 302 368 418
#     4  12  24  48  76 103 147 191 246 290 361 427
#
# _framework density 25.937611
#
# number of rings (size 3 to 8) (size 9 to 14) (size 15 to 20)
#    0.857    0.000    4.286    1.714    4.000    1.714 
#    0.000    7.143    0.000    0.000    0.000    0.000 
#    0.000    0.000    0.000    0.000    0.000    0.000 
#
# Total GULP energy -78054.550015 kJ/mol
# GULP energy per Si atom -5575.325001 kJ/mol
# Density = 2.587858 g / cm^3
# Si number density = 25.937611 Si / 1000 Ang^3
#
#
#
# Elastic Constant Matrix: (Units=GPa)
#
#
# Indices 1 2 3 4 5 6 
#
# 1 131.0829 30.3692 39.4455 -4.8315 25.9878 15.7205
# 2 30.3692 104.6533 39.6608 -5.1536 2.9250 7.2441
# 3 39.4455 39.6608 128.2505 -27.9825 11.0435 5.5224
# 4 -4.8315 -5.1536 -27.9825 32.5129 -7.9857 0.5538
# 5 25.9878 2.9250 11.0435 -7.9857 38.1162 -1.1398
# 6 15.7205 7.2441 5.5224 0.5538 -1.1398 41.7573
#
#
#
# Elastic Compliance Matrix: (Units=1/GPa)
#
#
# Indices 1 2 3 4 5 6 
#
# 1 0.010483 -0.001797 -0.002467 -0.002491 -0.006920 -0.003465
# 2 -0.001797 0.011268 -0.003197 -0.000958 0.001062 -0.000814
# 3 -0.002467 -0.003197 0.011505 0.009156 0.000508 -0.000146
# 4 -0.002491 -0.000958 0.009156 0.039959 0.007478 -0.000433
# 5 -0.006920 0.001062 0.000508 0.007478 0.032386 0.003139
# 6 -0.003465 -0.000814 -0.000146 -0.000433 0.003139 0.025504
#
#
# Mechanical properties :
#
#
# Convention : Reuss Voigt Hill
#
# Bulk Modulus (GPa) = 54.54384 64.77083 59.65733
# Shear Modulus (GPa) = 32.86491 39.44471 36.15481
#
# Velocity S-wave (km/s) = 3.56346 3.90391 3.73757
# Velocity P-wave (km/s) = 6.16486 6.73400 6.45570
#
# Compressibility (1/GPa) = 0.01833388
#
# Stress axis : x y z
#
# Youngs Moduli (GPa) = 95.39238 88.74758 86.91876
#
# Poissons Ratio (x) = 0.15944 0.21444
# Poissons Ratio (y) = 0.17138 0.27792
# Poissons Ratio (z) = 0.23534 0.28376
#
# Static dielectric constant tensor:
#      x y z
#    x 2.051050 0.075410 -0.068910 
#    y 0.075410 2.133610 -0.010410 
#    z -0.068910 -0.010410 2.180300 
# 
# From -- ./inp_files/282359.got.cif
#   From: 2010.05.17/outbox.cif.g08.bks.cpg/sg2_142_cif.got.tgz:282359.got - 2010.06.03 11:33:40.
