data_PCOD9051768
_publ_section_title
;
Structure prediction by ZEFSAII (Michael W. Deem and Ramdas Pophale) SiO2 
 PCOD9051768
Probable space group: P -1
;
_chemical_formula_sum "Si O2"
_cell_formula_units_Z 12
_cell_length_a 11.339608
_cell_length_b 10.885939
_cell_length_c 5.315375
_cell_angle_alpha 59.337055
_cell_angle_beta 96.314797
_cell_angle_gamma 64.301217
_cell_volume 459.825320
_symmetry_space_group_name_H-M "P -1"
_symmetry_group_IT_number 2
_symmetry_cell_setting 'triclinic'
loop_
_space_group_symop_operation_xyz
x,y,z
-x,-y,-z
loop_
_atom_site_type_symbol
_atom_site_label
_atom_site_fract_x
_atom_site_fract_y
_atom_site_fract_z
Si Si1 0.171269 0.695624 0.286753
Si Si2 0.865029 0.017692 0.314588
Si Si3 0.062279 0.313729 0.082068
Si Si4 0.420460 0.335790 0.539626
Si Si5 0.354237 0.684957 0.701375
Si Si6 0.372506 0.194042 0.185117
O O1 0.317882 0.542356 0.344860
O O2 0.228019 0.659101 0.624047
O O3 0.140579 0.883907 0.038675
O O4 0.047946 0.682415 0.149950
O O5 0.719026 0.156970 0.286523
O O6 0.898731 0.828237 0.541615
O O7 0.000000 0.000000 0.500000
O O8 0.214548 0.236673 0.060158
O O9 0.000000 0.500000 0.000000
O O10 0.580855 0.267325 0.564119
O O11 0.355974 0.299553 0.322209
O O12 0.415079 0.249027 0.884932
O O13 0.500000 0.500000 0.000000
O O14 0.500000 0.000000 0.500000
#
# Coordination Sequence:
#
# PCOD9051768 Si02
#       6
#     2   2   2   2   2   2
#     4  11  25  47  79 116 152 209 264 338 405 477
#     4  10  25  47  75 113 156 200 268 330 402 477
#     4  11  25  52  77 113 162 213 265 330 406 492
#     4  12  26  46  82 115 161 210 272 335 407 478
#     4  12  25  46  81 117 158 203 271 340 407 474
#     4  12  28  51  78 118 162 216 273 332 404 492
#
# _framework density 26.096865000000001
#
# number of rings (size 3 to 8) (size 9 to 14) (size 15 to 20)
#    0.000    0.667    3.333    3.000    4.667    3.333 
#    6.000    0.000    0.000    0.000    0.000    0.000 
#    0.000    0.000    0.000    0.000    0.000    0.000 
#
# Total GULP energy -67158.499572 kJ/mol
# GULP energy per Si atom -5596.541631 kJ/mol
# Density = 2.603747 g / cm^3
# Si number density = 26.096865 Si / 1000 Ang^3
#
#
#
# Elastic Constant Matrix: (Units=GPa)
#
#
# Indices 1 2 3 4 5 6 
#
# 1 172.8324 45.9823 66.9979 -4.7222 23.6000 -14.1124
# 2 45.9823 129.5505 63.3472 -22.5993 -14.5399 -16.3637
# 3 66.9979 63.3472 180.7219 -17.4687 -9.9315 -0.6180
# 4 -4.7222 -22.5993 -17.4687 52.7962 8.3469 4.7084
# 5 23.6000 -14.5399 -9.9315 8.3469 51.7270 3.4579
# 6 -14.1124 -16.3637 -0.6180 4.7084 3.4579 58.0729
#
#
#
# Elastic Compliance Matrix: (Units=1/GPa)
#
#
# Indices 1 2 3 4 5 6 
#
# 1 0.008112 -0.001999 -0.002602 -0.000381 -0.004815 0.001698
# 2 -0.001999 0.010798 -0.002596 0.002947 0.002832 0.002122
# 3 -0.002602 -0.002596 0.007602 0.001010 0.001853 -0.001475
# 4 -0.000381 0.002947 0.001010 0.020911 -0.002123 -0.000820
# 5 -0.004815 0.002832 0.001853 -0.002123 0.023127 -0.001557
# 6 0.001698 0.002122 -0.001475 -0.000820 -0.001557 0.018374
#
#
# Mechanical properties :
#
#
# Convention : Reuss Voigt Hill
#
# Bulk Modulus (GPa) = 82.52510 92.86216 87.69363
# Shear Modulus (GPa) = 46.57259 52.97107 49.77183
#
# Velocity S-wave (km/s) = 4.22904 4.51020 4.37188
# Velocity P-wave (km/s) = 7.45236 7.92360 7.69159
#
# Compressibility (1/GPa) = 0.01211753
#
# Stress axis : x y z
#
# Youngs Moduli (GPa) = 123.26946 92.61028 131.53674
#
# Poissons Ratio (x) = 0.18516 0.34229
# Poissons Ratio (y) = 0.24646 0.34146
# Poissons Ratio (z) = 0.32078 0.24041
#
# Static dielectric constant tensor:
#      x y z
#    x 2.131630 0.040600 -0.011450 
#    y 0.040600 2.100410 0.079420 
#    z -0.011450 0.079420 2.240040 
# 
# From -- ./inp_files/68141.got.cif
#   From: 2010.05.17/outbox.cif.g08.bks.cpg/sg2_35_cif.got.tgz:68141.got - 2010.06.03 11:33:40.
