data_PCOD9051630
_publ_section_title
;
Structure prediction by ZEFSAII (Michael W. Deem and Ramdas Pophale) SiO2 
 PCOD9051630
Probable space group: P -1
;
_chemical_formula_sum "Si O2"
_cell_formula_units_Z 12
_cell_length_a 5.130443
_cell_length_b 19.313741
_cell_length_c 8.021207
_cell_angle_alpha 133.208425
_cell_angle_beta 127.611666
_cell_angle_gamma 58.841327
_cell_volume 452.034100
_symmetry_space_group_name_H-M "P -1"
_symmetry_group_IT_number 2
_symmetry_cell_setting 'triclinic'
loop_
_space_group_symop_operation_xyz
x,y,z
-x,-y,-z
loop_
_atom_site_type_symbol
_atom_site_label
_atom_site_fract_x
_atom_site_fract_y
_atom_site_fract_z
Si Si1 0.731978 0.211965 0.446939
Si Si2 0.326211 0.976585 0.705542
Si Si3 0.377930 0.384319 0.394700
Si Si4 0.406628 0.556575 0.887604
Si Si5 0.840603 0.095397 0.951329
Si Si6 0.574789 0.731958 0.103439
O O1 0.451762 0.300608 0.425315
O O2 0.050530 0.248664 0.709938
O O3 0.625724 0.135062 0.406258
O O4 0.845608 0.155273 0.223667
O O5 0.611886 0.016520 0.779376
O O6 0.186815 0.042593 0.921372
O O7 0.000000 0.000000 0.500000
O O8 0.540284 0.475045 0.666379
O O9 0.987114 0.417002 0.259191
O O10 0.510971 0.332473 0.191935
O O11 0.500000 0.500000 0.000000
O O12 0.533786 0.657986 0.111223
O O13 0.662859 0.167665 0.859472
#
# Coordination Sequence:
#
# PCOD9051630 Si02
#       6
#     2   2   2   2   2   2
#     4  11  25  46  74 106 148 194 250 307 371 446
#     4  12  25  50  75 111 152 205 248 308 371 445
#     4  10  25  47  69 107 142 193 235 314 367 455
#     4  11  25  46  75 103 145 187 245 306 382 447
#     4  11  27  48  75 109 155 199 253 307 370 447
#     4  11  25  46  71 106 142 193 247 305 374 442
#
# _framework density 26.546669999999999
#
# number of rings (size 3 to 8) (size 9 to 14) (size 15 to 20)
#    0.000    1.000    1.667    3.000    4.667    9.333 
#    6.000    0.000    0.000    0.000    0.000    0.000 
#    0.000    0.000    0.000    0.000    0.000    0.000 
#
# Total GULP energy -67280.928299 kJ/mol
# GULP energy per Si atom -5606.744025 kJ/mol
# Density = 2.648625 g / cm^3
# Si number density = 26.546670 Si / 1000 Ang^3
#
#
#
# Elastic Constant Matrix: (Units=GPa)
#
#
# Indices 1 2 3 4 5 6 
#
# 1 113.9550 67.0129 33.7781 11.2371 14.9717 3.5729
# 2 67.0129 295.0753 54.8315 12.6271 21.0482 15.7194
# 3 33.7781 54.8315 110.4333 11.2003 8.9745 16.8512
# 4 11.2371 12.6271 11.2003 38.9499 12.9777 6.5679
# 5 14.9717 21.0482 8.9745 12.9777 49.1388 1.9632
# 6 3.5729 15.7194 16.8512 6.5679 1.9632 48.8284
#
#
#
# Elastic Compliance Matrix: (Units=1/GPa)
#
#
# Indices 1 2 3 4 5 6 
#
# 1 0.010911 -0.001924 -0.002224 -0.001447 -0.001746 0.000853
# 2 -0.001924 0.004172 -0.001298 0.000009 -0.000938 -0.000718
# 3 -0.002224 -0.001298 0.011013 -0.001511 -0.000258 -0.003006
# 4 -0.001447 0.000009 -0.001511 0.029340 -0.006914 -0.003044
# 5 -0.001746 -0.000938 -0.000258 -0.006914 0.023137 0.000519
# 6 0.000853 -0.000718 -0.003006 -0.003044 0.000519 0.022075
#
#
# Mechanical properties :
#
#
# Convention : Reuss Voigt Hill
#
# Bulk Modulus (GPa) = 65.76923 92.30095 79.03509
# Shear Modulus (GPa) = 42.87907 51.63951 47.25929
#
# Velocity S-wave (km/s) = 4.02336 4.41527 4.22386
# Velocity P-wave (km/s) = 6.81263 7.79984 7.32289
#
# Compressibility (1/GPa) = 0.01520468
#
# Stress axis : x y z
#
# Youngs Moduli (GPa) = 91.64908 239.70485 90.80172
#
# Poissons Ratio (x) = 0.46113 0.20192
# Poissons Ratio (y) = 0.17631 0.11788
# Poissons Ratio (z) = 0.20381 0.31118
#
# Static dielectric constant tensor:
#      x y z
#    x 2.111160 0.029180 -0.102560 
#    y 0.029180 2.101870 -0.034690 
#    z -0.102560 -0.034690 2.160050 
# 
# From -- ./inp_files/138290.got.cif
#   From: 2010.05.17/outbox.cif.g08.bks.cpg/sg2_70_cif.got.tgz:138290.got - 2010.06.03 11:33:40.
