data_PCOD9051439
_publ_section_title
;
Structure prediction by ZEFSAII (Michael W. Deem and Ramdas Pophale) SiO2 
 PCOD9051439
Probable space group: P -1
;
_chemical_formula_sum "Si O2"
_cell_formula_units_Z 12
_cell_length_a 7.861684
_cell_length_b 8.567128
_cell_length_c 9.596179
_cell_angle_alpha 134.326537
_cell_angle_beta 77.925089
_cell_angle_gamma 107.596551
_cell_volume 440.722799
_symmetry_space_group_name_H-M "P -1"
_symmetry_group_IT_number 2
_symmetry_cell_setting 'triclinic'
loop_
_space_group_symop_operation_xyz
x,y,z
-x,-y,-z
loop_
_atom_site_type_symbol
_atom_site_label
_atom_site_fract_x
_atom_site_fract_y
_atom_site_fract_z
Si Si1 0.455506 0.412206 0.106766
Si Si2 0.811008 0.026982 0.155103
Si Si3 0.851607 0.113082 0.668392
Si Si4 0.814871 0.314941 0.079338
Si Si5 0.021768 0.668704 0.467261
Si Si6 0.493692 0.274063 0.452504
O O1 0.606249 0.287332 0.061782
O O2 0.473549 0.617119 0.334581
O O3 0.500000 0.500000 0.000000
O O4 0.269928 0.232985 0.016483
O O5 0.863168 0.134259 0.063385
O O6 0.951784 0.106080 0.303802
O O7 0.647843 0.147718 0.302028
O O8 0.821154 0.262008 0.632517
O O9 0.688877 0.915785 0.625426
O O10 0.898581 0.279407 0.894069
O O11 0.000000 0.000000 0.500000
O O12 0.872661 0.539983 0.303216
O O13 0.000000 0.500000 0.500000
O O14 0.500000 0.500000 0.500000
#
# Coordination Sequence:
#
# PCOD9051439 Si02
#       6
#     2   2   2   2   2   2
#     4  12  25  42  74 111 144 192 248 305 373 438
#     4  11  24  49  73 108 149 193 251 310 367 447
#     4  12  26  45  73 109 149 195 254 305 372 447
#     4  11  23  49  74 102 151 199 241 309 376 442
#     4  10  25  46  71 101 148 198 239 301 378 440
#     4  12  25  45  79 108 149 197 252 309 372 444
#
# _framework density 27.227999000000001
#
# number of rings (size 3 to 8) (size 9 to 14) (size 15 to 20)
#    0.000    0.667    3.333    4.000    4.667    1.333 
#    3.000    1.667    0.000    0.000    0.000    0.000 
#    0.000    0.000    0.000    0.000    0.000    0.000 
#
# Total GULP energy -67058.395850 kJ/mol
# GULP energy per Si atom -5588.199654 kJ/mol
# Density = 2.716603 g / cm^3
# Si number density = 27.227999 Si / 1000 Ang^3
#
#
#
# Elastic Constant Matrix: (Units=GPa)
#
#
# Indices 1 2 3 4 5 6 
#
# 1 100.7263 34.2273 70.7283 0.0834 11.9075 14.7682
# 2 34.2273 161.5772 67.6127 -11.5816 36.1172 29.5636
# 3 70.7283 67.6127 265.9224 -23.7658 44.7766 21.1584
# 4 0.0834 -11.5816 -23.7658 76.4894 5.3201 15.5918
# 5 11.9075 36.1172 44.7766 5.3201 56.7447 -0.1225
# 6 14.7682 29.5636 21.1584 15.5918 -0.1225 38.4432
#
#
#
# Elastic Compliance Matrix: (Units=1/GPa)
#
#
# Indices 1 2 3 4 5 6 
#
# 1 0.012732 -0.001262 -0.003100 -0.000831 0.000652 -0.001875
# 2 -0.001262 0.009658 -0.000101 0.003563 -0.006155 -0.008351
# 3 -0.003100 -0.000101 0.005782 0.002685 -0.004106 -0.003016
# 4 -0.000831 0.003563 0.002685 0.017063 -0.005835 -0.010837
# 5 0.000652 -0.006155 -0.004106 -0.005835 0.025210 0.009190
# 6 -0.001875 -0.008351 -0.003016 -0.010837 0.009190 0.039240
#
#
# Mechanical properties :
#
#
# Convention : Reuss Voigt Hill
#
# Bulk Modulus (GPa) = 51.95905 97.04030 74.49967
# Shear Modulus (GPa) = 39.99135 58.04596 49.01866
#
# Velocity S-wave (km/s) = 3.83660 4.62220 4.24760
# Velocity P-wave (km/s) = 6.22498 8.01272 7.17475
#
# Compressibility (1/GPa) = 0.01924593
#
# Stress axis : x y z
#
# Youngs Moduli (GPa) = 78.54006 103.54517 172.94875
#
# Poissons Ratio (x) = 0.13067 0.53623
# Poissons Ratio (y) = 0.09911 0.01740
# Poissons Ratio (z) = 0.24351 0.01042
#
# Static dielectric constant tensor:
#      x y z
#    x 2.262130 -0.101520 -0.012290 
#    y -0.101520 2.228630 0.066150 
#    z -0.012290 0.066150 1.945700 
# 
# From -- ./inp_files/160329.got.cif
#   From: 2010.05.17/outbox.cif.g08.bks.cpg/sg2_81_cif.got.tgz:160329.got - 2010.06.03 11:33:40.
