data_PCOD9051153
_publ_section_title
;
Structure prediction by ZEFSAII (Michael W. Deem and Ramdas Pophale) SiO2 
 PCOD9051153
Probable space group: P -1
;
_chemical_formula_sum "Si O2"
_cell_formula_units_Z 14
_cell_length_a 26.163201
_cell_length_b 14.535429
_cell_length_c 14.296116
_cell_angle_alpha 19.236268
_cell_angle_beta 20.663686
_cell_angle_gamma 22.263555
_cell_volume 589.348826
_symmetry_space_group_name_H-M "P -1"
_symmetry_group_IT_number 2
_symmetry_cell_setting 'triclinic'
loop_
_space_group_symop_operation_xyz
x,y,z
-x,-y,-z
loop_
_atom_site_type_symbol
_atom_site_label
_atom_site_fract_x
_atom_site_fract_y
_atom_site_fract_z
Si Si1 0.144182 0.112761 0.143933
Si Si2 0.319390 0.181864 0.155334
Si Si3 0.338266 0.740939 0.872105
Si Si4 0.078179 0.289474 0.888973
Si Si5 0.485422 0.889860 0.735590
Si Si6 0.812385 0.175447 0.149068
Si Si7 0.111823 0.118589 0.403948
O O1 0.164309 0.183832 0.148802
O O2 0.314217 0.880839 0.049978
O O3 0.000000 0.000000 0.500000
O O4 0.110695 0.335155 0.898520
O O5 0.228407 0.111856 0.291416
O O6 0.265418 0.054837 0.461679
O O7 0.255782 0.538522 0.939773
O O8 0.500000 0.000000 0.000000
O O9 0.252278 0.718596 0.945274
O O10 0.481537 0.859277 0.497891
O O11 0.398756 0.436266 0.119705
O O12 0.219861 0.016758 0.867564
O O13 0.935383 0.170616 0.240513
O O14 0.042031 0.584756 0.606460
O O15 0.500000 0.000000 0.500000
O O16 0.000000 0.000000 0.000000
#
# Coordination Sequence:
#
# PCOD9051153 Si02
#       7
#     2   2   2   2   2   2   2
#     4  10  25  45  71 103 144 185 237 280 360 437
#     4  12  27  48  72 109 148 190 248 314 368 430
#     4  12  26  44  77 105 146 187 240 297 368 416
#     4  11  23  44  68 106 138 185 233 292 351 438
#     4  12  26  46  72 107 149 185 234 298 359 431
#     4  12  27  50  78 107 146 197 256 304 362 441
#     4  11  24  42  71  97 145 186 235 288 363 420
#
# _framework density 23.755030999999999
#
# number of rings (size 3 to 8) (size 9 to 14) (size 15 to 20)
#    0.000    0.571    1.429    6.000    4.000    3.429 
#    0.000    0.000    0.000    0.000    0.000    0.000 
#    0.000    0.000    0.000    0.000    0.000    0.000 
#
# Total GULP energy -78292.623812 kJ/mol
# GULP energy per Si atom -5592.330272 kJ/mol
# Density = 2.370096 g / cm^3
# Si number density = 23.755031 Si / 1000 Ang^3
#
#
#
# Elastic Constant Matrix: (Units=GPa)
#
#
# Indices 1 2 3 4 5 6 
#
# 1 154.6211 43.0479 16.7573 5.7210 -2.7717 -11.9824
# 2 43.0479 138.8570 58.0727 7.4348 -0.8680 -19.6525
# 3 16.7573 58.0727 96.1860 -1.6230 -1.3892 -10.7773
# 4 5.7210 7.4348 -1.6230 52.7515 -1.3481 -3.1874
# 5 -2.7717 -0.8680 -1.3892 -1.3481 33.9556 -9.2116
# 6 -11.9824 -19.6525 -10.7773 -3.1874 -9.2116 34.5271
#
#
#
# Elastic Compliance Matrix: (Units=1/GPa)
#
#
# Indices 1 2 3 4 5 6 
#
# 1 0.007172 -0.002043 0.000171 -0.000363 0.000961 0.001603
# 2 -0.002043 0.010862 -0.005787 -0.001237 0.000850 0.003780
# 3 0.000171 -0.005787 0.014067 0.001345 0.000908 0.001523
# 4 -0.000363 -0.001237 0.001345 0.019346 0.001224 0.001702
# 5 0.000961 0.000850 0.000908 0.001224 0.032303 0.009832
# 6 0.001603 0.003780 0.001523 0.001702 0.009832 0.034926
#
#
# Mechanical properties :
#
#
# Convention : Reuss Voigt Hill
#
# Bulk Modulus (GPa) = 59.58138 69.49110 64.53624
# Shear Modulus (GPa) = 35.81953 42.36593 39.09273
#
# Velocity S-wave (km/s) = 3.88734 4.22767 4.06108
# Velocity P-wave (km/s) = 6.72939 7.29025 7.01542
#
# Compressibility (1/GPa) = 0.01678377
#
# Stress axis : x y z
#
# Youngs Moduli (GPa) = 139.42171 92.06655 71.08809
#
# Poissons Ratio (x) = 0.18808 -0.01216
# Poissons Ratio (y) = 0.28482 0.41139
# Poissons Ratio (z) = -0.02386 0.53279
#
# Static dielectric constant tensor:
#      x y z
#    x 1.966080 -0.021570 0.099830 
#    y -0.021570 2.054430 -0.043100 
#    z 0.099830 -0.043100 2.168630 
# 
# From -- ./inp_files/544221.got.cif
#   From: 2010.05.17/outbox.cif.g08.bks.cpg/sg2_273_cif.got.tgz:544221.got - 2010.06.03 11:33:40.
