data_PCOD9051894
_publ_section_title
;
Structure prediction by ZEFSAII (Michael W. Deem and Ramdas Pophale) SiO2 
 PCOD9051894
Probable space group: P -1
;
_chemical_formula_sum "Si O2"
_cell_formula_units_Z 16
_cell_length_a 19.392950
_cell_length_b 11.182785
_cell_length_c 9.293566
_cell_angle_alpha 135.041800
_cell_angle_beta 95.615315
_cell_angle_gamma 52.128953
_cell_volume 896.489046
_symmetry_space_group_name_H-M "P -1"
_symmetry_group_IT_number 2
_symmetry_cell_setting 'triclinic'
loop_
_space_group_symop_operation_xyz
x,y,z
-x,-y,-z
loop_
_atom_site_type_symbol
_atom_site_label
_atom_site_fract_x
_atom_site_fract_y
_atom_site_fract_z
Si Si1 0.772480 0.986476 0.879760
Si Si2 0.032879 0.806858 0.690287
Si Si3 0.061287 0.499439 0.700409
Si Si4 0.375276 0.680267 0.123466
Si Si5 0.192267 0.698528 0.817460
Si Si6 0.629153 0.712560 0.270946
Si Si7 0.132447 0.361203 0.135254
Si Si8 0.756248 0.797824 0.282105
O O1 0.669984 0.166003 0.907652
O O2 0.874426 0.765787 0.603301
O O3 0.784626 0.833120 0.881218
O O4 0.777012 0.166674 0.091706
O O5 0.032217 0.684641 0.726215
O O6 0.135481 0.729874 0.690804
O O7 0.063240 0.654795 0.421620
O O8 0.910131 0.112052 0.928301
O O9 0.146511 0.405945 0.754534
O O10 0.955060 0.625796 0.862636
O O11 0.311159 0.909773 0.427020
O O12 0.500000 0.500000 0.000000
O O13 0.359405 0.504683 0.969261
O O14 0.300044 0.416686 0.674825
O O15 0.683867 0.763810 0.237643
O O16 0.500000 0.000000 0.500000
O O17 0.191065 0.268679 0.918270
#
# Coordination Sequence:
#
# PCOD9051894 Si02
#       8
#     2   2   2   2   2   2   2   2
#     4   9  18  33  60  80 110 148 198 226 275 349
#     4  10  18  32  58  82 118 151 195 230 279 348
#     4  10  17  35  55  80 114 160 189 219 278 358
#     4  10  21  40  66  83 105 150 204 243 282 340
#     4  10  18  33  57  86 108 148 205 237 270 336
#     4  11  22  39  64  84 109 149 205 245 282 342
#     4  11  20  35  54  87 123 153 180 233 299 347
#     4  11  23  38  56  89 122 150 186 242 298 342
#
# _framework density 17.847401000000001
#
# number of rings (size 3 to 8) (size 9 to 14) (size 15 to 20)
#    0.000    1.750    5.000    1.125    0.000    0.000 
#    2.250    1.250    0.000    1.500    0.000    0.000 
#    0.000    0.000    0.000    0.000    0.000    0.000 
#
# Total GULP energy -89094.284688 kJ/mol
# GULP energy per Si atom -5568.392793 kJ/mol
# Density = 1.780678 g / cm^3
# Si number density = 17.847401 Si / 1000 Ang^3
#
#
#
# Elastic Constant Matrix: (Units=GPa)
#
#
# Indices 1 2 3 4 5 6 
#
# 1 86.5019 31.0336 36.2513 -8.9114 -2.8956 -7.6270
# 2 31.0336 83.4139 48.5881 9.3519 -15.9242 -13.1157
# 3 36.2513 48.5881 90.5256 -4.8224 -3.0516 -0.6094
# 4 -8.9114 9.3519 -4.8224 31.5300 0.6341 -4.3040
# 5 -2.8956 -15.9242 -3.0516 0.6341 24.7000 5.2248
# 6 -7.6270 -13.1157 -0.6094 -4.3040 5.2248 27.9501
#
#
#
# Elastic Compliance Matrix: (Units=1/GPa)
#
#
# Indices 1 2 3 4 5 6 
#
# 1 0.015372 -0.003994 -0.003768 0.005470 -0.002114 0.003476
# 2 -0.003994 0.024959 -0.011832 -0.009727 0.013051 0.006427
# 3 -0.003768 -0.011832 0.018968 0.004828 -0.004897 -0.004508
# 4 0.005470 -0.009727 0.004828 0.037584 -0.006866 0.004105
# 5 -0.002114 0.013051 -0.004897 -0.006866 0.049243 -0.004822
# 6 0.003476 0.006427 -0.004508 0.004105 -0.004822 0.041177
#
#
# Mechanical properties :
#
#
# Convention : Reuss Voigt Hill
#
# Bulk Modulus (GPa) = 49.72641 54.68746 52.20694
# Shear Modulus (GPa) = 21.44129 26.47393 23.95761
#
# Velocity S-wave (km/s) = 3.46984 3.85561 3.66780
# Velocity P-wave (km/s) = 6.63140 7.10839 6.87403
#
# Compressibility (1/GPa) = 0.02011004
#
# Stress axis : x y z
#
# Youngs Moduli (GPa) = 65.05385 40.06587 52.72076
#
# Poissons Ratio (x) = 0.16004 0.19867
# Poissons Ratio (y) = 0.25985 0.62377
# Poissons Ratio (z) = 0.24514 0.47404
#
# Static dielectric constant tensor:
#      x y z
#    x 1.668580 -0.013930 0.059520 
#    y -0.013930 1.629800 0.051310 
#    z 0.059520 0.051310 1.630380 
# 
# From -- ./inp_files/177930.got.cif
#   From: 2010.05.17/outbox.cif.g08.bks.cpg/sg2_89_cif.got.tgz:177930.got - 2010.06.03 11:33:40.
