data_PCOD9051427
_publ_section_title
;
Structure prediction by ZEFSAII (Michael W. Deem and Ramdas Pophale) SiO2 
 PCOD9051427
Probable space group: P -1
;
_chemical_formula_sum "Si O2"
_cell_formula_units_Z 16
_cell_length_a 14.700705
_cell_length_b 14.125072
_cell_length_c 15.054268
_cell_angle_alpha 142.467362
_cell_angle_beta 28.714940
_cell_angle_gamma 151.251803
_cell_volume 718.417150
_symmetry_space_group_name_H-M "P -1"
_symmetry_group_IT_number 2
_symmetry_cell_setting 'triclinic'
loop_
_space_group_symop_operation_xyz
x,y,z
-x,-y,-z
loop_
_atom_site_type_symbol
_atom_site_label
_atom_site_fract_x
_atom_site_fract_y
_atom_site_fract_z
Si Si1 0.177944 0.672772 0.629942
Si Si2 0.141643 0.878257 0.660493
Si Si3 0.338102 0.707198 0.236333
Si Si4 0.285057 0.434111 0.705820
Si Si5 0.728423 0.212117 0.999183
Si Si6 0.624507 0.499460 0.793748
Si Si7 0.293659 0.882580 0.850285
Si Si8 0.247159 0.278088 0.814147
O O1 0.906401 0.479665 0.736469
O O2 0.185983 0.839686 0.693639
O O3 0.269138 0.589890 0.422478
O O4 0.328113 0.769021 0.661778
O O5 0.257303 0.807241 0.444933
O O6 0.855093 0.725635 0.777545
O O7 0.240792 0.096395 0.716157
O O8 0.438528 0.619794 0.148232
O O9 0.524668 0.882530 0.141784
O O10 0.500000 0.500000 0.500000
O O11 0.300373 0.618790 0.868249
O O12 0.306368 0.337719 0.704095
O O13 0.004451 0.290352 0.800913
O O14 0.702026 0.185047 0.107236
O O15 0.500000 0.000000 0.000000
O O16 0.419670 0.452102 0.866698
O O17 0.025248 0.804241 0.003371
#
# Coordination Sequence:
#
# PCOD9051427 Si02
#       8
#     2   2   2   2   2   2   2   2
#     4   9  19  36  58  85 120 162 203 245 292 359
#     4   9  19  36  56  86 123 158 203 247 292 359
#     4   9  19  35  57  87 119 159 204 242 295 362
#     4  10  25  46  70  98 129 165 220 276 335 389
#     4  10  25  49  69  94 134 169 213 278 334 391
#     4   9  19  36  57  85 123 158 198 250 294 355
#     4  11  23  36  60  87 117 159 203 242 315 376
#     4  11  23  36  57  87 124 154 198 255 310 366
#
# _framework density 22.271184000000002
#
# number of rings (size 3 to 8) (size 9 to 14) (size 15 to 20)
#    0.000    2.250    0.000    3.000    3.500   10.500 
#    2.250    2.500    0.000    0.000    0.000    0.000 
#    0.000    0.000    0.000    0.000    0.000    0.000 
#
# Total GULP energy -89368.894572 kJ/mol
# GULP energy per Si atom -5585.555911 kJ/mol
# Density = 2.222049 g / cm^3
# Si number density = 22.271184 Si / 1000 Ang^3
#
#
#
# Elastic Constant Matrix: (Units=GPa)
#
#
# Indices 1 2 3 4 5 6 
#
# 1 71.8021 40.5670 10.2809 -11.4453 -1.4234 3.7045
# 2 40.5670 123.3825 25.8949 -24.2269 -3.3539 6.6950
# 3 10.2809 25.8949 48.8919 -23.9072 -4.3196 -1.7668
# 4 -11.4453 -24.2269 -23.9072 36.8346 -1.5141 0.7079
# 5 -1.4234 -3.3539 -4.3196 -1.5141 30.2167 -6.3927
# 6 3.7045 6.6950 -1.7668 0.7079 -6.3927 36.1667
#
#
#
# Elastic Compliance Matrix: (Units=1/GPa)
#
#
# Indices 1 2 3 4 5 6 
#
# 1 0.017242 -0.005253 0.000125 0.002006 0.000179 -0.000795
# 2 -0.005253 0.011338 -0.003007 0.003923 0.000416 -0.001711
# 3 0.000125 -0.003007 0.031891 0.018944 0.005762 0.002750
# 4 0.002006 0.003923 0.018944 0.042867 0.005410 0.000111
# 5 0.000179 0.000416 0.005762 0.005410 0.035592 0.006371
# 6 -0.000795 -0.001711 0.002750 0.000111 0.006371 0.029306
#
#
# Mechanical properties :
#
#
# Convention : Reuss Voigt Hill
#
# Bulk Modulus (GPa) = 22.62476 44.17355 33.39916
# Shear Modulus (GPa) = 25.09539 31.79919 28.44729
#
# Velocity S-wave (km/s) = 3.36044 3.78275 3.57783
# Velocity P-wave (km/s) = 5.02370 6.24150 5.66542
#
# Compressibility (1/GPa) = 0.04419936
#
# Stress axis : x y z
#
# Youngs Moduli (GPa) = 57.99934 88.20199 31.35658
#
# Poissons Ratio (x) = 0.46334 -0.00391
# Poissons Ratio (y) = 0.30468 0.09429
# Poissons Ratio (z) = -0.00723 0.26522
#
# Static dielectric constant tensor:
#      x y z
#    x 1.798670 0.016430 -0.018820 
#    y 0.016430 1.823230 0.008370 
#    z -0.018820 0.008370 2.002740 
# 
# From -- ./inp_files/533810.got.cif
#   From: 2010.05.17/outbox.cif.g08.bks.cpg/sg2_267_cif.got.tgz:533810.got - 2010.06.03 11:33:40.
