data_PCOD9051415
_publ_section_title
;
Structure prediction by ZEFSAII (Michael W. Deem and Ramdas Pophale) SiO2 
 PCOD9051415
Probable space group: P -1
;
_chemical_formula_sum "Si O2"
_cell_formula_units_Z 16
_cell_length_a 13.276352
_cell_length_b 14.170853
_cell_length_c 9.188815
_cell_angle_alpha 70.378479
_cell_angle_beta 120.621690
_cell_angle_gamma 57.613358
_cell_volume 686.391488
_symmetry_space_group_name_H-M "P -1"
_symmetry_group_IT_number 2
_symmetry_cell_setting 'triclinic'
loop_
_space_group_symop_operation_xyz
x,y,z
-x,-y,-z
loop_
_atom_site_type_symbol
_atom_site_label
_atom_site_fract_x
_atom_site_fract_y
_atom_site_fract_z
Si Si1 0.588458 0.231068 0.334706
Si Si2 0.971977 0.336336 0.648061
Si Si3 0.171909 0.254133 0.540783
Si Si4 0.719745 0.915495 0.717921
Si Si5 0.833013 0.491885 0.935491
Si Si6 0.230824 0.709199 0.632804
Si Si7 0.579230 0.746218 0.333061
Si Si8 0.770543 0.023328 0.279565
O O1 0.334962 0.447420 0.110729
O O2 0.765641 0.191510 0.510175
O O3 0.652185 0.075831 0.528019
O O4 0.610722 0.194904 0.196031
O O5 0.847819 0.329076 0.496784
O O6 0.782826 0.541638 0.491969
O O7 0.066153 0.329132 0.584493
O O8 0.184092 0.152570 0.011200
O O9 0.400513 0.151859 0.741184
O O10 0.217358 0.104532 0.611046
O O11 0.976857 0.448274 0.184870
O O12 0.500000 0.000000 0.500000
O O13 0.950200 0.712979 0.894787
O O14 0.652078 0.672022 0.590465
O O15 0.040572 0.859262 0.546379
O O16 0.500000 0.500000 0.000000
O O17 0.340412 0.883442 0.012069
#
# Coordination Sequence:
#
# PCOD9051415 Si02
#       8
#     2   2   2   2   2   2   2   2
#     4  12  26  44  79  98 148 197 239 295 376 409
#     4  10  25  46  70 106 144 189 249 300 357 437
#     4  11  22  40  71 100 150 187 241 294 370 441
#     4  11  28  47  72 112 153 188 241 303 366 443
#     4  11  26  45  66 112 143 189 242 295 362 438
#     4  11  25  48  75 103 145 190 257 305 348 438
#     4  11  24  41  67 105 147 186 235 308 373 429
#     4  11  24  44  70 109 135 190 254 291 366 444
#
# _framework density 23.310312
#
# number of rings (size 3 to 8) (size 9 to 14) (size 15 to 20)
#    0.000    1.000    1.250    4.500   10.500    0.500 
#    0.000    1.250    0.000    0.000    0.000    0.000 
#    0.000    0.000    0.000    0.000    0.000    0.000 
#
# Total GULP energy -89424.819606 kJ/mol
# GULP energy per Si atom -5589.051225 kJ/mol
# Density = 2.325726 g / cm^3
# Si number density = 23.310312 Si / 1000 Ang^3
#
#
#
# Elastic Constant Matrix: (Units=GPa)
#
#
# Indices 1 2 3 4 5 6 
#
# 1 129.2911 77.3317 48.3334 -1.5806 18.4661 -11.1990
# 2 77.3317 107.7630 43.7418 0.3003 8.6738 -20.5721
# 3 48.3334 43.7418 152.3247 13.5700 -8.1313 -18.2371
# 4 -1.5806 0.3003 13.5700 41.4982 -9.3597 -5.2321
# 5 18.4661 8.6738 -8.1313 -9.3597 41.6242 -1.2546
# 6 -11.1990 -20.5721 -18.2371 -5.2321 -1.2546 45.0970
#
#
#
# Elastic Compliance Matrix: (Units=1/GPa)
#
#
# Indices 1 2 3 4 5 6 
#
# 1 0.015073 -0.009741 -0.002488 0.000056 -0.005186 -0.001845
# 2 -0.009741 0.017791 -0.001425 0.000776 0.000668 0.005229
# 3 -0.002488 -0.001425 0.008312 -0.001962 0.002642 0.001939
# 4 0.000056 0.000776 -0.001962 0.026311 0.005430 0.002778
# 5 -0.005186 0.000668 0.002642 0.005430 0.027968 0.001493
# 6 -0.001845 0.005229 0.001939 0.002778 0.001493 0.025250
#
#
# Mechanical properties :
#
#
# Convention : Reuss Voigt Hill
#
# Bulk Modulus (GPa) = 72.11906 80.91028 76.51467
# Shear Modulus (GPa) = 32.75802 40.30868 36.53335
#
# Velocity S-wave (km/s) = 3.75280 4.16290 3.96316
# Velocity P-wave (km/s) = 7.05577 7.60866 7.33743
#
# Compressibility (1/GPa) = 0.01386596
#
# Stress axis : x y z
#
# Youngs Moduli (GPa) = 66.34565 56.20865 120.31324
#
# Poissons Ratio (x) = 0.54754 0.29933
# Poissons Ratio (y) = 0.64629 0.17149
# Poissons Ratio (z) = 0.16506 0.08012
#
# Static dielectric constant tensor:
#      x y z
#    x 1.871300 0.002940 -0.032470 
#    y 0.002940 1.916740 -0.040080 
#    z -0.032470 -0.040080 1.965780 
# 
# From -- ./inp_files/272679.got.cif
#   From: 2010.05.17/outbox.cif.g08.bks.cpg/sg2_137_cif.got.tgz:272679.got - 2010.06.03 11:33:40.
