data_PCOD9051130
_publ_section_title
;
Structure prediction by ZEFSAII (Michael W. Deem and Ramdas Pophale) SiO2 
 PCOD9051130
Probable space group: P -1
;
_chemical_formula_sum "Si O2"
_cell_formula_units_Z 16
_cell_length_a 12.162170
_cell_length_b 14.914816
_cell_length_c 9.986766
_cell_angle_alpha 146.096104
_cell_angle_beta 142.463282
_cell_angle_gamma 49.995667
_cell_volume 615.039458
_symmetry_space_group_name_H-M "P -1"
_symmetry_group_IT_number 2
_symmetry_cell_setting 'triclinic'
loop_
_space_group_symop_operation_xyz
x,y,z
-x,-y,-z
loop_
_atom_site_type_symbol
_atom_site_label
_atom_site_fract_x
_atom_site_fract_y
_atom_site_fract_z
Si Si1 0.513018 0.759387 0.825751
Si Si2 0.462049 0.189839 0.674094
Si Si3 0.790191 0.490694 0.825489
Si Si4 0.900829 0.376108 0.070609
Si Si5 0.991276 0.969284 0.295892
Si Si6 0.788397 0.414531 0.309739
Si Si7 0.936065 0.845771 0.658479
Si Si8 0.430842 0.104607 0.246246
O O1 0.675792 0.645196 0.873931
O O2 0.518667 0.808463 0.735571
O O3 0.406021 0.672260 0.963193
O O4 0.517791 0.929468 0.117131
O O5 0.261016 0.208210 0.551222
O O6 0.476522 0.206112 0.547807
O O7 0.500000 0.000000 0.500000
O O8 0.675185 0.343099 0.461914
O O9 0.799801 0.452842 0.945244
O O10 0.000000 0.500000 0.000000
O O11 0.821321 0.429061 0.200448
O O12 0.118320 0.425001 0.337477
O O13 0.892894 0.184296 0.814070
O O14 0.783472 0.934575 0.012929
O O15 0.000000 0.000000 0.500000
O O16 0.058586 0.110149 0.437220
O O17 0.924846 0.285994 0.336109
O O18 0.000000 0.000000 0.000000
#
# Coordination Sequence:
#
# PCOD9051130 Si02
#       8
#     2   2   2   2   2   2   2   2
#     4  10  25  45  70 105 143 190 249 304 375 455
#     4  12  23  41  74 105 140 188 249 310 373 442
#     4  11  24  46  69  99 149 199 240 299 377 452
#     4  11  24  46  71 107 153 194 249 309 381 455
#     4  12  25  46  79 112 148 197 250 314 385 451
#     4  11  25  46  73 107 146 196 249 313 375 448
#     4  12  23  48  75 108 147 191 258 312 370 453
#     4  11  23  44  71 105 143 187 248 316 370 438
#
# _framework density 26.014589000000001
#
# number of rings (size 3 to 8) (size 9 to 14) (size 15 to 20)
#    0.000    0.750    3.750    2.250    0.000    8.000 
#    0.000   10.000    0.000    0.750    0.000    0.000 
#    0.000    0.000    0.000    0.000    0.000    0.000 
#
# Total GULP energy -89855.579526 kJ/mol
# GULP energy per Si atom -5615.973720 kJ/mol
# Density = 2.595538 g / cm^3
# Si number density = 26.014589 Si / 1000 Ang^3
#
#
#
# Elastic Constant Matrix: (Units=GPa)
#
#
# Indices 1 2 3 4 5 6 
#
# 1 127.6366 52.1287 50.3031 -12.0904 26.7840 -3.7370
# 2 52.1287 163.6411 30.9953 -7.1223 1.7524 7.7820
# 3 50.3031 30.9953 126.3873 -19.0833 25.4686 3.5114
# 4 -12.0904 -7.1223 -19.0833 33.9093 2.2411 2.1899
# 5 26.7840 1.7524 25.4686 2.2411 61.6435 -17.8975
# 6 -3.7370 7.7820 3.5114 2.1899 -17.8975 42.6603
#
#
#
# Elastic Compliance Matrix: (Units=1/GPa)
#
#
# Indices 1 2 3 4 5 6 
#
# 1 0.011019 -0.002886 -0.002622 0.002087 -0.003682 0.000056
# 2 -0.002886 0.007223 -0.000805 0.000032 0.001073 -0.001055
# 3 -0.002622 -0.000805 0.010991 0.005583 -0.004500 -0.003162
# 4 0.002087 0.000032 0.005583 0.034049 -0.005741 -0.004439
# 5 -0.003682 0.001073 -0.004500 -0.005741 0.022662 0.009654
# 6 0.000056 -0.001055 -0.003162 -0.004439 0.009654 0.028177
#
#
# Mechanical properties :
#
#
# Convention : Reuss Voigt Hill
#
# Bulk Modulus (GPa) = 60.21819 76.05769 68.13794
# Shear Modulus (GPa) = 37.79797 46.59184 42.19491
#
# Velocity S-wave (km/s) = 3.81590 4.23660 4.03174
# Velocity P-wave (km/s) = 6.52785 7.29601 6.92259
#
# Compressibility (1/GPa) = 0.01660628
#
# Stress axis : x y z
#
# Youngs Moduli (GPa) = 90.75447 138.45112 90.98475
#
# Poissons Ratio (x) = 0.39954 0.23860
# Poissons Ratio (y) = 0.26190 0.07323
# Poissons Ratio (z) = 0.23800 0.11143
#
# Static dielectric constant tensor:
#      x y z
#    x 2.047700 0.017280 0.038770 
#    y 0.017280 1.941020 -0.050580 
#    z 0.038770 -0.050580 1.939850 
# 
# From -- ./inp_files/274761.got.cif
#   From: 2010.05.17/outbox.cif.g08.bks.cpg/sg2_138_cif.got.tgz:274761.got - 2010.06.03 11:33:40.
