data_PCOD9051095
_publ_section_title
;
Structure prediction by ZEFSAII (Michael W. Deem and Ramdas Pophale) SiO2 
 PCOD9051095
Probable space group: P -1
;
_chemical_formula_sum "Si O2"
_cell_formula_units_Z 14
_cell_length_a 16.854828
_cell_length_b 10.834708
_cell_length_c 10.665116
_cell_angle_alpha 148.942035
_cell_angle_beta 134.495590
_cell_angle_gamma 36.670742
_cell_volume 599.480123
_symmetry_space_group_name_H-M "P -1"
_symmetry_group_IT_number 2
_symmetry_cell_setting 'triclinic'
loop_
_space_group_symop_operation_xyz
x,y,z
-x,-y,-z
loop_
_atom_site_type_symbol
_atom_site_label
_atom_site_fract_x
_atom_site_fract_y
_atom_site_fract_z
Si Si1 0.387124 0.803898 0.592064
Si Si2 0.435870 0.146916 0.739128
Si Si3 0.078164 0.683221 0.368022
Si Si4 0.071868 0.182871 0.241159
Si Si5 0.163214 0.357163 0.918116
Si Si6 0.251940 0.670407 0.151711
Si Si7 0.724955 0.749701 0.605993
O O1 0.500000 0.500000 0.500000
O O2 0.281395 0.727457 0.371348
O O3 0.426874 0.917794 0.615141
O O4 0.310887 0.071966 0.832481
O O5 0.335954 0.256499 0.603014
O O6 0.589403 0.993941 0.736548
O O7 0.379992 0.426086 0.006756
O O8 0.194983 0.548454 0.485106
O O9 0.954174 0.680940 0.280964
O O10 0.136126 0.481362 0.134910
O O11 0.000000 0.000000 0.500000
O O12 0.162127 0.177140 0.221335
O O13 0.000000 0.500000 0.500000
O O14 0.188242 0.970262 0.278883
O O15 0.000000 0.000000 0.000000
O O16 0.159757 0.552022 0.970489
#
# Coordination Sequence:
#
# PCOD9051095 Si02
#       7
#     2   2   2   2   2   2   2
#     4  11  25  44  74 103 141 194 248 312 372 451
#     4  10  25  49  70 111 143 197 251 310 388 441
#     4  11  25  45  71 104 145 196 239 306 378 448
#     4  12  27  47  77 112 147 201 247 311 387 456
#     4  10  25  45  69 107 141 188 251 304 377 450
#     4  11  24  47  73 101 145 186 252 309 371 458
#     4  11  25  48  73 106 153 190 253 313 376 463
#
# _framework density 23.353569
#
# number of rings (size 3 to 8) (size 9 to 14) (size 15 to 20)
#    0.000    1.143    1.429    2.571   12.000    1.714 
#    7.714    0.000    0.000    0.000    0.000    0.000 
#    0.000    0.000    0.000    0.000    0.000    0.000 
#
# Total GULP energy -78025.241807 kJ/mol
# GULP energy per Si atom -5573.231558 kJ/mol
# Density = 2.330042 g / cm^3
# Si number density = 23.353569 Si / 1000 Ang^3
#
#
#
# Elastic Constant Matrix: (Units=GPa)
#
#
# Indices 1 2 3 4 5 6 
#
# 1 119.6956 56.9469 43.9744 24.3417 2.8401 -24.3979
# 2 56.9469 177.3749 40.8387 38.3586 3.5411 21.2914
# 3 43.9744 40.8387 82.7733 30.7449 1.8838 -7.8565
# 4 24.3417 38.3586 30.7449 37.4403 -0.5055 3.0167
# 5 2.8401 3.5411 1.8838 -0.5055 29.6268 2.3331
# 6 -24.3979 21.2914 -7.8565 3.0167 2.3331 40.7787
#
#
#
# Elastic Compliance Matrix: (Units=1/GPa)
#
#
# Indices 1 2 3 4 5 6 
#
# 1 0.014566 -0.004520 -0.003349 -0.002975 -0.001539 0.010738
# 2 -0.004520 0.009329 -0.000947 -0.005250 -0.000131 -0.007362
# 3 -0.003349 -0.000947 0.019581 -0.013216 -0.001297 0.003315
# 4 -0.002975 -0.005250 -0.013216 0.045325 0.002928 -0.005106
# 5 -0.001539 -0.000131 -0.001297 0.002928 0.034307 -0.003282
# 6 0.010738 -0.007362 0.003315 -0.005106 -0.003282 0.035995
#
#
# Mechanical properties :
#
#
# Convention : Reuss Voigt Hill
#
# Bulk Modulus (GPa) = 38.69553 73.70707 56.20130
# Shear Modulus (GPa) = 26.97621 37.44142 32.20881
#
# Velocity S-wave (km/s) = 3.40239 4.00839 3.71776
# Velocity P-wave (km/s) = 5.66043 7.28374 6.52278
#
# Compressibility (1/GPa) = 0.02584278
#
# Stress axis : x y z
#
# Youngs Moduli (GPa) = 68.65536 107.19772 51.07059
#
# Poissons Ratio (x) = 0.48455 0.17103
# Poissons Ratio (y) = 0.31033 0.04836
# Poissons Ratio (z) = 0.22992 0.10152
#
# Static dielectric constant tensor:
#      x y z
#    x 2.094340 0.462410 0.038120 
#    y 0.462410 3.015620 0.005820 
#    z 0.038120 0.005820 1.969180 
# 
# From -- ./inp_files/465180.got.cif
#   From: 2010.05.17/outbox.cif.g08.bks.cpg/sg2_233_cif.got.tgz:465180.got - 2010.06.03 11:33:40.
