data_PCOD9051924
_publ_section_title
;
Structure prediction by ZEFSAII (Michael W. Deem and Ramdas Pophale) SiO2 
 PCOD9051924
Probable space group: P -1
;
_chemical_formula_sum "Si O2"
_cell_formula_units_Z 13
_cell_length_a 18.855865
_cell_length_b 7.050605
_cell_length_c 9.828521
_cell_angle_alpha 122.906920
_cell_angle_beta 32.570654
_cell_angle_gamma 132.353113
_cell_volume 518.850897
_symmetry_space_group_name_H-M "P -1"
_symmetry_group_IT_number 2
_symmetry_cell_setting 'triclinic'
loop_
_space_group_symop_operation_xyz
x,y,z
-x,-y,-z
loop_
_atom_site_type_symbol
_atom_site_label
_atom_site_fract_x
_atom_site_fract_y
_atom_site_fract_z
Si Si1 0.597219 0.905394 0.505020
Si Si2 0.832102 0.396720 0.778407
Si Si3 0.403636 0.632445 0.465770
Si Si4 0.500000 0.000000 0.000000
Si Si5 0.189443 0.120029 0.463090
Si Si6 0.333562 0.426716 0.088955
Si Si7 0.891723 0.837499 0.991057
O O1 0.457190 0.699518 0.561295
O O2 0.744199 0.869274 0.242918
O O3 0.641489 0.172048 0.457594
O O4 0.542973 0.892706 0.743154
O O5 0.754973 0.099610 0.734936
O O6 0.757623 0.539410 0.873138
O O7 0.000000 0.500000 0.500000
O O8 0.852410 0.535190 0.944661
O O9 0.223202 0.268607 0.325058
O O10 0.562236 0.694838 0.164563
O O11 0.557121 0.277815 0.939385
O O12 0.283005 0.342105 0.507870
O O13 0.013737 0.974860 0.725254
O O14 0.000000 0.000000 0.000000
#
# Coordination Sequence:
#
# PCOD9051924 Si02
#       7
#     2   2   2   1   2   2   2
#     4  11  27  51  76 119 163 212 269 337 416 473
#     4  10  25  48  76 114 158 213 263 330 400 489
#     4  11  25  49  78 120 161 209 271 334 404 487
#     4  12  28  46  84 106 164 214 266 338 400 486
#     4  11  26  49  83 116 158 216 271 327 411 491
#     4  12  25  47  77 118 155 211 272 325 408 476
#     4  11  27  51  78 114 166 214 269 339 406 483
#
# _framework density 25.055365999999999
#
# number of rings (size 3 to 8) (size 9 to 14) (size 15 to 20)
#    0.000    0.923    3.077    1.385    8.615    4.923 
#    2.769    0.000    0.000    0.000    0.000    0.000 
#    0.000    0.000    0.000    0.000    0.000    0.000 
#
# Total GULP energy -72448.927654 kJ/mol
# GULP energy per Si atom -5572.994435 kJ/mol
# Density = 2.499834 g / cm^3
# Si number density = 25.055366 Si / 1000 Ang^3
#
#
#
# Elastic Constant Matrix: (Units=GPa)
#
#
# Indices 1 2 3 4 5 6 
#
# 1 78.4397 61.7971 35.7659 15.4181 0.7887 9.7332
# 2 61.7971 172.8577 77.0084 13.8104 8.5477 25.9301
# 3 35.7659 77.0084 168.2587 -3.0234 -7.9096 4.0453
# 4 15.4181 13.8104 -3.0234 58.4038 2.5108 6.8922
# 5 0.7887 8.5477 -7.9096 2.5108 49.6747 3.2905
# 6 9.7332 25.9301 4.0453 6.8922 3.2905 59.6313
#
#
#
# Elastic Compliance Matrix: (Units=1/GPa)
#
#
# Indices 1 2 3 4 5 6 
#
# 1 0.018648 -0.005806 -0.001339 -0.003643 0.000677 -0.000045
# 2 -0.005806 0.009936 -0.003342 -0.000556 -0.001924 -0.002976
# 3 -0.001339 -0.003342 0.007842 0.001371 0.001717 0.000887
# 4 -0.003643 -0.000556 0.001371 0.018468 -0.000471 -0.001365
# 5 0.000677 -0.001924 0.001717 -0.000471 0.020781 -0.000482
# 6 -0.000045 -0.002976 0.000887 -0.001365 -0.000482 0.018195
#
#
# Mechanical properties :
#
#
# Convention : Reuss Voigt Hill
#
# Bulk Modulus (GPa) = 64.72146 85.41098 75.06622
# Shear Modulus (GPa) = 41.66899 49.87428 45.77163
#
# Velocity S-wave (km/s) = 4.08251 4.46641 4.27877
# Velocity P-wave (km/s) = 6.93613 7.79496 7.37805
#
# Compressibility (1/GPa) = 0.01545083
#
# Stress axis : x y z
#
# Youngs Moduli (GPa) = 53.62462 100.64898 127.52575
#
# Poissons Ratio (x) = 0.58435 0.17080
# Poissons Ratio (y) = 0.31133 0.42620
# Poissons Ratio (z) = 0.07182 0.33638
#
# Static dielectric constant tensor:
#      x y z
#    x 2.056320 0.083060 0.223810 
#    y 0.083060 2.048200 0.102690 
#    z 0.223810 0.102690 1.972410 
# 
# From -- ./inp_files/164653.got.cif
#   From: 2010.05.17/outbox.cif.g08.bks.cpg/sg2_83_cif.got.tgz:164653.got - 2010.06.03 11:33:40.
