data_PCOD9051022
_publ_section_title
;
Structure prediction by ZEFSAII (Michael W. Deem and Ramdas Pophale) SiO2 
 PCOD9051022
Probable space group: P -1
;
_chemical_formula_sum "Si O2"
_cell_formula_units_Z 16
_cell_length_a 5.436138
_cell_length_b 14.503041
_cell_length_c 11.814117
_cell_angle_alpha 134.338250
_cell_angle_beta 93.731691
_cell_angle_gamma 75.511430
_cell_volume 636.842745
_symmetry_space_group_name_H-M "P -1"
_symmetry_group_IT_number 2
_symmetry_cell_setting 'triclinic'
loop_
_space_group_symop_operation_xyz
x,y,z
-x,-y,-z
loop_
_atom_site_type_symbol
_atom_site_label
_atom_site_fract_x
_atom_site_fract_y
_atom_site_fract_z
Si Si1 0.210246 0.699754 0.565473
Si Si2 0.412570 0.475988 0.740231
Si Si3 0.006840 0.620999 0.690292
Si Si4 0.981809 0.805568 0.254396
Si Si5 0.770388 0.767122 0.446280
Si Si6 0.501054 0.723220 0.059093
Si Si7 0.590320 0.871591 0.978101
Si Si8 0.291169 0.964076 0.687881
O O1 0.419445 0.575080 0.410712
O O2 0.193225 0.692498 0.691860
O O3 0.260815 0.832240 0.632494
O O4 0.930962 0.710258 0.514321
O O5 0.134372 0.565471 0.765383
O O6 0.378338 0.342450 0.683024
O O7 0.547028 0.568410 0.892468
O O8 0.000000 0.500000 0.500000
O O9 0.745490 0.738213 0.802130
O O10 0.963364 0.775180 0.359518
O O11 0.887326 0.963165 0.355768
O O12 0.755227 0.749114 0.144051
O O13 0.259910 0.752760 0.161769
O O14 0.576164 0.910801 0.596195
O O15 0.428563 0.816924 0.023116
O O16 0.500000 0.000000 0.000000
O O17 0.760142 0.928971 0.120542
#
# Coordination Sequence:
#
# PCOD9051022 Si02
#       8
#     2   2   2   2   2   2   2   2
#     4  11  25  41  73 103 145 190 259 300 372 449
#     4  11  25  45  72 104 152 192 251 305 379 445
#     4  12  24  45  75 107 152 196 240 311 377 447
#     4  11  27  47  76 104 151 195 252 314 376 435
#     4  11  25  46  72 107 142 199 252 311 366 442
#     4  11  27  49  72 110 148 195 246 310 376 448
#     4  11  26  45  75 108 151 195 248 307 376 447
#     4  10  25  45  67 107 145 192 247 308 369 449
#
# _framework density 25.123940000000001
#
# number of rings (size 3 to 8) (size 9 to 14) (size 15 to 20)
#    0.000    1.000    1.250    3.750   14.000    2.000 
#    0.000    0.000    0.000    0.000    0.000    0.000 
#    0.000    0.000    0.000    0.000    0.000    0.000 
#
# Total GULP energy -89462.077198 kJ/mol
# GULP energy per Si atom -5591.379825 kJ/mol
# Density = 2.506676 g / cm^3
# Si number density = 25.123940 Si / 1000 Ang^3
#
#
#
# Elastic Constant Matrix: (Units=GPa)
#
#
# Indices 1 2 3 4 5 6 
#
# 1 95.2730 6.0742 49.2283 -0.8739 -7.6345 9.1792
# 2 6.0742 74.5642 54.9674 -12.2928 -9.1938 3.1598
# 3 49.2283 54.9674 108.3832 5.7275 -8.7107 14.4197
# 4 -0.8739 -12.2928 5.7275 38.5346 10.0049 -4.9853
# 5 -7.6345 -9.1938 -8.7107 10.0049 41.2910 -11.2109
# 6 9.1792 3.1598 14.4197 -4.9853 -11.2109 37.0036
#
#
#
# Elastic Compliance Matrix: (Units=1/GPa)
#
#
# Indices 1 2 3 4 5 6 
#
# 1 0.016093 0.008196 -0.011703 0.004448 0.001505 0.000924
# 2 0.008196 0.029621 -0.019981 0.012727 0.002346 0.005649
# 3 -0.011703 -0.019981 0.026217 -0.011398 -0.000283 -0.007228
# 4 0.004448 0.012727 -0.011398 0.033916 -0.005573 0.005132
# 5 0.001505 0.002346 -0.000283 -0.005573 0.028308 0.007362
# 6 0.000924 0.005649 -0.007228 0.005132 0.007362 0.032052
#
#
# Mechanical properties :
#
#
# Convention : Reuss Voigt Hill
#
# Bulk Modulus (GPa) = 40.07198 55.41781 47.74490
# Shear Modulus (GPa) = 22.57307 34.56255 28.56781
#
# Velocity S-wave (km/s) = 3.00070 3.71304 3.37571
# Velocity P-wave (km/s) = 5.29055 6.36301 5.85140
#
# Compressibility (1/GPa) = 0.02495509
#
# Stress axis : x y z
#
# Youngs Moduli (GPa) = 62.13792 33.75961 38.14307
#
# Poissons Ratio (x) = -0.27670 0.44641
# Poissons Ratio (y) = -0.50930 0.76214
# Poissons Ratio (z) = 0.72723 0.67455
#
# Static dielectric constant tensor:
#      x y z
#    x 2.082260 0.028560 0.041440 
#    y 0.028560 2.039180 0.014160 
#    z 0.041440 0.014160 1.966400 
# 
# From -- ./inp_files/368049.got.cif
#   From: 2010.05.17/outbox.cif.g08.bks.cpg/sg2_185_cif.got.tgz:368049.got - 2010.06.03 11:33:40.
