data_PCOD9051228
_publ_section_title
;
Structure prediction by ZEFSAII (Michael W. Deem and Ramdas Pophale) SiO2 
 PCOD9051228
Probable space group: P -1
;
_chemical_formula_sum "Si O2"
_cell_formula_units_Z 10
_cell_length_a 17.246005
_cell_length_b 18.380896
_cell_length_c 10.980089
_cell_angle_alpha 156.031652
_cell_angle_beta 151.132998
_cell_angle_gamma 15.394291
_cell_volume 374.904253
_symmetry_space_group_name_H-M "P -1"
_symmetry_group_IT_number 2
_symmetry_cell_setting 'triclinic'
loop_
_space_group_symop_operation_xyz
x,y,z
-x,-y,-z
loop_
_atom_site_type_symbol
_atom_site_label
_atom_site_fract_x
_atom_site_fract_y
_atom_site_fract_z
Si Si1 0.351655 0.768205 0.415805
Si Si2 0.046275 0.256641 0.930749
Si Si3 0.782885 0.078733 0.901488
Si Si4 0.021606 0.637121 0.359286
Si Si5 0.415324 0.929440 0.172902
O O1 0.644319 0.615426 0.578610
O O2 0.468409 0.470583 0.068520
O O3 0.137080 0.067521 0.488366
O O4 0.205058 0.934464 0.599937
O O5 0.029267 0.415560 0.037523
O O6 0.714773 0.551055 0.969418
O O7 0.247543 0.142456 0.144343
O O8 0.801570 0.009303 0.963036
O O9 0.844449 0.837327 0.547643
O O10 0.000000 0.000000 0.000000
O O11 0.500000 0.000000 0.500000
#
# Coordination Sequence:
#
# PCOD9051228 Si02
#       5
#     2   2   2   2   2
#     4  11  24  42  67 104 138 177 226 281 342 400
#     4  12  25  43  71 101 139 179 228 284 341 402
#     4  10  25  45  72  99 139 182 230 277 342 407
#     4  11  22  42  69  99 139 181 224 275 337 411
#     4  12  26  45  72 100 138 181 230 282 341 407
#
# _framework density 26.673479
#
# number of rings (size 3 to 8) (size 9 to 14) (size 15 to 20)
#    0.000    0.800    2.000    4.800    0.000    6.400 
#    0.000    0.000    0.000    0.000    0.000    0.000 
#    0.000    0.000    0.000    0.000    0.000    0.000 
#
# Total GULP energy -55789.537034 kJ/mol
# GULP energy per Si atom -5578.953703 kJ/mol
# Density = 2.661277 g / cm^3
# Si number density = 26.673479 Si / 1000 Ang^3
#
#
#
# Elastic Constant Matrix: (Units=GPa)
#
#
# Indices 1 2 3 4 5 6 
#
# 1 109.9096 22.5271 8.8396 15.8836 -6.7259 -12.6198
# 2 22.5271 150.8702 8.9818 45.5693 -12.0952 -0.9365
# 3 8.8396 8.9818 161.7764 33.0701 -20.5284 -9.3788
# 4 15.8836 45.5693 33.0701 62.8753 -9.0290 -13.5067
# 5 -6.7259 -12.0952 -20.5284 -9.0290 41.8244 13.9067
# 6 -12.6198 -0.9365 -9.3788 -13.5067 13.9067 50.1738
#
#
#
# Elastic Compliance Matrix: (Units=1/GPa)
#
#
# Indices 1 2 3 4 5 6 
#
# 1 0.009741 -0.001058 -0.000078 -0.001177 0.000298 0.002016
# 2 -0.001058 0.009020 0.001151 -0.007067 0.002281 -0.002417
# 3 -0.000078 0.001151 0.007388 -0.004385 0.003230 -0.000693
# 4 -0.001177 -0.007067 -0.004385 0.024713 -0.000934 0.005664
# 5 0.000298 0.002281 0.003230 -0.000934 0.028468 -0.007421
# 6 0.002016 -0.002417 -0.000693 0.005664 -0.007421 0.023845
#
#
# Mechanical properties :
#
#
# Convention : Reuss Voigt Hill
#
# Bulk Modulus (GPa) = 38.19854 55.91703 47.05778
# Shear Modulus (GPa) = 44.69382 56.45520 50.57451
#
# Velocity S-wave (km/s) = 4.09784 4.60557 4.35910
# Velocity P-wave (km/s) = 6.06148 7.02073 6.55867
#
# Compressibility (1/GPa) = 0.02617901
#
# Stress axis : x y z
#
# Youngs Moduli (GPa) = 102.65505 110.86263 135.35691
#
# Poissons Ratio (x) = 0.11729 0.01059
# Poissons Ratio (y) = 0.10861 -0.15580
# Poissons Ratio (z) = 0.00803 -0.12761
#
# Static dielectric constant tensor:
#      x y z
#    x 2.073560 0.036640 0.021430 
#    y 0.036640 2.077570 -0.178430 
#    z 0.021430 -0.178430 2.247330 
# 
# From -- ./inp_files/16200.got.cif
#   From: 2010.05.17/outbox.cif.g08.bks.cpg/sg2_9_cif.got.tgz:16200.got - 2010.06.03 11:33:40.
