data_PCOD9051992
_publ_section_title
;
Structure prediction by ZEFSAII (Michael W. Deem and Ramdas Pophale) SiO2 
 PCOD9051992
Probable space group: P -1
;
_chemical_formula_sum "Si O2"
_cell_formula_units_Z 16
_cell_length_a 21.727942
_cell_length_b 18.754978
_cell_length_c 13.386809
_cell_angle_alpha 154.565383
_cell_angle_beta 158.588620
_cell_angle_gamma 20.362923
_cell_volume 673.005204
_symmetry_space_group_name_H-M "P -1"
_symmetry_group_IT_number 2
_symmetry_cell_setting 'triclinic'
loop_
_space_group_symop_operation_xyz
x,y,z
-x,-y,-z
loop_
_atom_site_type_symbol
_atom_site_label
_atom_site_fract_x
_atom_site_fract_y
_atom_site_fract_z
Si Si1 0.386717 0.269702 0.895192
Si Si2 0.149185 0.556277 0.266029
Si Si3 0.680053 0.509476 0.337223
Si Si4 0.958555 0.071677 0.141532
Si Si5 0.532388 0.805585 0.859346
Si Si6 0.113856 0.082044 0.828233
Si Si7 0.203964 0.742702 0.254347
Si Si8 0.408230 0.964176 0.414395
O O1 0.361077 0.222011 0.908908
O O2 0.307178 0.507569 0.076101
O O3 0.287511 0.187001 0.571823
O O4 0.634350 0.104956 0.024468
O O5 0.266412 0.548102 0.535724
O O6 0.333467 0.389804 0.259264
O O7 0.968227 0.743199 0.157095
O O8 0.000000 0.500000 0.000000
O O9 0.600580 0.745037 0.486869
O O10 0.500000 0.500000 0.000000
O O11 0.894312 0.302712 0.349866
O O12 0.769206 0.073080 0.905513
O O13 0.000000 0.000000 0.000000
O O14 0.156815 0.890559 0.276646
O O15 0.347881 0.785658 0.588728
O O16 0.500000 0.000000 0.000000
O O17 0.999418 0.178809 0.884245
O O18 0.000000 0.000000 0.500000
O O19 0.500000 0.000000 0.500000
#
# Coordination Sequence:
#
# PCOD9051992 Si02
#       8
#     2   2   2   2   2   2   2   2
#     4  12  26  48  77 109 155 191 250 325 384 456
#     4  12  26  43  73 111 150 195 252 316 378 451
#     4  10  25  49  73 106 150 204 253 305 386 467
#     4  11  28  48  76 107 149 205 255 316 376 465
#     4  12  26  44  72 110 150 194 248 316 381 450
#     4  12  23  45  72 108 148 194 245 303 393 448
#     4  12  27  49  73 113 151 199 250 314 391 457
#     4  11  26  50  76 109 145 203 257 314 381 453
#
# _framework density 23.773962999999998
#
# number of rings (size 3 to 8) (size 9 to 14) (size 15 to 20)
#    0.000    0.500    2.500    4.875    8.750    2.500 
#    2.250    0.000    0.000    0.000    0.000    0.000 
#    0.000    0.000    0.000    0.000    0.000    0.000 
#
# Total GULP energy -89126.838355 kJ/mol
# GULP energy per Si atom -5570.427397 kJ/mol
# Density = 2.371985 g / cm^3
# Si number density = 23.773963 Si / 1000 Ang^3
#
#
#
# Elastic Constant Matrix: (Units=GPa)
#
#
# Indices 1 2 3 4 5 6 
#
# 1 108.2289 19.9085 12.7290 7.7753 -17.7894 -5.8834
# 2 19.9085 118.1859 10.3054 25.8215 -1.5605 0.2089
# 3 12.7290 10.3054 65.9883 7.9907 -12.4470 -6.9854
# 4 7.7753 25.8215 7.9907 43.7002 -1.4029 0.5047
# 5 -17.7894 -1.5605 -12.4470 -1.4029 53.5782 3.2218
# 6 -5.8834 0.2089 -6.9854 0.5047 3.2218 39.1283
#
#
#
# Elastic Compliance Matrix: (Units=1/GPa)
#
#
# Indices 1 2 3 4 5 6 
#
# 1 0.010232 -0.001447 -0.000969 -0.000704 0.003044 0.001132
# 2 -0.001447 0.009967 -0.000733 -0.005510 -0.000487 -0.000290
# 3 -0.000969 -0.000733 0.016639 -0.002361 0.003305 0.002587
# 4 -0.000704 -0.005510 -0.002361 0.026699 -0.000194 -0.000826
# 5 0.003044 -0.000487 0.003305 -0.000194 0.020461 -0.000632
# 6 0.001132 -0.000290 0.002587 -0.000826 -0.000632 0.026253
#
#
# Mechanical properties :
#
#
# Convention : Reuss Voigt Hill
#
# Bulk Modulus (GPa) = 32.74357 42.03212 37.38785
# Shear Modulus (GPa) = 39.45432 43.91203 41.68317
#
# Velocity S-wave (km/s) = 4.07819 4.30241 4.19180
# Velocity P-wave (km/s) = 5.99819 6.51147 6.26009
#
# Compressibility (1/GPa) = 0.03054035
#
# Stress axis : x y z
#
# Youngs Moduli (GPa) = 97.73091 100.33267 60.10108
#
# Poissons Ratio (x) = 0.14520 0.05822
# Poissons Ratio (y) = 0.14144 0.04404
# Poissons Ratio (z) = 0.09466 0.07352
#
# Static dielectric constant tensor:
#      x y z
#    x 1.824710 -0.048010 0.044920 
#    y -0.048010 2.010770 -0.016380 
#    z 0.044920 -0.016380 1.835570 
# 
# From -- ./inp_files/472526.got.cif
#   From: 2010.05.17/outbox.cif.g08.bks.cpg/sg2_237_cif.got.tgz:472526.got - 2010.06.03 11:33:40.
