data_PCOD9051526
_publ_section_title
;
Structure prediction by ZEFSAII (Michael W. Deem and Ramdas Pophale) SiO2 
 PCOD9051526
Probable space group: P -1
;
_chemical_formula_sum "Si O2"
_cell_formula_units_Z 14
_cell_length_a 7.822407
_cell_length_b 12.658418
_cell_length_c 11.006436
_cell_angle_alpha 133.774431
_cell_angle_beta 131.728405
_cell_angle_gamma 66.261162
_cell_volume 583.904032
_symmetry_space_group_name_H-M "P -1"
_symmetry_group_IT_number 2
_symmetry_cell_setting 'triclinic'
loop_
_space_group_symop_operation_xyz
x,y,z
-x,-y,-z
loop_
_atom_site_type_symbol
_atom_site_label
_atom_site_fract_x
_atom_site_fract_y
_atom_site_fract_z
Si Si1 0.929939 0.961651 0.092988
Si Si2 0.942002 0.345948 0.665835
Si Si3 0.430852 0.465117 0.298397
Si Si4 0.512994 0.165668 0.195979
Si Si5 0.829841 0.879397 0.256893
Si Si6 0.707000 0.159680 0.983507
Si Si7 0.318207 0.502623 0.804821
O O1 0.904425 0.914967 0.182430
O O2 0.173459 0.929536 0.134244
O O3 0.719963 0.851184 0.846955
O O4 0.500000 0.000000 0.000000
O O5 0.103122 0.274776 0.781747
O O6 0.093985 0.401910 0.666052
O O7 0.819383 0.477765 0.773466
O O8 0.735444 0.225228 0.425312
O O9 0.500000 0.500000 0.500000
O O10 0.469660 0.292236 0.178131
O O11 0.573921 0.533708 0.304513
O O12 0.858157 0.119107 0.140691
O O13 0.564781 0.892575 0.177928
O O14 0.000000 0.000000 0.500000
O O15 0.741999 0.330692 0.104883
O O16 0.500000 0.500000 0.000000
#
# Coordination Sequence:
#
# PCOD9051526 Si02
#       7
#     2   2   2   2   2   2   2
#     4  11  24  44  75 100 143 196 250 305 365 450
#     4  11  26  45  75 113 151 195 250 318 380 446
#     4  10  25  46  73 112 152 198 254 306 378 455
#     4  11  22  46  76 106 145 201 250 303 372 450
#     4  12  25  44  71 107 150 194 247 309 377 445
#     4  11  25  46  71 106 140 195 251 299 378 441
#     4  12  25  45  76 109 154 194 246 314 380 456
#
# _framework density 23.976542999999999
#
# number of rings (size 3 to 8) (size 9 to 14) (size 15 to 20)
#    0.000    0.857    1.429    5.571    2.000    4.571 
#    0.000   15.714    0.000    0.000    0.000    0.000 
#    0.000    0.000    0.000    0.000    0.000    0.000 
#
# Total GULP energy -78140.640841 kJ/mol
# GULP energy per Si atom -5581.474346 kJ/mol
# Density = 2.392197 g / cm^3
# Si number density = 23.976543 Si / 1000 Ang^3
#
#
#
# Elastic Constant Matrix: (Units=GPa)
#
#
# Indices 1 2 3 4 5 6 
#
# 1 222.1756 92.5854 70.0013 -20.2790 1.6130 3.5892
# 2 92.5854 190.4520 34.6616 -26.7944 -4.3142 3.3347
# 3 70.0013 34.6616 104.9604 -3.3959 5.8774 -5.3543
# 4 -20.2790 -26.7944 -3.3959 38.3173 1.2654 1.9226
# 5 1.6130 -4.3142 5.8774 1.2654 32.7612 -8.7054
# 6 3.5892 3.3347 -5.3543 1.9226 -8.7054 50.3118
#
#
#
# Elastic Compliance Matrix: (Units=1/GPa)
#
#
# Indices 1 2 3 4 5 6 
#
# 1 0.006852 -0.002406 -0.003749 0.001662 -0.000269 -0.000838
# 2 -0.002406 0.007080 -0.000687 0.003602 0.000943 -0.000345
# 3 -0.003749 -0.000687 0.012376 -0.001381 -0.001704 0.001388
# 4 0.001662 0.003602 -0.001381 0.029497 -0.000978 -0.001801
# 5 -0.000269 0.000943 -0.001704 -0.000978 0.032447 0.005427
# 6 -0.000838 -0.000345 0.001388 -0.001801 0.005427 0.021114
#
#
# Mechanical properties :
#
#
# Convention : Reuss Voigt Hill
#
# Bulk Modulus (GPa) = 79.21950 101.34272 90.28111
# Shear Modulus (GPa) = 39.28989 45.63403 42.46196
#
# Velocity S-wave (km/s) = 4.05245 4.36739 4.21287
# Velocity P-wave (km/s) = 7.41678 8.23355 7.83581
#
# Compressibility (1/GPa) = 0.01262316
#
# Stress axis : x y z
#
# Youngs Moduli (GPa) = 145.93838 141.24882 80.79949
#
# Poissons Ratio (x) = 0.33988 0.30294
# Poissons Ratio (y) = 0.35117 0.05551
# Poissons Ratio (z) = 0.54716 0.09704
#
# Static dielectric constant tensor:
#      x y z
#    x 2.048190 -0.043110 -0.013200 
#    y -0.043110 2.055730 -0.015600 
#    z -0.013200 -0.015600 2.057060 
# 
# From -- ./inp_files/368130.got.cif
#   From: 2010.05.17/outbox.cif.g08.bks.cpg/sg2_185_cif.got.tgz:368130.got - 2010.06.03 11:33:40.
