data_PCOD9051372
_publ_section_title
;
Structure prediction by ZEFSAII (Michael W. Deem and Ramdas Pophale) SiO2 
 PCOD9051372
Probable space group: P -1
;
_chemical_formula_sum "Si O2"
_cell_formula_units_Z 16
_cell_length_a 13.074977
_cell_length_b 13.177901
_cell_length_c 9.573722
_cell_angle_alpha 87.423717
_cell_angle_beta 114.727090
_cell_angle_gamma 38.007658
_cell_volume 685.206187
_symmetry_space_group_name_H-M "P -1"
_symmetry_group_IT_number 2
_symmetry_cell_setting 'triclinic'
loop_
_space_group_symop_operation_xyz
x,y,z
-x,-y,-z
loop_
_atom_site_type_symbol
_atom_site_label
_atom_site_fract_x
_atom_site_fract_y
_atom_site_fract_z
Si Si1 0.119174 0.513648 0.581647
Si Si2 0.393512 0.824068 0.007902
Si Si3 0.740376 0.923614 0.542873
Si Si4 0.776169 0.759427 0.853528
Si Si5 0.581051 0.281515 0.466019
Si Si6 0.726525 0.249843 0.842421
Si Si7 0.507720 0.573639 0.872034
Si Si8 0.035114 0.684576 0.228186
O O1 0.388358 0.278662 0.813082
O O2 0.000000 0.500000 0.500000
O O3 0.964128 0.712239 0.582648
O O4 0.116819 0.564822 0.424402
O O5 0.407321 0.723802 0.137015
O O6 0.474698 0.708569 0.915717
O O7 0.121798 0.088834 0.837820
O O8 0.777802 0.831477 0.714112
O O9 0.486123 0.087611 0.315763
O O10 0.711999 0.066458 0.548403
O O11 0.837877 0.777234 0.022585
O O12 0.000000 0.500000 0.000000
O O13 0.628468 0.310500 0.627908
O O14 0.661608 0.280580 0.373556
O O15 0.287337 0.493962 0.296975
O O16 0.735808 0.346324 0.930272
O O17 0.000000 0.000000 0.000000
O O18 0.500000 0.500000 0.000000
#
# Coordination Sequence:
#
# PCOD9051372 Si02
#       8
#     2   2   2   2   2   2   2   2
#     4  12  27  44  68 104 149 191 235 293 357 435
#     4  11  25  47  69 104 147 185 240 295 367 431
#     4  11  26  42  71 106 147 193 243 298 353 428
#     4  11  23  43  69 107 148 191 247 292 350 426
#     4  12  24  45  74 108 139 187 246 299 367 434
#     4  11  24  47  74 105 140 186 239 310 365 431
#     4  10  25  46  69 101 139 182 237 300 366 429
#     4  12  25  43  72 103 144 191 238 293 353 432
#
# _framework density 23.350636000000002
#
# number of rings (size 3 to 8) (size 9 to 14) (size 15 to 20)
#    0.000    0.750    2.500    4.125    5.250    4.000 
#    0.000    1.875    0.000    0.000    0.000    0.000 
#    0.000    0.000    0.000    0.000    0.000    0.000 
#
# Total GULP energy -89272.638857 kJ/mol
# GULP energy per Si atom -5579.539929 kJ/mol
# Density = 2.329749 g / cm^3
# Si number density = 23.350636 Si / 1000 Ang^3
#
#
#
# Elastic Constant Matrix: (Units=GPa)
#
#
# Indices 1 2 3 4 5 6 
#
# 1 47.1691 30.1614 21.0550 -2.6296 -22.5105 -5.7901
# 2 30.1614 152.7038 38.4281 0.6952 -9.2421 24.9794
# 3 21.0550 38.4281 91.7245 8.8711 -3.6797 10.3224
# 4 -2.6296 0.6952 8.8711 49.0582 -1.9563 -9.1128
# 5 -22.5105 -9.2421 -3.6797 -1.9563 43.0978 -0.5233
# 6 -5.7901 24.9794 10.3224 -9.1128 -0.5233 20.3499
#
#
#
# Elastic Compliance Matrix: (Units=1/GPa)
#
#
# Indices 1 2 3 4 5 6 
#
# 1 0.053724 -0.013479 -0.012180 0.014687 0.025346 0.045238
# 2 -0.013479 0.012335 0.000696 -0.005268 -0.004840 -0.021813
# 3 -0.012180 0.000696 0.015539 -0.006521 -0.005367 -0.015261
# 4 0.014687 -0.005268 -0.006521 0.027655 0.007562 0.026532
# 5 0.025346 -0.004840 -0.005367 0.007562 0.035534 0.020175
# 6 0.045238 -0.021813 -0.015261 0.026532 0.020175 0.108928
#
#
# Mechanical properties :
#
#
# Convention : Reuss Voigt Hill
#
# Bulk Modulus (GPa) = 31.57252 52.32071 41.94662
# Shear Modulus (GPa) = 15.91358 35.96471 25.93914
#
# Velocity S-wave (km/s) = 2.61340 3.92880 3.33656
# Velocity P-wave (km/s) = 4.75992 6.56017 5.73117
#
# Compressibility (1/GPa) = 0.03167311
#
# Stress axis : x y z
#
# Youngs Moduli (GPa) = 18.61378 81.07018 64.35413
#
# Poissons Ratio (x) = 1.09276 0.78381
# Poissons Ratio (y) = 0.25090 -0.04482
# Poissons Ratio (z) = 0.22671 -0.05646
#
# Static dielectric constant tensor:
#      x y z
#    x 1.947730 0.022940 -0.038690 
#    y 0.022940 1.888030 -0.036380 
#    z -0.038690 -0.036380 1.901750 
# 
# From -- ./inp_files/315276.got.cif
#   From: 2010.05.17/outbox.cif.g08.bks.cpg/sg2_158_cif.got.tgz:315276.got - 2010.06.03 11:33:40.
