data_PCOD9051643
_publ_section_title
;
Structure prediction by ZEFSAII (Michael W. Deem and Ramdas Pophale) SiO2 
 PCOD9051643
Probable space group: P -1
;
_chemical_formula_sum "Si O2"
_cell_formula_units_Z 11
_cell_length_a 8.937072
_cell_length_b 9.161686
_cell_length_c 11.176092
_cell_angle_alpha 81.981296
_cell_angle_beta 92.809884
_cell_angle_gamma 31.457317
_cell_volume 447.186639
_symmetry_space_group_name_H-M "P -1"
_symmetry_group_IT_number 2
_symmetry_cell_setting 'triclinic'
loop_
_space_group_symop_operation_xyz
x,y,z
-x,-y,-z
loop_
_atom_site_type_symbol
_atom_site_label
_atom_site_fract_x
_atom_site_fract_y
_atom_site_fract_z
Si Si1 0.747203 0.093756 0.449428
Si Si2 0.643892 0.684039 0.052149
Si Si3 0.133048 0.740577 0.291121
Si Si4 0.500000 0.000000 0.500000
Si Si5 0.933952 0.936990 0.902523
Si Si6 0.207911 0.382696 0.199543
O O1 0.415471 0.445590 0.415457
O O2 0.737132 0.941102 0.525138
O O3 0.000000 0.000000 0.500000
O O4 0.824047 0.003732 0.322615
O O5 0.326210 0.950011 0.076295
O O6 0.897410 0.559672 0.145259
O O7 0.628359 0.753281 0.907151
O O8 0.772390 0.407006 0.081933
O O9 0.184023 0.861030 0.233165
O O10 0.128050 0.619847 0.203637
O O11 0.379470 0.166226 0.345341
O O12 0.000000 0.000000 0.000000
#
# Coordination Sequence:
#
# PCOD9051643 Si02
#       6
#     2   2   2   1   2   2
#     4  11  26  48  71 107 142 196 240 304 355 449
#     4  11  26  45  73 105 145 186 247 288 366 429
#     4  11  25  45  73 101 147 179 246 299 367 419
#     4  10  26  44  76 100 150 188 242 294 372 412
#     4  12  25  43  74 104 141 192 234 306 358 433
#     4  10  25  47  70 107 144 192 236 306 352 441
#
# _framework density 24.598230999999998
#
# number of rings (size 3 to 8) (size 9 to 14) (size 15 to 20)
#    0.000    1.091    1.818    2.182   10.182    8.727 
#    0.000    0.000    0.000    0.000    0.000    0.000 
#    0.000    0.000    0.000    0.000    0.000    0.000 
#
# Total GULP energy -61316.750098 kJ/mol
# GULP energy per Si atom -5574.250009 kJ/mol
# Density = 2.454224 g / cm^3
# Si number density = 24.598231 Si / 1000 Ang^3
#
#
#
# Elastic Constant Matrix: (Units=GPa)
#
#
# Indices 1 2 3 4 5 6 
#
# 1 172.2974 9.4433 45.8832 2.2628 -10.8664 -1.1699
# 2 9.4433 65.6383 4.4455 7.8939 -3.5982 0.4892
# 3 45.8832 4.4455 125.6189 -8.9652 -21.8180 -2.9555
# 4 2.2628 7.8939 -8.9652 17.8446 -1.4294 0.2657
# 5 -10.8664 -3.5982 -21.8180 -1.4294 54.3836 2.1794
# 6 -1.1699 0.4892 -2.9555 0.2657 2.1794 41.2351
#
#
#
# Elastic Compliance Matrix: (Units=1/GPa)
#
#
# Indices 1 2 3 4 5 6 
#
# 1 0.006525 -0.000543 -0.002451 -0.001800 0.000237 0.000015
# 2 -0.000543 0.016302 -0.000844 -0.007528 0.000443 -0.000244
# 3 -0.002451 -0.000844 0.009944 0.005961 0.003583 0.000425
# 4 -0.001800 -0.007528 0.005961 0.062849 0.003190 -0.000108
# 5 0.000237 0.000443 0.003583 0.003190 0.020019 -0.000820
# 6 0.000015 -0.000244 0.000425 -0.000108 -0.000820 0.024329
#
#
# Mechanical properties :
#
#
# Convention : Reuss Voigt Hill
#
# Bulk Modulus (GPa) = 39.85262 53.67763 46.76513
# Shear Modulus (GPa) = 32.04934 42.94483 37.49709
#
# Velocity S-wave (km/s) = 3.61350 4.18287 3.90857
# Velocity P-wave (km/s) = 5.80056 6.72292 6.27870
#
# Compressibility (1/GPa) = 0.02509246
#
# Stress axis : x y z
#
# Youngs Moduli (GPa) = 153.25437 61.34299 100.56803
#
# Poissons Ratio (x) = 0.03334 0.24650
# Poissons Ratio (y) = 0.08329 0.08492
# Poissons Ratio (z) = 0.37564 0.05180
#
# Static dielectric constant tensor:
#      x y z
#    x 1.948140 0.060670 0.088380 
#    y 0.060670 1.894340 -0.017430 
#    z 0.088380 -0.017430 1.929830 
# 
# From -- ./inp_files/130368.got.cif
#   From: 2010.05.17/outbox.cif.g08.bks.cpg/sg2_66_cif.got.tgz:130368.got - 2010.06.03 11:33:40.
