data_PCOD9051037
_publ_section_title
;
Structure prediction by ZEFSAII (Michael W. Deem and Ramdas Pophale) SiO2 
 PCOD9051037
Probable space group: P -1
;
_chemical_formula_sum "Si O2"
_cell_formula_units_Z 14
_cell_length_a 15.805326
_cell_length_b 16.019105
_cell_length_c 7.795753
_cell_angle_alpha 111.942979
_cell_angle_beta 50.748410
_cell_angle_gamma 152.163701
_cell_volume 612.245712
_symmetry_space_group_name_H-M "P -1"
_symmetry_group_IT_number 2
_symmetry_cell_setting 'triclinic'
loop_
_space_group_symop_operation_xyz
x,y,z
-x,-y,-z
loop_
_atom_site_type_symbol
_atom_site_label
_atom_site_fract_x
_atom_site_fract_y
_atom_site_fract_z
Si Si1 0.218732 0.483563 0.505630
Si Si2 0.724668 0.582661 0.940521
Si Si3 0.235063 0.875784 0.580936
Si Si4 0.706035 0.763459 0.239280
Si Si5 0.712577 0.033657 0.808746
Si Si6 0.652632 0.235337 0.606060
Si Si7 0.747024 0.848456 0.625125
O O1 0.217436 0.397686 0.313178
O O2 0.487473 0.672858 0.401276
O O3 0.215709 0.574267 0.473835
O O4 0.946745 0.263310 0.772222
O O5 0.981719 0.745754 0.831887
O O6 0.651886 0.629263 0.114091
O O7 0.491390 0.345282 0.098499
O O8 0.325994 0.954807 0.325495
O O9 0.177629 0.728121 0.576098
O O10 0.445834 0.063306 0.589410
O O11 0.695784 0.752720 0.447900
O O12 0.000000 0.000000 0.000000
O O13 0.768532 0.969805 0.655671
O O14 0.487431 0.865768 0.107691
O O15 0.000000 0.000000 0.500000
#
# Coordination Sequence:
#
# PCOD9051037 Si02
#       7
#     2   2   2   2   2   2   2
#     4  11  23  43  68 100 131 177 225 271 340 399
#     4  11  23  41  65  97 135 175 219 276 333 397
#     4  10  25  45  68 101 132 178 228 274 337 397
#     4  12  24  40  66  95 138 172 218 282 331 401
#     4  11  24  44  68 100 135 174 227 276 333 400
#     4  11  23  47  71  95 139 176 224 283 331 395
#     4  12  25  41  64 100 132 178 224 268 338 405
#
# _framework density 22.866634999999999
#
# number of rings (size 3 to 8) (size 9 to 14) (size 15 to 20)
#    0.000    0.857    1.429    6.429    4.000    2.286 
#    2.571    1.429    0.000    0.000    0.000    0.000 
#    0.000    0.000    0.000    0.000    0.000    0.000 
#
# Total GULP energy -78231.982615 kJ/mol
# GULP energy per Si atom -5587.998758 kJ/mol
# Density = 2.281459 g / cm^3
# Si number density = 22.866635 Si / 1000 Ang^3
#
#
#
# Elastic Constant Matrix: (Units=GPa)
#
#
# Indices 1 2 3 4 5 6 
#
# 1 85.0038 19.3671 -18.3471 4.5109 -16.0060 -11.3804
# 2 19.3671 72.4645 -9.2029 -4.9068 0.1921 -22.3282
# 3 -18.3471 -9.2029 21.5296 -6.8975 8.2360 -15.8248
# 4 4.5109 -4.9068 -6.8975 42.5373 -7.9030 1.9669
# 5 -16.0060 0.1921 8.2360 -7.9030 27.7628 1.6821
# 6 -11.3804 -22.3282 -15.8248 1.9669 1.6821 49.4591
#
#
#
# Elastic Compliance Matrix: (Units=1/GPa)
#
#
# Indices 1 2 3 4 5 6 
#
# 1 0.019705 0.003346 0.029375 0.002819 0.002502 0.015246
# 2 0.003346 0.025356 0.036575 0.005734 -0.008918 0.023995
# 3 0.029375 0.036575 0.159013 0.017889 -0.029909 0.074454
# 4 0.002819 0.005734 0.017889 0.027066 0.003513 0.007765
# 5 0.002502 -0.008918 -0.029909 0.003513 0.048293 -0.014802
# 6 0.015246 0.023995 0.074454 0.007765 -0.014802 0.058576
#
#
# Mechanical properties :
#
#
# Convention : Reuss Voigt Hill
#
# Bulk Modulus (GPa) = 2.91830 18.07024 10.49427
# Shear Modulus (GPa) = 15.94202 36.43058 26.18630
#
# Velocity S-wave (km/s) = 2.64327 3.99579 3.38771
# Velocity P-wave (km/s) = 3.25497 5.40445 4.46110
#
# Compressibility (1/GPa) = 0.34266568
#
# Stress axis : x y z
#
# Youngs Moduli (GPa) = 50.74957 39.43862 6.28881
#
# Poissons Ratio (x) = -0.13197 -0.18473
# Poissons Ratio (y) = -0.16982 -0.23002
# Poissons Ratio (z) = -1.49076 -1.44248
#
# Static dielectric constant tensor:
#      x y z
#    x 1.859970 0.026390 -0.066830 
#    y 0.026390 1.894450 -0.040780 
#    z -0.066830 -0.040780 1.946630 
# 
# From -- ./inp_files/227340.got.cif
#   From: 2010.05.17/outbox.cif.g08.bks.cpg/sg2_114_cif.got.tgz:227340.got - 2010.06.03 11:33:40.
