data_PCOD9051933
_publ_section_title
;
Structure prediction by ZEFSAII (Michael W. Deem and Ramdas Pophale) SiO2 
 PCOD9051933
Probable space group: P -1
;
_chemical_formula_sum "Si O2"
_cell_formula_units_Z 13
_cell_length_a 12.466113
_cell_length_b 9.211226
_cell_length_c 6.684362
_cell_angle_alpha 113.607139
_cell_angle_beta 74.596205
_cell_angle_gamma 133.682741
_cell_volume 508.553090
_symmetry_space_group_name_H-M "P -1"
_symmetry_group_IT_number 2
_symmetry_cell_setting 'triclinic'
loop_
_space_group_symop_operation_xyz
x,y,z
-x,-y,-z
loop_
_atom_site_type_symbol
_atom_site_label
_atom_site_fract_x
_atom_site_fract_y
_atom_site_fract_z
Si Si1 0.457852 0.779140 0.957012
Si Si2 0.380241 0.225893 0.765915
Si Si3 0.156012 0.197162 0.137350
Si Si4 0.821610 0.337183 0.034944
Si Si5 0.500000 0.500000 0.500000
Si Si6 0.095246 0.447497 0.514686
Si Si7 0.166650 0.961385 0.355818
O O1 0.280574 0.631118 0.004382
O O2 0.479746 0.661910 0.714490
O O3 0.544694 0.817381 0.136965
O O4 0.500000 0.000000 0.000000
O O5 0.501855 0.421746 0.674527
O O6 0.265900 0.058856 0.558866
O O7 0.281604 0.255599 0.958093
O O8 0.152097 0.377954 0.288442
O O9 0.171876 0.122685 0.305501
O O10 0.000000 0.000000 0.000000
O O11 0.793543 0.354637 0.288475
O O12 0.778845 0.123284 0.866501
O O13 0.000000 0.500000 0.000000
O O14 0.000000 0.500000 0.500000
O O15 0.994283 0.241416 0.596698
#
# Coordination Sequence:
#
# PCOD9051933 Si02
#       7
#     2   2   2   2   1   2   2
#     4  12  29  53  85 119 170 222 280 352 423 511
#     4  12  28  51  82 120 166 218 285 344 423 507
#     4  12  25  47  83 116 160 217 273 340 417 493
#     4  10  25  48  78 114 160 205 273 338 411 487
#     4  12  30  54  76 122 164 222 288 334 422 502
#     4  11  25  45  75 120 164 207 263 342 416 494
#     4  11  25  48  78 120 159 208 276 338 423 492
#
# _framework density 25.562719999999999
#
# number of rings (size 3 to 8) (size 9 to 14) (size 15 to 20)
#    0.000    0.615    1.538    4.615    6.462    6.154 
#    2.769    0.000    0.000    0.000    0.000    0.000 
#    0.000    0.000    0.000    0.000    0.000    0.000 
#
# Total GULP energy -72478.692068 kJ/mol
# GULP energy per Si atom -5575.284005 kJ/mol
# Density = 2.550454 g / cm^3
# Si number density = 25.562720 Si / 1000 Ang^3
#
#
#
# Elastic Constant Matrix: (Units=GPa)
#
#
# Indices 1 2 3 4 5 6 
#
# 1 192.9660 62.2980 116.1881 7.9401 0.2627 -35.7213
# 2 62.2980 94.6416 96.8886 -10.9986 -11.0943 -31.3657
# 3 116.1881 96.8886 215.4923 23.6059 10.7451 -34.5251
# 4 7.9401 -10.9986 23.6059 65.7716 -11.0451 2.3517
# 5 0.2627 -11.0943 10.7451 -11.0451 39.6990 8.9131
# 6 -35.7213 -31.3657 -34.5251 2.3517 8.9131 44.8745
#
#
#
# Elastic Compliance Matrix: (Units=1/GPa)
#
#
# Indices 1 2 3 4 5 6 
#
# 1 0.008154 -0.000485 -0.003672 0.000152 0.000106 0.003297
# 2 -0.000485 0.032098 -0.015352 0.013285 0.015368 0.006489
# 3 -0.003672 -0.015352 0.015254 -0.009513 -0.011223 0.000811
# 4 0.000152 0.013285 -0.009513 0.023082 0.013095 -0.001722
# 5 0.000106 0.015368 -0.011223 0.013095 0.037499 -0.005943
# 6 0.003297 0.006489 0.000811 -0.001722 -0.005943 0.031339
#
#
# Mechanical properties :
#
#
# Convention : Reuss Voigt Hill
#
# Bulk Modulus (GPa) = 60.65039 117.09436 88.87237
# Shear Modulus (GPa) = 26.04974 45.25069 35.65022
#
# Velocity S-wave (km/s) = 3.19572 4.21192 3.73851
# Velocity P-wave (km/s) = 6.11510 8.34025 7.31281
#
# Compressibility (1/GPa) = 0.01648794
#
# Stress axis : x y z
#
# Youngs Moduli (GPa) = 122.64245 31.15451 65.55519
#
# Poissons Ratio (x) = 0.01512 0.24071
# Poissons Ratio (y) = 0.05952 1.00640
# Poissons Ratio (z) = 0.45032 0.47828
#
# Static dielectric constant tensor:
#      x y z
#    x 2.047600 0.116540 0.008940 
#    y 0.116540 2.160390 0.038370 
#    z 0.008940 0.038370 2.042530 
# 
# From -- ./inp_files/61184.got.cif
#   From: 2010.05.17/outbox.cif.g08.bks.cpg/sg2_31_cif.got.tgz:61184.got - 2010.06.03 11:33:40.
