data_PCOD9051469
_publ_section_title
;
Structure prediction by ZEFSAII (Michael W. Deem and Ramdas Pophale) SiO2 
 PCOD9051469
Probable space group: P -1
;
_chemical_formula_sum "Si O2"
_cell_formula_units_Z 13
_cell_length_a 14.844581
_cell_length_b 7.691191
_cell_length_c 9.054667
_cell_angle_alpha 39.087395
_cell_angle_beta 124.812532
_cell_angle_gamma 126.391849
_cell_volume 512.136371
_symmetry_space_group_name_H-M "P -1"
_symmetry_group_IT_number 2
_symmetry_cell_setting 'triclinic'
loop_
_space_group_symop_operation_xyz
x,y,z
-x,-y,-z
loop_
_atom_site_type_symbol
_atom_site_label
_atom_site_fract_x
_atom_site_fract_y
_atom_site_fract_z
Si Si1 0.961816 0.198096 0.524096
Si Si2 0.782064 0.533740 0.131230
Si Si3 0.336341 0.626477 0.179116
Si Si4 0.594695 0.416038 0.240466
Si Si5 0.525534 0.809639 0.435661
Si Si6 0.097892 0.427000 0.237338
Si Si7 0.000000 0.000000 0.000000
O O1 0.858676 0.325766 0.378302
O O2 0.053449 0.445313 0.350214
O O3 0.911225 0.907578 0.575226
O O4 0.023495 0.121800 0.773562
O O5 0.715002 0.600252 0.165884
O O6 0.867684 0.815299 0.952153
O O7 0.695618 0.376893 0.021214
O O8 0.444042 0.866202 0.192400
O O9 0.382180 0.346277 0.426129
O O10 0.222101 0.606943 0.179440
O O11 0.561176 0.401214 0.389242
O O12 0.587721 0.090926 0.400389
O O13 0.500000 0.500000 0.000000
O O14 0.000000 0.500000 0.000000
#
# Coordination Sequence:
#
# PCOD9051469 Si02
#       7
#     2   2   2   2   2   2   1
#     4  11  24  44  66  97 140 185 234 286 352 429
#     4  12  25  45  71  97 147 184 239 293 359 427
#     4  11  22  47  70 102 141 185 232 297 346 424
#     4  11  24  47  68 104 138 185 234 296 353 420
#     4  10  25  46  72 101 143 181 247 287 356 423
#     4  11  22  43  68 101 138 181 232 291 355 423
#     4  12  26  44  66 104 134 190 234 286 362 422
#
# _framework density 25.383863999999999
#
# number of rings (size 3 to 8) (size 9 to 14) (size 15 to 20)
#    0.000    0.923    4.615    1.385    2.154    0.615 
#    8.308    0.000    0.000    0.000    0.000    0.000 
#    0.000    0.000    0.000    0.000    0.000    0.000 
#
# Total GULP energy -72547.200523 kJ/mol
# GULP energy per Si atom -5580.553886 kJ/mol
# Density = 2.532609 g / cm^3
# Si number density = 25.383864 Si / 1000 Ang^3
#
#
#
# Elastic Constant Matrix: (Units=GPa)
#
#
# Indices 1 2 3 4 5 6 
#
# 1 158.4159 9.1017 45.6331 7.2922 -1.0730 27.2503
# 2 9.1017 55.0266 -5.5622 8.6678 2.1354 7.0931
# 3 45.6331 -5.5622 76.2048 22.3627 -27.9749 7.9380
# 4 7.2922 8.6678 22.3627 37.6390 -7.4279 -5.3750
# 5 -1.0730 2.1354 -27.9749 -7.4279 50.2074 1.3222
# 6 27.2503 7.0931 7.9380 -5.3750 1.3222 33.4183
#
#
#
# Elastic Compliance Matrix: (Units=1/GPa)
#
#
# Indices 1 2 3 4 5 6 
#
# 1 0.009089 -0.001522 -0.006426 0.001057 -0.003026 -0.005272
# 2 -0.001522 0.021206 0.006229 -0.008906 0.001383 -0.006226
# 3 -0.006426 0.006229 0.026798 -0.014388 0.012539 -0.005258
# 4 0.001057 -0.008906 -0.014388 0.038036 -0.002268 0.010653
# 5 -0.003026 0.001383 0.012539 -0.002268 0.026503 -0.002218
# 6 -0.005272 -0.006226 -0.005258 0.010653 -0.002218 0.038594
#
#
# Mechanical properties :
#
#
# Convention : Reuss Voigt Hill
#
# Bulk Modulus (GPa) = 18.63751 43.11026 30.87389
# Shear Modulus (GPa) = 27.54074 40.28457 33.91265
#
# Velocity S-wave (km/s) = 3.29746 3.98806 3.65909
# Velocity P-wave (km/s) = 4.67503 6.18275 5.48098
#
# Compressibility (1/GPa) = 0.05365524
#
# Stress axis : x y z
#
# Youngs Moduli (GPa) = 110.02796 47.15580 37.31635
#
# Poissons Ratio (x) = 0.07179 0.23978
# Poissons Ratio (y) = 0.16750 -0.23245
# Poissons Ratio (z) = 0.70699 -0.29374
#
# Static dielectric constant tensor:
#      x y z
#    x 1.919520 0.132590 -0.192150 
#    y 0.132590 2.010420 0.238260 
#    z -0.192150 0.238260 1.676930 
# 
# From -- ./inp_files/23587.got.cif
#   From: 2010.05.17/outbox.cif.g08.bks.cpg/sg2_12_cif.got.tgz:23587.got - 2010.06.03 11:33:40.
