data_PCOD9051826
_publ_section_title
;
Structure prediction by ZEFSAII (Michael W. Deem and Ramdas Pophale) SiO2 
 PCOD9051826
Probable space group: P -1
;
_chemical_formula_sum "Si O2"
_cell_formula_units_Z 16
_cell_length_a 8.602316
_cell_length_b 15.863969
_cell_length_c 12.737401
_cell_angle_alpha 41.732406
_cell_angle_beta 105.344599
_cell_angle_gamma 73.427929
_cell_volume 735.554634
_symmetry_space_group_name_H-M "P -1"
_symmetry_group_IT_number 2
_symmetry_cell_setting 'triclinic'
loop_
_space_group_symop_operation_xyz
x,y,z
-x,-y,-z
loop_
_atom_site_type_symbol
_atom_site_label
_atom_site_fract_x
_atom_site_fract_y
_atom_site_fract_z
Si Si1 0.705267 0.037531 0.934383
Si Si2 0.258931 0.566795 0.149411
Si Si3 0.135554 0.323093 0.610024
Si Si4 0.964033 0.092171 0.070774
Si Si5 0.018366 0.521785 0.785409
Si Si6 0.487965 0.865335 0.670074
Si Si7 0.014732 0.763942 0.700482
Si Si8 0.300443 0.757088 0.596642
O O1 0.834901 0.833032 0.189330
O O2 0.804703 0.096170 0.965046
O O3 0.800103 0.001326 0.866536
O O4 0.415290 0.197763 0.749680
O O5 0.536705 0.407092 0.309307
O O6 0.179751 0.472327 0.252635
O O7 0.190529 0.699472 0.107851
O O8 0.101544 0.697741 0.896732
O O9 0.000000 0.500000 0.500000
O O10 0.991939 0.407365 0.395831
O O11 0.064739 0.955020 0.315203
O O12 0.968632 0.654778 0.742233
O O13 0.278288 0.304751 0.060305
O O14 0.460420 0.775790 0.658275
O O15 0.500000 0.000000 0.500000
O O16 0.235864 0.009734 0.555375
O O17 0.218336 0.712533 0.715417
#
# Coordination Sequence:
#
# PCOD9051826 Si02
#       8
#     2   2   2   2   2   2   2   2
#     4  10  25  48  70 102 133 175 232 290 336 401
#     4  12  24  42  67  96 139 183 223 271 340 406
#     4  11  25  47  74 101 135 175 231 285 343 398
#     4  11  24  45  72  96 137 180 225 279 346 397
#     4  12  25  43  69 101 136 180 229 277 336 410
#     4  12  24  42  67  95 139 183 221 269 338 408
#     4  12  25  42  65 100 142 182 223 275 335 402
#     4  12  25  41  65 102 139 177 224 280 331 410
#
# _framework density 21.752292000000001
#
# number of rings (size 3 to 8) (size 9 to 14) (size 15 to 20)
#    0.000    0.500    3.750    4.125    0.000    6.000 
#    0.000    3.125    0.000    0.000    0.000    0.000 
#    0.000    0.000    0.000    0.000    0.000    0.000 
#
# Total GULP energy -89612.907128 kJ/mol
# GULP energy per Si atom -5600.806696 kJ/mol
# Density = 2.170278 g / cm^3
# Si number density = 21.752292 Si / 1000 Ang^3
#
#
#
# Elastic Constant Matrix: (Units=GPa)
#
#
# Indices 1 2 3 4 5 6 
#
# 1 72.4636 37.7678 -1.3292 -10.4777 -11.2408 2.3514
# 2 37.7678 123.6260 17.6442 -29.0844 -10.2480 11.9253
# 3 -1.3292 17.6442 83.6266 -7.0540 -10.2883 -3.4870
# 4 -10.4777 -29.0844 -7.0540 38.3231 -9.6208 0.1842
# 5 -11.2408 -10.2480 -10.2883 -9.6208 24.1396 0.2410
# 6 2.3514 11.9253 -3.4870 0.1842 0.2410 28.1210
#
#
#
# Elastic Compliance Matrix: (Units=1/GPa)
#
#
# Indices 1 2 3 4 5 6 
#
# 1 0.018177 -0.004010 0.002786 0.004924 0.009908 0.000409
# 2 -0.004010 0.013112 -0.001263 0.010507 0.007403 -0.005514
# 3 0.002786 -0.001263 0.013751 0.004426 0.008367 0.001907
# 4 0.004924 0.010507 0.004426 0.042706 0.025708 -0.004819
# 5 0.009908 0.007403 0.008367 0.025708 0.063030 -0.003639
# 6 0.000409 -0.005514 0.001907 -0.004819 -0.003639 0.038164
#
#
# Mechanical properties :
#
#
# Convention : Reuss Voigt Hill
#
# Bulk Modulus (GPa) = 24.95910 43.09796 34.02853
# Shear Modulus (GPa) = 24.12321 33.15897 28.64109
#
# Velocity S-wave (km/s) = 3.33377 3.90858 3.63256
# Velocity P-wave (km/s) = 5.13009 6.34235 5.76816
#
# Compressibility (1/GPa) = 0.04006555
#
# Stress axis : x y z
#
# Youngs Moduli (GPa) = 55.01448 76.26698 72.72279
#
# Poissons Ratio (x) = 0.30587 -0.20264
# Poissons Ratio (y) = 0.22063 0.09185
# Poissons Ratio (z) = -0.15329 0.09633
#
# Static dielectric constant tensor:
#      x y z
#    x 1.788570 -0.007370 0.006350 
#    y -0.007370 1.768240 -0.013760 
#    z 0.006350 -0.013760 1.787190 
# 
# From -- ./inp_files/398623.got.cif
#   From: 2010.05.17/outbox.cif.g08.bks.cpg/sg2_200_cif.got.tgz:398623.got - 2010.06.03 11:33:40.
