data_PCOD9051124
_publ_section_title
;
Structure prediction by ZEFSAII (Michael W. Deem and Ramdas Pophale) SiO2 
 PCOD9051124
Probable space group: P -1
;
_chemical_formula_sum "Si O2"
_cell_formula_units_Z 13
_cell_length_a 10.207198
_cell_length_b 13.184780
_cell_length_c 6.117646
_cell_angle_alpha 73.912827
_cell_angle_beta 79.668115
_cell_angle_gamma 132.242395
_cell_volume 502.343745
_symmetry_space_group_name_H-M "P -1"
_symmetry_group_IT_number 2
_symmetry_cell_setting 'triclinic'
loop_
_space_group_symop_operation_xyz
x,y,z
-x,-y,-z
loop_
_atom_site_type_symbol
_atom_site_label
_atom_site_fract_x
_atom_site_fract_y
_atom_site_fract_z
Si Si1 0.336683 0.425879 0.280821
Si Si2 0.000000 0.000000 0.000000
Si Si3 0.972700 0.102539 0.351511
Si Si4 0.543554 0.696214 0.384804
Si Si5 0.798675 0.252384 0.773483
Si Si6 0.860058 0.462208 0.256566
Si Si7 0.570103 0.962065 0.693771
O O1 0.406859 0.574220 0.293106
O O2 0.359525 0.345392 0.495439
O O3 0.112160 0.273068 0.332319
O O4 0.500000 0.500000 0.000000
O O5 0.044967 0.128153 0.069310
O O6 0.251378 0.118721 0.859343
O O7 0.735088 0.985193 0.523849
O O8 0.000000 0.000000 0.500000
O O9 0.376599 0.646029 0.631176
O O10 0.844188 0.361361 0.502213
O O11 0.696386 0.093586 0.775175
O O12 0.005539 0.361126 0.785255
O O13 0.634243 0.200255 0.025931
O O14 0.000000 0.500000 0.000000
O O15 0.500000 0.000000 0.500000
#
# Coordination Sequence:
#
# PCOD9051124 Si02
#       7
#     2   1   2   2   2   2   2
#     4  11  24  45  67 101 139 190 227 290 360 419
#     4  12  26  44  72 108 132 186 238 300 352 424
#     4  12  27  45  71 105 144 187 237 293 357 424
#     4  11  26  44  71 103 140 181 240 294 353 429
#     4  10  25  45  70 103 135 191 236 283 356 430
#     4  11  25  45  70 102 141 185 236 294 353 420
#     4  11  26  46  72 104 144 186 235 296 356 423
#
# _framework density 25.878695
#
# number of rings (size 3 to 8) (size 9 to 14) (size 15 to 20)
#    0.000    0.923    3.077    1.846    6.462    6.154 
#    0.000    0.000    0.000    0.000    0.000    0.000 
#    0.000    0.000    0.000    0.000    0.000    0.000 
#
# Total GULP energy -72499.424632 kJ/mol
# GULP energy per Si atom -5576.878818 kJ/mol
# Density = 2.581979 g / cm^3
# Si number density = 25.878695 Si / 1000 Ang^3
#
#
#
# Elastic Constant Matrix: (Units=GPa)
#
#
# Indices 1 2 3 4 5 6 
#
# 1 106.3973 19.2979 56.5257 -7.4016 -35.1880 16.5965
# 2 19.2979 177.8180 34.8640 -1.5150 -25.0423 38.2028
# 3 56.5257 34.8640 195.4320 -1.4181 -45.1868 13.6086
# 4 -7.4016 -1.5150 -1.4181 38.4419 0.8133 -15.4163
# 5 -35.1880 -25.0423 -45.1868 0.8133 57.8719 -16.0081
# 6 16.5965 38.2028 13.6086 -15.4163 -16.0081 29.5724
#
#
#
# Elastic Compliance Matrix: (Units=1/GPa)
#
#
# Indices 1 2 3 4 5 6 
#
# 1 0.012909 0.000590 -0.002369 0.000852 0.005236 -0.003638
# 2 0.000590 0.008640 -0.000861 -0.005185 -0.000376 -0.014002
# 3 -0.002369 -0.000861 0.006747 0.000325 0.003897 0.001616
# 4 0.000852 -0.005185 0.000325 0.037410 0.005970 0.028805
# 5 0.005236 -0.000376 0.003897 0.005970 0.026987 0.013474
# 6 -0.003638 -0.014002 0.001616 0.028805 0.013474 0.075512
#
#
# Mechanical properties :
#
#
# Convention : Reuss Voigt Hill
#
# Bulk Modulus (GPa) = 43.45058 77.89138 60.67098
# Shear Modulus (GPa) = 27.60058 49.77455 38.68756
#
# Velocity S-wave (km/s) = 3.26933 4.39039 3.87066
# Velocity P-wave (km/s) = 5.57476 7.47427 6.59328
#
# Compressibility (1/GPa) = 0.02301465
#
# Stress axis : x y z
#
# Youngs Moduli (GPa) = 77.46747 115.74353 148.22408
#
# Poissons Ratio (x) = -0.06826 0.35108
# Poissons Ratio (y) = -0.04569 0.12767
# Poissons Ratio (z) = 0.18349 0.09969
#
# Static dielectric constant tensor:
#      x y z
#    x 2.299700 -0.130400 0.173640 
#    y -0.130400 2.181900 -0.068660 
#    z 0.173640 -0.068660 2.166870 
# 
# From -- ./inp_files/76095.got.cif
#   From: 2010.05.17/outbox.cif.g08.bks.cpg/sg2_39_cif.got.tgz:76095.got - 2010.06.03 11:33:40.
