data_PCOD9051176
_publ_section_title
;
Structure prediction by ZEFSAII (Michael W. Deem and Ramdas Pophale) SiO2 
 PCOD9051176
Probable space group: P -1
;
_chemical_formula_sum "Si O2"
_cell_formula_units_Z 10
_cell_length_a 16.174869
_cell_length_b 15.225266
_cell_length_c 5.551993
_cell_angle_alpha 99.223086
_cell_angle_beta 102.936885
_cell_angle_gamma 18.871743
_cell_volume 425.214341
_symmetry_space_group_name_H-M "P -1"
_symmetry_group_IT_number 2
_symmetry_cell_setting 'triclinic'
loop_
_space_group_symop_operation_xyz
x,y,z
-x,-y,-z
loop_
_atom_site_type_symbol
_atom_site_label
_atom_site_fract_x
_atom_site_fract_y
_atom_site_fract_z
Si Si1 0.710860 0.486904 0.665193
Si Si2 0.068944 0.596013 0.907627
Si Si3 0.468244 0.977348 0.220354
Si Si4 0.129126 0.035978 0.334148
Si Si5 0.656658 0.359836 0.795146
O O1 0.423231 0.768185 0.490368
O O2 0.714260 0.407512 0.838505
O O3 0.929889 0.238107 0.513409
O O4 0.780909 0.516385 0.809067
O O5 0.294123 0.329912 0.771952
O O6 0.823118 0.775662 0.866364
O O7 0.948348 0.806620 0.819144
O O8 0.500000 0.000000 0.500000
O O9 0.500000 0.000000 0.000000
O O10 0.136792 0.926215 0.204278
O O11 0.500000 0.500000 0.500000
O O12 0.500000 0.500000 0.000000
#
# Coordination Sequence:
#
# PCOD9051176 Si02
#       5
#     2   2   2   2   2
#     4  11  26  46  74 110 154 199 254 304 361 440
#     4  12  28  47  84 108 148 196 248 313 374 450
#     4  12  30  54  80 111 150 191 244 314 394 460
#     4  11  26  46  74 110 154 199 254 304 361 440
#     4  10  25  45  71 107 158 206 248 301 363 425
#
# _framework density 23.517551999999998
#
# number of rings (size 3 to 8) (size 9 to 14) (size 15 to 20)
#    0.000    0.800    0.000    4.200   22.400    0.800 
#    0.000    0.000    0.000    0.000    0.000    0.000 
#    0.000    0.000    0.000    0.000    0.000    0.000 
#
# Total GULP energy -55954.266470 kJ/mol
# GULP energy per Si atom -5595.426647 kJ/mol
# Density = 2.346402 g / cm^3
# Si number density = 23.517552 Si / 1000 Ang^3
#
#
#
# Elastic Constant Matrix: (Units=GPa)
#
#
# Indices 1 2 3 4 5 6 
#
# 1 102.9863 31.5760 64.3699 -5.4234 34.4061 -24.2148
# 2 31.5760 162.4305 49.3452 5.9226 34.0900 -13.8808
# 3 64.3699 49.3452 132.0128 20.7111 24.5873 -11.7268
# 4 -5.4234 5.9226 20.7111 59.0030 10.2586 -3.3203
# 5 34.4061 34.0900 24.5873 10.2586 61.2726 0.0375
# 6 -24.2148 -13.8808 -11.7268 -3.3203 0.0375 61.4395
#
#
#
# Elastic Compliance Matrix: (Units=1/GPa)
#
#
# Indices 1 2 3 4 5 6 
#
# 1 0.020081 0.001131 -0.008922 0.006898 -0.009484 0.006846
# 2 0.001131 0.007710 -0.002699 0.001074 -0.004022 0.001733
# 3 -0.008922 -0.002699 0.013257 -0.005683 0.002144 -0.001904
# 4 0.006898 0.001074 -0.005683 0.020619 -0.005645 0.002995
# 5 -0.009484 -0.004022 0.002144 -0.005645 0.023971 -0.004557
# 6 0.006846 0.001733 -0.001904 0.002995 -0.004557 0.019167
#
#
# Mechanical properties :
#
#
# Convention : Reuss Voigt Hill
#
# Bulk Modulus (GPa) = 49.83007 76.44575 63.13791
# Shear Modulus (GPa) = 37.74298 53.15226 45.44762
#
# Velocity S-wave (km/s) = 4.01045 4.75922 4.40079
# Velocity P-wave (km/s) = 6.53295 7.92317 7.26141
#
# Compressibility (1/GPa) = 0.02006820
#
# Stress axis : x y z
#
# Youngs Moduli (GPa) = 49.79748 129.70900 75.43069
#
# Poissons Ratio (x) = -0.14666 0.67300
# Poissons Ratio (y) = -0.05630 0.20355
# Poissons Ratio (z) = 0.44430 0.35002
#
# Static dielectric constant tensor:
#      x y z
#    x 1.909360 0.025250 0.008110 
#    y 0.025250 1.871720 -0.086750 
#    z 0.008110 -0.086750 1.972690 
# 
# From -- ./inp_files/2756.got.cif
#   From: 2010.05.17/outbox.cif.g08.bks.cpg/sg2_2_cif.got.tgz:2756.got - 2010.06.03 11:33:40.
