data_PCOD9051728
_publ_section_title
;
Structure prediction by ZEFSAII (Michael W. Deem and Ramdas Pophale) SiO2 
 PCOD9051728
Probable space group: P -1
;
_chemical_formula_sum "Si O2"
_cell_formula_units_Z 12
_cell_length_a 4.689916
_cell_length_b 11.261212
_cell_length_c 9.494173
_cell_angle_alpha 56.986421
_cell_angle_beta 73.427794
_cell_angle_gamma 85.464653
_cell_volume 401.179789
_symmetry_space_group_name_H-M "P -1"
_symmetry_group_IT_number 2
_symmetry_cell_setting 'triclinic'
loop_
_space_group_symop_operation_xyz
x,y,z
-x,-y,-z
loop_
_atom_site_type_symbol
_atom_site_label
_atom_site_fract_x
_atom_site_fract_y
_atom_site_fract_z
Si Si1 0.226066 0.513928 0.133527
Si Si2 0.628523 0.337567 0.330804
Si Si3 0.202457 0.647842 0.385117
Si Si4 0.536658 0.762826 0.051200
Si Si5 0.206835 0.106892 0.805593
Si Si6 0.922096 0.084760 0.313566
O O1 0.305075 0.380865 0.307804
O O2 0.261270 0.685844 0.047408
O O3 0.891427 0.461706 0.175238
O O4 0.500000 0.500000 0.000000
O O5 0.662194 0.312403 0.507991
O O6 0.713724 0.201180 0.322195
O O7 0.484932 0.624012 0.254702
O O8 0.000000 0.500000 0.500000
O O9 0.978332 0.760979 0.290534
O O10 0.539619 0.858394 0.132000
O O11 0.786429 0.833862 0.864191
O O12 0.244667 0.021186 0.711166
O O13 0.000000 0.000000 0.000000
O O14 0.000000 0.000000 0.500000
#
# Coordination Sequence:
#
# PCOD9051728 Si02
#       6
#     2   2   2   2   2   2
#     4  12  26  48  80 116 158 202 262 335 403 463
#     4  12  27  47  79 116 156 204 266 327 397 473
#     4  12  25  45  77 113 155 199 266 328 396 464
#     4  11  26  45  79 108 155 204 259 327 399 464
#     4  10  25  47  73 109 160 202 265 313 404 466
#     4  11  24  50  74 110 157 209 269 319 393 483
#
# _framework density 29.911778000000002
#
# number of rings (size 3 to 8) (size 9 to 14) (size 15 to 20)
#    0.000    0.667    5.000    1.500    2.333    5.333 
#    3.000    1.667    0.000    0.000    0.000    0.000 
#    0.000    0.000    0.000    0.000    0.000    0.000 
#
# Total GULP energy -66922.785816 kJ/mol
# GULP energy per Si atom -5576.898818 kJ/mol
# Density = 2.984370 g / cm^3
# Si number density = 29.911778 Si / 1000 Ang^3
#
#
#
# Elastic Constant Matrix: (Units=GPa)
#
#
# Indices 1 2 3 4 5 6 
#
# 1 188.3003 82.2873 56.7581 -8.4297 15.6369 1.9868
# 2 82.2873 209.7762 48.2139 2.4890 17.3386 -15.6439
# 3 56.7581 48.2139 214.9211 26.4313 -2.8360 -23.1784
# 4 -8.4297 2.4890 26.4313 55.8567 2.8351 -10.0314
# 5 15.6369 17.3386 -2.8360 2.8351 66.7283 -6.0734
# 6 1.9868 -15.6439 -23.1784 -10.0314 -6.0734 35.1051
#
#
#
# Elastic Compliance Matrix: (Units=1/GPa)
#
#
# Indices 1 2 3 4 5 6 
#
# 1 0.007163 -0.002478 -0.001829 0.001683 -0.001410 -0.002480
# 2 -0.002478 0.006093 -0.000468 0.000052 -0.000804 0.002422
# 3 -0.001829 -0.000468 0.005923 -0.002528 0.001209 0.003292
# 4 0.001683 0.000052 -0.002528 0.020089 -0.001021 0.003823
# 5 -0.001410 -0.000804 0.001209 -0.001021 0.015891 0.002977
# 6 -0.002480 0.002422 0.003292 0.003823 0.002977 0.033487
#
#
# Mechanical properties :
#
#
# Convention : Reuss Voigt Hill
#
# Bulk Modulus (GPa) = 103.85364 109.72400 106.78882
# Shear Modulus (GPa) = 49.30641 59.92056 54.61348
#
# Velocity S-wave (km/s) = 4.06445 4.48062 4.27760
# Velocity P-wave (km/s) = 7.53801 7.97057 7.75731
#
# Compressibility (1/GPa) = 0.00962894
#
# Stress axis : x y z
#
# Youngs Moduli (GPa) = 139.59800 164.11987 168.83847
#
# Poissons Ratio (x) = 0.40669 0.30880
# Poissons Ratio (y) = 0.34592 0.07906
# Poissons Ratio (z) = 0.25532 0.07685
#
# Static dielectric constant tensor:
#      x y z
#    x 4.392460 2.335440 0.049770 
#    y 2.335440 5.039890 0.132750 
#    z 0.049770 0.132750 2.964210 
# 
# From -- ./inp_files/66018.got.cif
#   From: 2010.05.17/outbox.cif.g08.bks.cpg/sg2_34_cif.got.tgz:66018.got - 2010.06.03 11:33:40.
