data_PCOD9051893
_publ_section_title
;
Structure prediction by ZEFSAII (Michael W. Deem and Ramdas Pophale) SiO2 
 PCOD9051893
Probable space group: P -1
;
_chemical_formula_sum "Si O2"
_cell_formula_units_Z 16
_cell_length_a 9.173811
_cell_length_b 8.260132
_cell_length_c 21.210162
_cell_angle_alpha 58.785257
_cell_angle_beta 30.691829
_cell_angle_gamma 58.048955
_cell_volume 688.636177
_symmetry_space_group_name_H-M "P -1"
_symmetry_group_IT_number 2
_symmetry_cell_setting 'triclinic'
loop_
_space_group_symop_operation_xyz
x,y,z
-x,-y,-z
loop_
_atom_site_type_symbol
_atom_site_label
_atom_site_fract_x
_atom_site_fract_y
_atom_site_fract_z
Si Si1 0.326403 0.535015 0.882698
Si Si2 0.607439 0.654450 0.640909
Si Si3 0.895969 0.980539 0.254882
Si Si4 0.663152 0.011609 0.797725
Si Si5 0.309651 0.445181 0.139547
Si Si6 0.976003 0.936049 0.949348
Si Si7 0.790157 0.272424 0.581309
Si Si8 0.660871 0.643591 0.373520
O O1 0.511815 0.509939 0.756252
O O2 0.533492 0.467096 0.877920
O O3 0.247826 0.764801 0.876199
O O4 0.000000 0.500000 0.000000
O O5 0.709823 0.504811 0.577133
O O6 0.865218 0.751412 0.553106
O O7 0.334145 0.819866 0.694387
O O8 0.742700 0.800456 0.359010
O O9 0.132245 0.986719 0.218671
O O10 0.010905 0.953989 0.144413
O O11 0.662065 0.787684 0.825568
O O12 0.750062 0.129705 0.682164
O O13 0.343909 0.112350 0.920379
O O14 0.964469 0.533829 0.251426
O O15 0.500000 0.500000 0.000000
O O16 0.000000 0.000000 0.000000
O O17 0.567369 0.245557 0.614812
O O18 0.500000 0.500000 0.500000
#
# Coordination Sequence:
#
# PCOD9051893 Si02
#       8
#     2   2   2   2   2   2   2   2
#     4  11  25  42  74 102 143 188 243 296 363 435
#     4  10  25  48  74 104 142 185 249 296 367 433
#     4  11  27  44  73 107 144 187 245 301 362 440
#     4  12  26  45  74 104 145 192 246 298 369 434
#     4  12  29  47  72 109 152 191 245 306 371 435
#     4  11  22  44  70 102 141 187 240 296 364 428
#     4  11  26  47  78 101 144 192 243 301 367 443
#     4  12  29  48  73 106 153 192 244 304 372 435
#
# _framework density 23.234328000000001
#
# number of rings (size 3 to 8) (size 9 to 14) (size 15 to 20)
#    0.000    0.750    1.250    4.125   17.500    1.000 
#    0.000    0.000    0.000    0.000    0.000    0.000 
#    0.000    0.000    0.000    0.000    0.000    0.000 
#
# Total GULP energy -89350.976744 kJ/mol
# GULP energy per Si atom -5584.436047 kJ/mol
# Density = 2.318145 g / cm^3
# Si number density = 23.234328 Si / 1000 Ang^3
#
#
#
# Elastic Constant Matrix: (Units=GPa)
#
#
# Indices 1 2 3 4 5 6 
#
# 1 171.3589 27.7280 59.7146 -5.3982 -31.3781 -15.5372
# 2 27.7280 78.1379 25.5331 -13.1205 3.6966 -4.0691
# 3 59.7146 25.5331 137.4507 -22.7878 -18.6262 -23.3721
# 4 -5.3982 -13.1205 -22.7878 37.6463 -2.7964 -5.2297
# 5 -31.3781 3.6966 -18.6262 -2.7964 36.2194 -3.1006
# 6 -15.5372 -4.0691 -23.3721 -5.2297 -3.1006 32.5158
#
#
#
# Elastic Compliance Matrix: (Units=1/GPa)
#
#
# Indices 1 2 3 4 5 6 
#
# 1 0.008403 -0.002564 -0.001624 0.000300 0.007007 0.003244
# 2 -0.002564 0.015053 -0.001823 0.003368 -0.004480 -0.000537
# 3 -0.001624 -0.001823 0.012270 0.008409 0.006577 0.009796
# 4 0.000300 0.003368 0.008409 0.035284 0.008082 0.013054
# 5 0.007007 -0.004480 0.006577 0.008082 0.039219 0.012555
# 6 0.003244 -0.000537 0.009796 0.013054 0.012555 0.042575
#
#
# Mechanical properties :
#
#
# Convention : Reuss Voigt Hill
#
# Bulk Modulus (GPa) = 42.18232 68.09986 55.14109
# Shear Modulus (GPa) = 28.94780 39.54108 34.24444
#
# Velocity S-wave (km/s) = 3.53357 4.12981 3.84327
# Velocity P-wave (km/s) = 5.90277 7.21901 6.59382
#
# Compressibility (1/GPa) = 0.02370662
#
# Stress axis : x y z
#
# Youngs Moduli (GPa) = 119.00507 66.43326 81.49807
#
# Poissons Ratio (x) = 0.17031 0.13231
# Poissons Ratio (y) = 0.30508 0.14853
# Poissons Ratio (z) = 0.19321 0.12108
#
# Static dielectric constant tensor:
#      x y z
#    x 1.963090 0.056900 0.000240 
#    y 0.056900 1.967700 -0.057030 
#    z 0.000240 -0.057030 1.951340 
# 
# From -- ./inp_files/226810.got.cif
#   From: 2010.05.17/outbox.cif.g08.bks.cpg/sg2_114_cif.got.tgz:226810.got - 2010.06.03 11:33:40.
