data_PCOD9051545
_publ_section_title
;
Structure prediction by ZEFSAII (Michael W. Deem and Ramdas Pophale) SiO2 
 PCOD9051545
Probable space group: P -1
;
_chemical_formula_sum "Si O2"
_cell_formula_units_Z 10
_cell_length_a 11.820953
_cell_length_b 7.150092
_cell_length_c 8.025733
_cell_angle_alpha 109.093362
_cell_angle_beta 53.590836
_cell_angle_gamma 71.231249
_cell_volume 379.047363
_symmetry_space_group_name_H-M "P -1"
_symmetry_group_IT_number 2
_symmetry_cell_setting 'triclinic'
loop_
_space_group_symop_operation_xyz
x,y,z
-x,-y,-z
loop_
_atom_site_type_symbol
_atom_site_label
_atom_site_fract_x
_atom_site_fract_y
_atom_site_fract_z
Si Si1 0.061981 0.219451 0.417600
Si Si2 0.537022 0.658405 0.393950
Si Si3 0.020720 0.695692 0.110510
Si Si4 0.762258 0.256641 0.497335
Si Si5 0.523300 0.137481 0.167150
O O1 0.000000 0.500000 0.500000
O O2 0.082003 0.205468 0.593072
O O3 0.897484 0.221277 0.510799
O O4 0.267071 0.972749 0.087055
O O5 0.500000 0.500000 0.500000
O O6 0.423713 0.711896 0.338618
O O7 0.472815 0.897882 0.645651
O O8 0.758560 0.467678 0.108847
O O9 0.906692 0.972467 0.190760
O O10 0.000000 0.500000 0.000000
O O11 0.666736 0.548033 0.597165
O O12 0.500000 0.000000 0.000000
#
# Coordination Sequence:
#
# PCOD9051545 Si02
#       5
#     2   2   2   2   2
#     4  12  27  48  75 109 150 198 248 308 375 441
#     4  10  25  46  74 110 146 195 248 302 373 436
#     4  12  29  48  74 114 149 194 253 304 371 440
#     4  11  25  46  76 100 157 188 247 307 366 433
#     4  11  23  44  73 109 144 197 247 295 375 440
#
# _framework density 26.381926
#
# number of rings (size 3 to 8) (size 9 to 14) (size 15 to 20)
#    0.000    0.800    2.000    4.200    5.600    8.000 
#    0.000    0.000    0.000    0.000    0.000    0.000 
#    0.000    0.000    0.000    0.000    0.000    0.000 
#
# Total GULP energy -55809.994320 kJ/mol
# GULP energy per Si atom -5580.999432 kJ/mol
# Density = 2.632188 g / cm^3
# Si number density = 26.381926 Si / 1000 Ang^3
#
#
#
# Elastic Constant Matrix: (Units=GPa)
#
#
# Indices 1 2 3 4 5 6 
#
# 1 198.0312 27.4386 44.7945 35.7350 -4.4920 9.2727
# 2 27.4386 92.9037 53.6604 20.3462 6.3792 8.7270
# 3 44.7945 53.6604 144.6981 9.6250 -15.6219 -4.8210
# 4 35.7350 20.3462 9.6250 43.6950 3.4197 5.9602
# 5 -4.4920 6.3792 -15.6219 3.4197 62.0506 14.8035
# 6 9.2727 8.7270 -4.8210 5.9602 14.8035 35.6667
#
#
#
# Elastic Compliance Matrix: (Units=1/GPa)
#
#
# Indices 1 2 3 4 5 6 
#
# 1 0.006347 0.000261 -0.001725 -0.004788 0.000595 -0.001394
# 2 0.000261 0.015729 -0.005855 -0.005690 -0.002067 -0.002899
# 3 -0.001725 -0.005855 0.009840 0.001514 0.002403 0.001961
# 4 -0.004788 -0.005690 0.001514 0.029413 -0.000563 -0.001840
# 5 0.000595 -0.002067 0.002403 -0.000563 0.018673 -0.006980
# 6 -0.001394 -0.002899 0.001961 -0.001840 -0.006980 0.032579
#
#
# Mechanical properties :
#
#
# Convention : Reuss Voigt Hill
#
# Bulk Modulus (GPa) = 57.87962 76.38000 67.12981
# Shear Modulus (GPa) = 37.60011 48.93176 43.26593
#
# Velocity S-wave (km/s) = 3.77931 4.31135 4.05406
# Velocity P-wave (km/s) = 6.40554 7.33472 6.88582
#
# Compressibility (1/GPa) = 0.01727724
#
# Stress axis : x y z
#
# Youngs Moduli (GPa) = 157.56447 63.57654 101.62240
#
# Poissons Ratio (x) = -0.01658 0.17531
# Poissons Ratio (y) = -0.04108 0.59500
# Poissons Ratio (z) = 0.27182 0.37224
#
# Static dielectric constant tensor:
#      x y z
#    x 2.153200 -0.096170 0.045340 
#    y -0.096170 2.492090 0.060920 
#    z 0.045340 0.060920 2.007130 
# 
# From -- ./inp_files/153486.got.cif
#   From: 2010.05.17/outbox.cif.g08.bks.cpg/sg2_77_cif.got.tgz:153486.got - 2010.06.03 11:33:40.
