data_PCOD9051558
_publ_section_title
;
Structure prediction by ZEFSAII (Michael W. Deem and Ramdas Pophale) SiO2 
 PCOD9051558
Probable space group: P -1
;
_chemical_formula_sum "Si O2"
_cell_formula_units_Z 10
_cell_length_a 4.731613
_cell_length_b 5.099078
_cell_length_c 18.809622
_cell_angle_alpha 109.272079
_cell_angle_beta 86.562568
_cell_angle_gamma 119.644608
_cell_volume 369.351996
_symmetry_space_group_name_H-M "P -1"
_symmetry_group_IT_number 2
_symmetry_cell_setting 'triclinic'
loop_
_space_group_symop_operation_xyz
x,y,z
-x,-y,-z
loop_
_atom_site_type_symbol
_atom_site_label
_atom_site_fract_x
_atom_site_fract_y
_atom_site_fract_z
Si Si1 0.299367 0.723178 0.644525
Si Si2 0.666746 0.248179 0.835424
Si Si3 0.699504 0.627238 0.732729
Si Si4 0.823143 0.799405 0.553975
Si Si5 0.219538 0.916570 0.940935
O O1 0.425580 0.499542 0.662160
O O2 0.662241 0.954706 0.623147
O O3 0.055621 0.698686 0.582672
O O4 0.062205 0.726505 0.710223
O O5 0.594750 0.378091 0.775823
O O6 0.000468 0.548744 0.886930
O O7 0.707691 0.945823 0.789413
O O8 0.386453 0.133530 0.888735
O O9 0.500000 0.500000 0.500000
O O10 0.000000 0.000000 0.500000
O O11 0.500000 0.000000 0.000000
O O12 0.000000 0.000000 0.000000
#
# Coordination Sequence:
#
# PCOD9051558 Si02
#       5
#     2   2   2   2   2
#     4  10  25  46  75 111 150 197 252 310 372 447
#     4  12  28  52  79 112 153 201 251 314 381 451
#     4  11  27  48  76 113 154 200 253 314 379 450
#     4  11  24  46  73 108 149 197 248 308 372 441
#     4  12  28  50  77 112 150 197 252 312 376 451
#
# _framework density 27.074441
#
# number of rings (size 3 to 8) (size 9 to 14) (size 15 to 20)
#    0.000    0.800    0.000    4.800    0.000   19.200 
#    0.000    0.000    0.000    0.000    0.000    0.000 
#    0.000    0.000    0.000    0.000    0.000    0.000 
#
# Total GULP energy -55956.289307 kJ/mol
# GULP energy per Si atom -5595.628931 kJ/mol
# Density = 2.701282 g / cm^3
# Si number density = 27.074441 Si / 1000 Ang^3
#
#
#
# Elastic Constant Matrix: (Units=GPa)
#
#
# Indices 1 2 3 4 5 6 
#
# 1 274.3043 77.0512 94.8120 -42.3137 -0.1495 15.2905
# 2 77.0512 187.4516 79.2325 -34.8623 -15.2164 27.4396
# 3 94.8120 79.2325 173.5525 -53.0329 -11.1465 18.3685
# 4 -42.3137 -34.8623 -53.0329 60.8739 20.3210 -0.8626
# 5 -0.1495 -15.2164 -11.1465 20.3210 56.6211 -8.7941
# 6 15.2905 27.4396 18.3685 -0.8626 -8.7941 46.6221
#
#
#
# Elastic Compliance Matrix: (Units=1/GPa)
#
#
# Indices 1 2 3 4 5 6 
#
# 1 0.004793 -0.000962 -0.001668 0.001750 -0.001289 -0.000559
# 2 -0.000962 0.007364 -0.001985 0.001598 0.000530 -0.003107
# 3 -0.001668 -0.001985 0.009755 0.006618 -0.001344 -0.002259
# 4 0.001750 0.001598 0.006618 0.027203 -0.008847 -0.005288
# 5 -0.001289 0.000530 -0.001344 -0.008847 0.021412 0.004516
# 6 -0.000559 -0.003107 -0.002259 -0.005288 0.004516 0.025105
#
#
# Mechanical properties :
#
#
# Convention : Reuss Voigt Hill
#
# Bulk Modulus (GPa) = 78.85789 126.38887 102.62338
# Shear Modulus (GPa) = 45.83358 58.43759 52.13559
#
# Velocity S-wave (km/s) = 4.11892 4.65090 4.39297
# Velocity P-wave (km/s) = 7.19793 8.69624 7.98232
#
# Compressibility (1/GPa) = 0.01268104
#
# Stress axis : x y z
#
# Youngs Moduli (GPa) = 208.64623 135.78717 102.51643
#
# Poissons Ratio (x) = 0.13069 0.17099
# Poissons Ratio (y) = 0.20082 0.20350
# Poissons Ratio (z) = 0.34800 0.26954
#
# Static dielectric constant tensor:
#      x y z
#    x 2.051690 -0.052110 -0.082910 
#    y -0.052110 2.219540 0.191460 
#    z -0.082910 0.191460 2.357450 
# 
# From -- ./inp_files/545985.got.cif
#   From: 2010.05.17/outbox.cif.g08.bks.cpg/sg2_273_cif.got.tgz:545985.got - 2010.06.03 11:33:40.
