data_PCOD9051857
_publ_section_title
;
Structure prediction by ZEFSAII (Michael W. Deem and Ramdas Pophale) SiO2 
 PCOD9051857
Probable space group: P -1
;
_chemical_formula_sum "Si O2"
_cell_formula_units_Z 15
_cell_length_a 15.254479
_cell_length_b 15.153277
_cell_length_c 8.345715
_cell_angle_alpha 48.953776
_cell_angle_beta 66.427381
_cell_angle_gamma 29.312192
_cell_volume 629.587390
_symmetry_space_group_name_H-M "P -1"
_symmetry_group_IT_number 2
_symmetry_cell_setting 'triclinic'
loop_
_space_group_symop_operation_xyz
x,y,z
-x,-y,-z
loop_
_atom_site_type_symbol
_atom_site_label
_atom_site_fract_x
_atom_site_fract_y
_atom_site_fract_z
Si Si1 0.764875 0.130344 0.565150
Si Si2 0.830882 0.851664 0.064059
Si Si3 0.734404 0.544425 0.719473
Si Si4 0.866712 0.269272 0.450270
Si Si5 0.419573 0.239437 0.071063
Si Si6 0.602624 0.966564 0.826262
Si Si7 0.000000 0.000000 0.000000
Si Si8 0.375897 0.580665 0.139312
O O1 0.787036 0.244674 0.435771
O O2 0.536606 0.357637 0.408849
O O3 0.922736 0.922879 0.559790
O O4 0.809023 0.008733 0.834107
O O5 0.060507 0.600568 0.260035
O O6 0.656324 0.999620 0.138352
O O7 0.780639 0.838959 0.946691
O O8 0.637606 0.657552 0.832155
O O9 0.777262 0.358556 0.878981
O O10 0.567627 0.768731 0.447760
O O11 0.904884 0.177397 0.705505
O O12 0.706497 0.545080 0.218313
O O13 0.346334 0.184978 0.164884
O O14 0.500000 0.000000 0.000000
O O15 0.784106 0.158333 0.986083
O O16 0.500000 0.500000 0.000000
#
# Coordination Sequence:
#
# PCOD9051857 Si02
#       8
#     2   2   2   2   2   2   1   2
#     4  11  22  46  67  97 147 181 227 293 353 411
#     4  11  24  47  73 102 140 187 226 296 351 413
#     4  12  25  46  75 103 141 188 237 287 356 417
#     4  11  24  43  70 104 137 186 233 287 353 427
#     4  11  25  46  73 102 138 182 240 288 350 419
#     4  10  25  48  72 105 143 182 238 296 345 419
#     4  12  26  40  68 104 136 184 238 278 354 424
#     4  12  25  42  68 104 145 181 233 294 346 422
#
# _framework density 23.825127999999999
#
# number of rings (size 3 to 8) (size 9 to 14) (size 15 to 20)
#    0.000    0.800    4.000    2.800    1.867    8.000 
#    0.000    2.667    0.000    0.000    0.000    0.000 
#    0.000    0.000    0.000    0.000    0.000    0.000 
#
# Total GULP energy -83656.359407 kJ/mol
# GULP energy per Si atom -5577.090627 kJ/mol
# Density = 2.377090 g / cm^3
# Si number density = 23.825128 Si / 1000 Ang^3
#
#
#
# Elastic Constant Matrix: (Units=GPa)
#
#
# Indices 1 2 3 4 5 6 
#
# 1 87.6954 20.4248 19.1484 -15.8906 20.2580 -17.5664
# 2 20.4248 114.1198 4.0638 9.2502 27.7106 -19.6238
# 3 19.1484 4.0638 102.4420 5.0842 13.3300 -1.7338
# 4 -15.8906 9.2502 5.0842 25.0705 1.4609 10.5883
# 5 20.2580 27.7106 13.3300 1.4609 32.4431 0.2741
# 6 -17.5664 -19.6238 -1.7338 10.5883 0.2741 27.4796
#
#
#
# Elastic Compliance Matrix: (Units=1/GPa)
#
#
# Indices 1 2 3 4 5 6 
#
# 1 0.017452 0.000181 -0.002188 0.008723 -0.010613 0.007892
# 2 0.000181 0.015935 0.002068 -0.012336 -0.014158 0.016521
# 3 -0.002188 0.002068 0.011014 -0.005321 -0.004710 0.002871
# 4 0.008723 -0.012336 -0.005321 0.062466 0.004697 -0.027685
# 5 -0.010613 -0.014158 -0.004710 0.004697 0.051431 -0.019515
# 6 0.007892 0.016521 0.002871 -0.027685 -0.019515 0.064277
#
#
# Mechanical properties :
#
#
# Convention : Reuss Voigt Hill
#
# Bulk Modulus (GPa) = 22.45939 43.50346 32.98143
# Shear Modulus (GPa) = 21.07098 34.37332 27.72215
#
# Velocity S-wave (km/s) = 2.97711 3.80245 3.41481
# Velocity P-wave (km/s) = 4.61138 6.13004 5.42412
#
# Compressibility (1/GPa) = 0.04452480
#
# Stress axis : x y z
#
# Youngs Moduli (GPa) = 57.30090 62.75398 90.79269
#
# Poissons Ratio (x) = -0.01139 0.19862
# Poissons Ratio (y) = -0.01040 -0.18776
# Poissons Ratio (z) = 0.12536 -0.12978
#
# Static dielectric constant tensor:
#      x y z
#    x -9.980800 -6.412050 4.884410 
#    y -6.412050 -1.650720 2.645550 
#    z 4.884410 2.645550 -0.133980 
# 
# From -- ./inp_files/314636.got.cif
#   From: 2010.05.17/outbox.cif.g08.bks.cpg/sg2_158_cif.got.tgz:314636.got - 2010.06.03 11:33:40.
