data_PCOD9051633
_publ_section_title
;
Structure prediction by ZEFSAII (Michael W. Deem and Ramdas Pophale) SiO2 
 PCOD9051633
Probable space group: P -1
;
_chemical_formula_sum "Si O2"
_cell_formula_units_Z 16
_cell_length_a 11.364363
_cell_length_b 11.497094
_cell_length_c 7.985989
_cell_angle_alpha 91.620743
_cell_angle_beta 39.758787
_cell_angle_gamma 97.481965
_cell_volume 657.391690
_symmetry_space_group_name_H-M "P -1"
_symmetry_group_IT_number 2
_symmetry_cell_setting 'triclinic'
loop_
_space_group_symop_operation_xyz
x,y,z
-x,-y,-z
loop_
_atom_site_type_symbol
_atom_site_label
_atom_site_fract_x
_atom_site_fract_y
_atom_site_fract_z
Si Si1 0.717473 0.679514 0.359929
Si Si2 0.725337 0.354303 0.106348
Si Si3 0.378622 0.820141 0.045847
Si Si4 0.784035 0.940125 0.219291
Si Si5 0.249786 0.574983 0.558566
Si Si6 0.110994 0.389694 0.175656
Si Si7 0.521120 0.065852 0.716825
Si Si8 0.425575 0.366202 0.023450
O O1 0.492096 0.653912 0.605489
O O2 0.766587 0.820004 0.343151
O O3 0.764978 0.566738 0.409296
O O4 0.820264 0.666474 0.069877
O O5 0.812603 0.372817 0.196513
O O6 0.762155 0.249457 0.940724
O O7 0.793174 0.474167 0.938640
O O8 0.365753 0.854543 0.257064
O O9 0.518631 0.726030 0.911576
O O10 0.451233 0.942128 0.880466
O O11 0.662817 0.902858 0.177330
O O12 0.670593 0.039002 0.417537
O O13 0.000000 0.000000 0.000000
O O14 0.454930 0.634044 0.278399
O O15 0.106711 0.608784 0.579897
O O16 0.207897 0.338958 0.222806
O O17 0.500000 0.500000 0.000000
#
# Coordination Sequence:
#
# PCOD9051633 Si02
#       8
#     2   2   2   2   2   2   2   2
#     4  11  19  40  67 100 133 171 215 286 332 388
#     4  11  19  40  68  93 132 185 209 268 341 390
#     4  11  23  43  71  95 141 184 215 282 333 404
#     4  11  25  46  75  99 128 172 239 286 331 390
#     4  11  24  39  68 102 138 174 227 269 335 414
#     4  11  22  39  65 102 133 175 227 265 332 405
#     4  10  25  47  70 100 129 181 235 270 343 390
#     4  12  23  42  64  96 141 176 217 270 345 396
#
# _framework density 24.338609999999999
#
# number of rings (size 3 to 8) (size 9 to 14) (size 15 to 20)
#    0.000    1.000    5.000    3.000    0.000    3.500 
#    0.000    3.750    5.500    0.000    0.000    0.000 
#    0.000    0.000    0.000    0.000    0.000    0.000 
#
# Total GULP energy -89243.597613 kJ/mol
# GULP energy per Si atom -5577.724851 kJ/mol
# Density = 2.428321 g / cm^3
# Si number density = 24.338610 Si / 1000 Ang^3
#
#
#
# Elastic Constant Matrix: (Units=GPa)
#
#
# Indices 1 2 3 4 5 6 
#
# 1 122.3906 23.3731 46.7402 6.4301 -8.0771 -9.0323
# 2 23.3731 112.3544 18.4377 -3.0448 -0.8669 -2.1666
# 3 46.7402 18.4377 61.0581 -0.2793 -10.3340 14.2966
# 4 6.4301 -3.0448 -0.2793 30.0863 7.5571 11.5926
# 5 -8.0771 -0.8669 -10.3340 7.5571 50.2106 3.2032
# 6 -9.0323 -2.1666 14.2966 11.5926 3.2032 37.4612
#
#
#
# Elastic Compliance Matrix: (Units=1/GPa)
#
#
# Indices 1 2 3 4 5 6 
#
# 1 0.014785 -0.000819 -0.013712 -0.007650 -0.000016 0.011119
# 2 -0.000819 0.009545 -0.002645 0.000847 -0.000713 0.001163
# 3 -0.013712 -0.002645 0.032972 0.009308 0.004365 -0.019296
# 4 -0.007650 0.000847 0.009308 0.043280 -0.004644 -0.018344
# 5 -0.000016 -0.000713 0.004365 -0.004644 0.021634 -0.002124
# 6 0.011119 0.001163 -0.019296 -0.018344 -0.002124 0.042665
#
#
# Mechanical properties :
#
#
# Convention : Reuss Voigt Hill
#
# Bulk Modulus (GPa) = 43.56965 52.54501 48.05733
# Shear Modulus (GPa) = 24.16852 37.36843 30.76848
#
# Velocity S-wave (km/s) = 3.15463 3.92261 3.55939
# Velocity P-wave (km/s) = 5.58652 6.49245 6.05645
#
# Compressibility (1/GPa) = 0.02295176
#
# Stress axis : x y z
#
# Youngs Moduli (GPa) = 67.63683 104.77183 30.32846
#
# Poissons Ratio (x) = 0.08576 0.41586
# Poissons Ratio (y) = 0.05537 0.08020
# Poissons Ratio (z) = 0.92743 0.27707
#
# Static dielectric constant tensor:
#      x y z
#    x 2.042890 0.073250 0.038140 
#    y 0.073250 1.960160 0.063840 
#    z 0.038140 0.063840 1.988320 
# 
# From -- ./inp_files/258816.got.cif
#   From: 2010.05.17/outbox.cif.g08.bks.cpg/sg2_130_cif.got.tgz:258816.got - 2010.06.03 11:33:40.
