data_PCOD9051567
_publ_section_title
;
Structure prediction by ZEFSAII (Michael W. Deem and Ramdas Pophale) SiO2 
 PCOD9051567
Probable space group: P -1
;
_chemical_formula_sum "Si O2"
_cell_formula_units_Z 11
_cell_length_a 13.749153
_cell_length_b 8.850197
_cell_length_c 17.895893
_cell_angle_alpha 148.540657
_cell_angle_beta 20.860272
_cell_angle_gamma 145.921564
_cell_volume 398.957088
_symmetry_space_group_name_H-M "P -1"
_symmetry_group_IT_number 2
_symmetry_cell_setting 'triclinic'
loop_
_space_group_symop_operation_xyz
x,y,z
-x,-y,-z
loop_
_atom_site_type_symbol
_atom_site_label
_atom_site_fract_x
_atom_site_fract_y
_atom_site_fract_z
Si Si1 0.575137 0.835707 0.559364
Si Si2 0.487677 0.691948 0.839698
Si Si3 0.125514 0.968808 0.115329
Si Si4 0.083993 0.769888 0.399640
Si Si5 0.739147 0.926647 0.239727
Si Si6 0.500000 0.500000 0.000000
O O1 0.500000 0.500000 0.500000
O O2 0.866583 0.900910 0.330732
O O3 0.653555 0.083975 0.674484
O O4 0.323364 0.893254 0.711937
O O5 0.328496 0.413106 0.876202
O O6 0.801252 0.642607 0.587518
O O7 0.333261 0.744702 0.894980
O O8 0.500000 0.000000 0.000000
O O9 0.001915 0.926898 0.103942
O O10 0.297707 0.296826 0.125500
O O11 0.222417 0.521286 0.159431
O O12 0.000000 0.000000 0.500000
O O13 0.500000 0.000000 0.500000
#
# Coordination Sequence:
#
# PCOD9051567 Si02
#       6
#     2   2   2   2   2   1
#     4  11  27  48  77 114 156 207 266 326 396 473
#     4  12  25  48  81 115 157 208 266 336 397 475
#     4  11  25  49  78 112 158 208 264 325 404 471
#     4  12  27  46  76 113 157 205 264 324 398 470
#     4  10  25  46  76 110 157 208 263 322 400 477
#     4  12  28  46  82 116 152 210 270 320 406 472
#
# _framework density 27.571885000000002
#
# number of rings (size 3 to 8) (size 9 to 14) (size 15 to 20)
#    0.000    0.727    3.636    2.727   10.182    2.909 
#    0.000    1.818    0.000    0.000    0.000    0.000 
#    0.000    0.000    0.000    0.000    0.000    0.000 
#
# Total GULP energy -61359.970780 kJ/mol
# GULP energy per Si atom -5578.179162 kJ/mol
# Density = 2.750913 g / cm^3
# Si number density = 27.571885 Si / 1000 Ang^3
#
#
#
# Elastic Constant Matrix: (Units=GPa)
#
#
# Indices 1 2 3 4 5 6 
#
# 1 170.3706 53.7953 48.9549 2.7986 -36.1596 -6.7288
# 2 53.7953 189.2075 20.2039 4.4459 -2.7501 -28.0735
# 3 48.9549 20.2039 135.9677 -21.1331 -43.3552 -9.7897
# 4 2.7986 4.4459 -21.1331 46.3756 -16.3778 -10.2901
# 5 -36.1596 -2.7501 -43.3552 -16.3778 72.4138 2.6406
# 6 -6.7288 -28.0735 -9.7897 -10.2901 2.6406 51.0848
#
#
#
# Elastic Compliance Matrix: (Units=1/GPa)
#
#
# Indices 1 2 3 4 5 6 
#
# 1 0.007521 -0.002011 -0.001625 -0.000187 0.002686 -0.000602
# 2 -0.002011 0.006362 -0.000470 -0.000457 -0.001261 0.003114
# 3 -0.001625 -0.000470 0.012566 0.009730 0.008769 0.003442
# 4 -0.000187 -0.000457 0.009730 0.032192 0.012725 0.007415
# 5 0.002686 -0.001261 0.008769 0.012725 0.023132 0.002709
# 6 -0.000602 0.003114 0.003442 0.007415 0.002709 0.023221
#
#
# Mechanical properties :
#
#
# Convention : Reuss Voigt Hill
#
# Bulk Modulus (GPa) = 54.83503 82.38377 68.60940
# Shear Modulus (GPa) = 41.91692 58.81429 50.36561
#
# Velocity S-wave (km/s) = 3.90330 4.62359 4.27863
# Velocity P-wave (km/s) = 6.34394 7.64512 7.02472
#
# Compressibility (1/GPa) = 0.01823652
#
# Stress axis : x y z
#
# Youngs Moduli (GPa) = 132.96619 157.19404 79.57979
#
# Poissons Ratio (x) = 0.31607 0.12931
# Poissons Ratio (y) = 0.26735 0.03742
# Poissons Ratio (z) = 0.21606 0.07392
#
# Static dielectric constant tensor:
#      x y z
#    x -2.842330 -6.680290 -5.466650 
#    y -6.680290 -6.536660 -7.193450 
#    z -5.466650 -7.193450 -3.729370 
# 
# From -- ./inp_files/540367.got.cif
#   From: 2010.05.17/outbox.cif.g08.bks.cpg/sg2_271_cif.got.tgz:540367.got - 2010.06.03 11:33:40.
