data_PCOD9051801
_publ_section_title
;
Structure prediction by ZEFSAII (Michael W. Deem and Ramdas Pophale) SiO2 
 PCOD9051801
Probable space group: P -1
;
_chemical_formula_sum "Si O2"
_cell_formula_units_Z 16
_cell_length_a 18.505307
_cell_length_b 7.706098
_cell_length_c 5.332987
_cell_angle_alpha 92.012738
_cell_angle_beta 79.632463
_cell_angle_gamma 119.717342
_cell_volume 648.396584
_symmetry_space_group_name_H-M "P -1"
_symmetry_group_IT_number 2
_symmetry_cell_setting 'triclinic'
loop_
_space_group_symop_operation_xyz
x,y,z
-x,-y,-z
loop_
_atom_site_type_symbol
_atom_site_label
_atom_site_fract_x
_atom_site_fract_y
_atom_site_fract_z
Si Si1 0.913207 0.001614 0.058738
Si Si2 0.010194 0.401584 0.240258
Si Si3 0.757519 0.679874 0.419639
Si Si4 0.800910 0.037144 0.764753
Si Si5 0.592708 0.294233 0.434069
Si Si6 0.504565 0.716821 0.003004
Si Si7 0.672511 0.092501 0.113658
Si Si8 0.803302 0.421342 0.732708
O O1 0.829890 0.801291 0.179092
O O2 0.937078 0.173524 0.256475
O O3 0.888032 0.064205 0.819329
O O4 0.000000 0.000000 0.000000
O O5 0.000000 0.500000 0.500000
O O6 0.106126 0.440851 0.186767
O O7 0.000000 0.500000 0.000000
O O8 0.755435 0.838504 0.620666
O O9 0.665628 0.525134 0.370057
O O10 0.788295 0.547409 0.544699
O O11 0.747219 0.036319 0.047289
O O12 0.807638 0.227335 0.625001
O O13 0.530012 0.252067 0.237992
O O14 0.550842 0.277892 0.728274
O O15 0.367747 0.853805 0.623280
O O16 0.597031 0.907475 0.005810
O O17 0.500000 0.500000 0.000000
O O18 0.721293 0.309772 0.956134
#
# Coordination Sequence:
#
# PCOD9051801 Si02
#       8
#     2   2   2   2   2   2   2   2
#     4  12  29  47  79 114 163 214 280 344 410 491
#     4  12  26  49  76 112 155 209 273 334 411 483
#     4  12  28  48  79 115 161 215 278 339 417 485
#     4  10  25  52  76 115 158 215 271 338 411 493
#     4  12  28  48  82 117 165 214 268 339 404 488
#     4  12  27  52  80 123 164 216 268 336 405 497
#     4  10  25  48  81 113 161 210 273 329 414 482
#     4  10  25  47  81 108 162 209 272 334 418 473
#
# _framework density 24.676259000000002
#
# number of rings (size 3 to 8) (size 9 to 14) (size 15 to 20)
#    0.750    0.000    1.250    4.125    8.750    4.000 
#    0.000    0.000    0.000    0.000    0.000    0.000 
#    0.000    0.000    0.000    0.000    0.000    0.000 
#
# Total GULP energy -89532.432509 kJ/mol
# GULP energy per Si atom -5595.777032 kJ/mol
# Density = 2.462009 g / cm^3
# Si number density = 24.676259 Si / 1000 Ang^3
#
#
#
# Elastic Constant Matrix: (Units=GPa)
#
#
# Indices 1 2 3 4 5 6 
#
# 1 67.2858 -0.7823 16.1960 -1.2410 -8.9961 -12.2483
# 2 -0.7823 112.9814 8.3706 4.0471 -3.4461 13.3973
# 3 16.1960 8.3706 106.6297 4.0232 -9.4040 -14.6456
# 4 -1.2410 4.0471 4.0232 51.0397 -4.7206 -8.6143
# 5 -8.9961 -3.4461 -9.4040 -4.7206 31.5777 3.7686
# 6 -12.2483 13.3973 -14.6456 -8.6143 3.7686 57.0454
#
#
#
# Elastic Compliance Matrix: (Units=1/GPa)
#
#
# Indices 1 2 3 4 5 6 
#
# 1 0.016399 -0.000043 -0.001773 0.001422 0.003990 0.003027
# 2 -0.000043 0.009301 -0.000972 -0.001029 0.000876 -0.002657
# 3 -0.001773 -0.000972 0.010236 -0.000186 0.002134 0.002306
# 4 0.001422 -0.001029 -0.000186 0.020568 0.002905 0.003413
# 5 0.003990 0.000876 0.002134 0.002905 0.034043 -0.000612
# 6 0.003027 -0.002657 0.002306 0.003413 -0.000612 0.019952
#
#
# Mechanical properties :
#
#
# Convention : Reuss Voigt Hill
#
# Bulk Modulus (GPa) = 32.93985 37.16283 35.05134
# Shear Modulus (GPa) = 39.62057 45.47337 42.54697
#
# Velocity S-wave (km/s) = 4.01136 4.29744 4.15686
# Velocity P-wave (km/s) = 5.90190 6.30213 6.10530
#
# Compressibility (1/GPa) = 0.03035836
#
# Stress axis : x y z
#
# Youngs Moduli (GPa) = 60.97895 107.51082 97.69475
#
# Poissons Ratio (x) = 0.00465 0.17326
# Poissons Ratio (y) = 0.00264 0.09500
# Poissons Ratio (z) = 0.10814 0.10454
#
# Static dielectric constant tensor:
#      x y z
#    x 2.000100 0.002430 -0.055590 
#    y 0.002430 1.970660 -0.014510 
#    z -0.055590 -0.014510 1.958730 
# 
# From -- ./inp_files/117038.got.cif
#   From: 2010.05.17/outbox.cif.g08.bks.cpg/sg2_59_cif.got.tgz:117038.got - 2010.06.03 11:33:40.
