data_PCOD9051697
_publ_section_title
;
Structure prediction by ZEFSAII (Michael W. Deem and Ramdas Pophale) SiO2 
 PCOD9051697
Probable space group: P -1
;
_chemical_formula_sum "Si O2"
_cell_formula_units_Z 16
_cell_length_a 5.173908
_cell_length_b 9.172064
_cell_length_c 15.515245
_cell_angle_alpha 100.130231
_cell_angle_beta 116.149941
_cell_angle_gamma 99.324446
_cell_volume 626.254393
_symmetry_space_group_name_H-M "P -1"
_symmetry_group_IT_number 2
_symmetry_cell_setting 'triclinic'
loop_
_space_group_symop_operation_xyz
x,y,z
-x,-y,-z
loop_
_atom_site_type_symbol
_atom_site_label
_atom_site_fract_x
_atom_site_fract_y
_atom_site_fract_z
Si Si1 0.057463 0.379188 0.426815
Si Si2 0.607717 0.934103 0.143815
Si Si3 0.590499 0.719467 0.674041
Si Si4 0.824829 0.046557 0.680616
Si Si5 0.930878 0.830464 0.434900
Si Si6 0.339153 0.172914 0.043818
Si Si7 0.992115 0.655500 0.872879
Si Si8 0.646286 0.296655 0.784348
O O1 0.728099 0.336697 0.331100
O O2 0.000000 0.500000 0.500000
O O3 0.317989 0.391099 0.396443
O O4 0.090201 0.256063 0.488033
O O5 0.457136 0.764629 0.141993
O O6 0.860371 0.993827 0.260381
O O7 0.404787 0.050212 0.109561
O O8 0.736855 0.917914 0.066554
O O9 0.844980 0.730578 0.782328
O O10 0.595959 0.881551 0.646200
O O11 0.813441 0.173348 0.762707
O O12 0.816144 0.136089 0.599579
O O13 0.639977 0.740396 0.326706
O O14 0.000000 0.000000 0.500000
O O15 0.104450 0.261108 0.050134
O O16 0.655875 0.297825 0.086053
O O17 0.836495 0.472779 0.829265
#
# Coordination Sequence:
#
# PCOD9051697 Si02
#       8
#     2   2   2   2   2   2   2   2
#     4  12  27  43  68  98 137 181 234 294 346 414
#     4  10  25  47  72 107 135 188 238 289 346 415
#     4  12  25  45  70  97 138 184 234 286 352 412
#     4  11  24  43  71  97 141 184 235 289 345 418
#     4  11  24  44  66 100 134 186 239 283 345 409
#     4  11  26  47  78 103 142 184 241 286 343 439
#     4  12  27  46  72 109 145 187 228 291 368 410
#     4  11  27  43  72 103 148 184 230 298 354 420
#
# _framework density 25.548725000000001
#
# number of rings (size 3 to 8) (size 9 to 14) (size 15 to 20)
#    0.000    0.750    2.500    3.375   10.500    3.000 
#    0.000    0.000    0.000    0.000    0.000    0.000 
#    0.000    0.000    0.000    0.000    0.000    0.000 
#
# Total GULP energy -89384.123627 kJ/mol
# GULP energy per Si atom -5586.507727 kJ/mol
# Density = 2.549058 g / cm^3
# Si number density = 25.548725 Si / 1000 Ang^3
#
#
#
# Elastic Constant Matrix: (Units=GPa)
#
#
# Indices 1 2 3 4 5 6 
#
# 1 98.3991 19.2559 15.2301 4.3368 -2.5354 3.2216
# 2 19.2559 79.7124 -6.6564 30.2837 -6.4553 5.6009
# 3 15.2301 -6.6564 78.6702 3.2479 -3.5639 -3.4970
# 4 4.3368 30.2837 3.2479 40.9890 -0.9590 -4.0031
# 5 -2.5354 -6.4553 -3.5639 -0.9590 42.4863 10.2541
# 6 3.2216 5.6009 -3.4970 -4.0031 10.2541 33.8528
#
#
#
# Elastic Compliance Matrix: (Units=1/GPa)
#
#
# Indices 1 2 3 4 5 6 
#
# 1 0.011184 -0.003428 -0.002539 0.001493 0.000116 -0.000618
# 2 -0.003428 0.020138 0.002927 -0.015213 0.004147 -0.005758
# 3 -0.002539 0.002927 0.013647 -0.002903 0.001266 0.000440
# 4 0.001493 -0.015213 -0.002903 0.036352 -0.003435 0.007414
# 5 0.000116 0.004147 0.001266 -0.003435 0.026365 -0.008959
# 6 -0.000618 -0.005758 0.000440 0.007414 -0.008959 0.034187
#
#
# Mechanical properties :
#
#
# Convention : Reuss Voigt Hill
#
# Bulk Modulus (GPa) = 25.71371 34.71565 30.21468
# Shear Modulus (GPa) = 31.07226 38.72909 34.90067
#
# Velocity S-wave (km/s) = 3.49118 3.89767 3.70001
# Velocity P-wave (km/s) = 5.13201 5.82008 5.48684
#
# Compressibility (1/GPa) = 0.03888976
#
# Stress axis : x y z
#
# Youngs Moduli (GPa) = 89.41373 49.65831 73.27444
#
# Poissons Ratio (x) = 0.17023 0.18605
# Poissons Ratio (y) = 0.30651 -0.21451
# Poissons Ratio (z) = 0.22702 -0.14537
#
# Static dielectric constant tensor:
#      x y z
#    x 1.945180 0.235650 0.065660 
#    y 0.235650 1.763500 -0.044820 
#    z 0.065660 -0.044820 2.114250 
# 
# From -- ./inp_files/38611.got.cif
#   From: 2010.05.17/outbox.cif.g08.bks.cpg/sg2_20_cif.got.tgz:38611.got - 2010.06.03 11:33:40.
