data_PCOD9051841
_publ_section_title
;
Structure prediction by ZEFSAII (Michael W. Deem and Ramdas Pophale) SiO2 
 PCOD9051841
Probable space group: P -1
;
_chemical_formula_sum "Si O2"
_cell_formula_units_Z 14
_cell_length_a 6.961315
_cell_length_b 10.685378
_cell_length_c 14.153523
_cell_angle_alpha 139.693219
_cell_angle_beta 123.735014
_cell_angle_gamma 71.390232
_cell_volume 555.594116
_symmetry_space_group_name_H-M "P -1"
_symmetry_group_IT_number 2
_symmetry_cell_setting 'triclinic'
loop_
_space_group_symop_operation_xyz
x,y,z
-x,-y,-z
loop_
_atom_site_type_symbol
_atom_site_label
_atom_site_fract_x
_atom_site_fract_y
_atom_site_fract_z
Si Si1 0.082888 0.883677 0.578865
Si Si2 0.247286 0.533264 0.771785
Si Si3 0.904903 0.794760 0.908216
Si Si4 0.281077 0.561276 0.125667
Si Si5 0.855947 0.090222 0.775180
Si Si6 0.575417 0.141990 0.510395
Si Si7 0.598652 0.197087 0.204275
O O1 0.240131 0.912394 0.544872
O O2 0.239352 0.839642 0.685523
O O3 0.871233 0.696989 0.397856
O O4 0.977529 0.068597 0.694982
O O5 0.512066 0.558805 0.901873
O O6 0.271344 0.638363 0.737096
O O7 0.068356 0.641418 0.840498
O O8 0.942366 0.845583 0.057907
O O9 0.631294 0.733404 0.777895
O O10 0.000000 0.000000 0.000000
O O11 0.331518 0.646898 0.295089
O O12 0.000000 0.500000 0.000000
O O13 0.686479 0.249163 0.824987
O O14 0.500000 0.000000 0.500000
O O15 0.677609 0.884593 0.626831
O O16 0.500000 0.000000 0.000000
#
# Coordination Sequence:
#
# PCOD9051841 Si02
#       7
#     2   2   2   2   2   2   2
#     4  12  26  47  80 110 154 204 251 316 386 447
#     4  12  28  47  73 115 155 200 255 315 385 454
#     4  12  25  45  77 112 150 200 255 315 382 449
#     4  11  26  47  73 106 155 192 254 321 373 454
#     4  11  24  47  74 107 153 199 253 308 383 456
#     4  10  25  48  71 108 147 200 257 306 374 450
#     4  12  25  47  77 113 154 199 258 312 377 461
#
# _framework density 25.198250999999999
#
# number of rings (size 3 to 8) (size 9 to 14) (size 15 to 20)
#    0.000    0.571    4.286    2.143    4.000    3.429 
#    0.000    0.000    0.000    0.000    0.000    0.000 
#    0.000    0.000    0.000    0.000    0.000    0.000 
#
# Total GULP energy -78258.224038 kJ/mol
# GULP energy per Si atom -5589.873146 kJ/mol
# Density = 2.514090 g / cm^3
# Si number density = 25.198251 Si / 1000 Ang^3
#
#
#
# Elastic Constant Matrix: (Units=GPa)
#
#
# Indices 1 2 3 4 5 6 
#
# 1 178.3290 37.8847 37.7017 -2.3084 -6.7887 -16.4519
# 2 37.8847 95.8239 16.6009 -10.3359 -3.4822 -10.4065
# 3 37.7017 16.6009 69.1552 -3.7687 11.1595 -12.2844
# 4 -2.3084 -10.3359 -3.7687 36.8461 -9.5685 5.0281
# 5 -6.7887 -3.4822 11.1595 -9.5685 51.3303 -2.4596
# 6 -16.4519 -10.4065 -12.2844 5.0281 -2.4596 61.5505
#
#
#
# Elastic Compliance Matrix: (Units=1/GPa)
#
#
# Indices 1 2 3 4 5 6 
#
# 1 0.006884 -0.002008 -0.003365 -0.000208 0.001511 0.000906
# 2 -0.002008 0.012049 -0.001703 0.003364 0.001595 0.000949
# 3 -0.003365 -0.001703 0.017787 -0.000308 -0.004379 0.002213
# 4 -0.000208 0.003364 -0.000308 0.029767 0.005733 -0.001751
# 5 0.001511 0.001595 -0.004379 0.005733 0.021820 0.000203
# 6 0.000906 0.000949 0.002213 -0.001751 0.000203 0.017242
#
#
# Mechanical properties :
#
#
# Convention : Reuss Voigt Hill
#
# Bulk Modulus (GPa) = 44.31198 58.63140 51.47169
# Shear Modulus (GPa) = 39.30121 46.68677 42.99399
#
# Velocity S-wave (km/s) = 3.95356 4.30906 4.13513
# Velocity P-wave (km/s) = 6.20197 6.93368 6.57800
#
# Compressibility (1/GPa) = 0.02256726
#
# Stress axis : x y z
#
# Youngs Moduli (GPa) = 145.26423 82.99729 56.22239
#
# Poissons Ratio (x) = 0.16664 0.18919
# Poissons Ratio (y) = 0.29165 0.09575
# Poissons Ratio (z) = 0.48883 0.14135
#
# Static dielectric constant tensor:
#      x y z
#    x 1.975070 -0.012000 0.031270 
#    y -0.012000 2.089370 0.048330 
#    z 0.031270 0.048330 2.164300 
# 
# From -- ./inp_files/483137.got.cif
#   From: 2010.05.17/outbox.cif.g08.bks.cpg/sg2_242_cif.got.tgz:483137.got - 2010.06.03 11:33:40.
