data_PCOD9051398
_publ_section_title
;
Structure prediction by ZEFSAII (Michael W. Deem and Ramdas Pophale) SiO2 
 PCOD9051398
Probable space group: P -1
;
_chemical_formula_sum "Si O2"
_cell_formula_units_Z 14
_cell_length_a 7.307787
_cell_length_b 7.415854
_cell_length_c 17.858170
_cell_angle_alpha 116.543201
_cell_angle_beta 70.902254
_cell_angle_gamma 139.717167
_cell_volume 559.627696
_symmetry_space_group_name_H-M "P -1"
_symmetry_group_IT_number 2
_symmetry_cell_setting 'triclinic'
loop_
_space_group_symop_operation_xyz
x,y,z
-x,-y,-z
loop_
_atom_site_type_symbol
_atom_site_label
_atom_site_fract_x
_atom_site_fract_y
_atom_site_fract_z
Si Si1 0.108980 0.103112 0.815914
Si Si2 0.707134 0.441766 0.000297
Si Si3 0.648229 0.439224 0.420109
Si Si4 0.830776 0.523684 0.247268
Si Si5 0.295869 0.830007 0.425243
Si Si6 0.296069 0.565027 0.250499
Si Si7 0.231829 0.830807 0.929502
O O1 0.194064 0.312095 0.911371
O O2 0.070127 0.219358 0.771241
O O3 0.387875 0.183208 0.776136
O O4 0.843458 0.759369 0.803473
O O5 0.744518 0.263190 0.010537
O O6 0.893448 0.593485 0.929155
O O7 0.382745 0.159884 0.969651
O O8 0.500000 0.500000 0.500000
O O9 0.679715 0.490130 0.335833
O O10 0.969751 0.647592 0.445922
O O11 0.451676 0.096268 0.395412
O O12 0.661927 0.241339 0.161942
O O13 0.085761 0.576874 0.251296
O O14 0.299892 0.612369 0.347832
O O15 0.500000 0.000000 0.500000
#
# Coordination Sequence:
#
# PCOD9051398 Si02
#       7
#     2   2   2   2   2   2   2
#     4  11  24  43  72  99 138 186 227 284 343 405
#     4   9  18  35  60  98 128 172 233 270 331 407
#     4  11  25  46  72 105 137 177 238 288 343 431
#     4  10  25  46  70 100 140 184 227 283 353 400
#     4  11  25  48  71  99 141 182 224 293 362 405
#     4  11  25  45  68 102 138 176 236 280 338 425
#     4   9  18  35  63  90 134 178 216 281 338 396
#
# _framework density 25.016631
#
# number of rings (size 3 to 8) (size 9 to 14) (size 15 to 20)
#    0.000    1.714    0.000    3.429    2.000   10.286 
#    0.000    4.286    0.000    0.000    0.000    0.000 
#    0.000    0.000    0.000    0.000    0.000    0.000 
#
# Total GULP energy -78320.084272 kJ/mol
# GULP energy per Si atom -5594.291734 kJ/mol
# Density = 2.495969 g / cm^3
# Si number density = 25.016631 Si / 1000 Ang^3
#
#
#
# Elastic Constant Matrix: (Units=GPa)
#
#
# Indices 1 2 3 4 5 6 
#
# 1 67.6654 12.7998 24.2343 -6.2205 -8.9885 -10.1377
# 2 12.7998 104.7082 57.8462 18.6122 5.4401 14.4148
# 3 24.2343 57.8462 157.5818 -14.5783 -7.5506 5.0523
# 4 -6.2205 18.6122 -14.5783 46.1279 5.1904 -1.7605
# 5 -8.9885 5.4401 -7.5506 5.1904 25.2057 -10.6856
# 6 -10.1377 14.4148 5.0523 -1.7605 -10.6856 43.6821
#
#
#
# Elastic Compliance Matrix: (Units=1/GPa)
#
#
# Indices 1 2 3 4 5 6 
#
# 1 0.018762 -0.004020 -0.000908 0.003035 0.010226 0.008410
# 2 -0.004020 0.016745 -0.006485 -0.008685 -0.008669 -0.008179
# 3 -0.000908 -0.006485 0.009456 0.005143 0.003672 0.001941
# 4 0.003035 -0.008685 0.005143 0.027304 0.000673 0.004241
# 5 0.010226 -0.008669 0.003672 0.000673 0.053780 0.017992
# 6 0.008410 -0.008179 0.001941 0.004241 0.017992 0.031891
#
#
# Mechanical properties :
#
#
# Convention : Reuss Voigt Hill
#
# Bulk Modulus (GPa) = 45.17771 57.74622 51.46196
# Shear Modulus (GPa) = 26.57541 38.67482 32.62512
#
# Velocity S-wave (km/s) = 3.26285 3.93614 3.61520
# Velocity P-wave (km/s) = 5.68271 6.61747 6.16782
#
# Compressibility (1/GPa) = 0.02213481
#
# Stress axis : x y z
#
# Youngs Moduli (GPa) = 53.29949 59.72055 105.75579
#
# Poissons Ratio (x) = 0.24009 0.09607
# Poissons Ratio (y) = 0.21428 0.68583
# Poissons Ratio (z) = 0.04842 0.38729
#
# Static dielectric constant tensor:
#      x y z
#    x 2.127190 0.098460 0.057830 
#    y 0.098460 1.986870 0.022990 
#    z 0.057830 0.022990 2.029910 
# 
# From -- ./inp_files/588125.got.cif
#   From: 2010.05.17/outbox.cif.g08.bks.cpg/sg2_295_cif.got.tgz:588125.got - 2010.06.03 11:33:40.
