data_PCOD9051127
_publ_section_title
;
Structure prediction by ZEFSAII (Michael W. Deem and Ramdas Pophale) SiO2 
 PCOD9051127
Probable space group: P -1
;
_chemical_formula_sum "Si O2"
_cell_formula_units_Z 14
_cell_length_a 13.631948
_cell_length_b 5.512952
_cell_length_c 10.809217
_cell_angle_alpha 58.442223
_cell_angle_beta 60.882021
_cell_angle_gamma 95.744103
_cell_volume 531.638876
_symmetry_space_group_name_H-M "P -1"
_symmetry_group_IT_number 2
_symmetry_cell_setting 'triclinic'
loop_
_space_group_symop_operation_xyz
x,y,z
-x,-y,-z
loop_
_atom_site_type_symbol
_atom_site_label
_atom_site_fract_x
_atom_site_fract_y
_atom_site_fract_z
Si Si1 0.511124 0.359589 0.662110
Si Si2 0.108238 0.126455 0.799028
Si Si3 0.557485 0.254766 0.012339
Si Si4 0.294832 0.485279 0.808652
Si Si5 0.908418 0.307432 0.452645
Si Si6 0.270096 0.012436 0.571945
Si Si7 0.840738 0.707097 0.800603
O O1 0.500000 0.500000 0.500000
O O2 0.400500 0.380968 0.803032
O O3 0.645922 0.604916 0.573498
O O4 0.484883 0.994811 0.779066
O O5 0.228183 0.313148 0.767159
O O6 0.083791 0.343746 0.655484
O O7 0.140976 0.888423 0.765428
O O8 0.000000 0.000000 0.000000
O O9 0.500000 0.500000 0.000000
O O10 0.711759 0.465538 0.868755
O O11 0.500000 0.000000 0.000000
O O12 0.345101 0.853670 0.637368
O O13 0.197213 0.383515 0.009408
O O14 0.038289 0.332145 0.308390
O O15 0.783806 0.104327 0.497889
O O16 0.877348 0.081918 0.651773
#
# Coordination Sequence:
#
# PCOD9051127 Si02
#       7
#     2   2   2   2   2   2   2
#     4  12  25  45  77 110 144 197 256 317 377 453
#     4  11  23  41  71 104 148 186 244 307 378 435
#     4  12  29  51  77 110 156 205 252 320 391 462
#     4  11  24  44  72 108 145 193 245 319 372 452
#     4  10  25  45  70 103 144 199 242 311 369 461
#     4  11  23  45  71 106 148 189 253 305 384 444
#     4  11  24  48  72 103 146 192 257 298 384 453
#
# _framework density 26.333663000000001
#
# number of rings (size 3 to 8) (size 9 to 14) (size 15 to 20)
#    0.000    0.857    1.429    4.714    4.000    3.429 
#    5.143    2.143    0.000    0.000    0.000    0.000 
#    0.000    0.000    0.000    0.000    0.000    0.000 
#
# Total GULP energy -78395.127220 kJ/mol
# GULP energy per Si atom -5599.651944 kJ/mol
# Density = 2.627373 g / cm^3
# Si number density = 26.333663 Si / 1000 Ang^3
#
#
#
# Elastic Constant Matrix: (Units=GPa)
#
#
# Indices 1 2 3 4 5 6 
#
# 1 151.2499 45.6519 50.7461 -9.7377 5.2257 -5.4637
# 2 45.6519 69.2239 22.7274 -10.7567 15.6441 -8.8371
# 3 50.7461 22.7274 126.5940 -14.4305 15.6595 -14.9385
# 4 -9.7377 -10.7567 -14.4305 27.9748 -2.7264 8.6255
# 5 5.2257 15.6441 15.6595 -2.7264 54.8997 0.6726
# 6 -5.4637 -8.8371 -14.9385 8.6255 0.6726 56.4341
#
#
#
# Elastic Compliance Matrix: (Units=1/GPa)
#
#
# Indices 1 2 3 4 5 6 
#
# 1 0.009202 -0.005553 -0.002986 -0.000081 0.001564 -0.000775
# 2 -0.005553 0.020236 -0.000013 0.004747 -0.005022 0.001962
# 3 -0.002986 -0.000013 0.009996 0.003296 -0.002423 0.001880
# 4 -0.000081 0.004747 0.003296 0.040642 -0.000210 -0.004601
# 5 0.001564 -0.005022 -0.002423 -0.000210 0.020196 -0.001485
# 6 -0.000775 0.001962 0.001880 -0.004601 -0.001485 0.019171
#
#
# Mechanical properties :
#
#
# Convention : Reuss Voigt Hill
#
# Bulk Modulus (GPa) = 44.78462 65.03540 54.91001
# Shear Modulus (GPa) = 34.72466 43.05788 38.89127
#
# Velocity S-wave (km/s) = 3.63525 4.04801 3.84717
# Velocity P-wave (km/s) = 5.88758 6.82633 6.37426
#
# Compressibility (1/GPa) = 0.02232909
#
# Stress axis : x y z
#
# Youngs Moduli (GPa) = 108.66796 49.41801 100.04221
#
# Poissons Ratio (x) = 0.27444 0.29872
# Poissons Ratio (y) = 0.60347 0.00129
# Poissons Ratio (z) = 0.32448 0.00064
#
# Static dielectric constant tensor:
#      x y z
#    x 2.094500 -0.004290 -0.043600 
#    y -0.004290 2.146660 0.021750 
#    z -0.043600 0.021750 2.121130 
# 
# From -- ./inp_files/441560.got.cif
#   From: 2010.05.17/outbox.cif.g08.bks.cpg/sg2_221_cif.got.tgz:441560.got - 2010.06.03 11:33:40.
