data_PCOD9051366
_publ_section_title
;
Structure prediction by ZEFSAII (Michael W. Deem and Ramdas Pophale) SiO2 
 PCOD9051366
Probable space group: P -1
;
_chemical_formula_sum "Si O2"
_cell_formula_units_Z 16
_cell_length_a 10.924743
_cell_length_b 12.364387
_cell_length_c 5.930099
_cell_angle_alpha 90.097202
_cell_angle_beta 118.770982
_cell_angle_gamma 98.479007
_cell_volume 692.020478
_symmetry_space_group_name_H-M "P -1"
_symmetry_group_IT_number 2
_symmetry_cell_setting 'triclinic'
loop_
_space_group_symop_operation_xyz
x,y,z
-x,-y,-z
loop_
_atom_site_type_symbol
_atom_site_label
_atom_site_fract_x
_atom_site_fract_y
_atom_site_fract_z
Si Si1 0.401846 0.066397 0.558755
Si Si2 0.871508 0.589479 0.102103
Si Si3 0.805244 0.381432 0.715491
Si Si4 0.300480 0.217038 0.122674
Si Si5 0.568353 0.226656 0.043708
Si Si6 0.355828 0.544870 0.832260
Si Si7 0.962218 0.944175 0.219679
Si Si8 0.790445 0.159491 0.572314
O O1 0.352112 0.171076 0.400553
O O2 0.497985 0.120105 0.846122
O O3 0.500000 0.000000 0.500000
O O4 0.269016 0.970137 0.467482
O O5 0.779108 0.548666 0.239576
O O6 0.041542 0.613738 0.277344
O O7 0.838996 0.480128 0.919909
O O8 0.792111 0.686193 0.936065
O O9 0.681619 0.410371 0.444482
O O10 0.768903 0.250461 0.741110
O O11 0.440184 0.247292 0.095594
O O12 0.202489 0.109259 0.929795
O O13 0.622987 0.346421 0.989307
O O14 0.704882 0.196508 0.288896
O O15 0.500000 0.500000 0.000000
O O16 0.045437 0.842241 0.301300
O O17 0.000000 0.000000 0.500000
O O18 0.000000 0.000000 0.000000
#
# Coordination Sequence:
#
# PCOD9051366 Si02
#       8
#     2   2   2   2   2   2   2   2
#     4  12  26  41  70 101 136 182 234 290 369 438
#     4  11  24  46  69  98 140 182 242 296 364 439
#     4  10  25  46  68  99 137 186 236 298 365 438
#     4  12  25  44  69 102 141 187 235 304 366 441
#     4  11  26  44  66 100 138 185 233 300 367 440
#     4  11  24  43  69  99 133 180 238 296 366 428
#     4  12  27  48  74 109 150 195 251 307 371 445
#     4  11  23  47  67 102 141 182 241 292 372 439
#
# _framework density 23.120702000000001
#
# number of rings (size 3 to 8) (size 9 to 14) (size 15 to 20)
#    0.000    0.750    5.000    1.500    5.250    0.500 
#    2.250    0.000    0.000    0.000    0.000    0.000 
#    0.000    0.000    0.000    0.000    0.000    0.000 
#
# Total GULP energy -89103.508727 kJ/mol
# GULP energy per Si atom -5568.969295 kJ/mol
# Density = 2.306808 g / cm^3
# Si number density = 23.120702 Si / 1000 Ang^3
#
#
#
# Elastic Constant Matrix: (Units=GPa)
#
#
# Indices 1 2 3 4 5 6 
#
# 1 73.2128 23.4555 23.2986 -15.0858 23.8715 -7.3956
# 2 23.4555 122.8228 30.7634 1.0291 -0.2609 -13.5360
# 3 23.2986 30.7634 84.3972 10.2369 22.1714 -14.7198
# 4 -15.0858 1.0291 10.2369 38.0706 -6.5155 9.9073
# 5 23.8715 -0.2609 22.1714 -6.5155 33.0566 2.5360
# 6 -7.3956 -13.5360 -14.7198 9.9073 2.5360 46.5945
#
#
#
# Elastic Compliance Matrix: (Units=1/GPa)
#
#
# Indices 1 2 3 4 5 6 
#
# 1 0.020941 -0.003532 -0.001699 0.006365 -0.012841 0.001106
# 2 -0.003532 0.009878 -0.003843 0.000039 0.005152 0.000806
# 3 -0.001699 -0.003843 0.020492 -0.010841 -0.015315 0.008226
# 4 0.006365 0.000039 -0.010841 0.036312 0.010654 -0.010704
# 5 -0.012841 0.005152 -0.015315 0.010654 0.052744 -0.010516
# 6 0.001106 0.000806 0.008226 -0.010704 -0.010516 0.027319
#
#
# Mechanical properties :
#
#
# Convention : Reuss Voigt Hill
#
# Bulk Modulus (GPa) = 30.15458 48.38530 39.26994
# Shear Modulus (GPa) = 25.39494 37.07204 31.23349
#
# Velocity S-wave (km/s) = 3.31775 4.00861 3.67943
# Velocity P-wave (km/s) = 5.26756 6.51137 5.92221
#
# Compressibility (1/GPa) = 0.03316246
#
# Stress axis : x y z
#
# Youngs Moduli (GPa) = 47.75216 101.23040 48.80007
#
# Poissons Ratio (x) = 0.35757 0.08292
# Poissons Ratio (y) = 0.16867 0.18755
# Poissons Ratio (z) = 0.08114 0.38905
#
# Static dielectric constant tensor:
#      x y z
#    x 2.985890 0.438600 0.308560 
#    y 0.438600 2.101380 0.121730 
#    z 0.308560 0.121730 2.054640 
# 
# From -- ./inp_files/68516.got.cif
#   From: 2010.05.17/outbox.cif.g08.bks.cpg/sg2_35_cif.got.tgz:68516.got - 2010.06.03 11:33:40.
