data_PCOD9051962
_publ_section_title
;
Structure prediction by ZEFSAII (Michael W. Deem and Ramdas Pophale) SiO2 
 PCOD9051962
Probable space group: P -1
;
_chemical_formula_sum "Si O2"
_cell_formula_units_Z 10
_cell_length_a 12.103122
_cell_length_b 12.721318
_cell_length_c 5.913909
_cell_angle_alpha 80.055405
_cell_angle_beta 127.412142
_cell_angle_gamma 141.706009
_cell_volume 352.398296
_symmetry_space_group_name_H-M "P -1"
_symmetry_group_IT_number 2
_symmetry_cell_setting 'triclinic'
loop_
_space_group_symop_operation_xyz
x,y,z
-x,-y,-z
loop_
_atom_site_type_symbol
_atom_site_label
_atom_site_fract_x
_atom_site_fract_y
_atom_site_fract_z
Si Si1 0.428660 0.069087 0.480290
Si Si2 0.265448 0.083352 0.657277
Si Si3 0.189986 0.470084 0.245062
Si Si4 0.121001 0.463789 0.642114
Si Si5 0.865187 0.782818 0.652206
O O1 0.361845 0.039263 0.673295
O O2 0.668744 0.318897 0.651861
O O3 0.500000 0.000000 0.500000
O O4 0.152134 0.933933 0.068535
O O5 0.227422 0.160549 0.417401
O O6 0.538951 0.303890 0.053606
O O7 0.970679 0.868911 0.493178
O O8 0.009731 0.350208 0.301537
O O9 0.337497 0.452997 0.478490
O O10 0.087554 0.394967 0.881885
O O11 0.000000 0.500000 0.500000
#
# Coordination Sequence:
#
# PCOD9051962 Si02
#       5
#     2   2   2   2   2
#     4  11  26  45  72 106 150 191 247 306 366 441
#     4  10  25  49  70 109 148 194 246 304 373 437
#     4  11  27  46  74 109 144 197 245 298 374 436
#     4  11  25  46  72 106 151 189 250 303 365 439
#     4  11  25  46  76 104 151 194 243 307 367 444
#
# _framework density 28.376978999999999
#
# number of rings (size 3 to 8) (size 9 to 14) (size 15 to 20)
#    0.000    1.200    2.000    1.200   11.200    4.800 
#    0.000    0.000    0.000    0.000    0.000    0.000 
#    0.000    0.000    0.000    0.000    0.000    0.000 
#
# Total GULP energy -55783.044640 kJ/mol
# GULP energy per Si atom -5578.304464 kJ/mol
# Density = 2.831239 g / cm^3
# Si number density = 28.376979 Si / 1000 Ang^3
#
#
#
# Elastic Constant Matrix: (Units=GPa)
#
#
# Indices 1 2 3 4 5 6 
#
# 1 204.3589 61.8250 28.1724 -21.2725 -16.1290 -23.0556
# 2 61.8250 181.9100 38.9576 -33.1304 -11.8887 -21.6193
# 3 28.1724 38.9576 118.6691 -4.5736 -13.1646 -6.0839
# 4 -21.2725 -33.1304 -4.5736 52.3193 3.3456 -2.3058
# 5 -16.1290 -11.8887 -13.1646 3.3456 62.1735 -13.4510
# 6 -23.0556 -21.6193 -6.0839 -2.3058 -13.4510 60.6256
#
#
#
# Elastic Compliance Matrix: (Units=1/GPa)
#
#
# Indices 1 2 3 4 5 6 
#
# 1 0.005876 -0.001220 -0.000655 0.001555 0.001530 0.002132
# 2 -0.001220 0.007372 -0.001739 0.004059 0.001019 0.002371
# 3 -0.000655 -0.001739 0.009326 -0.000637 0.001592 0.000395
# 4 0.001555 0.004059 -0.000637 0.022360 0.000476 0.002931
# 5 0.001530 0.001019 0.001592 0.000476 0.018099 0.005139
# 6 0.002132 0.002371 0.000395 0.002931 0.005139 0.019442
#
#
# Mechanical properties :
#
#
# Convention : Reuss Voigt Hill
#
# Bulk Modulus (GPa) = 65.17188 84.76090 74.96639
# Shear Modulus (GPa) = 52.73180 60.08918 56.41049
#
# Velocity S-wave (km/s) = 4.31543 4.60666 4.46342
# Velocity P-wave (km/s) = 6.91715 7.63083 7.28273
#
# Compressibility (1/GPa) = 0.01534404
#
# Stress axis : x y z
#
# Youngs Moduli (GPa) = 170.18268 135.64628 107.23012
#
# Poissons Ratio (x) = 0.16549 0.07029
# Poissons Ratio (y) = 0.20762 0.18652
# Poissons Ratio (z) = 0.11155 0.23595
#
# Static dielectric constant tensor:
#      x y z
#    x 2.299540 0.063820 -0.051930 
#    y 0.063820 2.328030 0.067750 
#    z -0.051930 0.067750 2.319070 
# 
# From -- ./inp_files/19373.got.cif
#   From: 2010.05.17/outbox.cif.g08.bks.cpg/sg2_10_cif.got.tgz:19373.got - 2010.06.03 11:33:40.
