data_PCOD9051053
_publ_section_title
;
Structure prediction by ZEFSAII (Michael W. Deem and Ramdas Pophale) SiO2 
 PCOD9051053
Probable space group: P -1
;
_chemical_formula_sum "Si O2"
_cell_formula_units_Z 10
_cell_length_a 11.564683
_cell_length_b 5.161053
_cell_length_c 8.520264
_cell_angle_alpha 61.846567
_cell_angle_beta 78.475166
_cell_angle_gamma 99.464657
_cell_volume 419.171456
_symmetry_space_group_name_H-M "P -1"
_symmetry_group_IT_number 2
_symmetry_cell_setting 'triclinic'
loop_
_space_group_symop_operation_xyz
x,y,z
-x,-y,-z
loop_
_atom_site_type_symbol
_atom_site_label
_atom_site_fract_x
_atom_site_fract_y
_atom_site_fract_z
Si Si1 0.074321 0.356141 0.343518
Si Si2 0.844251 0.615224 0.364215
Si Si3 0.222109 0.855949 0.954567
Si Si4 0.571647 0.753639 0.036913
Si Si5 0.381997 0.743882 0.660817
O O1 0.176445 0.398123 0.440225
O O2 0.974528 0.545458 0.332962
O O3 0.141280 0.511369 0.122480
O O4 0.000000 0.000000 0.500000
O O5 0.734818 0.345774 0.395537
O O6 0.844639 0.930082 0.184916
O O7 0.327002 0.815099 0.819961
O O8 0.283202 0.037214 0.046306
O O9 0.500000 0.500000 0.000000
O O10 0.569753 0.550816 0.248998
O O11 0.500000 0.000000 0.000000
O O12 0.500000 0.000000 0.500000
#
# Coordination Sequence:
#
# PCOD9051053 Si02
#       5
#     2   2   2   2   2
#     4  11  25  45  75 105 145 194 254 309 372 447
#     4  10  25  45  68 107 145 193 248 308 376 444
#     4  11  25  46  73 106 151 197 245 311 374 446
#     4  11  24  45  71 108 146 197 247 302 370 447
#     4  11  26  46  73 106 153 193 250 308 373 447
#
# _framework density 23.856584999999999
#
# number of rings (size 3 to 8) (size 9 to 14) (size 15 to 20)
#    0.000    1.200    2.000    1.800    2.800   16.000 
#    0.000    0.000    0.000    0.000    0.000    0.000 
#    0.000    0.000    0.000    0.000    0.000    0.000 
#
# Total GULP energy -55749.534187 kJ/mol
# GULP energy per Si atom -5574.953419 kJ/mol
# Density = 2.380229 g / cm^3
# Si number density = 23.856585 Si / 1000 Ang^3
#
#
#
# Elastic Constant Matrix: (Units=GPa)
#
#
# Indices 1 2 3 4 5 6 
#
# 1 107.0873 47.2881 60.5181 2.8727 30.9265 -1.3868
# 2 47.2881 115.0053 54.3530 -14.0128 10.7831 8.9169
# 3 60.5181 54.3530 159.1140 -27.8801 -7.5749 -4.1314
# 4 2.8727 -14.0128 -27.8801 35.9088 2.7440 14.1989
# 5 30.9265 10.7831 -7.5749 2.7440 50.7494 -2.0965
# 6 -1.3868 8.9169 -4.1314 14.1989 -2.0965 49.1202
#
#
#
# Elastic Compliance Matrix: (Units=1/GPa)
#
#
# Indices 1 2 3 4 5 6 
#
# 1 0.019565 -0.004605 -0.008085 -0.009990 -0.011483 0.003106
# 2 -0.004605 0.012427 -0.001640 0.005639 -0.000556 -0.004178
# 3 -0.008085 -0.001640 0.011807 0.009200 0.006486 -0.001320
# 4 -0.009990 0.005639 0.009200 0.042770 0.003424 -0.012749
# 5 -0.011483 -0.000556 0.006486 0.003424 0.027624 0.000512
# 6 0.003106 -0.004178 -0.001320 -0.012749 0.000512 0.024800
#
#
# Mechanical properties :
#
#
# Convention : Reuss Voigt Hill
#
# Bulk Modulus (GPa) = 66.05933 78.39168 72.22551
# Shear Modulus (GPa) = 28.95161 41.75885 35.35523
#
# Velocity S-wave (km/s) = 3.48741 4.18833 3.85384
# Velocity P-wave (km/s) = 6.63071 7.50469 7.08120
#
# Compressibility (1/GPa) = 0.01513791
#
# Stress axis : x y z
#
# Youngs Moduli (GPa) = 51.11106 80.46799 84.69745
#
# Poissons Ratio (x) = 0.37058 0.68477
# Poissons Ratio (y) = 0.23538 0.13894
# Poissons Ratio (z) = 0.41323 0.13201
#
# Static dielectric constant tensor:
#      x y z
#    x 1.972870 0.144810 -0.087470 
#    y 0.144810 2.210570 -0.087730 
#    z -0.087470 -0.087730 1.968450 
# 
# From -- ./inp_files/18695.got.cif
#   From: 2010.05.17/outbox.cif.g08.bks.cpg/sg2_10_cif.got.tgz:18695.got - 2010.06.03 11:33:40.
