data_PCOD9051949
_publ_section_title
;
Structure prediction by ZEFSAII (Michael W. Deem and Ramdas Pophale) SiO2 
 PCOD9051949
Probable space group: P -1
;
_chemical_formula_sum "Si O2"
_cell_formula_units_Z 16
_cell_length_a 8.666318
_cell_length_b 16.343537
_cell_length_c 15.492328
_cell_angle_alpha 153.395073
_cell_angle_beta 44.017123
_cell_angle_gamma 134.107677
_cell_volume 672.860025
_symmetry_space_group_name_H-M "P -1"
_symmetry_group_IT_number 2
_symmetry_cell_setting 'triclinic'
loop_
_space_group_symop_operation_xyz
x,y,z
-x,-y,-z
loop_
_atom_site_type_symbol
_atom_site_label
_atom_site_fract_x
_atom_site_fract_y
_atom_site_fract_z
Si Si1 0.317417 0.981995 0.761991
Si Si2 0.191023 0.023791 0.515456
Si Si3 0.452587 0.289270 0.132210
Si Si4 0.021652 0.519528 0.310990
Si Si5 0.275293 0.650835 0.590630
Si Si6 0.673749 0.805490 0.708979
Si Si7 0.726516 0.135558 0.508515
Si Si8 0.088084 0.793021 0.079400
O O1 0.569842 0.954186 0.606387
O O2 0.227459 0.811185 0.698424
O O3 0.192575 0.965652 0.704481
O O4 0.335391 0.166185 0.984688
O O5 0.128205 0.182188 0.753349
O O6 0.157870 0.850607 0.431274
O O7 0.000000 0.000000 0.500000
O O8 0.395987 0.494587 0.351126
O O9 0.378500 0.199510 0.172035
O O10 0.719033 0.283833 0.016193
O O11 0.952932 0.447928 0.365861
O O12 0.837582 0.653030 0.489205
O O13 0.258659 0.655896 0.333784
O O14 0.988860 0.348051 0.099049
O O15 0.447500 0.738168 0.680545
O O16 0.788222 0.005144 0.814582
O O17 0.500000 0.000000 0.500000
#
# Coordination Sequence:
#
# PCOD9051949 Si02
#       8
#     2   2   2   2   2   2   2   2
#     4  11  24  44  62  92 141 174 213 270 328 386
#     4  11  22  42  70  95 124 170 225 270 317 385
#     4  11  20  35  64 100 132 173 210 266 332 385
#     4  11  22  40  67  98 131 170 220 271 320 388
#     4  11  21  38  65 103 137 165 216 269 328 387
#     4  11  19  36  63 101 141 161 212 279 326 375
#     4  10  25  49  66  86 137 182 211 274 328 377
#     4  12  20  35  67 102 125 170 217 268 334 374
#
# _framework density 23.779091000000001
#
# number of rings (size 3 to 8) (size 9 to 14) (size 15 to 20)
#    0.000    1.000    6.250    1.875    0.000    0.500 
#    6.750    5.000    0.000    0.000    0.000    0.000 
#    0.000    0.000    0.000    0.000    0.000    0.000 
#
# Total GULP energy -89446.123980 kJ/mol
# GULP energy per Si atom -5590.382749 kJ/mol
# Density = 2.372497 g / cm^3
# Si number density = 23.779091 Si / 1000 Ang^3
#
#
#
# Elastic Constant Matrix: (Units=GPa)
#
#
# Indices 1 2 3 4 5 6 
#
# 1 81.8084 22.8998 10.6017 3.0657 12.3671 -8.4631
# 2 22.8998 119.9055 25.1598 4.8926 10.3158 2.9023
# 3 10.6017 25.1598 140.8499 2.0823 19.5707 8.8789
# 4 3.0657 4.8926 2.0823 29.9474 6.9238 4.3234
# 5 12.3671 10.3158 19.5707 6.9238 41.9521 -9.2966
# 6 -8.4631 2.9023 8.8789 4.3234 -9.2966 33.7440
#
#
#
# Elastic Compliance Matrix: (Units=1/GPa)
#
#
# Indices 1 2 3 4 5 6 
#
# 1 0.013667 -0.002349 -0.000469 -0.000898 -0.002372 0.003215
# 2 -0.002349 0.009204 -0.001212 -0.000721 -0.001173 -0.001292
# 3 -0.000469 -0.001212 0.008159 0.001190 -0.004344 -0.003509
# 4 -0.000898 -0.000721 0.001190 0.036352 -0.007721 -0.007261
# 5 -0.002372 -0.001173 -0.004344 -0.007721 0.030340 0.009997
# 6 0.003215 -0.001292 -0.003509 -0.007261 0.009997 0.035160
#
#
# Mechanical properties :
#
#
# Convention : Reuss Voigt Hill
#
# Bulk Modulus (GPa) = 43.53523 51.09851 47.31687
# Shear Modulus (GPa) = 33.64745 40.05555 36.85150
#
# Velocity S-wave (km/s) = 3.76573 4.10870 3.94095
# Velocity P-wave (km/s) = 6.10374 6.63657 6.37572
#
# Compressibility (1/GPa) = 0.02296990
#
# Stress axis : x y z
#
# Youngs Moduli (GPa) = 73.17046 108.64290 122.56737
#
# Poissons Ratio (x) = 0.25518 0.05748
# Poissons Ratio (y) = 0.17186 0.14859
# Poissons Ratio (z) = 0.03431 0.13171
#
# Static dielectric constant tensor:
#      x y z
#    x 2.070780 0.065310 -0.020550 
#    y 0.065310 1.940700 -0.021900 
#    z -0.020550 -0.021900 1.897050 
# 
# From -- ./inp_files/505694.got.cif
#   From: 2010.05.17/outbox.cif.g08.bks.cpg/sg2_253_cif.got.tgz:505694.got - 2010.06.03 11:33:40.
