data_PCOD9051866
_publ_section_title
;
Structure prediction by ZEFSAII (Michael W. Deem and Ramdas Pophale) SiO2 
 PCOD9051866
Probable space group: P -1
;
_chemical_formula_sum "Si O2"
_cell_formula_units_Z 16
_cell_length_a 11.297087
_cell_length_b 9.397690
_cell_length_c 14.505243
_cell_angle_alpha 98.576376
_cell_angle_beta 30.103717
_cell_angle_gamma 106.655776
_cell_volume 724.170327
_symmetry_space_group_name_H-M "P -1"
_symmetry_group_IT_number 2
_symmetry_cell_setting 'triclinic'
loop_
_space_group_symop_operation_xyz
x,y,z
-x,-y,-z
loop_
_atom_site_type_symbol
_atom_site_label
_atom_site_fract_x
_atom_site_fract_y
_atom_site_fract_z
Si Si1 0.656649 0.303930 0.766529
Si Si2 0.033022 0.544834 0.876304
Si Si3 0.925770 0.761661 0.850262
Si Si4 0.428184 0.358418 0.435300
Si Si5 0.998152 0.908486 0.218338
Si Si6 0.125039 0.556455 0.561976
Si Si7 0.783720 0.007908 0.715796
Si Si8 0.638692 0.248848 0.099910
O O1 0.732643 0.355299 0.615062
O O2 0.686290 0.141546 0.756067
O O3 0.864534 0.431626 0.695976
O O4 0.369721 0.289449 0.974114
O O5 0.319646 0.561564 0.670631
O O6 0.976561 0.698611 0.908368
O O7 0.000000 0.500000 0.000000
O O8 0.820441 0.409899 0.956388
O O9 0.059859 0.676420 0.683238
O O10 0.038945 0.940893 0.781576
O O11 0.291908 0.466531 0.489541
O O12 0.513112 0.275311 0.282130
O O13 0.244693 0.231221 0.610140
O O14 0.125219 0.953149 0.237840
O O15 0.179505 0.852379 0.025126
O O16 0.574952 0.843817 0.834412
O O17 0.000000 0.000000 0.500000
#
# Coordination Sequence:
#
# PCOD9051866 Si02
#       8
#     2   2   2   2   2   2   2   2
#     4  11  23  42  63 104 142 174 223 275 341 408
#     4  10  25  48  72  95 130 186 237 284 333 396
#     4  12  26  41  67 101 139 175 226 283 340 406
#     4  11  24  48  69  96 134 182 238 278 333 398
#     4  12  25  40  69 106 136 178 220 276 352 408
#     4  11  24  42  70 100 137 183 223 280 336 404
#     4  12  22  41  68 102 143 179 216 272 347 415
#     4  11  23  43  70  95 135 182 223 278 336 405
#
# _framework density 22.094251
#
# number of rings (size 3 to 8) (size 9 to 14) (size 15 to 20)
#    0.000    0.750    3.750    3.750    0.000    5.500 
#    0.000    2.500    0.000    0.000    0.000    0.000 
#    0.000    0.000    0.000    0.000    0.000    0.000 
#
# Total GULP energy -89537.843493 kJ/mol
# GULP energy per Si atom -5596.115218 kJ/mol
# Density = 2.204396 g / cm^3
# Si number density = 22.094251 Si / 1000 Ang^3
#
#
#
# Elastic Constant Matrix: (Units=GPa)
#
#
# Indices 1 2 3 4 5 6 
#
# 1 83.6161 45.9729 31.2135 -11.6714 1.2982 -24.8509
# 2 45.9729 138.8728 51.1973 2.6717 5.2087 -37.3272
# 3 31.2135 51.1973 102.8301 9.6220 -10.0737 -9.4544
# 4 -11.6714 2.6717 9.6220 56.5013 8.8998 -3.1264
# 5 1.2982 5.2087 -10.0737 8.8998 38.8724 -0.5879
# 6 -24.8509 -37.3272 -9.4544 -3.1264 -0.5879 45.4335
#
#
#
# Elastic Compliance Matrix: (Units=1/GPa)
#
#
# Indices 1 2 3 4 5 6 
#
# 1 0.017796 -0.002374 -0.004298 0.005313 -0.002497 0.007222
# 2 -0.002374 0.011864 -0.004833 0.000624 -0.002793 0.007449
# 3 -0.004298 -0.004833 0.014004 -0.004079 0.005299 -0.003619
# 4 0.005313 0.000624 -0.004079 0.020620 -0.005980 0.003911
# 5 -0.002497 -0.002793 0.005299 -0.005980 0.028886 -0.002596
# 6 0.007222 0.007449 -0.003619 0.003911 -0.002596 0.031563
#
#
# Mechanical properties :
#
#
# Convention : Reuss Voigt Hill
#
# Bulk Modulus (GPa) = 48.41790 64.67628 56.54709
# Shear Modulus (GPa) = 32.33605 41.29046 36.81326
#
# Velocity S-wave (km/s) = 3.82979 4.32769 4.08633
# Velocity P-wave (km/s) = 6.44346 7.36942 6.92194
#
# Compressibility (1/GPa) = 0.02065352
#
# Stress axis : x y z
#
# Youngs Moduli (GPa) = 56.19270 84.29139 71.41002
#
# Poissons Ratio (x) = 0.20012 0.30689
# Poissons Ratio (y) = 0.13341 0.34513
# Poissons Ratio (z) = 0.24149 0.40739
#
# Static dielectric constant tensor:
#      x y z
#    x 1.836140 0.037550 0.008330 
#    y 0.037550 1.805810 0.004160 
#    z 0.008330 0.004160 1.839660 
# 
# From -- ./inp_files/391668.got.cif
#   From: 2010.05.17/outbox.cif.g08.bks.cpg/sg2_196_cif.got.tgz:391668.got - 2010.06.03 11:33:40.
