data_PCOD9051101
_publ_section_title
;
Structure prediction by ZEFSAII (Michael W. Deem and Ramdas Pophale) SiO2 
 PCOD9051101
Probable space group: P -1
;
_chemical_formula_sum "Si O2"
_cell_formula_units_Z 16
_cell_length_a 7.238235
_cell_length_b 17.196791
_cell_length_c 9.002109
_cell_angle_alpha 144.540659
_cell_angle_beta 118.645320
_cell_angle_gamma 66.528424
_cell_volume 570.418211
_symmetry_space_group_name_H-M "P -1"
_symmetry_group_IT_number 2
_symmetry_cell_setting 'triclinic'
loop_
_space_group_symop_operation_xyz
x,y,z
-x,-y,-z
loop_
_atom_site_type_symbol
_atom_site_label
_atom_site_fract_x
_atom_site_fract_y
_atom_site_fract_z
Si Si1 0.699557 0.147851 0.419925
Si Si2 0.108371 0.740097 0.050270
Si Si3 0.294523 0.317728 0.729614
Si Si4 0.957980 0.230989 0.231275
Si Si5 0.458886 0.247271 0.960859
Si Si6 0.362114 0.963896 0.079660
Si Si7 0.438849 0.585447 0.286642
Si Si8 0.234391 0.471455 0.413542
O O1 0.865219 0.181017 0.663874
O O2 0.673872 0.275677 0.498049
O O3 0.487697 0.101454 0.352874
O O4 0.708864 0.037784 0.123282
O O5 0.334797 0.747542 0.062663
O O6 0.959028 0.790814 0.938017
O O7 0.995606 0.597086 0.802585
O O8 0.294436 0.223921 0.728968
O O9 0.491586 0.364649 0.773882
O O10 0.126621 0.264767 0.470004
O O11 0.272690 0.467413 0.026879
O O12 0.817124 0.372035 0.396216
O O13 0.840920 0.094519 0.009870
O O14 0.476528 0.138296 0.927625
O O15 0.383461 0.384824 0.225856
O O16 0.641365 0.551849 0.416220
#
# Coordination Sequence:
#
# PCOD9051101 Si02
#       8
#     2   2   2   2   2   2   2   2
#     4  11  23  46  70  96 132 187 227 281 346 395
#     4  11  24  43  70 100 138 178 224 279 339 405
#     4  11  24  40  67 105 136 176 224 277 345 406
#     4  11  25  42  65 103 142 176 226 285 332 409
#     4  11  25  44  68 103 137 182 222 284 336 407
#     4  10  25  45  69  96 136 178 234 284 335 406
#     4  11  22  41  69  96 139 180 224 275 340 412
#     4  12  25  43  70 105 142 179 224 279 349 401
#
# _framework density 28.049596000000001
#
# number of rings (size 3 to 8) (size 9 to 14) (size 15 to 20)
#    0.000    1.000    3.750    2.625    7.000    5.000 
#    0.000    2.500    0.000    0.000    0.000    0.000 
#    0.000    0.000    0.000    0.000    0.000    0.000 
#
# Total GULP energy -89111.605873 kJ/mol
# GULP energy per Si atom -5569.475367 kJ/mol
# Density = 2.798575 g / cm^3
# Si number density = 28.049596 Si / 1000 Ang^3
#
#
#
# Elastic Constant Matrix: (Units=GPa)
#
#
# Indices 1 2 3 4 5 6 
#
# 1 87.8259 36.5756 2.3562 -2.4556 7.2497 11.3014
# 2 36.5756 184.8153 76.1860 -38.6181 -8.9919 5.1798
# 3 2.3562 76.1860 165.4542 -47.4062 30.7231 21.4821
# 4 -2.4556 -38.6181 -47.4062 64.2193 13.5461 10.1764
# 5 7.2497 -8.9919 30.7231 13.5461 33.6564 2.2225
# 6 11.3014 5.1798 21.4821 10.1764 2.2225 36.9037
#
#
#
# Elastic Compliance Matrix: (Units=1/GPa)
#
#
# Indices 1 2 3 4 5 6 
#
# 1 0.017113 -0.006126 0.010805 0.010888 -0.018741 -0.012545
# 2 -0.006126 0.009980 -0.009683 -0.005532 0.014605 0.006758
# 3 0.010805 -0.009683 0.030047 0.029742 -0.042658 -0.025073
# 4 0.010888 -0.005532 0.029742 0.049810 -0.048996 -0.030655
# 5 -0.018741 0.014605 -0.042658 -0.048996 0.093909 0.036376
# 6 -0.012545 0.006758 -0.025073 -0.030655 0.036376 0.050849
#
#
# Mechanical properties :
#
#
# Convention : Reuss Voigt Hill
#
# Bulk Modulus (GPa) = 21.21643 74.25901 47.73772
# Shear Modulus (GPa) = 18.02292 48.48769 33.25530
#
# Velocity S-wave (km/s) = 2.53758 4.16220 3.44697
# Velocity P-wave (km/s) = 4.02071 7.04487 5.73569
#
# Compressibility (1/GPa) = 0.04713329
#
# Stress axis : x y z
#
# Youngs Moduli (GPa) = 58.43441 100.20164 33.28144
#
# Poissons Ratio (x) = 0.61386 -0.35962
# Poissons Ratio (y) = 0.35798 0.32225
# Poissons Ratio (z) = -0.63141 0.97021
#
# Static dielectric constant tensor:
#      x y z
#    x 2.507010 -0.128650 -0.070220 
#    y -0.128650 2.290190 0.065390 
#    z -0.070220 0.065390 2.372410 
# 
# From -- ./inp_files/218990.got.cif
#   From: 2010.05.17/outbox.cif.g08.bks.cpg/sg2_110_cif.got.tgz:218990.got - 2010.06.03 11:33:40.
