data_PCOD9051089
_publ_section_title
;
Structure prediction by ZEFSAII (Michael W. Deem and Ramdas Pophale) SiO2 
 PCOD9051089
Probable space group: P -1
;
_chemical_formula_sum "Si O2"
_cell_formula_units_Z 16
_cell_length_a 26.254494
_cell_length_b 9.899430
_cell_length_c 9.622308
_cell_angle_alpha 136.194358
_cell_angle_beta 137.817897
_cell_angle_gamma 27.930887
_cell_volume 768.549940
_symmetry_space_group_name_H-M "P -1"
_symmetry_group_IT_number 2
_symmetry_cell_setting 'triclinic'
loop_
_space_group_symop_operation_xyz
x,y,z
-x,-y,-z
loop_
_atom_site_type_symbol
_atom_site_label
_atom_site_fract_x
_atom_site_fract_y
_atom_site_fract_z
Si Si1 0.739248 0.198592 0.981811
Si Si2 0.102946 0.160165 0.494686
Si Si3 0.486379 0.252050 0.409284
Si Si4 0.519415 0.276121 0.184331
Si Si5 0.226058 0.673621 0.151260
Si Si6 0.711448 0.803509 0.690551
Si Si7 0.731362 0.818231 0.070931
Si Si8 0.891369 0.128519 0.457752
O O1 0.607045 0.511412 0.974586
O O2 0.770957 0.235388 0.926473
O O3 0.741174 0.959464 0.802316
O O4 0.820463 0.125046 0.209371
O O5 0.204639 0.102380 0.714037
O O6 0.000000 0.500000 0.500000
O O7 0.149144 0.951711 0.302053
O O8 0.069922 0.071300 0.480501
O O9 0.526615 0.155094 0.258054
O O10 0.473230 0.508055 0.604958
O O11 0.357948 0.419358 0.285490
O O12 0.586781 0.983469 0.512586
O O13 0.617669 0.035813 0.096915
O O14 0.192380 0.512050 0.968052
O O15 0.806886 0.463310 0.587067
O O16 0.708088 0.837135 0.874570
O O17 0.000000 0.000000 0.500000
#
# Coordination Sequence:
#
# PCOD9051089 Si02
#       8
#     2   2   2   2   2   2   2   2
#     4  10  25  45  69 105 141 182 228 283 337 413
#     4  12  29  50  70  99 140 181 233 293 341 409
#     4   9  20  40  68 103 144 183 224 274 336 421
#     4   9  20  39  69 103 144 184 223 271 347 409
#     4  11  25  44  70 108 139 183 233 276 341 420
#     4  11  25  44  69 104 143 177 226 288 345 407
#     4  12  25  43  70 104 143 181 223 289 348 404
#     4  12  29  49  71 101 133 183 239 285 345 412
#
# _framework density 20.818425999999999
#
# number of rings (size 3 to 8) (size 9 to 14) (size 15 to 20)
#    0.000    1.250    3.750    0.750    7.000    6.500 
#    0.000    0.000    0.000    0.000    0.000    0.000 
#    0.000    0.000    0.000    0.000    0.000    0.000 
#
# Total GULP energy -89520.843437 kJ/mol
# GULP energy per Si atom -5595.052715 kJ/mol
# Density = 2.077104 g / cm^3
# Si number density = 20.818426 Si / 1000 Ang^3
#
#
#
# Elastic Constant Matrix: (Units=GPa)
#
#
# Indices 1 2 3 4 5 6 
#
# 1 85.2828 43.2464 5.5214 21.5032 -17.0313 3.7877
# 2 43.2464 117.1546 27.5428 21.1432 -22.4507 4.8924
# 3 5.5214 27.5428 47.3213 15.6020 -10.7652 -5.3965
# 4 21.5032 21.1432 15.6020 32.5289 0.9341 0.1532
# 5 -17.0313 -22.4507 -10.7652 0.9341 29.3516 5.6698
# 6 3.7877 4.8924 -5.3965 0.1532 5.6698 37.6002
#
#
#
# Elastic Compliance Matrix: (Units=1/GPa)
#
#
# Indices 1 2 3 4 5 6 
#
# 1 0.019117 -0.003924 0.006959 -0.013745 0.011485 -0.002092
# 2 -0.003924 0.013240 -0.004752 -0.003914 0.006816 -0.003021
# 3 0.006959 -0.004752 0.031789 -0.017119 0.012081 0.002728
# 4 -0.013745 -0.003914 -0.017119 0.051126 -0.019288 0.002137
# 5 0.011485 0.006816 0.012081 -0.019288 0.052568 -0.008158
# 6 -0.002092 -0.003021 0.002728 0.002137 -0.008158 0.028812
#
#
# Mechanical properties :
#
#
# Convention : Reuss Voigt Hill
#
# Bulk Modulus (GPa) = 16.47092 44.70889 30.58990
# Shear Modulus (GPa) = 22.69377 31.45934 27.07656
#
# Velocity S-wave (km/s) = 3.30522 3.89154 3.61030
# Velocity P-wave (km/s) = 4.74287 6.45867 5.66609
#
# Compressibility (1/GPa) = 0.06071306
#
# Stress axis : x y z
#
# Youngs Moduli (GPa) = 52.30892 75.52816 31.45696
#
# Poissons Ratio (x) = 0.29638 -0.21892
# Poissons Ratio (y) = 0.20527 0.14948
# Poissons Ratio (z) = -0.36403 0.35891
#
# Static dielectric constant tensor:
#      x y z
#    x 1.739190 0.018730 0.045020 
#    y 0.018730 1.718800 -0.003110 
#    z 0.045020 -0.003110 1.753340 
# 
# From -- ./inp_files/352440.got.cif
#   From: 2010.05.17/outbox.cif.g08.bks.cpg/sg2_177_cif.got.tgz:352440.got - 2010.06.03 11:33:40.
