data_PCOD9051579
_publ_section_title
;
Structure prediction by ZEFSAII (Michael W. Deem and Ramdas Pophale) SiO2 
 PCOD9051579
Probable space group: P -1
;
_chemical_formula_sum "Si O2"
_cell_formula_units_Z 13
_cell_length_a 9.565045
_cell_length_b 8.694505
_cell_length_c 12.382914
_cell_angle_alpha 65.195201
_cell_angle_beta 131.585140
_cell_angle_gamma 132.769662
_cell_volume 564.529556
_symmetry_space_group_name_H-M "P -1"
_symmetry_group_IT_number 2
_symmetry_cell_setting 'triclinic'
loop_
_space_group_symop_operation_xyz
x,y,z
-x,-y,-z
loop_
_atom_site_type_symbol
_atom_site_label
_atom_site_fract_x
_atom_site_fract_y
_atom_site_fract_z
Si Si1 0.245144 0.544343 0.587681
Si Si2 0.252232 0.175011 0.623937
Si Si3 0.797359 0.188776 0.172450
Si Si4 0.000000 0.000000 0.000000
Si Si5 0.297216 0.608490 0.347740
Si Si6 0.898905 0.268871 0.966692
Si Si7 0.496555 0.688135 0.897737
O O1 0.227439 0.331582 0.634269
O O2 0.323075 0.646847 0.478157
O O3 0.407566 0.666468 0.736022
O O4 0.000000 0.500000 0.500000
O O5 0.461099 0.316973 0.604751
O O6 0.301460 0.030602 0.756742
O O7 0.000000 0.000000 0.500000
O O8 0.675036 0.290190 0.125071
O O9 0.075124 0.364520 0.288490
O O10 0.764624 0.146362 0.041876
O O11 0.083267 0.226664 0.035825
O O12 0.757841 0.891421 0.968950
O O13 0.226993 0.739975 0.206057
O O14 0.000000 0.500000 0.000000
O O15 0.500000 0.500000 0.000000
#
# Coordination Sequence:
#
# PCOD9051579 Si02
#       7
#     2   2   2   1   2   2   2
#     4  12  27  50  77 108 157 200 251 331 379 455
#     4  12  26  44  76 111 145 201 255 309 390 468
#     4  11  25  49  75 111 151 198 258 312 389 460
#     4  12  28  46  76 116 148 202 262 308 398 454
#     4  11  24  48  74 106 153 198 253 317 390 447
#     4  10  25  46  78 110 153 199 251 324 376 465
#     4  12  28  50  75 113 153 201 260 321 384 462
#
# _framework density 23.028026000000001
#
# number of rings (size 3 to 8) (size 9 to 14) (size 15 to 20)
#    0.000    0.615    3.077    3.231    8.615    1.231 
#    0.000    3.846    0.000    0.000    0.000    0.000 
#    0.000    0.000    0.000    0.000    0.000    0.000 
#
# Total GULP energy -72425.550911 kJ/mol
# GULP energy per Si atom -5571.196224 kJ/mol
# Density = 2.297561 g / cm^3
# Si number density = 23.028026 Si / 1000 Ang^3
#
#
#
# Elastic Constant Matrix: (Units=GPa)
#
#
# Indices 1 2 3 4 5 6 
#
# 1 211.4853 80.4665 68.3494 -4.0087 2.4141 -13.3468
# 2 80.4665 98.3507 38.0630 -7.9996 -0.9026 18.8393
# 3 68.3494 38.0630 116.6652 -19.6251 -18.7834 9.1953
# 4 -4.0087 -7.9996 -19.6251 43.8348 7.8789 6.4500
# 5 2.4141 -0.9026 -18.7834 7.8789 47.8571 6.4931
# 6 -13.3468 18.8393 9.1953 6.4500 6.4931 54.3267
#
#
#
# Elastic Compliance Matrix: (Units=1/GPa)
#
#
# Indices 1 2 3 4 5 6 
#
# 1 0.009377 -0.007398 -0.004518 -0.002949 -0.002757 0.006314
# 2 -0.007398 0.018242 -0.000114 0.003658 0.001252 -0.008708
# 3 -0.004518 -0.000114 0.013344 0.005276 0.005215 -0.004579
# 4 -0.002949 0.003658 0.005276 0.026675 -0.001303 -0.005897
# 5 -0.002757 0.001252 0.005215 -0.001303 0.023958 -0.004703
# 6 0.006314 -0.008708 -0.004579 -0.005897 -0.004703 0.025015
#
#
# Mechanical properties :
#
#
# Convention : Reuss Voigt Hill
#
# Bulk Modulus (GPa) = 59.16092 88.91766 74.03929
# Shear Modulus (GPa) = 34.17511 45.17855 39.67683
#
# Velocity S-wave (km/s) = 3.85654 4.43413 4.15538
# Velocity P-wave (km/s) = 6.75108 8.05680 7.43267
#
# Compressibility (1/GPa) = 0.01690305
#
# Stress axis : x y z
#
# Youngs Moduli (GPa) = 106.63825 54.81866 74.94264
#
# Poissons Ratio (x) = 0.40557 0.33856
# Poissons Ratio (y) = 0.78896 0.00854
# Poissons Ratio (z) = 0.48175 0.00625
#
# Static dielectric constant tensor:
#      x y z
#    x 1.897980 -0.242070 0.012220 
#    y -0.242070 2.718170 0.032560 
#    z 0.012220 0.032560 1.950200 
# 
# From -- ./inp_files/378497.got.cif
#   From: 2010.05.17/outbox.cif.g08.bks.cpg/sg2_190_cif.got.tgz:378497.got - 2010.06.03 11:33:40.
