data_PCOD9051837
_publ_section_title
;
Structure prediction by ZEFSAII (Michael W. Deem and Ramdas Pophale) SiO2 
 PCOD9051837
Probable space group: P -1
;
_chemical_formula_sum "Si O2"
_cell_formula_units_Z 15
_cell_length_a 6.637788
_cell_length_b 11.132804
_cell_length_c 18.935043
_cell_angle_alpha 47.802431
_cell_angle_beta 143.913591
_cell_angle_gamma 122.907235
_cell_volume 610.566690
_symmetry_space_group_name_H-M "P -1"
_symmetry_group_IT_number 2
_symmetry_cell_setting 'triclinic'
loop_
_space_group_symop_operation_xyz
x,y,z
-x,-y,-z
loop_
_atom_site_type_symbol
_atom_site_label
_atom_site_fract_x
_atom_site_fract_y
_atom_site_fract_z
Si Si1 0.500000 0.500000 0.500000
Si Si2 0.580470 0.403759 0.861441
Si Si3 0.114859 0.801521 0.268269
Si Si4 0.269170 0.918255 0.906465
Si Si5 0.330725 0.717465 0.742740
Si Si6 0.764070 0.139405 0.496194
Si Si7 0.494980 0.980513 0.795676
Si Si8 0.369085 0.431750 0.336337
O O1 0.428240 0.690394 0.423177
O O2 0.478350 0.537067 0.393389
O O3 0.528050 0.556644 0.836926
O O4 0.699609 0.459735 0.795866
O O5 0.198671 0.325091 0.774597
O O6 0.798063 0.262471 0.015203
O O7 0.201480 0.895555 0.183842
O O8 0.030211 0.949351 0.238494
O O9 0.472305 0.913580 0.893677
O O10 0.500000 0.000000 0.000000
O O11 0.265582 0.815618 0.612920
O O12 0.510944 0.832675 0.804239
O O13 0.977483 0.659164 0.702127
O O14 0.655386 0.303719 0.441557
O O15 0.500000 0.000000 0.500000
O O16 0.141601 0.074446 0.643212
#
# Coordination Sequence:
#
# PCOD9051837 Si02
#       8
#     1   2   2   2   2   2   2   2
#     4  12  24  40  68 104 134 180 228 282 354 420
#     4  10  25  48  70  97 143 187 233 293 341 409
#     4  11  26  43  70 106 139 180 235 287 354 412
#     4  10  26  48  68 103 141 189 237 291 340 410
#     4  11  24  45  70 106 138 183 233 286 355 415
#     4  11  24  43  70 103 148 182 225 291 355 426
#     4  12  26  42  74 106 140 187 232 289 356 416
#     4  11  24  43  67 102 143 182 230 291 346 415
#
# _framework density 24.567339
#
# number of rings (size 3 to 8) (size 9 to 14) (size 15 to 20)
#    0.000    1.067    2.667    2.000    9.333    4.267 
#    0.000    1.333    0.000    0.000    0.000    0.000 
#    0.000    0.000    0.000    0.000    0.000    0.000 
#
# Total GULP energy -83752.699906 kJ/mol
# GULP energy per Si atom -5583.513327 kJ/mol
# Density = 2.451142 g / cm^3
# Si number density = 24.567339 Si / 1000 Ang^3
#
#
#
# Elastic Constant Matrix: (Units=GPa)
#
#
# Indices 1 2 3 4 5 6 
#
# 1 162.3507 67.0627 68.8102 -10.4145 -40.1613 -4.2899
# 2 67.0627 106.2912 54.0215 -12.6277 -15.0920 1.1397
# 3 68.8102 54.0215 119.1720 -38.8639 -15.2901 -16.3703
# 4 -10.4145 -12.6277 -38.8639 33.6274 0.6677 -3.5241
# 5 -40.1613 -15.0920 -15.2901 0.6677 46.0297 0.1564
# 6 -4.2899 1.1397 -16.3703 -3.5241 0.1564 58.6366
#
#
#
# Elastic Compliance Matrix: (Units=1/GPa)
#
#
# Indices 1 2 3 4 5 6 
#
# 1 0.011620 -0.004011 -0.005643 -0.004667 0.007020 -0.000946
# 2 -0.004011 0.014287 -0.005211 -0.002115 -0.000509 -0.002152
# 3 -0.005643 -0.005211 0.022698 0.023296 0.000545 0.007424
# 4 -0.004667 -0.002115 0.023296 0.055377 0.002137 0.009526
# 5 0.007020 -0.000509 0.000545 0.002137 0.027831 0.000730
# 6 -0.000946 -0.002152 0.007424 0.009526 0.000730 0.019670
#
#
# Mechanical properties :
#
#
# Convention : Reuss Voigt Hill
#
# Bulk Modulus (GPa) = 52.97701 85.28919 69.13310
# Shear Modulus (GPa) = 26.66595 40.85336 33.75965
#
# Velocity S-wave (km/s) = 3.29815 4.08231 3.71100
# Velocity P-wave (km/s) = 6.00954 7.55064 6.82373
#
# Compressibility (1/GPa) = 0.01887611
#
# Stress axis : x y z
#
# Youngs Moduli (GPa) = 86.05711 69.99403 44.05636
#
# Poissons Ratio (x) = 0.28077 0.24859
# Poissons Ratio (y) = 0.34521 0.22956
# Poissons Ratio (z) = 0.48558 0.36472
#
# Static dielectric constant tensor:
#      x y z
#    x 1.977880 0.050960 0.077120 
#    y 0.050960 1.925920 0.019780 
#    z 0.077120 0.019780 2.011940 
# 
# From -- ./inp_files/81078.got.cif
#   From: 2010.05.17/outbox.cif.g08.bks.cpg/sg2_41_cif.got.tgz:81078.got - 2010.06.03 11:33:40.
