data_PCOD9051568
_publ_section_title
;
Structure prediction by ZEFSAII (Michael W. Deem and Ramdas Pophale) SiO2 
 PCOD9051568
Probable space group: P -1
;
_chemical_formula_sum "Si O2"
_cell_formula_units_Z 14
_cell_length_a 5.561609
_cell_length_b 11.789037
_cell_length_c 11.824471
_cell_angle_alpha 136.319026
_cell_angle_beta 110.102998
_cell_angle_gamma 76.335005
_cell_volume 502.731523
_symmetry_space_group_name_H-M "P -1"
_symmetry_group_IT_number 2
_symmetry_cell_setting 'triclinic'
loop_
_space_group_symop_operation_xyz
x,y,z
-x,-y,-z
loop_
_atom_site_type_symbol
_atom_site_label
_atom_site_fract_x
_atom_site_fract_y
_atom_site_fract_z
Si Si1 0.612496 0.304780 0.512798
Si Si2 0.847559 0.674388 0.423844
Si Si3 0.209906 0.482160 0.117665
Si Si4 0.909098 0.064841 0.704935
Si Si5 0.366652 0.252174 0.791457
Si Si6 0.605729 0.969492 0.871346
Si Si7 0.015479 0.205479 0.049984
O O1 0.341385 0.388402 0.553078
O O2 0.718965 0.344686 0.685792
O O3 0.545670 0.126715 0.321128
O O4 0.860329 0.363723 0.526480
O O5 0.732752 0.642087 0.256264
O O6 0.840625 0.873314 0.554622
O O7 0.397667 0.370830 0.991674
O O8 0.102901 0.374182 0.128054
O O9 0.000000 0.500000 0.000000
O O10 0.124262 0.130326 0.697879
O O11 0.636420 0.162093 0.740873
O O12 0.058764 0.088481 0.864662
O O13 0.829700 0.840919 0.847281
O O14 0.500000 0.000000 0.000000
O O15 0.727799 0.145735 0.986966
#
# Coordination Sequence:
#
# PCOD9051568 Si02
#       7
#     2   2   2   2   2   2   2
#     4  12  27  45  76 110 156 203 258 319 383 470
#     4  12  23  43  68 110 153 196 256 316 384 452
#     4  11  26  52  72 115 164 210 249 303 401 483
#     4  11  22  41  69 108 140 194 258 314 386 437
#     4  11  24  40  69 101 154 201 244 309 377 470
#     4  11  25  50  80 109 144 200 273 335 381 438
#     4  10  25  46  77 105 151 198 256 327 381 448
#
# _framework density 27.847867000000001
#
# number of rings (size 3 to 8) (size 9 to 14) (size 15 to 20)
#    0.000    0.857    2.857    3.429    8.000    3.429 
#    0.000    1.429    0.000    0.000    0.000    0.000 
#    0.000    0.000    0.000    0.000    0.000    0.000 
#
# Total GULP energy -77976.379219 kJ/mol
# GULP energy per Si atom -5569.741373 kJ/mol
# Density = 2.778448 g / cm^3
# Si number density = 27.847867 Si / 1000 Ang^3
#
#
#
# Elastic Constant Matrix: (Units=GPa)
#
#
# Indices 1 2 3 4 5 6 
#
# 1 164.5441 59.5613 47.3553 1.9432 23.8588 27.1691
# 2 59.5613 113.7936 30.2176 -2.6988 10.1538 1.7289
# 3 47.3553 30.2176 196.5245 18.5618 -3.5579 -11.1561
# 4 1.9432 -2.6988 18.5618 24.1923 -2.1610 2.3474
# 5 23.8588 10.1538 -3.5579 -2.1610 37.2704 0.4902
# 6 27.1691 1.7289 -11.1561 2.3474 0.4902 46.7862
#
#
#
# Elastic Compliance Matrix: (Units=1/GPa)
#
#
# Indices 1 2 3 4 5 6 
#
# 1 0.009992 -0.004030 -0.002296 0.000626 -0.005400 -0.006176
# 2 -0.004030 0.011189 -0.000857 0.002031 -0.000454 0.001625
# 3 -0.002296 -0.000857 0.006459 -0.004993 0.001989 0.003135
# 4 0.000626 0.002031 -0.004993 0.045840 0.001279 -0.003943
# 5 -0.005400 -0.000454 0.001989 0.001279 0.030633 0.003242
# 6 -0.006176 0.001625 0.003135 -0.003943 0.003242 0.025811
#
#
# Mechanical properties :
#
#
# Convention : Reuss Voigt Hill
#
# Bulk Modulus (GPa) = 75.33189 83.23673 79.28431
# Shear Modulus (GPa) = 33.62152 44.16497 38.89324
#
# Velocity S-wave (km/s) = 3.47843 3.98670 3.74121
# Velocity P-wave (km/s) = 6.57591 7.15167 6.86983
#
# Compressibility (1/GPa) = 0.01327459
#
# Stress axis : x y z
#
# Youngs Moduli (GPa) = 100.07803 89.37544 154.82397
#
# Poissons Ratio (x) = 0.36018 0.35541
# Poissons Ratio (y) = 0.40331 0.13270
# Poissons Ratio (z) = 0.22974 0.07661
#
# Static dielectric constant tensor:
#      x y z
#    x 2.590980 0.031790 0.060490 
#    y 0.031790 2.177540 0.036280 
#    z 0.060490 0.036280 2.192850 
# 
# From -- ./inp_files/365318.got.cif
#   From: 2010.05.17/outbox.cif.g08.bks.cpg/sg2_183_cif.got.tgz:365318.got - 2010.06.03 11:33:40.
