data_PCOD9051764
_publ_section_title
;
Structure prediction by ZEFSAII (Michael W. Deem and Ramdas Pophale) SiO2 
 PCOD9051764
Probable space group: P -1
;
_chemical_formula_sum "Si O2"
_cell_formula_units_Z 14
_cell_length_a 8.054883
_cell_length_b 9.639512
_cell_length_c 9.659052
_cell_angle_alpha 61.002779
_cell_angle_beta 68.050037
_cell_angle_gamma 50.857383
_cell_volume 506.203890
_symmetry_space_group_name_H-M "P -1"
_symmetry_group_IT_number 2
_symmetry_cell_setting 'triclinic'
loop_
_space_group_symop_operation_xyz
x,y,z
-x,-y,-z
loop_
_atom_site_type_symbol
_atom_site_label
_atom_site_fract_x
_atom_site_fract_y
_atom_site_fract_z
Si Si1 0.867140 0.905450 0.570887
Si Si2 0.626281 0.269656 0.072816
Si Si3 0.457367 0.720291 0.197594
Si Si4 0.470663 0.024384 0.756541
Si Si5 0.109019 0.651131 0.877131
Si Si6 0.818643 0.412826 0.555129
Si Si7 0.950232 0.631864 0.234217
O O1 0.610969 0.042651 0.586313
O O2 0.939561 0.768035 0.751231
O O3 0.958197 0.774439 0.472790
O O4 0.000000 0.000000 0.500000
O O5 0.481215 0.185427 0.178786
O O6 0.803754 0.221149 0.155914
O O7 0.500000 0.500000 0.000000
O O8 0.699952 0.208906 0.920921
O O9 0.686237 0.544843 0.153426
O O10 0.357985 0.636892 0.369238
O O11 0.465950 0.892699 0.172777
O O12 0.214244 0.145535 0.792274
O O13 0.981113 0.388934 0.936587
O O14 0.801515 0.562713 0.377566
O O15 0.850631 0.461604 0.676456
#
# Coordination Sequence:
#
# PCOD9051764 Si02
#       7
#     2   2   2   2   2   2   2
#     4  12  29  47  72 113 157 200 254 324 380 454
#     4  10  25  47  75 111 148 197 252 316 381 452
#     4  11  24  48  78 113 151 202 254 323 380 455
#     4  12  28  45  76 112 156 198 260 315 384 455
#     4  11  27  49  80 109 156 205 258 311 387 458
#     4  11  26  50  76 111 160 198 257 316 394 448
#     4  11  28  48  80 115 149 210 256 316 380 466
#
# _framework density 27.656839000000002
#
# number of rings (size 3 to 8) (size 9 to 14) (size 15 to 20)
#    0.000    0.857    2.857    1.286   12.000    4.571 
#    0.000    0.000    0.000    0.000    0.000    0.000 
#    0.000    0.000    0.000    0.000    0.000    0.000 
#
# Total GULP energy -78275.896779 kJ/mol
# GULP energy per Si atom -5591.135484 kJ/mol
# Density = 2.759389 g / cm^3
# Si number density = 27.656839 Si / 1000 Ang^3
#
#
#
# Elastic Constant Matrix: (Units=GPa)
#
#
# Indices 1 2 3 4 5 6 
#
# 1 135.5826 41.2111 57.4492 6.4732 -25.8949 34.2381
# 2 41.2111 134.3366 44.1663 20.6192 -16.9730 5.4926
# 3 57.4492 44.1663 167.3768 15.1888 -18.6114 12.8450
# 4 6.4732 20.6192 15.1888 45.4016 14.4748 -13.0768
# 5 -25.8949 -16.9730 -18.6114 14.4748 63.8291 8.2548
# 6 34.2381 5.4926 12.8450 -13.0768 8.2548 64.1509
#
#
#
# Elastic Compliance Matrix: (Units=1/GPa)
#
#
# Indices 1 2 3 4 5 6 
#
# 1 0.011853 -0.001215 -0.002125 -0.004434 0.005835 -0.007451
# 2 -0.001215 0.009408 -0.001174 -0.005041 0.002982 -0.001333
# 3 -0.002125 -0.001174 0.007509 -0.002511 0.001714 -0.001001
# 4 -0.004434 -0.005041 -0.002511 0.033299 -0.012943 0.011754
# 5 0.005835 0.002982 0.001714 -0.012943 0.023474 -0.009372
# 6 -0.007451 -0.001333 -0.001001 0.011754 -0.009372 0.023482
#
#
# Mechanical properties :
#
#
# Convention : Reuss Voigt Hill
#
# Bulk Modulus (GPa) = 50.65356 80.32766 65.49061
# Shear Modulus (GPa) = 40.11779 54.30762 47.21271
#
# Velocity S-wave (km/s) = 3.81275 4.43609 4.13618
# Velocity P-wave (km/s) = 6.14309 7.43949 6.82215
#
# Compressibility (1/GPa) = 0.01974195
#
# Stress axis : x y z
#
# Youngs Moduli (GPa) = 84.36701 106.29453 133.17511
#
# Poissons Ratio (x) = 0.12917 0.28295
# Poissons Ratio (y) = 0.10253 0.15635
# Poissons Ratio (z) = 0.17925 0.12479
#
# Static dielectric constant tensor:
#      x y z
#    x 2.234440 0.012060 0.020750 
#    y 0.012060 2.245110 -0.084080 
#    z 0.020750 -0.084080 2.193230 
# 
# From -- ./inp_files/375833.got.cif
#   From: 2010.05.17/outbox.cif.g08.bks.cpg/sg2_188_cif.got.tgz:375833.got - 2010.06.03 11:33:40.
