data_PCOD9051572
_publ_section_title
;
Structure prediction by ZEFSAII (Michael W. Deem and Ramdas Pophale) SiO2 
 PCOD9051572
Probable space group: P -1
;
_chemical_formula_sum "Si O2"
_cell_formula_units_Z 11
_cell_length_a 9.445384
_cell_length_b 9.264813
_cell_length_c 9.462789
_cell_angle_alpha 32.133616
_cell_angle_beta 91.069362
_cell_angle_gamma 89.678531
_cell_volume 440.021318
_symmetry_space_group_name_H-M "P -1"
_symmetry_group_IT_number 2
_symmetry_cell_setting 'triclinic'
loop_
_space_group_symop_operation_xyz
x,y,z
-x,-y,-z
loop_
_atom_site_type_symbol
_atom_site_label
_atom_site_fract_x
_atom_site_fract_y
_atom_site_fract_z
Si Si1 0.796891 0.292989 0.265978
Si Si2 0.665902 0.036170 0.964049
Si Si3 0.855400 0.899201 0.837388
Si Si4 0.500000 0.500000 0.000000
Si Si5 0.091179 0.255750 0.633987
Si Si6 0.239305 0.523241 0.176068
O O1 0.850046 0.037282 0.569235
O O2 0.625973 0.316945 0.233102
O O3 0.842435 0.311829 0.087392
O O4 0.841348 0.577935 0.098781
O O5 0.764777 0.797080 0.232735
O O6 0.719367 0.035640 0.804902
O O7 0.704857 0.286712 0.855725
O O8 0.500000 0.000000 0.000000
O O9 0.989031 0.003606 0.838629
O O10 0.377383 0.408880 0.189510
O O11 0.140346 0.322146 0.421555
O O12 0.000000 0.500000 0.500000
#
# Coordination Sequence:
#
# PCOD9051572 Si02
#       6
#     2   2   2   1   2   2
#     4  10  26  46  77 110 154 201 253 324 387 460
#     4  12  28  46  81 112 150 211 268 320 385 465
#     4  12  26  48  77 112 158 202 257 317 398 465
#     4   8  22  48  70 112 160 194 256 318 394 442
#     4  12  27  49  76 113 161 202 259 324 394 468
#     4  10  25  46  77 108 155 204 257 319 390 461
#
# _framework density 24.998788999999999
#
# number of rings (size 3 to 8) (size 9 to 14) (size 15 to 20)
#    1.091    0.000    1.818    2.727    7.636    2.909 
#    0.000    0.000    0.000    0.000    0.000    0.000 
#    0.000    0.000    0.000    0.000    0.000    0.000 
#
# Total GULP energy -61325.465762 kJ/mol
# GULP energy per Si atom -5575.042342 kJ/mol
# Density = 2.494189 g / cm^3
# Si number density = 24.998789 Si / 1000 Ang^3
#
#
#
# Elastic Constant Matrix: (Units=GPa)
#
#
# Indices 1 2 3 4 5 6 
#
# 1 144.1868 23.5734 24.5680 -5.5235 3.6071 -28.2853
# 2 23.5734 94.1586 18.7360 -3.1950 -28.3086 -12.3478
# 3 24.5680 18.7360 92.9403 16.8138 2.6096 -5.9243
# 4 -5.5235 -3.1950 16.8138 49.8753 -1.5200 -9.8986
# 5 3.6071 -28.3086 2.6096 -1.5200 44.4496 11.9324
# 6 -28.2853 -12.3478 -5.9243 -9.8986 11.9324 40.9348
#
#
#
# Elastic Compliance Matrix: (Units=1/GPa)
#
#
# Indices 1 2 3 4 5 6 
#
# 1 0.009236 -0.001991 -0.001995 0.002900 -0.003758 0.007289
# 2 -0.001991 0.014776 -0.003091 0.002126 0.009743 0.000308
# 3 -0.001995 -0.003091 0.012825 -0.005005 -0.002478 -0.000942
# 4 0.002900 0.002126 -0.005005 0.023709 0.000183 0.007600
# 5 -0.003758 0.009743 -0.002478 0.000183 0.031627 -0.009191
# 6 0.007289 0.000308 -0.000942 0.007600 -0.009191 0.033939
#
#
# Mechanical properties :
#
#
# Convention : Reuss Voigt Hill
#
# Bulk Modulus (GPa) = 44.08468 51.67119 47.87794
# Shear Modulus (GPa) = 33.82375 44.67915 39.25145
#
# Velocity S-wave (km/s) = 3.68233 4.23218 3.96679
# Velocity P-wave (km/s) = 5.97933 6.67803 6.33832
#
# Compressibility (1/GPa) = 0.02268362
#
# Stress axis : x y z
#
# Youngs Moduli (GPa) = 108.27381 67.67874 77.97347
#
# Poissons Ratio (x) = 0.13474 0.15552
# Poissons Ratio (y) = 0.21557 0.24101
# Poissons Ratio (z) = 0.21595 0.20919
#
# Static dielectric constant tensor:
#      x y z
#    x 1.914710 0.042890 0.017460 
#    y 0.042890 2.024960 0.001390 
#    z 0.017460 0.001390 2.035270 
# 
# From -- ./inp_files/383762.got.cif
#   From: 2010.05.17/outbox.cif.g08.bks.cpg/sg2_192_cif.got.tgz:383762.got - 2010.06.03 11:33:40.
