data_PCOD9051899
_publ_section_title
;
Structure prediction by ZEFSAII (Michael W. Deem and Ramdas Pophale) SiO2 
 PCOD9051899
Probable space group: P -1
;
_chemical_formula_sum "Si O2"
_cell_formula_units_Z 8
_cell_length_a 9.598607
_cell_length_b 16.699834
_cell_length_c 8.039698
_cell_angle_alpha 34.467671
_cell_angle_beta 31.380524
_cell_angle_gamma 27.988050
_cell_volume 301.506008
_symmetry_space_group_name_H-M "P -1"
_symmetry_group_IT_number 2
_symmetry_cell_setting 'triclinic'
loop_
_space_group_symop_operation_xyz
x,y,z
-x,-y,-z
loop_
_atom_site_type_symbol
_atom_site_label
_atom_site_fract_x
_atom_site_fract_y
_atom_site_fract_z
Si Si1 0.857804 0.812845 0.479147
Si Si2 0.684734 0.350815 0.422780
Si Si3 0.444228 0.339138 0.142468
Si Si4 0.595333 0.131975 0.679400
O O1 0.791006 0.676216 0.715214
O O2 0.970966 0.793478 0.587037
O O3 0.500000 0.000000 0.500000
O O4 0.166834 0.780174 0.114341
O O5 0.500000 0.500000 0.500000
O O6 0.510104 0.263014 0.696028
O O7 0.690510 0.456466 0.080708
O O8 0.450638 0.258413 0.448955
O O9 0.000000 0.000000 0.500000
O O10 0.500000 0.000000 0.000000
#
# Coordination Sequence:
#
# PCOD9051899 Si02
#       4
#     2   2   2   2
#     4  11  23  43  72 110 146 186 238 300 361 429
#     4  10  25  48  74 107 145 190 241 298 360 431
#     4  11  24  44  72 105 143 191 240 296 360 428
#     4  12  27  47  72 106 146 191 242 298 359 428
#
# _framework density 26.533467999999999
#
# number of rings (size 3 to 8) (size 9 to 14) (size 15 to 20)
#    0.000    1.000    0.000    5.250    0.000   14.000 
#    0.000    8.750    0.000    0.000    0.000    0.000 
#    0.000    0.000    0.000    0.000    0.000    0.000 
#
# Total GULP energy -44865.738768 kJ/mol
# GULP energy per Si atom -5608.217346 kJ/mol
# Density = 2.647308 g / cm^3
# Si number density = 26.533468 Si / 1000 Ang^3
#
#
#
# Elastic Constant Matrix: (Units=GPa)
#
#
# Indices 1 2 3 4 5 6 
#
# 1 196.2003 60.3787 112.2203 -24.4943 -22.7872 -14.7630
# 2 60.3787 106.1571 41.9215 -8.8147 2.4597 -18.5061
# 3 112.2203 41.9215 208.7501 -16.6700 -37.8639 -7.0747
# 4 -24.4943 -8.8147 -16.6700 58.0498 -5.1814 5.5288
# 5 -22.7872 2.4597 -37.8639 -5.1814 57.1512 -17.9301
# 6 -14.7630 -18.5061 -7.0747 5.5288 -17.9301 58.3293
#
#
#
# Elastic Compliance Matrix: (Units=1/GPa)
#
#
# Indices 1 2 3 4 5 6 
#
# 1 0.008631 -0.003215 -0.003445 0.002224 0.001845 0.001103
# 2 -0.003215 0.012059 -0.000931 -0.000171 -0.001680 0.002399
# 3 -0.003445 -0.000931 0.007683 0.000890 0.004136 0.000952
# 4 0.002224 -0.000171 0.000890 0.018692 0.003117 -0.000197
# 5 0.001845 -0.001680 0.004136 0.003117 0.023653 0.007411
# 6 0.001103 0.002399 0.000952 -0.000197 0.007411 0.020597
#
#
# Mechanical properties :
#
#
# Convention : Reuss Voigt Hill
#
# Bulk Modulus (GPa) = 75.79911 104.46095 90.13003
# Shear Modulus (GPa) = 45.08881 54.47854 49.78368
#
# Velocity S-wave (km/s) = 4.12675 4.53614 4.33628
# Velocity P-wave (km/s) = 7.16492 8.17866 7.68852
#
# Compressibility (1/GPa) = 0.01319277
#
# Stress axis : x y z
#
# Youngs Moduli (GPa) = 115.85502 82.92652 130.16389
#
# Poissons Ratio (x) = 0.26658 0.44839
# Poissons Ratio (y) = 0.37244 0.12113
# Poissons Ratio (z) = 0.39910 0.07717
#
# Static dielectric constant tensor:
#      x y z
#    x 1.854350 -0.204610 -0.004270 
#    y -0.204610 1.898470 -0.067290 
#    z -0.004270 -0.067290 2.070300 
# 
# From -- ./inp_files/17530.got.cif
#   From: 2010.05.17/outbox.cif.g08.bks.cpg/sg2_9_cif.got.tgz:17530.got - 2010.06.03 11:33:40.
