data_PCOD9051897
_publ_section_title
;
Structure prediction by ZEFSAII (Michael W. Deem and Ramdas Pophale) SiO2 
 PCOD9051897
Probable space group: P -1
;
_chemical_formula_sum "Si O2"
_cell_formula_units_Z 16
_cell_length_a 5.345025
_cell_length_b 11.029780
_cell_length_c 14.699508
_cell_angle_alpha 63.849739
_cell_angle_beta 117.441493
_cell_angle_gamma 85.330819
_cell_volume 644.841751
_symmetry_space_group_name_H-M "P -1"
_symmetry_group_IT_number 2
_symmetry_cell_setting 'triclinic'
loop_
_space_group_symop_operation_xyz
x,y,z
-x,-y,-z
loop_
_atom_site_type_symbol
_atom_site_label
_atom_site_fract_x
_atom_site_fract_y
_atom_site_fract_z
Si Si1 0.726324 0.341617 0.463264
Si Si2 0.725042 0.362144 0.246944
Si Si3 0.602510 0.066448 0.582865
Si Si4 0.343357 0.233881 0.654977
Si Si5 0.227922 0.651055 0.062118
Si Si6 0.186202 0.607670 0.274867
Si Si7 0.542454 0.858264 0.110911
Si Si8 0.202857 0.236491 0.213875
O O1 0.779142 0.382359 0.355684
O O2 0.752924 0.175875 0.533923
O O3 0.387569 0.447354 0.396363
O O4 0.001091 0.345552 0.569949
O O5 0.518989 0.518014 0.121879
O O6 0.018424 0.303870 0.252666
O O7 0.523915 0.258509 0.251885
O O8 0.363059 0.164625 0.582230
O O9 0.500000 0.000000 0.500000
O O10 0.780722 0.928065 0.719516
O O11 0.584166 0.311136 0.685488
O O12 0.448797 0.110782 0.790779
O O13 0.159091 0.592611 0.166039
O O14 0.297390 0.792726 0.056499
O O15 0.981208 0.689576 0.930339
O O16 0.853773 0.720055 0.201871
O O17 0.500000 0.000000 0.000000
#
# Coordination Sequence:
#
# PCOD9051897 Si02
#       8
#     2   2   2   2   2   2   2   2
#     4  11  25  46  75 104 152 194 253 310 379 454
#     4  11  26  47  74 109 152 198 259 310 374 452
#     4  12  27  44  70 107 151 198 244 312 373 456
#     4  11  26  45  72 107 144 196 256 304 390 440
#     4  10  26  43  75 103 145 197 252 312 377 447
#     4  10  25  48  74 106 143 196 251 316 376 451
#     4  11  27  46  72 109 149 191 250 318 379 454
#     4  12  27  45  74 109 152 203 252 313 376 452
#
# _framework density 24.812290999999998
#
# number of rings (size 3 to 8) (size 9 to 14) (size 15 to 20)
#    0.000    1.000    1.250    2.625   12.250    6.000 
#    0.000    0.000    0.000    0.000    0.000    0.000 
#    0.000    0.000    0.000    0.000    0.000    0.000 
#
# Total GULP energy -89432.489482 kJ/mol
# GULP energy per Si atom -5589.530593 kJ/mol
# Density = 2.475582 g / cm^3
# Si number density = 24.812291 Si / 1000 Ang^3
#
#
#
# Elastic Constant Matrix: (Units=GPa)
#
#
# Indices 1 2 3 4 5 6 
#
# 1 78.4135 25.9541 18.1992 19.1606 -2.4325 6.4761
# 2 25.9541 72.8618 31.6944 -8.6906 -9.8671 0.3800
# 3 18.1992 31.6944 142.2984 1.9310 -6.7300 7.9540
# 4 19.1606 -8.6906 1.9310 35.2681 3.1115 -8.5508
# 5 -2.4325 -9.8671 -6.7300 3.1115 28.2421 0.8498
# 6 6.4761 0.3800 7.9540 -8.5508 0.8498 37.4584
#
#
#
# Elastic Compliance Matrix: (Units=1/GPa)
#
#
# Indices 1 2 3 4 5 6 
#
# 1 0.019725 -0.008656 -0.000005 -0.014501 0.000471 -0.006642
# 2 -0.008656 0.020162 -0.003575 0.010559 0.004152 0.004367
# 3 -0.000005 -0.003575 0.008013 -0.001914 0.000935 -0.002123
# 4 -0.014501 0.010559 -0.001914 0.042243 -0.003047 0.012519
# 5 0.000471 0.004152 0.000935 -0.003047 0.037514 -0.001869
# 6 -0.006642 0.004367 -0.002123 0.012519 -0.001869 0.031151
#
#
# Mechanical properties :
#
#
# Convention : Reuss Voigt Hill
#
# Bulk Modulus (GPa) = 42.67913 49.47435 46.07674
# Shear Modulus (GPa) = 26.16594 34.70880 30.43737
#
# Velocity S-wave (km/s) = 3.25092 3.74418 3.50624
# Velocity P-wave (km/s) = 5.59727 6.21889 5.91625
#
# Compressibility (1/GPa) = 0.02343066
#
# Stress axis : x y z
#
# Youngs Moduli (GPa) = 50.69587 49.59914 124.79564
#
# Poissons Ratio (x) = 0.42931 0.00057
# Poissons Ratio (y) = 0.43880 0.44610
# Poissons Ratio (z) = 0.00023 0.17730
#
# Static dielectric constant tensor:
#      x y z
#    x 2.080500 -0.042150 0.000580 
#    y -0.042150 1.988180 -0.004890 
#    z 0.000580 -0.004890 1.910750 
# 
# From -- ./inp_files/482759.got.cif
#   From: 2010.05.17/outbox.cif.g08.bks.cpg/sg2_242_cif.got.tgz:482759.got - 2010.06.03 11:33:40.
