data_PCOD9051288
_publ_section_title
;
Structure prediction by ZEFSAII (Michael W. Deem and Ramdas Pophale) SiO2 
 PCOD9051288
Probable space group: P -1
;
_chemical_formula_sum "Si O2"
_cell_formula_units_Z 14
_cell_length_a 10.790392
_cell_length_b 16.316919
_cell_length_c 8.196629
_cell_angle_alpha 111.435426
_cell_angle_beta 88.986624
_cell_angle_gamma 147.630508
_cell_volume 583.856931
_symmetry_space_group_name_H-M "P -1"
_symmetry_group_IT_number 2
_symmetry_cell_setting 'triclinic'
loop_
_space_group_symop_operation_xyz
x,y,z
-x,-y,-z
loop_
_atom_site_type_symbol
_atom_site_label
_atom_site_fract_x
_atom_site_fract_y
_atom_site_fract_z
Si Si1 0.003403 0.409544 0.529838
Si Si2 0.564355 0.586136 0.823263
Si Si3 0.510065 0.374508 0.468403
Si Si4 0.963747 0.752324 0.182694
Si Si5 0.702326 0.336388 0.971032
Si Si6 0.731080 0.892208 0.449609
Si Si7 0.547923 0.043487 0.837108
O O1 0.000000 0.500000 0.500000
O O2 0.161304 0.435596 0.439876
O O3 0.197459 0.552711 0.785755
O O4 0.693603 0.171321 0.399810
O O5 0.477082 0.438237 0.630161
O O6 0.631023 0.694153 0.752028
O O7 0.300114 0.443728 0.840146
O O8 0.828327 0.731232 0.036334
O O9 0.400880 0.220953 0.457264
O O10 0.147183 0.796048 0.119459
O O11 0.167756 0.943072 0.425230
O O12 0.503264 0.263922 0.800205
O O13 0.538047 0.140791 0.874377
O O14 0.000000 0.500000 0.000000
O O15 0.000000 0.000000 0.500000
O O16 0.500000 0.000000 0.000000
#
# Coordination Sequence:
#
# PCOD9051288 Si02
#       7
#     2   2   2   2   2   2   2
#     4  12  26  49  77 111 150 202 249 320 394 450
#     4  10  25  45  76 105 142 203 240 316 385 451
#     4  11  25  48  71 103 153 191 250 309 381 456
#     4  11  25  47  74 107 146 191 255 308 387 448
#     4  12  30  48  76 113 155 205 254 314 391 455
#     4  12  28  48  73 110 152 194 260 317 370 460
#     4  12  27  48  80 114 153 197 259 320 375 469
#
# _framework density 23.978477000000002
#
# number of rings (size 3 to 8) (size 9 to 14) (size 15 to 20)
#    0.000    0.571    2.857    3.429    8.000    2.857 
#    0.000    0.000    0.000    0.000    0.000    0.000 
#    0.000    0.000    0.000    0.000    0.000    0.000 
#
# Total GULP energy -78428.212609 kJ/mol
# GULP energy per Si atom -5602.015186 kJ/mol
# Density = 2.392390 g / cm^3
# Si number density = 23.978477 Si / 1000 Ang^3
#
#
#
# Elastic Constant Matrix: (Units=GPa)
#
#
# Indices 1 2 3 4 5 6 
#
# 1 116.3833 51.5862 48.1856 -9.2575 8.8419 6.4375
# 2 51.5862 96.0160 49.9437 -4.9482 15.2836 1.3713
# 3 48.1856 49.9437 160.3399 -7.9638 15.5497 -13.8165
# 4 -9.2575 -4.9482 -7.9638 34.7288 -5.9655 -2.8646
# 5 8.8419 15.2836 15.5497 -5.9655 43.2095 -2.1403
# 6 6.4375 1.3713 -13.8165 -2.8646 -2.1403 58.2349
#
#
#
# Elastic Compliance Matrix: (Units=1/GPa)
#
#
# Indices 1 2 3 4 5 6 
#
# 1 0.012005 -0.005333 -0.002021 0.001906 0.000342 -0.001575
# 2 -0.005333 0.015318 -0.002921 -0.000540 -0.003381 -0.000615
# 3 -0.002021 -0.002921 0.008108 0.000874 -0.001241 0.002213
# 4 0.001906 -0.000540 0.000874 0.030203 0.003737 0.001632
# 5 0.000342 -0.003381 -0.001241 0.003737 0.025274 0.000860
# 6 -0.001575 -0.000615 0.002213 0.001632 0.000860 0.017997
#
#
# Mechanical properties :
#
#
# Convention : Reuss Voigt Hill
#
# Bulk Modulus (GPa) = 67.18973 74.68558 70.93765
# Shear Modulus (GPa) = 37.19786 42.10288 39.65037
#
# Velocity S-wave (km/s) = 3.94293 4.19485 4.07084
# Velocity P-wave (km/s) = 6.98646 7.39438 7.19331
#
# Compressibility (1/GPa) = 0.01488323
#
# Stress axis : x y z
#
# Youngs Moduli (GPa) = 83.29573 65.28110 123.32880
#
# Poissons Ratio (x) = 0.34812 0.24926
# Poissons Ratio (y) = 0.44418 0.36023
# Poissons Ratio (z) = 0.16835 0.19068
#
# Static dielectric constant tensor:
#      x y z
#    x 1.968950 0.023640 0.001900 
#    y 0.023640 1.926420 0.009860 
#    z 0.001900 0.009860 2.054260 
# 
# From -- ./inp_files/278133.got.cif
#   From: 2010.05.17/outbox.cif.g08.bks.cpg/sg2_140_cif.got.tgz:278133.got - 2010.06.03 11:33:40.
