data_PCOD9051140
_publ_section_title
;
Structure prediction by ZEFSAII (Michael W. Deem and Ramdas Pophale) SiO2 
 PCOD9051140
Probable space group: P -1
;
_chemical_formula_sum "Si O2"
_cell_formula_units_Z 16
_cell_length_a 5.050089
_cell_length_b 22.919281
_cell_length_c 9.254615
_cell_angle_alpha 134.026725
_cell_angle_beta 102.493894
_cell_angle_gamma 102.634731
_cell_volume 639.626810
_symmetry_space_group_name_H-M "P -1"
_symmetry_group_IT_number 2
_symmetry_cell_setting 'triclinic'
loop_
_space_group_symop_operation_xyz
x,y,z
-x,-y,-z
loop_
_atom_site_type_symbol
_atom_site_label
_atom_site_fract_x
_atom_site_fract_y
_atom_site_fract_z
Si Si1 0.444189 0.213107 0.918050
Si Si2 0.971947 0.834396 0.481323
Si Si3 0.575213 0.957937 0.076087
Si Si4 0.487083 0.795245 0.594452
Si Si5 0.545992 0.520457 0.789897
Si Si6 0.770392 0.097319 0.773163
Si Si7 0.967299 0.583650 0.210921
Si Si8 0.672030 0.416528 0.386842
O O1 0.294547 0.223062 0.768888
O O2 0.682803 0.176343 0.858089
O O3 0.126972 0.134119 0.829538
O O4 0.620370 0.313025 0.194023
O O5 0.789440 0.810630 0.570115
O O6 0.261149 0.816091 0.499350
O O7 0.115157 0.947213 0.661970
O O8 0.298762 0.920204 0.095811
O O9 0.591266 0.870539 0.865148
O O10 0.500000 0.000000 0.000000
O O11 0.277404 0.686907 0.434070
O O12 0.219861 0.452336 0.722291
O O13 0.627389 0.448962 0.594579
O O14 0.564491 0.582282 0.760083
O O15 0.755190 0.588660 0.063654
O O16 0.500000 0.000000 0.500000
O O17 0.000000 0.500000 0.000000
O O18 0.000000 0.500000 0.500000
#
# Coordination Sequence:
#
# PCOD9051140 Si02
#       8
#     2   2   2   2   2   2   2   2
#     4  12  28  44  80 103 146 191 245 290 371 428
#     4  11  24  46  72 107 136 189 233 295 354 430
#     4  10  25  47  72 104 144 180 234 290 358 420
#     4  11  26  42  74 101 145 183 240 287 360 420
#     4  10  25  45  70  98 149 181 244 297 366 415
#     4  12  27  49  73 108 145 189 239 303 357 433
#     4  11  25  44  70 103 141 190 237 298 355 433
#     4  11  26  46  72 104 145 190 243 304 361 435
#
# _framework density 25.014583999999999
#
# number of rings (size 3 to 8) (size 9 to 14) (size 15 to 20)
#    0.000    1.000    1.250    3.000   14.000    3.000 
#    0.000    0.000    0.000    0.000    0.000    0.000 
#    0.000    0.000    0.000    0.000    0.000    0.000 
#
# Total GULP energy -89584.671683 kJ/mol
# GULP energy per Si atom -5599.041980 kJ/mol
# Density = 2.495765 g / cm^3
# Si number density = 25.014584 Si / 1000 Ang^3
#
#
#
# Elastic Constant Matrix: (Units=GPa)
#
#
# Indices 1 2 3 4 5 6 
#
# 1 57.4543 7.3476 12.7052 -4.0042 -6.2608 9.2945
# 2 7.3476 92.4652 34.8317 -11.7370 -9.1289 15.1246
# 3 12.7052 34.8317 139.8943 15.5955 -20.4879 4.0160
# 4 -4.0042 -11.7370 15.5955 63.7659 -0.8457 -2.7453
# 5 -6.2608 -9.1289 -20.4879 -0.8457 35.2095 -3.6911
# 6 9.2945 15.1246 4.0160 -2.7453 -3.6911 52.4307
#
#
#
# Elastic Compliance Matrix: (Units=1/GPa)
#
#
# Indices 1 2 3 4 5 6 
#
# 1 0.018537 -0.000065 -0.001420 0.001402 0.002179 -0.002932
# 2 -0.000065 0.013124 -0.003341 0.003104 0.001178 -0.003273
# 3 -0.001420 -0.003341 0.009009 -0.002824 0.004126 0.000668
# 4 0.001402 0.003104 -0.002824 0.017028 -0.000185 -0.000049
# 5 0.002179 0.001178 0.004126 -0.000185 0.031614 0.001174
# 6 -0.002932 -0.003273 0.000668 -0.000049 0.001174 0.020566
#
#
# Mechanical properties :
#
#
# Convention : Reuss Voigt Hill
#
# Bulk Modulus (GPa) = 32.24083 44.39810 38.31946
# Shear Modulus (GPa) = 38.50003 45.94319 42.22161
#
# Velocity S-wave (km/s) = 3.92740 4.29027 4.11284
# Velocity P-wave (km/s) = 5.78643 6.50610 6.15679
#
# Compressibility (1/GPa) = 0.03101657
#
# Stress axis : x y z
#
# Youngs Moduli (GPa) = 53.94618 76.19399 110.99978
#
# Poissons Ratio (x) = 0.00498 0.15765
# Poissons Ratio (y) = 0.00353 0.37088
# Poissons Ratio (z) = 0.07662 0.25459
#
# Static dielectric constant tensor:
#      x y z
#    x 2.119560 -0.222810 0.159610 
#    y -0.222810 2.198760 -0.243340 
#    z 0.159610 -0.243340 2.198840 
# 
# From -- ./inp_files/142677.got.cif
#   From: 2010.05.17/outbox.cif.g08.bks.cpg/sg2_72_cif.got.tgz:142677.got - 2010.06.03 11:33:40.
