data_PCOD9051623
_publ_section_title
;
Structure prediction by ZEFSAII (Michael W. Deem and Ramdas Pophale) SiO2 
 PCOD9051623
Probable space group: P -1
;
_chemical_formula_sum "Si O2"
_cell_formula_units_Z 16
_cell_length_a 12.421964
_cell_length_b 14.892429
_cell_length_c 9.131661
_cell_angle_alpha 96.906422
_cell_angle_beta 72.718663
_cell_angle_gamma 150.296475
_cell_volume 764.638852
_symmetry_space_group_name_H-M "P -1"
_symmetry_group_IT_number 2
_symmetry_cell_setting 'triclinic'
loop_
_space_group_symop_operation_xyz
x,y,z
-x,-y,-z
loop_
_atom_site_type_symbol
_atom_site_label
_atom_site_fract_x
_atom_site_fract_y
_atom_site_fract_z
Si Si1 0.925808 0.399400 0.159775
Si Si2 0.416443 0.992225 0.886579
Si Si3 0.581715 0.293654 0.446288
Si Si4 0.162725 0.001649 0.059207
Si Si5 0.235411 0.654459 0.338808
Si Si6 0.918538 0.044745 0.570132
Si Si7 0.654192 0.679184 0.068860
Si Si8 0.638627 0.529595 0.555955
O O1 0.784688 0.209049 0.146834
O O2 0.749966 0.344975 0.300442
O O3 0.147692 0.542353 0.206112
O O4 0.000000 0.500000 0.000000
O O5 0.644858 0.168386 0.726717
O O6 0.315964 0.020972 0.966177
O O7 0.500000 0.000000 0.000000
O O8 0.582603 0.264880 0.610069
O O9 0.675302 0.461754 0.442944
O O10 0.327959 0.113365 0.440507
O O11 0.104346 0.958556 0.247065
O O12 0.916102 0.827371 0.034543
O O13 0.298160 0.190737 0.003366
O O14 0.000000 0.500000 0.500000
O O15 0.113224 0.249328 0.467291
O O16 0.000000 0.000000 0.500000
O O17 0.514580 0.594051 0.261123
O O18 0.500000 0.500000 0.000000
O O19 0.500000 0.500000 0.500000
#
# Coordination Sequence:
#
# PCOD9051623 Si02
#       8
#     2   2   2   2   2   2   2   2
#     4  11  25  45  72 103 140 187 241 290 354 428
#     4  12  25  45  71 106 144 186 239 296 356 424
#     4  11  26  44  71 101 143 185 233 296 355 412
#     4  11  26  43  70 106 143 180 237 298 353 426
#     4  10  25  47  69 102 141 179 241 295 351 425
#     4  12  24  43  71 100 139 186 237 286 354 427
#     4  11  25  47  71 104 142 185 234 294 364 421
#     4  12  24  44  70 102 139 184 239 288 351 425
#
# _framework density 20.924911999999999
#
# number of rings (size 3 to 8) (size 9 to 14) (size 15 to 20)
#    0.000    0.750    3.750    2.250    1.750   10.000 
#    0.000    0.000    0.000    0.000    0.000    0.000 
#    0.000    0.000    0.000    0.000    0.000    0.000 
#
# Total GULP energy -89506.786533 kJ/mol
# GULP energy per Si atom -5594.174158 kJ/mol
# Density = 2.087729 g / cm^3
# Si number density = 20.924912 Si / 1000 Ang^3
#
#
#
# Elastic Constant Matrix: (Units=GPa)
#
#
# Indices 1 2 3 4 5 6 
#
# 1 122.0337 53.3453 38.6917 6.3632 3.1282 2.2007
# 2 53.3453 169.5301 34.7441 1.0276 9.8172 -2.3674
# 3 38.6917 34.7441 96.1897 -6.6860 12.7258 0.2607
# 4 6.3632 1.0276 -6.6860 43.4413 -1.2822 9.5347
# 5 3.1282 9.8172 12.7258 -1.2822 40.9306 5.1382
# 6 2.2007 -2.3674 0.2607 9.5347 5.1382 40.4012
#
#
#
# Elastic Compliance Matrix: (Units=1/GPa)
#
#
# Indices 1 2 3 4 5 6 
#
# 1 0.010557 -0.002642 -0.003546 -0.001921 0.000915 -0.000370
# 2 -0.002642 0.007088 -0.001357 -0.000192 -0.001178 0.000763
# 3 -0.003546 -0.001357 0.012925 0.002471 -0.003328 -0.000130
# 4 -0.001921 -0.000192 0.002471 0.025020 0.000955 -0.005949
# 5 0.000915 -0.001178 -0.003328 0.000955 0.026167 -0.003651
# 6 -0.000370 0.000763 -0.000130 -0.005949 -0.003651 0.026686
#
#
# Mechanical properties :
#
#
# Convention : Reuss Voigt Hill
#
# Bulk Modulus (GPa) = 64.59754 71.25730 67.92742
# Shear Modulus (GPa) = 38.85232 42.35278 40.60255
#
# Velocity S-wave (km/s) = 4.31368 4.50381 4.40977
# Velocity P-wave (km/s) = 7.46649 7.82135 7.64598
#
# Compressibility (1/GPa) = 0.01548046
#
# Stress axis : x y z
#
# Youngs Moduli (GPa) = 94.72484 141.08166 77.36871
#
# Poissons Ratio (x) = 0.37270 0.27434
# Poissons Ratio (y) = 0.25024 0.10500
# Poissons Ratio (z) = 0.33589 0.19147
#
# Static dielectric constant tensor:
#      x y z
#    x 1.749120 0.018760 -0.005700 
#    y 0.018760 1.753500 -0.010390 
#    z -0.005700 -0.010390 1.754690 
# 
# From -- ./inp_files/273149.got.cif
#   From: 2010.05.17/outbox.cif.g08.bks.cpg/sg2_137_cif.got.tgz:273149.got - 2010.06.03 11:33:40.
