data_PCOD9051320
_publ_section_title
;
Structure prediction by ZEFSAII (Michael W. Deem and Ramdas Pophale) SiO2 
 PCOD9051320
Probable space group: P -1
;
_chemical_formula_sum "Si O2"
_cell_formula_units_Z 16
_cell_length_a 23.496078
_cell_length_b 6.315779
_cell_length_c 11.889170
_cell_angle_alpha 71.365652
_cell_angle_beta 152.117488
_cell_angle_gamma 118.433313
_cell_volume 703.194433
_symmetry_space_group_name_H-M "P -1"
_symmetry_group_IT_number 2
_symmetry_cell_setting 'triclinic'
loop_
_space_group_symop_operation_xyz
x,y,z
-x,-y,-z
loop_
_atom_site_type_symbol
_atom_site_label
_atom_site_fract_x
_atom_site_fract_y
_atom_site_fract_z
Si Si1 0.744583 0.799279 0.562829
Si Si2 0.870682 0.938169 0.535113
Si Si3 0.642330 0.149084 0.786601
Si Si4 0.744547 0.744911 0.105771
Si Si5 0.928755 0.223373 0.970604
Si Si6 0.084636 0.403394 0.742344
Si Si7 0.663154 0.243239 0.556744
Si Si8 0.519069 0.217233 0.779235
O O1 0.755353 0.875012 0.438193
O O2 0.737021 0.528759 0.606073
O O3 0.608164 0.759013 0.395302
O O4 0.873190 0.013398 0.811955
O O5 0.815176 0.870648 0.324124
O O6 0.978460 0.223953 0.676199
O O7 0.961650 0.801868 0.753881
O O8 0.599897 0.181902 0.580889
O O9 0.562641 0.245156 0.719800
O O10 0.794834 0.367878 0.028273
O O11 0.664934 0.902746 0.896768
O O12 0.849682 0.740353 0.195826
O O13 0.648003 0.451935 0.014047
O O14 0.785927 0.165584 0.789659
O O15 0.000000 0.500000 0.000000
O O16 0.000000 0.500000 0.500000
O O17 0.547764 0.087699 0.288954
#
# Coordination Sequence:
#
# PCOD9051320 Si02
#       8
#     2   2   2   2   2   2   2   2
#     4  11  25  45  67 100 136 179 226 281 333 402
#     4  12  24  43  72  99 142 180 216 278 344 410
#     4  11  23  42  70  98 134 181 225 284 335 391
#     4  11  25  45  67 100 136 179 226 281 333 402
#     4  11  24  41  66 102 138 172 221 273 339 406
#     4  11  24  41  66 102 138 172 221 273 339 406
#     4  11  23  42  70  98 134 181 225 284 335 391
#     4  10  25  46  66 100 135 177 240 276 331 393
#
# _framework density 22.753309999999999
#
# number of rings (size 3 to 8) (size 9 to 14) (size 15 to 20)
#    0.000    1.000    2.500    3.375    3.500    4.500 
#    0.000    1.250    0.000    0.000    0.000    0.000 
#    0.000    0.000    0.000    0.000    0.000    0.000 
#
# Total GULP energy -89203.103281 kJ/mol
# GULP energy per Si atom -5575.193955 kJ/mol
# Density = 2.270152 g / cm^3
# Si number density = 22.753310 Si / 1000 Ang^3
#
#
#
# Elastic Constant Matrix: (Units=GPa)
#
#
# Indices 1 2 3 4 5 6 
#
# 1 77.6569 11.5883 -0.2548 -11.6254 23.9729 -2.3901
# 2 11.5883 94.3023 12.6110 5.8180 -6.7464 8.4769
# 3 -0.2548 12.6110 41.9177 -0.0072 -4.9239 -1.0372
# 4 -11.6254 5.8180 -0.0072 39.0567 -1.0999 -6.0367
# 5 23.9729 -6.7464 -4.9239 -1.0999 35.0917 6.9450
# 6 -2.3901 8.4769 -1.0372 -6.0367 6.9450 30.7035
#
#
#
# Elastic Compliance Matrix: (Units=1/GPa)
#
#
# Indices 1 2 3 4 5 6 
#
# 1 0.019787 -0.004702 -0.000121 0.007359 -0.015761 0.007846
# 2 -0.004702 0.012898 -0.003320 -0.004114 0.006340 -0.006282
# 3 -0.000121 -0.003320 0.025209 0.000739 0.002751 0.001282
# 4 0.007359 -0.004114 0.000739 0.029620 -0.006576 0.009045
# 5 -0.015761 0.006340 0.002751 -0.006576 0.043434 -0.014002
# 6 0.007846 -0.006282 0.001282 0.009045 -0.014002 0.039904
#
#
# Mechanical properties :
#
#
# Convention : Reuss Voigt Hill
#
# Bulk Modulus (GPa) = 24.03414 29.08510 26.55962
# Shear Modulus (GPa) = 24.87459 33.63252 29.25355
#
# Velocity S-wave (km/s) = 3.30999 3.84883 3.58953
# Velocity P-wave (km/s) = 5.01935 5.70630 5.37381
#
# Compressibility (1/GPa) = 0.04160748
#
# Stress axis : x y z
#
# Youngs Moduli (GPa) = 50.53840 77.53017 39.66767
#
# Poissons Ratio (x) = 0.36456 0.00480
# Poissons Ratio (y) = 0.23764 0.13171
# Poissons Ratio (z) = 0.00611 0.25743
#
# Static dielectric constant tensor:
#      x y z
#    x 1.917690 0.020940 0.063960 
#    y 0.020940 2.001290 0.102220 
#    z 0.063960 0.102220 1.952010 
# 
# From -- ./inp_files/365245.got.cif
#   From: 2010.05.17/outbox.cif.g08.bks.cpg/sg2_183_cif.got.tgz:365245.got - 2010.06.03 11:33:40.
