data_PCOD9051168
_publ_section_title
;
Structure prediction by ZEFSAII (Michael W. Deem and Ramdas Pophale) SiO2 
 PCOD9051168
Probable space group: P -1
;
_chemical_formula_sum "Si O2"
_cell_formula_units_Z 16
_cell_length_a 20.818241
_cell_length_b 9.016908
_cell_length_c 6.692578
_cell_angle_alpha 55.976330
_cell_angle_beta 41.457230
_cell_angle_gamma 60.029518
_cell_volume 681.955334
_symmetry_space_group_name_H-M "P -1"
_symmetry_group_IT_number 2
_symmetry_cell_setting 'triclinic'
loop_
_space_group_symop_operation_xyz
x,y,z
-x,-y,-z
loop_
_atom_site_type_symbol
_atom_site_label
_atom_site_fract_x
_atom_site_fract_y
_atom_site_fract_z
Si Si1 0.645369 0.210933 0.715795
Si Si2 0.454056 0.337169 0.827736
Si Si3 0.821852 0.105754 0.082411
Si Si4 0.121471 0.207232 0.538713
Si Si5 0.096824 0.559152 0.579933
Si Si6 0.707397 0.549324 0.553478
Si Si7 0.666067 0.830603 0.083982
Si Si8 0.929174 0.850664 0.750791
O O1 0.537038 0.241937 0.854387
O O2 0.720025 0.162023 0.392418
O O3 0.676566 0.381155 0.629206
O O4 0.654138 0.044935 0.974021
O O5 0.500000 0.500000 0.500000
O O6 0.421980 0.219693 0.808713
O O7 0.360258 0.411513 0.124227
O O8 0.889587 0.979234 0.180201
O O9 0.857780 0.286411 0.776534
O O10 0.829476 0.951126 0.008294
O O11 0.080555 0.394320 0.597964
O O12 0.086333 0.191069 0.409764
O O13 0.237217 0.215268 0.243934
O O14 0.180333 0.494724 0.599543
O O15 0.995525 0.671400 0.812297
O O16 0.684467 0.714986 0.327944
O O17 0.000000 0.000000 0.500000
#
# Coordination Sequence:
#
# PCOD9051168 Si02
#       8
#     2   2   2   2   2   2   2   2
#     4  11  25  45  75 100 142 191 226 289 355 405
#     4  12  24  49  71 105 143 182 236 287 346 416
#     4  10  25  47  68 102 143 181 230 295 338 418
#     4  11  24  47  70 104 141 183 232 293 343 414
#     4  11  24  45  71 103 141 188 232 284 357 408
#     4  12  26  47  70 105 145 182 229 294 346 412
#     4  11  26  45  71 105 141 183 237 283 346 420
#     4  10  25  45  71 106 137 184 238 285 349 421
#
# _framework density 23.461946999999999
#
# number of rings (size 3 to 8) (size 9 to 14) (size 15 to 20)
#    0.000    1.000    2.500    2.625    8.750    3.000 
#    4.500    0.000    0.000    0.000    0.000    0.000 
#    0.000    0.000    0.000    0.000    0.000    0.000 
#
# Total GULP energy -89501.336941 kJ/mol
# GULP energy per Si atom -5593.833559 kJ/mol
# Density = 2.340855 g / cm^3
# Si number density = 23.461947 Si / 1000 Ang^3
#
#
#
# Elastic Constant Matrix: (Units=GPa)
#
#
# Indices 1 2 3 4 5 6 
#
# 1 157.3310 60.9523 39.1837 -0.5721 12.1701 5.6100
# 2 60.9523 115.6773 33.1730 -17.7720 12.2126 -14.1025
# 3 39.1837 33.1730 95.9639 -18.9158 12.4767 -6.2069
# 4 -0.5721 -17.7720 -18.9158 35.0131 -11.0385 1.2617
# 5 12.1701 12.2126 12.4767 -11.0385 36.2540 -4.8758
# 6 5.6100 -14.1025 -6.2069 1.2617 -4.8758 28.2047
#
#
#
# Elastic Compliance Matrix: (Units=1/GPa)
#
#
# Indices 1 2 3 4 5 6 
#
# 1 0.009528 -0.005277 -0.003024 -0.004769 -0.002562 -0.005429
# 2 -0.005277 0.013477 -0.000866 0.006145 0.000395 0.007391
# 3 -0.003024 -0.000866 0.013523 0.006392 -0.001040 0.002679
# 4 -0.004769 0.006145 0.006392 0.037885 0.009591 0.005391
# 5 -0.002562 0.000395 -0.001040 0.009591 0.032347 0.005641
# 6 -0.005429 0.007391 0.002679 0.005391 0.005641 0.041554
#
#
# Mechanical properties :
#
#
# Convention : Reuss Voigt Hill
#
# Bulk Modulus (GPa) = 54.96476 70.62114 62.79295
# Shear Modulus (GPa) = 28.94945 35.60525 32.27735
#
# Velocity S-wave (km/s) = 3.51649 3.89983 3.71311
# Velocity P-wave (km/s) = 6.32184 7.10239 6.72345
#
# Compressibility (1/GPa) = 0.01819348
#
# Stress axis : x y z
#
# Youngs Moduli (GPa) = 104.95184 74.19912 73.94582
#
# Poissons Ratio (x) = 0.39157 0.22363
# Poissons Ratio (y) = 0.55386 0.06404
# Poissons Ratio (z) = 0.31741 0.06426
#
# Static dielectric constant tensor:
#      x y z
#    x 1.883760 -0.041690 -0.003280 
#    y -0.041690 1.897130 -0.022690 
#    z -0.003280 -0.022690 1.969220 
# 
# From -- ./inp_files/116575.got.cif
#   From: 2010.05.17/outbox.cif.g08.bks.cpg/sg2_59_cif.got.tgz:116575.got - 2010.06.03 11:33:40.
