data_PCOD9051300
_publ_section_title
;
Structure prediction by ZEFSAII (Michael W. Deem and Ramdas Pophale) SiO2 
 PCOD9051300
Probable space group: P -1
;
_chemical_formula_sum "Si O2"
_cell_formula_units_Z 12
_cell_length_a 6.892370
_cell_length_b 9.263100
_cell_length_c 13.575576
_cell_angle_alpha 117.018114
_cell_angle_beta 69.613442
_cell_angle_gamma 63.450845
_cell_volume 498.687653
_symmetry_space_group_name_H-M "P -1"
_symmetry_group_IT_number 2
_symmetry_cell_setting 'triclinic'
loop_
_space_group_symop_operation_xyz
x,y,z
-x,-y,-z
loop_
_atom_site_type_symbol
_atom_site_label
_atom_site_fract_x
_atom_site_fract_y
_atom_site_fract_z
Si Si1 0.240436 0.715260 0.544921
Si Si2 0.104704 0.087894 0.940150
Si Si3 0.955587 0.507996 0.206161
Si Si4 0.088971 0.790225 0.203315
Si Si5 0.817740 0.696709 0.677458
Si Si6 0.333376 0.748766 0.341477
O O1 0.500000 0.500000 0.500000
O O2 0.337429 0.610740 0.384032
O O3 0.928366 0.817193 0.670856
O O4 0.197915 0.932592 0.631613
O O5 0.907021 0.190008 0.907757
O O6 0.461114 0.879095 0.790681
O O7 0.053865 0.289689 0.064154
O O8 0.000000 0.000000 0.000000
O O9 0.598336 0.715466 0.315725
O O10 0.067794 0.612795 0.175716
O O11 0.059156 0.424885 0.274709
O O12 0.338244 0.706428 0.212475
O O13 0.000000 0.500000 0.500000
O O14 0.000000 0.000000 0.500000
#
# Coordination Sequence:
#
# PCOD9051300 Si02
#       6
#     2   2   2   2   2   2
#     4  11  22  47  76 116 155 199 262 327 377 461
#     4  12  30  53  78 113 159 211 264 324 397 470
#     4  12  27  51  77 117 160 205 260 325 397 469
#     4  11  27  47  77 109 158 206 258 314 397 464
#     4  12  27  49  85 113 154 208 270 322 391 466
#     4  10  25  45  78 116 162 197 260 320 397 456
#
# _framework density 24.063161000000001
#
# number of rings (size 3 to 8) (size 9 to 14) (size 15 to 20)
#    0.000    0.667    1.667    4.000   11.667    3.333 
#    0.000    0.000    0.000    0.000    0.000    0.000 
#    0.000    0.000    0.000    0.000    0.000    0.000 
#
# Total GULP energy -67059.604194 kJ/mol
# GULP energy per Si atom -5588.300349 kJ/mol
# Density = 2.400839 g / cm^3
# Si number density = 24.063161 Si / 1000 Ang^3
#
#
#
# Elastic Constant Matrix: (Units=GPa)
#
#
# Indices 1 2 3 4 5 6 
#
# 1 77.1551 56.4732 32.2994 -12.6498 7.2285 -18.1088
# 2 56.4732 170.4113 31.9969 -40.5620 35.6126 -17.8158
# 3 32.2994 31.9969 101.9577 5.0413 16.9751 -12.5200
# 4 -12.6498 -40.5620 5.0413 54.8824 -4.7214 13.4170
# 5 7.2285 35.6126 16.9751 -4.7214 54.7203 -2.9717
# 6 -18.1088 -17.8158 -12.5200 13.4170 -2.9717 64.9130
#
#
#
# Elastic Compliance Matrix: (Units=1/GPa)
#
#
# Indices 1 2 3 4 5 6 
#
# 1 0.019633 -0.005925 -0.004448 0.000035 0.002815 0.003114
# 2 -0.005925 0.010521 -0.000906 0.006150 -0.005278 -0.000453
# 3 -0.004448 -0.000906 0.012328 -0.003432 -0.002864 0.001467
# 4 0.000035 0.006150 -0.003432 0.023966 -0.001090 -0.003968
# 5 0.002815 -0.005278 -0.002864 -0.001090 0.022133 0.000023
# 6 0.003114 -0.000453 0.001467 -0.003968 0.000023 0.017254
#
#
# Mechanical properties :
#
#
# Convention : Reuss Voigt Hill
#
# Bulk Modulus (GPa) = 50.19072 65.67367 57.93219
# Shear Modulus (GPa) = 37.02757 50.15345 43.59051
#
# Velocity S-wave (km/s) = 3.92697 4.57030 4.26079
# Velocity P-wave (km/s) = 6.43930 7.42978 6.95220
#
# Compressibility (1/GPa) = 0.01992400
#
# Stress axis : x y z
#
# Youngs Moduli (GPa) = 50.93454 95.04522 81.11675
#
# Poissons Ratio (x) = 0.56317 0.36081
# Poissons Ratio (y) = 0.30180 0.07347
# Poissons Ratio (z) = 0.22656 0.08609
#
# Static dielectric constant tensor:
#      x y z
#    x 1.941140 0.088510 0.019190 
#    y 0.088510 1.894110 0.006360 
#    z 0.019190 0.006360 1.976670 
# 
# From -- ./inp_files/480822.got.cif
#   From: 2010.05.17/outbox.cif.g08.bks.cpg/sg2_241_cif.got.tgz:480822.got - 2010.06.03 11:33:40.
