data_PCOD9051008
_publ_section_title
;
Structure prediction by ZEFSAII (Michael W. Deem and Ramdas Pophale) SiO2 
 PCOD9051008
Probable space group: P -1
;
_chemical_formula_sum "Si O2"
_cell_formula_units_Z 14
_cell_length_a 12.009479
_cell_length_b 17.109394
_cell_length_c 9.618349
_cell_angle_alpha 104.657356
_cell_angle_beta 142.218443
_cell_angle_gamma 45.195551
_cell_volume 614.217192
_symmetry_space_group_name_H-M "P -1"
_symmetry_group_IT_number 2
_symmetry_cell_setting 'triclinic'
loop_
_space_group_symop_operation_xyz
x,y,z
-x,-y,-z
loop_
_atom_site_type_symbol
_atom_site_label
_atom_site_fract_x
_atom_site_fract_y
_atom_site_fract_z
Si Si1 0.126926 0.348678 0.767574
Si Si2 0.605889 0.161712 0.909427
Si Si3 0.950680 0.862745 0.737210
Si Si4 0.097880 0.171541 0.645048
Si Si5 0.253398 0.379624 0.321346
Si Si6 0.292651 0.186635 0.369276
Si Si7 0.759735 0.166026 0.495667
O O1 0.025550 0.293518 0.648309
O O2 0.834166 0.521878 0.603532
O O3 0.279710 0.308505 0.747440
O O4 0.448937 0.239603 0.141928
O O5 0.771236 0.171406 0.989487
O O6 0.503592 0.128078 0.691742
O O7 0.908133 0.016613 0.244011
O O8 0.971239 0.825149 0.581938
O O9 0.978028 0.778535 0.834249
O O10 0.569560 0.045238 0.471419
O O11 0.865565 0.204640 0.531199
O O12 0.500000 0.000000 0.000000
O O13 0.162248 0.323017 0.252770
O O14 0.626690 0.236338 0.551219
O O15 0.000000 0.500000 0.000000
#
# Coordination Sequence:
#
# PCOD9051008 Si02
#       7
#     2   2   2   2   2   2   2
#     4  11  23  41  65  96 134 173 212 265 326 385
#     4  12  21  40  69  98 126 170 222 267 324 374
#     4  11  23  39  66 100 128 162 218 278 314 373
#     4  12  22  37  67 103 128 166 222 271 319 376
#     4  10  25  45  66  92 136 177 208 263 335 392
#     4  11  24  43  65  97 131 168 218 271 324 380
#     4  11  22  41  67  97 134 170 216 273 314 383
#
# _framework density 22.793240000000001
#
# number of rings (size 3 to 8) (size 9 to 14) (size 15 to 20)
#    0.000    0.857    5.714    1.714    2.000    1.143 
#    0.000    3.571    0.000    0.000    0.000    0.000 
#    0.000    0.000    0.000    0.000    0.000    0.000 
#
# Total GULP energy -78374.597275 kJ/mol
# GULP energy per Si atom -5598.185520 kJ/mol
# Density = 2.274136 g / cm^3
# Si number density = 22.793240 Si / 1000 Ang^3
#
#
#
# Elastic Constant Matrix: (Units=GPa)
#
#
# Indices 1 2 3 4 5 6 
#
# 1 161.4790 82.5029 -3.7918 5.8779 19.6927 5.0480
# 2 82.5029 159.7425 3.2774 0.3077 16.7776 2.6575
# 3 -3.7918 3.2774 29.3038 7.4860 0.1360 -0.5496
# 4 5.8779 0.3077 7.4860 30.6121 11.6015 -0.0542
# 5 19.6927 16.7776 0.1360 11.6015 30.1152 -1.1150
# 6 5.0480 2.6575 -0.5496 -0.0542 -1.1150 43.3549
#
#
#
# Elastic Compliance Matrix: (Units=1/GPa)
#
#
# Indices 1 2 3 4 5 6 
#
# 1 0.008856 -0.004272 0.001864 -0.000945 -0.003086 -0.000826
# 2 -0.004272 0.008829 -0.002145 0.002412 -0.003050 -0.000146
# 3 0.001864 -0.002145 0.037414 -0.011029 0.004074 0.000480
# 4 -0.000945 0.002412 -0.011029 0.041902 -0.016838 -0.000558
# 5 -0.003086 -0.003050 0.004074 -0.016838 0.043454 0.001694
# 6 -0.000826 -0.000146 0.000480 -0.000558 0.001694 0.023220
#
#
# Mechanical properties :
#
#
# Convention : Reuss Voigt Hill
#
# Bulk Modulus (GPa) = 21.74291 57.16694 39.45493
# Shear Modulus (GPa) = 26.58008 38.71887 32.64947
#
# Velocity S-wave (km/s) = 3.41858 4.12600 3.78884
# Velocity P-wave (km/s) = 5.01420 6.91618 6.04052
#
# Compressibility (1/GPa) = 0.04599201
#
# Stress axis : x y z
#
# Youngs Moduli (GPa) = 112.91837 113.26565 26.72803
#
# Poissons Ratio (x) = 0.48393 -0.04982
# Poissons Ratio (y) = 0.48244 0.05733
# Poissons Ratio (z) = -0.21049 0.24295
#
# Static dielectric constant tensor:
#      x y z
#    x 1.878650 -0.050770 -0.027010 
#    y -0.050770 1.893960 0.013870 
#    z -0.027010 0.013870 1.832640 
# 
# From -- ./inp_files/270509.got.cif
#   From: 2010.05.17/outbox.cif.g08.bks.cpg/sg2_136_cif.got.tgz:270509.got - 2010.06.03 11:33:40.
