data_PCOD9051919
_publ_section_title
;
Structure prediction by ZEFSAII (Michael W. Deem and Ramdas Pophale) SiO2 
 PCOD9051919
Probable space group: P -1
;
_chemical_formula_sum "Si O2"
_cell_formula_units_Z 15
_cell_length_a 11.848398
_cell_length_b 12.008978
_cell_length_c 5.761107
_cell_angle_alpha 116.081786
_cell_angle_beta 71.309873
_cell_angle_gamma 118.033742
_cell_volume 643.139793
_symmetry_space_group_name_H-M "P -1"
_symmetry_group_IT_number 2
_symmetry_cell_setting 'triclinic'
loop_
_space_group_symop_operation_xyz
x,y,z
-x,-y,-z
loop_
_atom_site_type_symbol
_atom_site_label
_atom_site_fract_x
_atom_site_fract_y
_atom_site_fract_z
Si Si1 0.416987 0.642460 0.999486
Si Si2 0.235373 0.347896 0.899659
Si Si3 0.537744 0.130671 0.442461
Si Si4 0.000000 0.500000 0.500000
Si Si5 0.103078 0.127069 0.173265
Si Si6 0.649288 0.800484 0.678905
Si Si7 0.004460 0.710307 0.293156
Si Si8 0.773167 0.286080 0.155681
O O1 0.348894 0.491318 0.999476
O O2 0.548890 0.684759 0.802784
O O3 0.314835 0.665922 0.913241
O O4 0.447376 0.744727 0.286037
O O5 0.294613 0.268367 0.617852
O O6 0.116473 0.369772 0.869438
O O7 0.167732 0.255577 0.078118
O O8 0.430326 0.121897 0.315511
O O9 0.673814 0.167285 0.262509
O O10 0.500000 0.000000 0.500000
O O11 0.979924 0.382392 0.599418
O O12 0.863226 0.404672 0.371018
O O13 0.226797 0.106174 0.173428
O O14 0.029885 0.172100 0.464631
O O15 0.000000 0.000000 0.000000
O O16 0.131135 0.758418 0.099213
#
# Coordination Sequence:
#
# PCOD9051919 Si02
#       8
#     2   2   2   1   2   2   2   2
#     4  11  24  47  74 108 143 193 246 305 370 431
#     4  11  24  47  74 108 143 193 246 305 370 431
#     4  11  27  51  72 108 148 198 247 302 368 442
#     4  12  22  44  68 120 144 184 238 302 376 424
#     4  11  27  51  72 108 148 198 247 302 368 442
#     4  10  25  48  76 104 147 186 252 310 365 436
#     4  11  25  43  73 111 151 189 241 306 368 440
#     4  11  25  43  73 111 151 189 241 306 368 440
#
# _framework density 23.323079
#
# number of rings (size 3 to 8) (size 9 to 14) (size 15 to 20)
#    0.000    1.067    1.333    3.200    5.600    7.467 
#   24.000    0.000    0.000    0.000    0.000    0.000 
#    0.000    0.000    0.000    0.000    0.000    0.000 
#
# Total GULP energy -83819.005030 kJ/mol
# GULP energy per Si atom -5587.933669 kJ/mol
# Density = 2.326999 g / cm^3
# Si number density = 23.323079 Si / 1000 Ang^3
#
#
#
# Elastic Constant Matrix: (Units=GPa)
#
#
# Indices 1 2 3 4 5 6 
#
# 1 148.3094 50.9773 46.9283 -8.5672 18.4641 34.0385
# 2 50.9773 143.5308 42.7248 -9.1376 0.5388 27.0694
# 3 46.9283 42.7248 56.6164 -12.0718 -8.7864 27.1521
# 4 -8.5672 -9.1376 -12.0718 32.9506 17.4414 3.0395
# 5 18.4641 0.5388 -8.7864 17.4414 52.8631 -9.9049
# 6 34.0385 27.0694 27.1521 3.0395 -9.9049 34.9754
#
#
#
# Elastic Compliance Matrix: (Units=1/GPa)
#
#
# Indices 1 2 3 4 5 6 
#
# 1 0.012838 -0.000383 -0.004104 0.008337 -0.010283 -0.012648
# 2 -0.000383 0.009439 -0.004625 0.002444 -0.002327 -0.004214
# 3 -0.004104 -0.004625 0.039492 0.015295 -0.001665 -0.024886
# 4 0.008337 0.002444 0.015295 0.055079 -0.024884 -0.033714
# 5 -0.010283 -0.002327 -0.001665 -0.024884 0.035193 0.025230
# 6 -0.012648 -0.004214 -0.024886 -0.033714 0.025230 0.073556
#
#
# Mechanical properties :
#
#
# Convention : Reuss Voigt Hill
#
# Bulk Modulus (GPa) = 22.96492 69.96858 46.46675
# Shear Modulus (GPa) = 19.35471 38.01289 28.68380
#
# Velocity S-wave (km/s) = 2.88384 4.04151 3.51072
# Velocity P-wave (km/s) = 4.57783 7.20022 6.03323
#
# Compressibility (1/GPa) = 0.04354468
#
# Stress axis : x y z
#
# Youngs Moduli (GPa) = 77.89640 105.94564 25.32144
#
# Poissons Ratio (x) = 0.04058 0.10393
# Poissons Ratio (y) = 0.02984 0.11710
# Poissons Ratio (z) = 0.31971 0.48995
#
# Static dielectric constant tensor:
#      x y z
#    x 1.884720 -0.013550 -0.011680 
#    y -0.013550 1.828840 0.008030 
#    z -0.011680 0.008030 1.915190 
# 
# From -- ./inp_files/72169.got.cif
#   From: 2010.05.17/outbox.cif.g08.bks.cpg/sg2_37_cif.got.tgz:72169.got - 2010.06.03 11:33:40.
