data_PCOD9051941
_publ_section_title
;
Structure prediction by ZEFSAII (Michael W. Deem and Ramdas Pophale) SiO2 
 PCOD9051941
Probable space group: P -1
;
_chemical_formula_sum "Si O2"
_cell_formula_units_Z 10
_cell_length_a 7.765393
_cell_length_b 6.746717
_cell_length_c 9.526763
_cell_angle_alpha 130.413248
_cell_angle_beta 107.129371
_cell_angle_gamma 78.150648
_cell_volume 363.092972
_symmetry_space_group_name_H-M "P -1"
_symmetry_group_IT_number 2
_symmetry_cell_setting 'triclinic'
loop_
_space_group_symop_operation_xyz
x,y,z
-x,-y,-z
loop_
_atom_site_type_symbol
_atom_site_label
_atom_site_fract_x
_atom_site_fract_y
_atom_site_fract_z
Si Si1 0.521877 0.270135 0.719126
Si Si2 0.168211 0.331367 0.022779
Si Si3 0.269815 0.373619 0.482001
Si Si4 0.615358 0.970336 0.872219
Si Si5 0.935938 0.098225 0.381372
O O1 0.587021 0.736893 0.647014
O O2 0.568647 0.207991 0.864713
O O3 0.500000 0.000000 0.500000
O O4 0.347705 0.419222 0.678711
O O5 0.686632 0.454233 0.806192
O O6 0.191343 0.125157 0.808080
O O7 0.188598 0.125249 0.062612
O O8 0.000000 0.500000 0.000000
O O9 0.170230 0.630241 0.521138
O O10 0.117820 0.151280 0.361525
O O11 0.500000 0.000000 0.000000
O O12 0.000000 0.000000 0.500000
#
# Coordination Sequence:
#
# PCOD9051941 Si02
#       5
#     2   2   2   2   2
#     4  10  25  48  80 111 154 206 265 326 392 473
#     4  12  27  47  78 117 156 205 266 328 397 466
#     4  10  25  50  79 116 158 208 267 322 396 478
#     4  11  27  49  77 116 156 207 264 327 392 470
#     4  11  26  48  82 116 160 209 262 333 399 463
#
# _framework density 27.541153000000001
#
# number of rings (size 3 to 8) (size 9 to 14) (size 15 to 20)
#    0.000    1.200    0.000    3.600    5.600   10.400 
#    0.000    0.000    0.000    0.000    0.000    0.000 
#    0.000    0.000    0.000    0.000    0.000    0.000 
#
# Total GULP energy -55830.432969 kJ/mol
# GULP energy per Si atom -5583.043297 kJ/mol
# Density = 2.747847 g / cm^3
# Si number density = 27.541153 Si / 1000 Ang^3
#
#
#
# Elastic Constant Matrix: (Units=GPa)
#
#
# Indices 1 2 3 4 5 6 
#
# 1 105.5346 56.1075 44.0115 -7.2943 5.5894 5.0402
# 2 56.1075 271.3387 69.9641 -63.9939 -13.0397 -4.7561
# 3 44.0115 69.9641 144.1955 -25.3673 5.0255 16.5485
# 4 -7.2943 -63.9939 -25.3673 87.1987 2.7794 1.5733
# 5 5.5894 -13.0397 5.0255 2.7794 58.2921 -11.1078
# 6 5.0402 -4.7561 16.5485 1.5733 -11.1078 33.9708
#
#
#
# Elastic Compliance Matrix: (Units=1/GPa)
#
#
# Indices 1 2 3 4 5 6 
#
# 1 0.011751 -0.002169 -0.002561 -0.001281 -0.001569 -0.001253
# 2 -0.002169 0.005486 -0.001777 0.003223 0.001897 0.002427
# 3 -0.002561 -0.001777 0.009496 0.001403 -0.002033 -0.005225
# 4 -0.001281 0.003223 0.001403 0.014151 -0.000090 -0.000727
# 5 -0.001569 0.001897 -0.002033 -0.000090 0.019403 0.007837
# 6 -0.001253 0.002427 -0.005225 -0.000727 0.007837 0.035104
#
#
# Mechanical properties :
#
#
# Convention : Reuss Voigt Hill
#
# Bulk Modulus (GPa) = 72.89413 95.69278 84.29346
# Shear Modulus (GPa) = 44.25561 59.29136 51.77349
#
# Velocity S-wave (km/s) = 4.01295 4.64489 4.34044
# Velocity P-wave (km/s) = 6.92795 7.97418 7.46940
#
# Compressibility (1/GPa) = 0.01371853
#
# Stress axis : x y z
#
# Youngs Moduli (GPa) = 85.09733 182.27520 105.30216
#
# Poissons Ratio (x) = 0.39537 0.26970
# Poissons Ratio (y) = 0.18458 0.18717
# Poissons Ratio (z) = 0.21795 0.32398
#
# Static dielectric constant tensor:
#      x y z
#    x 2.344610 -0.032270 -0.065320 
#    y -0.032270 2.263200 -0.047250 
#    z -0.065320 -0.047250 2.171270 
# 
# From -- ./inp_files/143809.got.cif
#   From: 2010.05.17/outbox.cif.g08.bks.cpg/sg2_72_cif.got.tgz:143809.got - 2010.06.03 11:33:40.
