data_PCOD9051478
_publ_section_title
;
Structure prediction by ZEFSAII (Michael W. Deem and Ramdas Pophale) SiO2 
 PCOD9051478
Probable space group: P -1
;
_chemical_formula_sum "Si O2"
_cell_formula_units_Z 14
_cell_length_a 6.071288
_cell_length_b 11.337982
_cell_length_c 9.259105
_cell_angle_alpha 101.908313
_cell_angle_beta 79.905397
_cell_angle_gamma 79.871374
_cell_volume 598.934189
_symmetry_space_group_name_H-M "P -1"
_symmetry_group_IT_number 2
_symmetry_cell_setting 'triclinic'
loop_
_space_group_symop_operation_xyz
x,y,z
-x,-y,-z
loop_
_atom_site_type_symbol
_atom_site_label
_atom_site_fract_x
_atom_site_fract_y
_atom_site_fract_z
Si Si1 0.362249 0.277852 0.606744
Si Si2 0.675260 0.281580 0.832572
Si Si3 0.684466 0.731235 0.905111
Si Si4 0.781581 0.966921 0.428277
Si Si5 0.974831 0.480138 0.824618
Si Si6 0.025686 0.861108 0.008124
Si Si7 0.363454 0.822098 0.722523
O O1 0.551423 0.239597 0.699997
O O2 0.194877 0.180867 0.600182
O O3 0.507239 0.267469 0.439721
O O4 0.210444 0.409714 0.705881
O O5 0.801287 0.389248 0.807264
O O6 0.491169 0.324418 0.991773
O O7 0.845980 0.169423 0.864139
O O8 0.865523 0.611724 0.800738
O O9 0.564141 0.822228 0.816485
O O10 0.796140 0.812231 0.022759
O O11 0.500000 0.000000 0.500000
O O12 0.759806 0.050196 0.307125
O O13 0.000000 0.000000 0.500000
O O14 0.000000 0.500000 0.000000
O O15 0.174903 0.785485 0.839986
O O16 0.000000 0.000000 0.000000
#
# Coordination Sequence:
#
# PCOD9051478 Si02
#       7
#     2   2   2   2   2   2   2
#     4  11  26  43  72 107 140 191 245 305 368 434
#     4  11  24  44  72 103 140 185 254 295 371 432
#     4  11  25  47  67 104 144 189 241 303 369 437
#     4  10  25  46  72 105 151 194 241 303 376 452
#     4  12  24  44  75 101 140 192 252 300 359 445
#     4  11  26  42  72 101 146 190 236 300 374 444
#     4  10  27  43  68 103 145 183 235 303 371 434
#
# _framework density 23.374855
#
# number of rings (size 3 to 8) (size 9 to 14) (size 15 to 20)
#    0.000    1.143    2.857    0.429   14.000    1.714 
#    0.000    1.429    0.000    0.000    0.000    0.000 
#    0.000    0.000    0.000    0.000    0.000    0.000 
#
# Total GULP energy -78101.390093 kJ/mol
# GULP energy per Si atom -5578.670721 kJ/mol
# Density = 2.332165 g / cm^3
# Si number density = 23.374855 Si / 1000 Ang^3
#
#
#
# Elastic Constant Matrix: (Units=GPa)
#
#
# Indices 1 2 3 4 5 6 
#
# 1 116.3982 48.9416 43.7076 -1.7219 22.0795 -2.8236
# 2 48.9416 77.3723 -13.4078 11.7499 18.9614 -5.6249
# 3 43.7076 -13.4078 100.4688 1.7476 -3.2127 -0.8809
# 4 -1.7219 11.7499 1.7476 35.7433 -9.2551 -1.0382
# 5 22.0795 18.9614 -3.2127 -9.2551 54.1879 -0.1943
# 6 -2.8236 -5.6249 -0.8809 -1.0382 -0.1943 39.5366
#
#
#
# Elastic Compliance Matrix: (Units=1/GPa)
#
#
# Indices 1 2 3 4 5 6 
#
# 1 0.018820 -0.013926 -0.010225 0.005317 -0.002496 -0.000738
# 2 -0.013926 0.026475 0.009650 -0.011035 -0.004893 0.002673
# 3 -0.010225 0.009650 0.015802 -0.004147 0.001021 0.000891
# 4 0.005317 -0.011035 -0.004147 0.033929 0.007243 -0.000356
# 5 -0.002496 -0.004893 0.001021 0.007243 0.022479 -0.000551
# 6 -0.000738 0.002673 0.000891 -0.000356 -0.000551 0.025628
#
#
# Mechanical properties :
#
#
# Convention : Reuss Voigt Hill
#
# Bulk Modulus (GPa) = 31.15607 50.30245 40.72926
# Shear Modulus (GPa) = 27.34751 40.22676 33.78714
#
# Velocity S-wave (km/s) = 3.42417 4.15292 3.80603
# Velocity P-wave (km/s) = 5.38434 6.67550 6.06438
#
# Compressibility (1/GPa) = 0.03209648
#
# Stress axis : x y z
#
# Youngs Moduli (GPa) = 53.13461 37.77201 63.28368
#
# Poissons Ratio (x) = 0.52600 0.64705
# Poissons Ratio (y) = 0.73993 -0.61070
# Poissons Ratio (z) = 0.54328 -0.36451
#
# Static dielectric constant tensor:
#      x y z
#    x 1.965130 -0.096180 -0.055560 
#    y -0.096180 1.895840 0.059810 
#    z -0.055560 0.059810 1.925150 
# 
# From -- ./inp_files/26973.got.cif
#   From: 2010.05.17/outbox.cif.g08.bks.cpg/sg2_14_cif.got.tgz:26973.got - 2010.06.03 11:33:40.
