data_PCOD9051203
_publ_section_title
;
Structure prediction by ZEFSAII (Michael W. Deem and Ramdas Pophale) SiO2 
 PCOD9051203
Probable space group: P -1
;
_chemical_formula_sum "Si O2"
_cell_formula_units_Z 15
_cell_length_a 5.145596
_cell_length_b 12.195647
_cell_length_c 11.048468
_cell_angle_alpha 63.416827
_cell_angle_beta 94.186326
_cell_angle_gamma 75.358018
_cell_volume 585.859483
_symmetry_space_group_name_H-M "P -1"
_symmetry_group_IT_number 2
_symmetry_cell_setting 'triclinic'
loop_
_space_group_symop_operation_xyz
x,y,z
-x,-y,-z
loop_
_atom_site_type_symbol
_atom_site_label
_atom_site_fract_x
_atom_site_fract_y
_atom_site_fract_z
Si Si1 0.179649 0.539987 0.824247
Si Si2 0.599589 0.953198 0.712194
Si Si3 0.620456 0.667943 0.857399
Si Si4 0.217360 0.419409 0.451335
Si Si5 0.945055 0.832909 0.425101
Si Si6 0.826308 0.100748 0.844870
Si Si7 0.532328 0.383751 0.710845
Si Si8 0.000000 0.000000 0.500000
O O1 0.363078 0.628586 0.823296
O O2 0.270918 0.471142 0.733242
O O3 0.865748 0.622140 0.791791
O O4 0.261880 0.420297 0.978726
O O5 0.571702 0.816160 0.811920
O O6 0.296245 0.033131 0.605969
O O7 0.647558 0.032643 0.791663
O O8 0.854316 0.937435 0.639321
O O9 0.142039 0.290061 0.490643
O O10 0.489394 0.368704 0.573024
O O11 0.274173 0.527310 0.315208
O O12 0.000000 0.500000 0.500000
O O13 0.996936 0.855325 0.275574
O O14 0.166434 0.852316 0.515928
O O15 0.650737 0.236611 0.832771
O O16 0.000000 0.000000 0.000000
#
# Coordination Sequence:
#
# PCOD9051203 Si02
#       8
#     2   2   2   2   2   2   2   1
#     4  10  25  45  72 103 143 190 244 302 361 442
#     4  11  25  45  70 102 144 191 239 308 370 447
#     4  10  25  46  69 105 143 186 246 299 367 437
#     4  11  24  44  67  98 142 183 243 301 361 444
#     4  11  24  45  69 101 142 185 243 302 373 436
#     4  11  26  44  70 108 145 187 242 301 373 450
#     4  11  25  44  71 104 140 190 243 302 372 438
#     4  10  26  42  68 100 134 182 246 298 362 438
#
# _framework density 25.60341
#
# number of rings (size 3 to 8) (size 9 to 14) (size 15 to 20)
#    0.000    1.333    2.667    0.400    9.333    4.800 
#    0.000    0.000    0.000    0.000    0.000    0.000 
#    0.000    0.000    0.000    0.000    0.000    0.000 
#
# Total GULP energy -83733.966103 kJ/mol
# GULP energy per Si atom -5582.264407 kJ/mol
# Density = 2.554514 g / cm^3
# Si number density = 25.603410 Si / 1000 Ang^3
#
#
#
# Elastic Constant Matrix: (Units=GPa)
#
#
# Indices 1 2 3 4 5 6 
#
# 1 66.8843 29.3871 11.1013 -16.2633 -31.7422 9.7150
# 2 29.3871 165.8077 47.0457 -42.2148 -21.4116 34.1358
# 3 11.1013 47.0457 104.7760 -26.7077 -13.1677 18.2651
# 4 -16.2633 -42.2148 -26.7077 61.0403 -1.4747 -9.9722
# 5 -31.7422 -21.4116 -13.1677 -1.4747 34.5244 -4.0447
# 6 9.7150 34.1358 18.2651 -9.9722 -4.0447 48.3164
#
#
#
# Elastic Compliance Matrix: (Units=1/GPa)
#
#
# Indices 1 2 3 4 5 6 
#
# 1 0.032037 0.000861 0.003548 0.010867 0.031394 -0.003520
# 2 0.000861 0.009367 -0.001360 0.005490 0.005770 -0.004661
# 3 0.003548 -0.001360 0.012476 0.005176 0.007069 -0.002809
# 4 0.010867 0.005490 0.005176 0.025506 0.016297 -0.001392
# 5 0.031394 0.005770 0.007069 0.016297 0.064295 -0.004316
# 6 -0.003520 -0.004661 -0.002809 -0.001392 -0.004316 0.025111
#
#
# Mechanical properties :
#
#
# Convention : Reuss Voigt Hill
#
# Bulk Modulus (GPa) = 16.67274 56.94845 36.81060
# Shear Modulus (GPa) = 27.36937 45.43849 36.40393
#
# Velocity S-wave (km/s) = 3.27306 4.21729 3.77482
# Velocity P-wave (km/s) = 4.56180 6.78269 5.77992
#
# Compressibility (1/GPa) = 0.05997814
#
# Stress axis : x y z
#
# Youngs Moduli (GPa) = 31.21400 106.75908 80.15218
#
# Poissons Ratio (x) = -0.09188 -0.28440
# Poissons Ratio (y) = -0.02686 0.10900
# Poissons Ratio (z) = -0.11076 0.14518
#
# Static dielectric constant tensor:
#      x y z
#    x 1.759600 -0.241530 -0.078350 
#    y -0.241530 1.885680 -0.048860 
#    z -0.078350 -0.048860 2.020310 
# 
# From -- ./inp_files/66522.got.cif
#   From: 2010.05.17/outbox.cif.g08.bks.cpg/sg2_34_cif.got.tgz:66522.got - 2010.06.03 11:33:40.
