data_PCOD9051960
_publ_section_title
;
Structure prediction by ZEFSAII (Michael W. Deem and Ramdas Pophale) SiO2 
 PCOD9051960
Probable space group: P -1
;
_chemical_formula_sum "Si O2"
_cell_formula_units_Z 14
_cell_length_a 9.897766
_cell_length_b 6.929985
_cell_length_c 8.045237
_cell_angle_alpha 67.639455
_cell_angle_beta 91.124867
_cell_angle_gamma 87.710013
_cell_volume 509.570496
_symmetry_space_group_name_H-M "P -1"
_symmetry_group_IT_number 2
_symmetry_cell_setting 'triclinic'
loop_
_space_group_symop_operation_xyz
x,y,z
-x,-y,-z
loop_
_atom_site_type_symbol
_atom_site_label
_atom_site_fract_x
_atom_site_fract_y
_atom_site_fract_z
Si Si1 0.256631 0.034947 0.264308
Si Si2 0.391487 0.516174 0.642256
Si Si3 0.617951 0.266179 0.880304
Si Si4 0.105053 0.383108 0.916503
Si Si5 0.744614 0.195907 0.251954
Si Si6 0.776011 0.623472 0.602222
Si Si7 0.022564 0.171297 0.645393
O O1 0.370100 0.909238 0.203578
O O2 0.130873 0.892386 0.355838
O O3 0.293085 0.177622 0.372931
O O4 0.185694 0.201828 0.079505
O O5 0.500000 0.500000 0.500000
O O6 0.472980 0.389274 0.830097
O O7 0.357167 0.756969 0.611895
O O8 0.274316 0.403918 0.577765
O O9 0.731512 0.428740 0.772888
O O10 0.660733 0.174843 0.088272
O O11 0.202356 0.568834 0.817635
O O12 0.039011 0.270829 0.794956
O O13 0.000000 0.500000 0.000000
O O14 0.870257 0.028311 0.302521
O O15 0.931023 0.678857 0.552854
#
# Coordination Sequence:
#
# PCOD9051960 Si02
#       7
#     2   2   2   2   2   2   2
#     4  12  25  43  71 109 140 185 230 285 353 423
#     4  10  25  49  70 100 140 189 235 295 344 400
#     4  11  25  47  72 100 143 180 240 290 343 414
#     4  12  23  44  71 104 146 182 228 286 347 421
#     4  12  23  47  74 101 141 182 239 289 344 416
#     4  11  26  45  66 103 144 186 228 286 348 410
#     4  12  26  43  71 109 139 185 232 283 360 417
#
# _framework density 27.474119000000002
#
# number of rings (size 3 to 8) (size 9 to 14) (size 15 to 20)
#    0.000    0.571    5.714    2.143    4.000    1.143 
#    2.571    1.429    0.000    0.000    0.000    0.000 
#    0.000    0.000    0.000    0.000    0.000    0.000 
#
# Total GULP energy -78483.842784 kJ/mol
# GULP energy per Si atom -5605.988770 kJ/mol
# Density = 2.741159 g / cm^3
# Si number density = 27.474119 Si / 1000 Ang^3
#
#
#
# Elastic Constant Matrix: (Units=GPa)
#
#
# Indices 1 2 3 4 5 6 
#
# 1 77.3497 40.6317 15.5949 0.1590 11.0987 -23.0716
# 2 40.6317 182.1790 50.3748 38.0340 1.2035 -44.9175
# 3 15.5949 50.3748 83.6048 32.6933 16.6753 -6.4801
# 4 0.1590 38.0340 32.6933 69.6445 -1.1921 -5.9386
# 5 11.0987 1.2035 16.6753 -1.1921 37.8198 -13.2810
# 6 -23.0716 -44.9175 -6.4801 -5.9386 -13.2810 57.8859
#
#
#
# Elastic Compliance Matrix: (Units=1/GPa)
#
#
# Indices 1 2 3 4 5 6 
#
# 1 0.016176 -0.002746 -0.001513 0.002453 -0.002578 0.003807
# 2 -0.002746 0.009501 -0.004771 -0.002295 0.004861 0.006624
# 3 -0.001513 -0.004771 0.019527 -0.007169 -0.010052 -0.005161
# 4 0.002453 -0.002295 -0.007169 0.019132 0.003527 0.001167
# 5 -0.002578 0.004861 -0.010052 0.003527 0.035111 0.010036
# 6 0.003807 0.006624 -0.005161 0.001167 0.010036 0.025777
#
#
# Mechanical properties :
#
#
# Convention : Reuss Voigt Hill
#
# Bulk Modulus (GPa) = 36.84110 61.81515 49.32813
# Shear Modulus (GPa) = 32.82312 48.83884 40.83098
#
# Velocity S-wave (km/s) = 3.46018 4.22077 3.85926
# Velocity P-wave (km/s) = 5.42239 6.80452 6.15239
#
# Compressibility (1/GPa) = 0.02714360
#
# Stress axis : x y z
#
# Youngs Moduli (GPa) = 61.81873 105.25330 51.21223
#
# Poissons Ratio (x) = 0.28902 0.07748
# Poissons Ratio (y) = 0.16975 0.24435
# Poissons Ratio (z) = 0.09353 0.50219
#
# Static dielectric constant tensor:
#      x y z
#    x 2.800280 -0.236730 -0.370850 
#    y -0.236730 2.253190 0.120950 
#    z -0.370850 0.120950 2.427330 
# 
# From -- ./inp_files/27263.got.cif
#   From: 2010.05.17/outbox.cif.g08.bks.cpg/sg2_14_cif.got.tgz:27263.got - 2010.06.03 11:33:40.
