data_PCOD9051271
_publ_section_title
;
Structure prediction by ZEFSAII (Michael W. Deem and Ramdas Pophale) SiO2 
 PCOD9051271
Probable space group: P -1
;
_chemical_formula_sum "Si O2"
_cell_formula_units_Z 13
_cell_length_a 8.312062
_cell_length_b 8.571271
_cell_length_c 9.719280
_cell_angle_alpha 100.617863
_cell_angle_beta 47.462625
_cell_angle_gamma 89.513189
_cell_volume 492.948203
_symmetry_space_group_name_H-M "P -1"
_symmetry_group_IT_number 2
_symmetry_cell_setting 'triclinic'
loop_
_space_group_symop_operation_xyz
x,y,z
-x,-y,-z
loop_
_atom_site_type_symbol
_atom_site_label
_atom_site_fract_x
_atom_site_fract_y
_atom_site_fract_z
Si Si1 0.775268 0.121069 0.627111
Si Si2 0.054640 0.474547 0.624871
Si Si3 0.613390 0.812854 0.603321
Si Si4 0.640976 0.132164 0.993093
Si Si5 0.396456 0.676828 0.462791
Si Si6 0.846192 0.642822 0.026368
Si Si7 0.000000 0.000000 0.000000
O O1 0.697764 0.207000 0.828608
O O2 0.800989 0.231218 0.502461
O O3 0.611551 0.002145 0.651073
O O4 0.000000 0.000000 0.500000
O O5 0.139398 0.284992 0.578059
O O6 0.289364 0.526964 0.545144
O O7 0.000000 0.500000 0.500000
O O8 0.870166 0.574713 0.845771
O O9 0.443970 0.787637 0.578297
O O10 0.519450 0.755503 0.790842
O O11 0.848799 0.051292 0.953867
O O12 0.500000 0.000000 0.000000
O O13 0.606107 0.652358 0.236773
O O14 0.924508 0.816128 0.015293
O O15 0.000000 0.500000 0.000000
#
# Coordination Sequence:
#
# PCOD9051271 Si02
#       7
#     2   2   2   2   2   2   1
#     4  11  26  44  74 112 154 199 273 330 404 494
#     4  12  29  49  78 113 165 209 265 344 413 494
#     4  11  24  47  72 105 151 207 257 330 410 474
#     4  10  25  45  74 110 153 207 266 330 405 484
#     4  12  27  50  77 114 158 211 271 339 411 493
#     4  12  29  52  80 123 160 215 279 330 414 498
#     4  12  28  48  88 112 164 220 266 340 416 486
#
# _framework density 26.371939000000001
#
# number of rings (size 3 to 8) (size 9 to 14) (size 15 to 20)
#    0.000    0.615    1.538    4.615   15.077    1.846 
#    0.000    0.000    0.000    0.000    0.000    0.000 
#    0.000    0.000    0.000    0.000    0.000    0.000 
#
# Total GULP energy -72516.618884 kJ/mol
# GULP energy per Si atom -5578.201453 kJ/mol
# Density = 2.631192 g / cm^3
# Si number density = 26.371939 Si / 1000 Ang^3
#
#
#
# Elastic Constant Matrix: (Units=GPa)
#
#
# Indices 1 2 3 4 5 6 
#
# 1 125.2275 19.0906 19.5158 7.9558 29.6761 16.6069
# 2 19.0906 111.4845 15.9781 5.6490 5.1387 17.8740
# 3 19.5158 15.9781 151.6571 8.7912 27.2476 34.3591
# 4 7.9558 5.6490 8.7912 22.5071 -1.7506 2.1660
# 5 29.6761 5.1387 27.2476 -1.7506 47.0019 2.6784
# 6 16.6069 17.8740 34.3591 2.1660 2.6784 45.7171
#
#
#
# Elastic Compliance Matrix: (Units=1/GPa)
#
#
# Indices 1 2 3 4 5 6 
#
# 1 0.010345 -0.000812 0.001075 -0.004067 -0.007010 -0.003645
# 2 -0.000812 0.009771 0.000047 -0.001888 -0.000457 -0.003444
# 3 0.001075 0.000047 0.009267 -0.003804 -0.005807 -0.006853
# 4 -0.004067 -0.001888 -0.003804 0.048112 0.006634 0.002406
# 5 -0.007010 -0.000457 -0.005807 0.006634 0.029076 0.005072
# 6 -0.003645 -0.003444 -0.006853 0.002406 0.005072 0.029284
#
#
# Mechanical properties :
#
#
# Convention : Reuss Voigt Hill
#
# Bulk Modulus (GPa) = 33.32958 55.28200 44.30579
# Shear Modulus (GPa) = 34.42688 45.29754 39.86221
#
# Velocity S-wave (km/s) = 3.61700 4.14894 3.89207
# Velocity P-wave (km/s) = 5.48720 6.63020 6.08559
#
# Compressibility (1/GPa) = 0.03000338
#
# Stress axis : x y z
#
# Youngs Moduli (GPa) = 96.66885 102.34264 107.90926
#
# Poissons Ratio (x) = 0.08309 -0.11604
# Poissons Ratio (y) = 0.07849 -0.00506
# Poissons Ratio (z) = -0.10396 -0.00480
#
# Static dielectric constant tensor:
#      x y z
#    x 2.248160 0.115650 -0.244000 
#    y 0.115650 1.517830 -0.197070 
#    z -0.244000 -0.197070 2.498080 
# 
# From -- ./inp_files/159465.got.cif
#   From: 2010.05.17/outbox.cif.g08.bks.cpg/sg2_80_cif.got.tgz:159465.got - 2010.06.03 11:33:40.
