data_PCOD9051822
_publ_section_title
;
Structure prediction by ZEFSAII (Michael W. Deem and Ramdas Pophale) SiO2 
 PCOD9051822
Probable space group: P -1
;
_chemical_formula_sum "Si O2"
_cell_formula_units_Z 16
_cell_length_a 8.966101
_cell_length_b 7.852570
_cell_length_c 11.416400
_cell_angle_alpha 93.247497
_cell_angle_beta 94.581929
_cell_angle_gamma 51.415500
_cell_volume 626.284833
_symmetry_space_group_name_H-M "P -1"
_symmetry_group_IT_number 2
_symmetry_cell_setting 'triclinic'
loop_
_space_group_symop_operation_xyz
x,y,z
-x,-y,-z
loop_
_atom_site_type_symbol
_atom_site_label
_atom_site_fract_x
_atom_site_fract_y
_atom_site_fract_z
Si Si1 0.048851 0.924187 0.368078
Si Si2 0.657391 0.689751 0.471875
Si Si3 0.794457 0.077202 0.947520
Si Si4 0.892068 0.618408 0.877694
Si Si5 0.366988 0.854598 0.674587
Si Si6 0.566955 0.368227 0.720724
Si Si7 0.049141 0.306219 0.368291
Si Si8 0.502496 0.152119 0.097220
O O1 0.859592 0.959638 0.323413
O O2 0.061867 0.102260 0.319006
O O3 0.000000 0.000000 0.500000
O O4 0.254384 0.698503 0.352338
O O5 0.491326 0.773707 0.561418
O O6 0.537420 0.721259 0.348485
O O7 0.765925 0.776310 0.543331
O O8 0.858953 0.453238 0.442101
O O9 0.670251 0.255640 0.845365
O O10 0.829553 0.858251 0.900957
O O11 0.656002 0.170174 0.054559
O O12 0.000000 0.000000 0.000000
O O13 0.964392 0.566073 0.745204
O O14 0.707686 0.629067 0.882956
O O15 0.000000 0.500000 0.000000
O O16 0.417393 0.629389 0.716873
O O17 0.440767 0.943015 0.773236
O O18 0.500000 0.000000 0.000000
#
# Coordination Sequence:
#
# PCOD9051822 Si02
#       8
#     2   2   2   2   2   2   2   2
#     4  12  24  44  72 110 150 196 242 305 376 453
#     4  11  24  44  73 107 147 195 241 303 379 452
#     4  11  26  47  72 107 144 187 258 314 370 444
#     4  11  25  47  72 101 145 197 251 304 376 443
#     4  12  24  47  74 107 149 194 245 310 378 452
#     4  12  25  43  76 108 148 193 249 305 381 453
#     4  11  24  46  69 107 150 191 249 309 367 453
#     4  10  25  48  70 100 143 192 245 304 373 439
#
# _framework density 25.547481999999999
#
# number of rings (size 3 to 8) (size 9 to 14) (size 15 to 20)
#    0.000    0.750    5.000    1.875    3.500    1.000 
#    4.500    0.000    0.000    0.000    0.000    0.000 
#    0.000    0.000    0.000    0.000    0.000    0.000 
#
# Total GULP energy -89192.788524 kJ/mol
# GULP energy per Si atom -5574.549283 kJ/mol
# Density = 2.548933 g / cm^3
# Si number density = 25.547482 Si / 1000 Ang^3
#
#
#
# Elastic Constant Matrix: (Units=GPa)
#
#
# Indices 1 2 3 4 5 6 
#
# 1 146.1939 33.8877 54.0018 -15.0665 7.2989 -36.1449
# 2 33.8877 63.6266 28.6720 -1.3356 -1.6225 -2.7580
# 3 54.0018 28.6720 134.1321 -4.3270 -4.2083 2.5397
# 4 -15.0665 -1.3356 -4.3270 40.2820 -9.2568 3.6587
# 5 7.2989 -1.6225 -4.2083 -9.2568 55.6508 -6.7079
# 6 -36.1449 -2.7580 2.5397 3.6587 -6.7079 39.0766
#
#
#
# Elastic Compliance Matrix: (Units=1/GPa)
#
#
# Indices 1 2 3 4 5 6 
#
# 1 0.012466 -0.004184 -0.004247 0.002998 -0.000230 0.011191
# 2 -0.004184 0.018891 -0.002324 -0.000869 0.000512 -0.002216
# 3 -0.004247 -0.002324 0.009769 -0.000045 0.000665 -0.004609
# 4 0.002998 -0.000869 -0.000045 0.026782 0.004144 0.000919
# 5 -0.000230 0.000512 0.000665 0.004144 0.019075 0.002666
# 6 0.011191 -0.002216 -0.004609 0.000919 0.002666 0.036457
#
#
# Mechanical properties :
#
#
# Convention : Reuss Voigt Hill
#
# Bulk Modulus (GPa) = 50.97652 64.11951 57.54802
# Shear Modulus (GPa) = 33.00596 42.16127 37.58362
#
# Velocity S-wave (km/s) = 3.59826 4.06681 3.83969
# Velocity P-wave (km/s) = 6.10412 6.87056 6.49865
#
# Compressibility (1/GPa) = 0.01961687
#
# Stress axis : x y z
#
# Youngs Moduli (GPa) = 80.21638 52.93584 102.36841
#
# Poissons Ratio (x) = 0.22146 0.43477
# Poissons Ratio (y) = 0.33559 0.23788
# Poissons Ratio (z) = 0.34069 0.12301
#
# Static dielectric constant tensor:
#      x y z
#    x 1.941620 0.121900 -0.068880 
#    y 0.121900 2.012830 -0.043200 
#    z -0.068880 -0.043200 2.085040 
# 
# From -- ./inp_files/382680.got.cif
#   From: 2010.05.17/outbox.cif.g08.bks.cpg/sg2_192_cif.got.tgz:382680.got - 2010.06.03 11:33:40.
