data_PCOD9051076
_publ_section_title
;
Structure prediction by ZEFSAII (Michael W. Deem and Ramdas Pophale) SiO2 
 PCOD9051076
Probable space group: P -1
;
_chemical_formula_sum "Si O2"
_cell_formula_units_Z 16
_cell_length_a 7.991560
_cell_length_b 14.889486
_cell_length_c 15.153406
_cell_angle_alpha 29.566335
_cell_angle_beta 85.819661
_cell_angle_gamma 70.188160
_cell_volume 735.226307
_symmetry_space_group_name_H-M "P -1"
_symmetry_group_IT_number 2
_symmetry_cell_setting 'triclinic'
loop_
_space_group_symop_operation_xyz
x,y,z
-x,-y,-z
loop_
_atom_site_type_symbol
_atom_site_label
_atom_site_fract_x
_atom_site_fract_y
_atom_site_fract_z
Si Si1 0.078280 0.700797 0.905842
Si Si2 0.123324 0.560481 0.827687
Si Si3 0.404534 0.589819 0.270013
Si Si4 0.645226 0.064025 0.902374
Si Si5 0.238806 0.880431 0.336040
Si Si6 0.984096 0.393169 0.680459
Si Si7 0.044324 0.242064 0.518233
Si Si8 0.606562 0.226212 0.071538
O O1 0.099964 0.683019 0.815173
O O2 0.271914 0.687844 0.952558
O O3 0.880708 0.926625 0.754945
O O4 0.025770 0.525482 0.086699
O O5 0.045629 0.716045 0.612380
O O6 0.364040 0.366646 0.976074
O O7 0.443303 0.696387 0.260283
O O8 0.584393 0.351611 0.435757
O O9 0.230623 0.563407 0.331128
O O10 0.356226 0.747560 0.054584
O O11 0.674006 0.060212 0.799970
O O12 0.500000 0.000000 0.000000
O O13 0.861063 0.868166 0.098575
O O14 0.072426 0.833011 0.351581
O O15 0.010320 0.524925 0.644762
O O16 0.000000 0.500000 0.500000
O O17 0.276537 0.033782 0.689083
#
# Coordination Sequence:
#
# PCOD9051076 Si02
#       8
#     2   2   2   2   2   2   2   2
#     4  10  25  45  69 102 137 180 231 288 342 414
#     4  11  23  47  71  98 141 182 230 287 349 402
#     4  12  24  41  64  99 131 178 224 277 341 408
#     4  12  25  41  65  93 132 179 223 273 342 408
#     4  11  23  42  65  96 134 173 227 280 333 409
#     4  12  24  41  65  98 138 176 228 285 338 411
#     4  11  23  43  69 100 136 183 226 281 343 408
#     4  11  24  43  69 102 137 181 231 283 344 409
#
# _framework density 21.762008000000002
#
# number of rings (size 3 to 8) (size 9 to 14) (size 15 to 20)
#    0.000    0.750    1.250    7.125    3.500    2.000 
#    2.250    1.250    0.000    0.000    0.000    0.000 
#    0.000    0.000    0.000    0.000    0.000    0.000 
#
# Total GULP energy -89408.964658 kJ/mol
# GULP energy per Si atom -5588.060291 kJ/mol
# Density = 2.171248 g / cm^3
# Si number density = 21.762008 Si / 1000 Ang^3
#
#
#
# Elastic Constant Matrix: (Units=GPa)
#
#
# Indices 1 2 3 4 5 6 
#
# 1 57.7577 22.8087 -1.9685 1.1115 -6.6422 -16.6770
# 2 22.8087 105.0747 21.6848 11.3894 -2.4110 -14.2315
# 3 -1.9685 21.6848 84.9671 14.5712 15.5003 -10.9035
# 4 1.1115 11.3894 14.5712 23.8682 1.1118 -9.0223
# 5 -6.6422 -2.4110 15.5003 1.1118 35.4919 -3.1415
# 6 -16.6770 -14.2315 -10.9035 -9.0223 -3.1415 26.2162
#
#
#
# Elastic Compliance Matrix: (Units=1/GPa)
#
#
# Indices 1 2 3 4 5 6 
#
# 1 0.024107 -0.003879 0.001839 0.005621 0.004729 0.016495
# 2 -0.003879 0.011496 -0.002507 -0.003155 0.001409 0.001814
# 3 0.001839 -0.002507 0.015068 -0.006649 -0.005926 0.003077
# 4 0.005621 -0.003155 -0.006649 0.053860 0.003654 0.018072
# 5 0.004729 0.001409 -0.005926 0.003654 0.032199 0.006425
# 6 0.016495 0.001814 0.003077 0.018072 0.006425 0.057891
#
#
# Mechanical properties :
#
#
# Convention : Reuss Voigt Hill
#
# Bulk Modulus (GPa) = 24.05250 36.98329 30.51789
# Shear Modulus (GPa) = 22.98060 30.80023 26.89042
#
# Velocity S-wave (km/s) = 3.25314 3.76616 3.51901
# Velocity P-wave (km/s) = 5.01867 5.99527 5.52857
#
# Compressibility (1/GPa) = 0.04157572
#
# Stress axis : x y z
#
# Youngs Moduli (GPa) = 41.48226 86.98358 66.36615
#
# Poissons Ratio (x) = 0.33740 -0.12202
# Poissons Ratio (y) = 0.16091 0.16640
# Poissons Ratio (z) = -0.07627 0.21809
#
# Static dielectric constant tensor:
#      x y z
#    x 1.731210 0.065180 0.005330 
#    y 0.065180 1.732250 0.036430 
#    z 0.005330 0.036430 1.720850 
# 
# From -- ./inp_files/505013.got.cif
#   From: 2010.05.17/outbox.cif.g08.bks.cpg/sg2_253_cif.got.tgz:505013.got - 2010.06.03 11:33:40.
