data_PCOD9051332
_publ_section_title
;
Structure prediction by ZEFSAII (Michael W. Deem and Ramdas Pophale) SiO2 
 PCOD9051332
Probable space group: P -1
;
_chemical_formula_sum "Si O2"
_cell_formula_units_Z 12
_cell_length_a 14.602732
_cell_length_b 9.118665
_cell_length_c 15.418382
_cell_angle_alpha 30.839427
_cell_angle_beta 152.115512
_cell_angle_gamma 137.064238
_cell_volume 489.147628
_symmetry_space_group_name_H-M "P -1"
_symmetry_group_IT_number 2
_symmetry_cell_setting 'triclinic'
loop_
_space_group_symop_operation_xyz
x,y,z
-x,-y,-z
loop_
_atom_site_type_symbol
_atom_site_label
_atom_site_fract_x
_atom_site_fract_y
_atom_site_fract_z
Si Si1 0.083976 0.282940 0.894044
Si Si2 0.599879 0.680420 0.719030
Si Si3 0.723923 0.515117 0.209318
Si Si4 0.729282 0.697122 0.322261
Si Si5 0.717218 0.519130 0.711914
Si Si6 0.986217 0.079960 0.271171
O O1 0.193001 0.269796 0.899285
O O2 0.897208 0.505841 0.610156
O O3 0.231011 0.379742 0.038666
O O4 0.000000 0.000000 0.000000
O O5 0.463737 0.419462 0.741189
O O6 0.677894 0.694895 0.679668
O O7 0.500000 0.000000 0.500000
O O8 0.721657 0.615687 0.255294
O O9 0.870205 0.215513 0.478112
O O10 0.500000 0.500000 0.000000
O O11 0.819498 0.000473 0.239379
O O12 0.500000 0.500000 0.500000
O O13 0.860471 0.698592 0.684789
O O14 0.855375 0.233724 0.004689
#
# Coordination Sequence:
#
# PCOD9051332 Si02
#       6
#     2   2   2   2   2   2
#     4  11  23  38  65 106 142 180 228 300 354 413
#     4  12  25  43  71 110 139 184 246 296 354 425
#     4  11  23  42  73 105 147 188 238 296 363 424
#     4  11  24  42  70 107 141 187 236 302 355 426
#     4  11  28  48  73 102 149 197 233 302 367 431
#     4  10  25  46  67 103 140 191 244 281 364 435
#
# _framework density 24.532471999999999
#
# number of rings (size 3 to 8) (size 9 to 14) (size 15 to 20)
#    0.000    1.000    3.333    3.000    4.667    4.667 
#    0.000    4.167    0.000    0.000    0.000    0.000 
#    0.000    0.000    0.000    0.000    0.000    0.000 
#
# Total GULP energy -67086.115845 kJ/mol
# GULP energy per Si atom -5590.509654 kJ/mol
# Density = 2.447663 g / cm^3
# Si number density = 24.532472 Si / 1000 Ang^3
#
#
#
# Elastic Constant Matrix: (Units=GPa)
#
#
# Indices 1 2 3 4 5 6 
#
# 1 99.9037 33.7588 43.3225 -11.4273 1.3133 13.7409
# 2 33.7588 122.5910 73.1092 14.6143 1.6689 46.9501
# 3 43.3225 73.1092 160.0588 33.1596 8.1603 10.3452
# 4 -11.4273 14.6143 33.1596 59.8787 9.0087 -9.5959
# 5 1.3133 1.6689 8.1603 9.0087 43.9486 -2.6179
# 6 13.7409 46.9501 10.3452 -9.5959 -2.6179 69.8731
#
#
#
# Elastic Compliance Matrix: (Units=1/GPa)
#
#
# Indices 1 2 3 4 5 6 
#
# 1 0.012807 -0.001997 -0.003557 0.005005 -0.000671 0.000012
# 2 -0.001997 0.016299 -0.005674 -0.002910 0.000489 -0.010101
# 3 -0.003557 -0.005674 0.010670 -0.004758 -0.000550 0.002258
# 4 0.005005 -0.002910 -0.004758 0.022256 -0.003444 0.004603
# 5 -0.000671 0.000489 -0.000550 -0.003444 0.023581 0.000295
# 6 0.000012 -0.010101 0.002258 0.004603 0.000295 0.021405
#
#
# Mechanical properties :
#
#
# Convention : Reuss Voigt Hill
#
# Bulk Modulus (GPa) = 57.73942 75.88158 66.81050
# Shear Modulus (GPa) = 36.96901 50.23092 43.59997
#
# Velocity S-wave (km/s) = 3.88615 4.52987 4.22030
# Velocity P-wave (km/s) = 6.61235 7.63923 7.14427
#
# Compressibility (1/GPa) = 0.01731919
#
# Stress axis : x y z
#
# Youngs Moduli (GPa) = 78.08356 61.35222 93.72096
#
# Poissons Ratio (x) = 0.12255 0.33340
# Poissons Ratio (y) = 0.15597 0.53174
# Poissons Ratio (z) = 0.27777 0.34809
#
# Static dielectric constant tensor:
#      x y z
#    x 1.948060 0.027010 0.035840 
#    y 0.027010 1.991170 -0.052690 
#    z 0.035840 -0.052690 1.903650 
# 
# From -- ./inp_files/378110.got.cif
#   From: 2010.05.17/outbox.cif.g08.bks.cpg/sg2_190_cif.got.tgz:378110.got - 2010.06.03 11:33:40.
