data_PCOD9051157
_publ_section_title
;
Structure prediction by ZEFSAII (Michael W. Deem and Ramdas Pophale) SiO2 
 PCOD9051157
Probable space group: P -1
;
_chemical_formula_sum "Si O2"
_cell_formula_units_Z 16
_cell_length_a 9.615170
_cell_length_b 20.558100
_cell_length_c 7.631087
_cell_angle_alpha 58.467319
_cell_angle_beta 82.083205
_cell_angle_gamma 43.736118
_cell_volume 811.695704
_symmetry_space_group_name_H-M "P -1"
_symmetry_group_IT_number 2
_symmetry_cell_setting 'triclinic'
loop_
_space_group_symop_operation_xyz
x,y,z
-x,-y,-z
loop_
_atom_site_type_symbol
_atom_site_label
_atom_site_fract_x
_atom_site_fract_y
_atom_site_fract_z
Si Si1 0.788910 0.641190 0.469922
Si Si2 0.448486 0.127084 0.718364
Si Si3 0.131727 0.640102 0.369000
Si Si4 0.188776 0.400777 0.878086
Si Si5 0.154244 0.253812 0.257031
Si Si6 0.757157 0.874406 0.916627
Si Si7 0.339028 0.474010 0.996232
Si Si8 0.473921 0.558653 0.658859
O O1 0.574114 0.772595 0.396085
O O2 0.749652 0.628975 0.296708
O O3 0.967678 0.637283 0.434466
O O4 0.923392 0.526675 0.730325
O O5 0.262088 0.187347 0.517914
O O6 0.668515 0.996319 0.791375
O O7 0.392690 0.113203 0.938083
O O8 0.233315 0.650639 0.488146
O O9 0.342198 0.513757 0.419346
O O10 0.000596 0.752327 0.110592
O O11 0.287271 0.426536 0.942072
O O12 0.239426 0.299632 0.103706
O O13 0.236858 0.157626 0.237259
O O14 0.891775 0.382907 0.130064
O O15 0.496664 0.466422 0.875863
O O16 0.466889 0.405992 0.251401
#
# Coordination Sequence:
#
# PCOD9051157 Si02
#       8
#     2   2   2   2   2   2   2   2
#     4  10  19  34  53  82 114 142 170 218 275 331
#     4  10  20  34  53  78 114 141 177 214 270 330
#     4  10  17  35  51  76 106 139 174 224 266 309
#     4  11  20  32  53  78 120 143 166 215 282 326
#     4  12  20  34  54  85 114 140 172 216 277 334
#     4  10  20  36  53  78 112 141 177 224 266 318
#     4  11  20  32  47  80 111 141 170 217 266 321
#     4  10  20  31  51  72 111 138 185 216 258 318
#
# _framework density 19.711819999999999
#
# number of rings (size 3 to 8) (size 9 to 14) (size 15 to 20)
#    0.000    1.500    6.250    1.500    0.000    0.000 
#    0.000    0.000    0.000    0.000    0.000    5.250 
#    0.000    0.000    0.000    0.000    0.000    0.000 
#
# Total GULP energy -89107.847440 kJ/mol
# GULP energy per Si atom -5569.240465 kJ/mol
# Density = 1.966695 g / cm^3
# Si number density = 19.711820 Si / 1000 Ang^3
#
#
#
# Elastic Constant Matrix: (Units=GPa)
#
#
# Indices 1 2 3 4 5 6 
#
# 1 65.7078 22.0808 8.3813 12.9729 16.7782 12.5613
# 2 22.0808 101.4831 17.0724 9.0938 4.8457 28.1345
# 3 8.3813 17.0724 48.8274 13.1494 13.4711 12.0216
# 4 12.9729 9.0938 13.1494 36.9009 15.9018 4.3572
# 5 16.7782 4.8457 13.4711 15.9018 27.0125 7.6748
# 6 12.5613 28.1345 12.0216 4.3572 7.6748 27.0711
#
#
#
# Elastic Compliance Matrix: (Units=1/GPa)
#
#
# Indices 1 2 3 4 5 6 
#
# 1 0.019726 -0.002922 0.001972 -0.001951 -0.010512 -0.003698
# 2 -0.002922 0.014760 -0.002015 -0.002718 0.005837 -0.014306
# 3 0.001972 -0.002015 0.026444 -0.004819 -0.009172 -0.007188
# 4 -0.001951 -0.002718 -0.004819 0.038091 -0.019846 0.005365
# 5 -0.010512 0.005837 -0.009172 -0.019846 0.062028 -0.011506
# 6 -0.003698 -0.014306 -0.007188 0.005365 -0.011506 0.059114
#
#
# Mechanical properties :
#
#
# Convention : Reuss Voigt Hill
#
# Bulk Modulus (GPa) = 18.18227 34.56526 26.37377
# Shear Modulus (GPa) = 20.45606 29.42914 24.94260
#
# Velocity S-wave (km/s) = 3.22492 3.86809 3.56105
# Velocity P-wave (km/s) = 4.80738 6.12559 5.50607
#
# Compressibility (1/GPa) = 0.05499862
#
# Stress axis : x y z
#
# Youngs Moduli (GPa) = 50.69579 67.75266 37.81531
#
# Poissons Ratio (x) = 0.19795 -0.07456
# Poissons Ratio (y) = 0.14812 0.07621
# Poissons Ratio (z) = -0.09995 0.13654
#
# Static dielectric constant tensor:
#      x y z
#    x 1.731450 0.004530 -0.020330 
#    y 0.004530 1.764210 0.044860 
#    z -0.020330 0.044860 1.770900 
# 
# From -- ./inp_files/221965.got.cif
#   From: 2010.05.17/outbox.cif.g08.bks.cpg/sg2_111_cif.got.tgz:221965.got - 2010.06.03 11:33:40.
