data_PCOD9051608
_publ_section_title
;
Structure prediction by ZEFSAII (Michael W. Deem and Ramdas Pophale) SiO2 
 PCOD9051608
Probable space group: P -1
;
_chemical_formula_sum "Si O2"
_cell_formula_units_Z 14
_cell_length_a 10.047680
_cell_length_b 12.058466
_cell_length_c 7.163604
_cell_angle_alpha 127.049310
_cell_angle_beta 58.120038
_cell_angle_gamma 101.726106
_cell_volume 579.699323
_symmetry_space_group_name_H-M "P -1"
_symmetry_group_IT_number 2
_symmetry_cell_setting 'triclinic'
loop_
_space_group_symop_operation_xyz
x,y,z
-x,-y,-z
loop_
_atom_site_type_symbol
_atom_site_label
_atom_site_fract_x
_atom_site_fract_y
_atom_site_fract_z
Si Si1 0.857830 0.913859 0.054747
Si Si2 0.314500 0.526194 0.115373
Si Si3 0.785987 0.495300 0.415759
Si Si4 0.163015 0.738568 0.143539
Si Si5 0.898654 0.661395 0.048306
Si Si6 0.344059 0.185078 0.217315
Si Si7 0.670632 0.025187 0.662673
O O1 0.914145 0.768522 0.977837
O O2 0.783577 0.875256 0.877495
O O3 0.722827 0.992624 0.377678
O O4 0.000000 0.000000 0.000000
O O5 0.233475 0.527417 0.376592
O O6 0.265551 0.395581 0.902516
O O7 0.500000 0.500000 0.000000
O O8 0.243143 0.666905 0.198362
O O9 0.748031 0.363487 0.189109
O O10 0.691959 0.646549 0.584432
O O11 0.973067 0.481073 0.220541
O O12 0.193787 0.896316 0.271363
O O13 0.978114 0.730046 0.233410
O O14 0.509046 0.132329 0.932324
O O15 0.348638 0.112983 0.344219
#
# Coordination Sequence:
#
# PCOD9051608 Si02
#       7
#     2   2   2   2   2   2   2
#     4  12  27  46  75 105 149 201 251 304 365 449
#     4  12  24  42  72 107 142 190 237 301 370 429
#     4  10  25  47  74 104 147 187 245 301 372 437
#     4  10  26  44  73 106 145 188 241 304 366 441
#     4  10  25  47  68 108 145 187 246 297 370 435
#     4  11  25  48  76 105 149 195 247 313 366 444
#     4  11  27  48  72 108 149 198 248 301 379 441
#
# _framework density 24.150449999999999
#
# number of rings (size 3 to 8) (size 9 to 14) (size 15 to 20)
#    0.857    0.286    1.429    3.000    4.000    4.571 
#    2.571    0.000    0.000    0.000    0.000    0.000 
#    0.000    0.000    0.000    0.000    0.000    0.000 
#
# Total GULP energy -78285.403020 kJ/mol
# GULP energy per Si atom -5591.814501 kJ/mol
# Density = 2.409548 g / cm^3
# Si number density = 24.150450 Si / 1000 Ang^3
#
#
#
# Elastic Constant Matrix: (Units=GPa)
#
#
# Indices 1 2 3 4 5 6 
#
# 1 90.7926 -0.6617 24.7326 -8.9835 -11.0081 -0.2753
# 2 -0.6617 85.2226 20.4791 -0.2510 0.8672 -6.2336
# 3 24.7326 20.4791 119.2164 3.1719 14.9017 -0.4084
# 4 -8.9835 -0.2510 3.1719 44.7643 -6.8766 2.6727
# 5 -11.0081 0.8672 14.9017 -6.8766 44.6778 -4.0964
# 6 -0.2753 -6.2336 -0.4084 2.6727 -4.0964 32.1715
#
#
#
# Elastic Compliance Matrix: (Units=1/GPa)
#
#
# Indices 1 2 3 4 5 6 
#
# 1 0.012951 0.000960 -0.003566 0.003585 0.004967 0.000586
# 2 0.000960 0.012514 -0.002493 0.000463 0.001126 0.002506
# 3 -0.003566 -0.002493 0.010188 -0.002115 -0.004627 -0.000798
# 4 0.003585 0.000463 -0.002115 0.024080 0.005172 -0.001248
# 5 0.004967 0.001126 -0.004627 0.005172 0.026209 0.003110
# 6 0.000586 0.002506 -0.000798 -0.001248 0.003110 0.032064
#
#
# Mechanical properties :
#
#
# Convention : Reuss Voigt Hill
#
# Bulk Modulus (GPa) = 39.28501 42.70351 40.99426
# Shear Modulus (GPa) = 36.57925 41.03481 38.80703
#
# Velocity S-wave (km/s) = 3.89606 4.12653 4.01295
# Velocity P-wave (km/s) = 6.04493 6.35806 6.20347
#
# Compressibility (1/GPa) = 0.02545500
#
# Stress axis : x y z
#
# Youngs Moduli (GPa) = 77.21185 79.91167 98.15307
#
# Poissons Ratio (x) = -0.07675 0.35003
# Poissons Ratio (y) = -0.07416 0.24474
# Poissons Ratio (z) = 0.27535 0.19925
#
# Static dielectric constant tensor:
#      x y z
#    x 1.950890 0.018410 -0.018970 
#    y 0.018410 1.911520 0.001190 
#    z -0.018970 0.001190 2.006020 
# 
# From -- ./inp_files/240123.got.cif
#   From: 2010.05.17/outbox.cif.g08.bks.cpg/sg2_121_cif.got.tgz:240123.got - 2010.06.03 11:33:40.
