data_PCOD9051481
_publ_section_title
;
Structure prediction by ZEFSAII (Michael W. Deem and Ramdas Pophale) SiO2 
 PCOD9051481
Probable space group: P -1
;
_chemical_formula_sum "Si O2"
_cell_formula_units_Z 14
_cell_length_a 5.475233
_cell_length_b 25.626988
_cell_length_c 12.292370
_cell_angle_alpha 22.814211
_cell_angle_beta 99.877238
_cell_angle_gamma 86.946831
_cell_volume 548.797000
_symmetry_space_group_name_H-M "P -1"
_symmetry_group_IT_number 2
_symmetry_cell_setting 'triclinic'
loop_
_space_group_symop_operation_xyz
x,y,z
-x,-y,-z
loop_
_atom_site_type_symbol
_atom_site_label
_atom_site_fract_x
_atom_site_fract_y
_atom_site_fract_z
Si Si1 0.085184 0.051204 0.592015
Si Si2 0.696481 0.832323 0.171289
Si Si3 0.767696 0.669116 0.710215
Si Si4 0.357101 0.539608 0.533283
Si Si5 0.851258 0.875402 0.766523
Si Si6 0.199069 0.891267 0.323249
Si Si7 0.025615 0.511642 0.246741
O O1 0.955042 0.974305 0.652506
O O2 0.089556 0.162710 0.284796
O O3 0.386935 0.898552 0.958701
O O4 0.916330 0.141665 0.513839
O O5 0.711936 0.802165 0.361015
O O6 0.926364 0.654901 0.480561
O O7 0.713992 0.986793 0.858463
O O8 0.433572 0.722616 0.607239
O O9 0.000000 0.500000 0.000000
O O10 0.881832 0.649364 0.879190
O O11 0.500000 0.500000 0.500000
O O12 0.634681 0.533711 0.624324
O O13 0.229248 0.441931 0.769161
O O14 0.037641 0.707593 0.165834
O O15 0.500000 0.000000 0.500000
O O16 0.000000 0.000000 0.000000
#
# Coordination Sequence:
#
# PCOD9051481 Si02
#       7
#     2   2   2   2   2   2   2
#     4  11  23  41  73 101 144 184 248 305 376 440
#     4  11  23  47  70 107 145 193 249 307 376 452
#     4  10  25  46  72 106 146 192 241 303 387 460
#     4  12  27  47  75 108 153 197 255 314 380 450
#     4  11  25  45  72 106 140 197 251 312 377 443
#     4  12  25  42  76 108 146 191 251 317 375 450
#     4  11  26  49  76 106 153 205 250 311 381 458
#
# _framework density 25.510344
#
# number of rings (size 3 to 8) (size 9 to 14) (size 15 to 20)
#    0.000    0.857    2.857    3.429    4.000    3.429 
#    0.000    3.571    0.000    0.000    0.000    0.000 
#    0.000    0.000    0.000    0.000    0.000    0.000 
#
# Total GULP energy -77953.210668 kJ/mol
# GULP energy per Si atom -5568.086476 kJ/mol
# Density = 2.545228 g / cm^3
# Si number density = 25.510344 Si / 1000 Ang^3
#
#
#
# Elastic Constant Matrix: (Units=GPa)
#
#
# Indices 1 2 3 4 5 6 
#
# 1 119.5802 66.1839 53.3241 27.4231 -9.3678 -13.3670
# 2 66.1839 114.7998 39.0936 37.7443 -3.9190 -28.4930
# 3 53.3241 39.0936 123.2287 41.8264 10.7671 -4.7072
# 4 27.4231 37.7443 41.8264 53.6326 -3.9377 -5.9666
# 5 -9.3678 -3.9190 10.7671 -3.9377 38.8276 14.4097
# 6 -13.3670 -28.4930 -4.7072 -5.9666 14.4097 47.9339
#
#
#
# Elastic Compliance Matrix: (Units=1/GPa)
#
#
# Indices 1 2 3 4 5 6 
#
# 1 0.014620 -0.007793 -0.005127 0.002129 0.005260 -0.002375
# 2 -0.007793 0.017652 0.001590 -0.009049 -0.004710 0.008765
# 3 -0.005127 0.001590 0.013655 -0.009439 -0.006418 0.001611
# 4 0.002129 -0.009049 -0.009439 0.031357 0.006831 -0.003862
# 5 0.005260 -0.004710 -0.006418 0.006831 0.033130 -0.011072
# 6 -0.002375 0.008765 0.001611 -0.003862 -0.011072 0.028416
#
#
# Mechanical properties :
#
#
# Convention : Reuss Voigt Hill
#
# Bulk Modulus (GPa) = 42.97971 74.97910 58.97940
# Shear Modulus (GPa) = 29.54251 41.34596 35.44424
#
# Velocity S-wave (km/s) = 3.40672 4.03023 3.73152
# Velocity P-wave (km/s) = 5.68848 7.14929 6.46031
#
# Compressibility (1/GPa) = 0.02326679
#
# Stress axis : x y z
#
# Youngs Moduli (GPa) = 68.39766 56.65149 73.23123
#
# Poissons Ratio (x) = 0.44147 0.37549
# Poissons Ratio (y) = 0.53300 -0.11642
# Poissons Ratio (z) = 0.35071 -0.09006
#
# Static dielectric constant tensor:
#      x y z
#    x 2.286480 0.009940 0.009570 
#    y 0.009940 2.084200 -0.100640 
#    z 0.009570 -0.100640 2.123400 
# 
# From -- ./inp_files/370999.got.cif
#   From: 2010.05.17/outbox.cif.g08.bks.cpg/sg2_186_cif.got.tgz:370999.got - 2010.06.03 11:33:40.
