data_PCOD9051528
_publ_section_title
;
Structure prediction by ZEFSAII (Michael W. Deem and Ramdas Pophale) SiO2 
 PCOD9051528
Probable space group: P -1
;
_chemical_formula_sum "Si O2"
_cell_formula_units_Z 16
_cell_length_a 16.845102
_cell_length_b 12.531926
_cell_length_c 9.408372
_cell_angle_alpha 67.497346
_cell_angle_beta 138.616109
_cell_angle_gamma 143.380548
_cell_volume 650.707095
_symmetry_space_group_name_H-M "P -1"
_symmetry_group_IT_number 2
_symmetry_cell_setting 'triclinic'
loop_
_space_group_symop_operation_xyz
x,y,z
-x,-y,-z
loop_
_atom_site_type_symbol
_atom_site_label
_atom_site_fract_x
_atom_site_fract_y
_atom_site_fract_z
Si Si1 0.221764 0.122669 0.400812
Si Si2 0.409810 0.616091 0.026370
Si Si3 0.332025 0.937904 0.900868
Si Si4 0.112495 0.796467 0.965352
Si Si5 0.305319 0.515679 0.620008
Si Si6 0.759014 0.858453 0.911113
Si Si7 0.716559 0.225931 0.590879
Si Si8 0.921373 0.258662 0.597596
O O1 0.426638 0.317688 0.680398
O O2 0.984414 0.980027 0.205013
O O3 0.183799 0.954024 0.424435
O O4 0.262315 0.191656 0.257517
O O5 0.564334 0.850148 0.072052
O O6 0.321464 0.496775 0.817787
O O7 0.183243 0.469716 0.877746
O O8 0.269317 0.871218 0.013421
O O9 0.106405 0.734885 0.609734
O O10 0.500000 0.000000 0.000000
O O11 0.204793 0.975790 0.094589
O O12 0.911680 0.691142 0.658909
O O13 0.080148 0.665418 0.098599
O O14 0.304589 0.654518 0.519111
O O15 0.530167 0.645616 0.790504
O O16 0.772207 0.219871 0.514057
O O17 0.500000 0.000000 0.500000
#
# Coordination Sequence:
#
# PCOD9051528 Si02
#       8
#     2   2   2   2   2   2   2   2
#     4  10  25  46  73  95 127 176 226 284 328 386
#     4  11  24  43  67  98 135 175 221 269 332 393
#     4  11  23  40  65  93 139 182 216 265 327 394
#     4  12  24  43  66 100 136 174 221 274 328 394
#     4  12  25  42  66 102 135 178 216 268 334 401
#     4  11  24  48  70  97 131 172 227 278 336 385
#     4  12  23  43  68  98 139 176 220 269 328 395
#     4  11  23  42  65 100 133 172 226 267 328 395
#
# _framework density 24.588636999999999
#
# number of rings (size 3 to 8) (size 9 to 14) (size 15 to 20)
#    0.000    0.750    5.000    1.875    3.500    3.500 
#    0.000    3.750    0.000    0.000    0.000    0.000 
#    0.000    0.000    0.000    0.000    0.000    0.000 
#
# Total GULP energy -89395.020226 kJ/mol
# GULP energy per Si atom -5587.188764 kJ/mol
# Density = 2.453267 g / cm^3
# Si number density = 24.588637 Si / 1000 Ang^3
#
#
#
# Elastic Constant Matrix: (Units=GPa)
#
#
# Indices 1 2 3 4 5 6 
#
# 1 108.5751 26.7502 49.9562 1.8302 2.3975 15.7918
# 2 26.7502 45.4437 7.8094 3.8619 -7.1908 5.4351
# 3 49.9562 7.8094 185.3644 6.9641 -11.1337 28.3629
# 4 1.8302 3.8619 6.9641 24.0171 11.7824 9.7660
# 5 2.3975 -7.1908 -11.1337 11.7824 43.5397 2.2924
# 6 15.7918 5.4351 28.3629 9.7660 2.2924 41.3973
#
#
#
# Elastic Compliance Matrix: (Units=1/GPa)
#
#
# Indices 1 2 3 4 5 6 
#
# 1 0.012942 -0.007712 -0.003156 0.004028 -0.003752 -0.002504
# 2 -0.007712 0.028212 0.001729 -0.008048 0.007729 -0.000476
# 3 -0.003156 0.001729 0.006961 -0.002119 0.002995 -0.003458
# 4 0.004028 -0.008048 -0.002119 0.056012 -0.016655 -0.011319
# 5 -0.003752 0.007729 0.002995 -0.016655 0.029689 0.000649
# 6 -0.002504 -0.000476 -0.003458 -0.011319 0.000649 0.030178
#
#
# Mechanical properties :
#
#
# Convention : Reuss Voigt Hill
#
# Bulk Modulus (GPa) = 33.51609 56.49051 45.00330
# Shear Modulus (GPa) = 26.01220 38.78198 32.39709
#
# Velocity S-wave (km/s) = 3.25606 3.97575 3.63376
# Velocity P-wave (km/s) = 5.27221 6.64075 5.99565
#
# Compressibility (1/GPa) = 0.02983642
#
# Stress axis : x y z
#
# Youngs Moduli (GPa) = 77.26933 35.44631 143.65214
#
# Poissons Ratio (x) = 0.27337 0.45343
# Poissons Ratio (y) = 0.59591 -0.24843
# Poissons Ratio (z) = 0.24389 -0.06130
#
# Static dielectric constant tensor:
#      x y z
#    x 1.929220 -0.006660 -0.011490 
#    y -0.006660 1.943640 0.009040 
#    z -0.011490 0.009040 2.107820 
# 
# From -- ./inp_files/258708.got.cif
#   From: 2010.05.17/outbox.cif.g08.bks.cpg/sg2_130_cif.got.tgz:258708.got - 2010.06.03 11:33:40.
