data_PCOD9051016
_publ_section_title
;
Structure prediction by ZEFSAII (Michael W. Deem and Ramdas Pophale) SiO2 
 PCOD9051016
Probable space group: P -1
;
_chemical_formula_sum "Si O2"
_cell_formula_units_Z 12
_cell_length_a 9.266670
_cell_length_b 9.438005
_cell_length_c 17.539555
_cell_angle_alpha 33.024395
_cell_angle_beta 135.771624
_cell_angle_gamma 133.716711
_cell_volume 566.449804
_symmetry_space_group_name_H-M "P -1"
_symmetry_group_IT_number 2
_symmetry_cell_setting 'triclinic'
loop_
_space_group_symop_operation_xyz
x,y,z
-x,-y,-z
loop_
_atom_site_type_symbol
_atom_site_label
_atom_site_fract_x
_atom_site_fract_y
_atom_site_fract_z
Si Si1 0.774280 0.040051 0.927207
Si Si2 0.855765 0.994815 0.523459
Si Si3 0.852245 0.537500 0.852876
Si Si4 0.572266 0.237461 0.618222
Si Si5 0.570587 0.739096 0.116254
Si Si6 0.977212 0.578693 0.371394
O O1 0.832206 0.291039 0.895691
O O2 0.622101 0.097803 0.777107
O O3 0.630162 0.779993 0.031878
O O4 0.000000 0.000000 0.000000
O O5 0.095422 0.195724 0.302337
O O6 0.890040 0.302075 0.419965
O O7 0.613500 0.897771 0.448073
O O8 0.000000 0.000000 0.500000
O O9 0.616518 0.503397 0.816375
O O10 0.000000 0.500000 0.000000
O O11 0.500000 0.500000 0.500000
O O12 0.796750 0.288252 0.637885
O O13 0.802381 0.748955 0.231514
O O14 0.500000 0.000000 0.000000
O O15 0.000000 0.500000 0.500000
#
# Coordination Sequence:
#
# PCOD9051016 Si02
#       6
#     2   2   2   2   2   2
#     4  11  23  45  74 102 140 191 241 293 366 427
#     4  12  27  46  76 110 145 193 245 296 365 435
#     4  11  26  44  71 106 147 186 240 302 363 427
#     4  12  24  47  74 105 148 189 241 300 359 434
#     4  10  25  45  67 103 143 186 235 293 364 422
#     4  12  27  45  76 107 143 190 243 299 365 429
#
# _framework density 21.184577000000001
#
# number of rings (size 3 to 8) (size 9 to 14) (size 15 to 20)
#    0.000    0.667    5.000    1.000    9.333    4.000 
#    0.000    1.667    0.000    0.000    0.000    0.000 
#    0.000    0.000    0.000    0.000    0.000    0.000 
#
# Total GULP energy -66937.658725 kJ/mol
# GULP energy per Si atom -5578.138227 kJ/mol
# Density = 2.113636 g / cm^3
# Si number density = 21.184577 Si / 1000 Ang^3
#
#
#
# Elastic Constant Matrix: (Units=GPa)
#
#
# Indices 1 2 3 4 5 6 
#
# 1 148.7967 12.2341 61.6040 9.1761 3.0394 23.9917
# 2 12.2341 76.9239 10.2316 21.1588 10.7381 1.6405
# 3 61.6040 10.2316 157.1553 29.9951 -5.1540 9.1796
# 4 9.1761 21.1588 29.9951 34.6300 -3.9004 -0.4847
# 5 3.0394 10.7381 -5.1540 -3.9004 54.5113 1.4286
# 6 23.9917 1.6405 9.1796 -0.4847 1.4286 36.4034
#
#
#
# Elastic Compliance Matrix: (Units=1/GPa)
#
#
# Indices 1 2 3 4 5 6 
#
# 1 0.008948 -0.001124 -0.003371 0.001123 -0.000386 -0.004966
# 2 -0.001124 0.016744 0.001468 -0.011651 -0.003920 -0.000385
# 3 -0.003371 0.001468 0.009114 -0.007879 0.000203 -0.000256
# 4 0.001123 -0.011651 -0.007879 0.043061 0.004512 0.002168
# 5 -0.000386 -0.003920 0.000203 0.004512 0.019489 -0.000325
# 6 -0.004966 -0.000385 -0.000256 0.002168 -0.000325 0.030867
#
#
# Mechanical properties :
#
#
# Convention : Reuss Voigt Hill
#
# Bulk Modulus (GPa) = 34.77980 61.22393 48.00187
# Shear Modulus (GPa) = 34.75580 45.02934 39.89257
#
# Velocity S-wave (km/s) = 4.05485 4.61539 4.34417
# Velocity P-wave (km/s) = 6.19480 7.57400 6.91885
#
# Compressibility (1/GPa) = 0.02875232
#
# Stress axis : x y z
#
# Youngs Moduli (GPa) = 111.75471 59.72443 109.71552
#
# Poissons Ratio (x) = 0.06712 0.36988
# Poissons Ratio (y) = 0.12558 -0.16107
# Poissons Ratio (z) = 0.37676 -0.08768
#
# Static dielectric constant tensor:
#      x y z
#    x 1.795550 -0.012470 -0.064600 
#    y -0.012470 1.773410 -0.009710 
#    z -0.064600 -0.009710 1.733280 
# 
# From -- ./inp_files/555853.got.cif
#   From: 2010.05.17/outbox.cif.g08.bks.cpg/sg2_278_cif.got.tgz:555853.got - 2010.06.03 11:33:40.
