data_PCOD9051418
_publ_section_title
;
Structure prediction by ZEFSAII (Michael W. Deem and Ramdas Pophale) SiO2 
 PCOD9051418
Probable space group: P -1
;
_chemical_formula_sum "Si O2"
_cell_formula_units_Z 12
_cell_length_a 18.778034
_cell_length_b 15.203133
_cell_length_c 5.532110
_cell_angle_alpha 115.386280
_cell_angle_beta 116.607301
_cell_angle_gamma 20.332533
_cell_volume 490.457443
_symmetry_space_group_name_H-M "P -1"
_symmetry_group_IT_number 2
_symmetry_cell_setting 'triclinic'
loop_
_space_group_symop_operation_xyz
x,y,z
-x,-y,-z
loop_
_atom_site_type_symbol
_atom_site_label
_atom_site_fract_x
_atom_site_fract_y
_atom_site_fract_z
Si Si1 0.843217 0.591953 0.450808
Si Si2 0.547031 0.046295 0.867596
Si Si3 0.786432 0.942756 0.411257
Si Si4 0.618296 0.294168 0.260544
Si Si5 0.879004 0.150789 0.244708
Si Si6 0.433807 0.350118 0.736595
O O1 0.673817 0.756116 0.176800
O O2 0.000000 0.500000 0.500000
O O3 0.994854 0.335983 0.473631
O O4 0.707326 0.789993 0.694912
O O5 0.462683 0.210154 0.713678
O O6 0.671645 0.978843 0.152482
O O7 0.786971 0.034071 0.339954
O O8 0.629451 0.148390 0.627010
O O9 0.500000 0.500000 0.500000
O O10 0.711675 0.252846 0.138667
O O11 0.452899 0.401399 0.051038
O O12 0.772498 0.376829 0.372244
O O13 0.000000 0.000000 0.500000
O O14 0.000000 0.000000 0.000000
#
# Coordination Sequence:
#
# PCOD9051418 Si02
#       6
#     2   2   2   2   2   2
#     4  11  23  47  74 105 144 192 245 309 387 459
#     4  10  25  46  70 107 147 185 250 314 372 468
#     4  11  24  45  74 105 146 197 249 312 382 446
#     4  11  24  46  72 101 144 204 250 308 377 453
#     4  12  28  44  70 109 150 198 255 316 382 454
#     4  11  24  46  70 101 147 193 254 307 375 455
#
# _framework density 24.466954000000001
#
# number of rings (size 3 to 8) (size 9 to 14) (size 15 to 20)
#    0.000    1.000    3.333    2.000    7.000    0.667 
#    3.000    0.000    0.000    0.000    0.000    0.000 
#    0.000    0.000    0.000    0.000    0.000    0.000 
#
# Total GULP energy -67091.585039 kJ/mol
# GULP energy per Si atom -5590.965420 kJ/mol
# Density = 2.441127 g / cm^3
# Si number density = 24.466954 Si / 1000 Ang^3
#
#
#
# Elastic Constant Matrix: (Units=GPa)
#
#
# Indices 1 2 3 4 5 6 
#
# 1 99.5968 26.8912 7.5449 20.1949 -7.1294 -6.0697
# 2 26.8912 182.3880 48.9720 -0.2405 -4.6709 8.5408
# 3 7.5449 48.9720 97.5808 12.5399 12.7451 -3.9214
# 4 20.1949 -0.2405 12.5399 37.6567 -2.6833 9.3286
# 5 -7.1294 -4.6709 12.7451 -2.6833 41.2328 -3.2501
# 6 -6.0697 8.5408 -3.9214 9.3286 -3.2501 47.2057
#
#
#
# Elastic Compliance Matrix: (Units=1/GPa)
#
#
# Indices 1 2 3 4 5 6 
#
# 1 0.012519 -0.002324 0.001205 -0.007978 0.001309 0.003797
# 2 -0.002324 0.007104 -0.004147 0.003410 0.001711 -0.002485
# 3 0.001205 -0.004147 0.013784 -0.006336 -0.004699 0.002979
# 4 -0.007978 0.003410 -0.006336 0.035373 0.002559 -0.008983
# 5 0.001309 0.001711 -0.004699 0.002559 0.026353 0.000777
# 6 0.003797 -0.002485 0.002979 -0.008983 0.000777 0.024198
#
#
# Mechanical properties :
#
#
# Convention : Reuss Voigt Hill
#
# Bulk Modulus (GPa) = 43.71609 60.70911 52.21260
# Shear Modulus (GPa) = 36.36696 44.96286 40.66491
#
# Velocity S-wave (km/s) = 3.85953 4.29149 4.08123
# Velocity P-wave (km/s) = 6.14553 7.03011 6.60265
#
# Compressibility (1/GPa) = 0.02287487
#
# Stress axis : x y z
#
# Youngs Moduli (GPa) = 79.87591 140.77345 72.55031
#
# Poissons Ratio (x) = 0.32720 -0.08744
# Poissons Ratio (y) = 0.18565 0.30085
# Poissons Ratio (z) = -0.09627 0.58376
#
# Static dielectric constant tensor:
#      x y z
#    x 2.051650 -0.028370 0.024590 
#    y -0.028370 2.045180 -0.154130 
#    z 0.024590 -0.154130 1.969730 
# 
# From -- ./inp_files/97696.got.cif
#   From: 2010.05.17/outbox.cif.g08.bks.cpg/sg2_49_cif.got.tgz:97696.got - 2010.06.03 11:33:40.
