data_PCOD9051026
_publ_section_title
;
Structure prediction by ZEFSAII (Michael W. Deem and Ramdas Pophale) SiO2 
 PCOD9051026
Probable space group: P -1
;
_chemical_formula_sum "Si O2"
_cell_formula_units_Z 16
_cell_length_a 15.381722
_cell_length_b 9.015332
_cell_length_c 11.732807
_cell_angle_alpha 62.143256
_cell_angle_beta 118.998167
_cell_angle_gamma 67.173594
_cell_volume 763.829503
_symmetry_space_group_name_H-M "P -1"
_symmetry_group_IT_number 2
_symmetry_cell_setting 'triclinic'
loop_
_space_group_symop_operation_xyz
x,y,z
-x,-y,-z
loop_
_atom_site_type_symbol
_atom_site_label
_atom_site_fract_x
_atom_site_fract_y
_atom_site_fract_z
Si Si1 0.615321 0.974761 0.516639
Si Si2 0.082364 0.387255 0.715405
Si Si3 0.116938 0.589210 0.257354
Si Si4 0.773029 0.317526 0.511738
Si Si5 0.869465 0.311050 0.340519
Si Si6 0.508657 0.681511 0.905710
Si Si7 0.885771 0.819757 0.832388
Si Si8 0.431089 0.904133 0.005183
O O1 0.738973 0.699837 0.615012
O O2 0.711601 0.958730 0.676352
O O3 0.500000 0.000000 0.500000
O O4 0.533196 0.208941 0.287952
O O5 0.076720 0.577163 0.701436
O O6 0.000000 0.500000 0.500000
O O7 0.980658 0.396780 0.722307
O O8 0.274451 0.097250 0.916722
O O9 0.188797 0.647027 0.355321
O O10 0.976440 0.799325 0.997349
O O11 0.854686 0.321658 0.464038
O O12 0.579734 0.591735 0.260722
O O13 0.843755 0.033656 0.645573
O O14 0.690863 0.505407 0.109668
O O15 0.000000 0.000000 0.500000
O O16 0.500000 0.500000 0.000000
O O17 0.390139 0.917076 0.842982
O O18 0.000000 0.500000 0.000000
O O19 0.500000 0.000000 0.000000
#
# Coordination Sequence:
#
# PCOD9051026 Si02
#       8
#     2   2   2   2   2   2   2   2
#     4  11  25  45  69  98 135 186 236 284 346 413
#     4  12  23  42  68 106 140 180 224 283 355 410
#     4  11  25  42  72  96 138 181 232 285 345 412
#     4  11  22  46  67 104 137 179 231 283 341 414
#     4  11  26  38  66 105 142 175 224 283 345 415
#     4  11  24  41  67  99 139 182 225 282 347 409
#     4  10  25  45  67  95 135 185 232 285 335 403
#     4  11  21  41  68 102 139 176 226 286 343 417
#
# _framework density 20.947081000000001
#
# number of rings (size 3 to 8) (size 9 to 14) (size 15 to 20)
#    0.000    1.000    3.750    3.375    8.750    1.000 
#    0.000    6.250    0.000    0.000    0.000    0.000 
#    0.000    0.000    0.000    0.000    0.000    0.000 
#
# Total GULP energy -89192.047840 kJ/mol
# GULP energy per Si atom -5574.502990 kJ/mol
# Density = 2.089940 g / cm^3
# Si number density = 20.947081 Si / 1000 Ang^3
#
#
#
# Elastic Constant Matrix: (Units=GPa)
#
#
# Indices 1 2 3 4 5 6 
#
# 1 100.3796 3.1768 41.1596 -16.5271 1.4815 -0.3672
# 2 3.1768 54.0843 30.3238 -10.9942 9.3026 -5.3777
# 3 41.1596 30.3238 120.3440 2.1374 -7.7308 0.1006
# 4 -16.5271 -10.9942 2.1374 36.9447 4.6101 4.4140
# 5 1.4815 9.3026 -7.7308 4.6101 30.1536 -2.4914
# 6 -0.3672 -5.3777 0.1006 4.4140 -2.4914 37.2519
#
#
#
# Elastic Compliance Matrix: (Units=1/GPa)
#
#
# Indices 1 2 3 4 5 6 
#
# 1 0.014191 0.005820 -0.006850 0.009245 -0.005702 -0.000478
# 2 0.005820 0.029371 -0.010529 0.013480 -0.013959 0.001795
# 3 -0.006850 -0.010529 0.013987 -0.008041 0.008391 -0.000111
# 4 0.009245 0.013480 -0.008041 0.037653 -0.012700 -0.003252
# 5 -0.005702 -0.013959 0.008391 -0.012700 0.042027 0.002222
# 6 -0.000478 0.001795 -0.000111 -0.003252 0.002222 0.027633
#
#
# Mechanical properties :
#
#
# Convention : Reuss Voigt Hill
#
# Bulk Modulus (GPa) = 29.04362 47.12538 38.08450
# Shear Modulus (GPa) = 25.06794 34.21323 29.64058
#
# Velocity S-wave (km/s) = 3.46313 4.04582 3.76576
# Velocity P-wave (km/s) = 5.46684 6.66116 6.09333
#
# Compressibility (1/GPa) = 0.03443097
#
# Stress axis : x y z
#
# Youngs Moduli (GPa) = 70.46477 34.04747 71.49318
#
# Poissons Ratio (x) = -0.19815 0.48975
# Poissons Ratio (y) = -0.41009 0.75274
# Poissons Ratio (z) = 0.48270 0.35848
#
# Static dielectric constant tensor:
#      x y z
#    x 1.738640 0.034950 -0.020530 
#    y 0.034950 1.827060 0.001090 
#    z -0.020530 0.001090 1.789340 
# 
# From -- ./inp_files/244573.got.cif
#   From: 2010.05.17/outbox.cif.g08.bks.cpg/sg2_123_cif.got.tgz:244573.got - 2010.06.03 11:33:40.
