data_PCOD9051061
_publ_section_title
;
Structure prediction by ZEFSAII (Michael W. Deem and Ramdas Pophale) SiO2 
 PCOD9051061
Probable space group: P -1
;
_chemical_formula_sum "Si O2"
_cell_formula_units_Z 12
_cell_length_a 5.576031
_cell_length_b 9.989984
_cell_length_c 8.854167
_cell_angle_alpha 79.602029
_cell_angle_beta 81.301331
_cell_angle_gamma 61.696431
_cell_volume 425.890563
_symmetry_space_group_name_H-M "P -1"
_symmetry_group_IT_number 2
_symmetry_cell_setting 'triclinic'
loop_
_space_group_symop_operation_xyz
x,y,z
-x,-y,-z
loop_
_atom_site_type_symbol
_atom_site_label
_atom_site_fract_x
_atom_site_fract_y
_atom_site_fract_z
Si Si1 0.674927 0.616979 0.011582
Si Si2 0.986905 0.862032 0.725452
Si Si3 0.394259 0.841583 0.448556
Si Si4 0.784238 0.871699 0.059936
Si Si5 0.214739 0.667453 0.266681
Si Si6 0.190301 0.358473 0.328043
O O1 0.700239 0.736484 0.097310
O O2 0.431356 0.597665 0.119130
O O3 0.617048 0.682472 0.833073
O O4 0.000000 0.500000 0.000000
O O5 0.028022 0.694548 0.701672
O O6 0.201573 0.891549 0.604527
O O7 0.695386 0.003465 0.670417
O O8 0.986457 0.859812 0.905658
O O9 0.340484 0.718374 0.382708
O O10 0.685060 0.749528 0.517435
O O11 0.970396 0.829111 0.198600
O O12 0.500000 0.000000 0.000000
O O13 0.138320 0.529951 0.334590
#
# Coordination Sequence:
#
# PCOD9051061 Si02
#       6
#     2   2   2   2   2   2
#     4  11  24  44  73 104 142 184 239 294 356 420
#     4  10  25  45  68  96 143 191 239 275 358 421
#     4  11  25  44  68 102 146 188 230 288 356 432
#     4  11  25  45  73 104 142 187 240 298 352 418
#     4  12  26  43  73 109 142 180 242 297 358 416
#     4  11  24  43  71  98 142 184 231 290 352 422
#
# _framework density 28.176251000000001
#
# number of rings (size 3 to 8) (size 9 to 14) (size 15 to 20)
#    0.000    1.000    1.667    3.500    4.667   11.333 
#    0.000    0.000    0.000    0.000    0.000    0.000 
#    0.000    0.000    0.000    0.000    0.000    0.000 
#
# Total GULP energy -67045.749892 kJ/mol
# GULP energy per Si atom -5587.145824 kJ/mol
# Density = 2.811212 g / cm^3
# Si number density = 28.176251 Si / 1000 Ang^3
#
#
#
# Elastic Constant Matrix: (Units=GPa)
#
#
# Indices 1 2 3 4 5 6 
#
# 1 27.6189 25.4234 23.2398 -7.8370 -5.8000 -13.3366
# 2 25.4234 99.4561 4.6536 -7.4689 0.0406 -1.5821
# 3 23.2398 4.6536 161.0289 -10.5189 -6.5722 -10.5795
# 4 -7.8370 -7.4689 -10.5189 48.7279 0.4783 -0.9522
# 5 -5.8000 0.0406 -6.5722 0.4783 64.4881 0.9452
# 6 -13.3366 -1.5821 -10.5795 -0.9522 0.9452 56.5580
#
#
#
# Elastic Compliance Matrix: (Units=1/GPa)
#
#
# Indices 1 2 3 4 5 6 
#
# 1 0.067249 -0.016092 -0.007663 0.006919 0.005021 0.014007
# 2 -0.016092 0.014033 0.001656 -0.000128 -0.001241 -0.003074
# 3 -0.007663 0.001656 0.007283 0.000585 0.000053 -0.000389
# 4 0.006919 -0.000128 0.000585 0.021778 0.000490 0.002096
# 5 0.005021 -0.001241 0.000053 0.000490 0.015948 0.000901
# 6 0.014007 -0.003074 -0.000389 0.002096 0.000901 0.020845
#
#
# Mechanical properties :
#
#
# Convention : Reuss Voigt Hill
#
# Bulk Modulus (GPa) = 22.53936 43.85972 33.19954
# Shear Modulus (GPa) = 24.25744 49.60727 36.93236
#
# Velocity S-wave (km/s) = 2.93732 4.20051 3.62437
# Velocity P-wave (km/s) = 4.41821 6.25505 5.41509
#
# Compressibility (1/GPa) = 0.04436683
#
# Stress axis : x y z
#
# Youngs Moduli (GPa) = 14.87010 71.26239 137.30587
#
# Poissons Ratio (x) = 1.14672 1.05221
# Poissons Ratio (y) = 0.23928 -0.22736
# Poissons Ratio (z) = 0.11395 -0.11800
#
# Static dielectric constant tensor:
#      x y z
#    x 2.219900 -0.048270 0.014180 
#    y -0.048270 2.308730 0.022220 
#    z 0.014180 0.022220 2.141510 
# 
# From -- ./inp_files/131365.got.cif
#   From: 2010.05.17/outbox.cif.g08.bks.cpg/sg2_66_cif.got.tgz:131365.got - 2010.06.03 11:33:40.
