data_PCOD9051050
_publ_section_title
;
Structure prediction by ZEFSAII (Michael W. Deem and Ramdas Pophale) SiO2 
 PCOD9051050
Probable space group: P -1
;
_chemical_formula_sum "Si O2"
_cell_formula_units_Z 12
_cell_length_a 14.788151
_cell_length_b 14.478051
_cell_length_c 6.357391
_cell_angle_alpha 134.709807
_cell_angle_beta 60.681454
_cell_angle_gamma 149.915867
_cell_volume 457.004121
_symmetry_space_group_name_H-M "P -1"
_symmetry_group_IT_number 2
_symmetry_cell_setting 'triclinic'
loop_
_space_group_symop_operation_xyz
x,y,z
-x,-y,-z
loop_
_atom_site_type_symbol
_atom_site_label
_atom_site_fract_x
_atom_site_fract_y
_atom_site_fract_z
Si Si1 0.554701 0.314476 0.359990
Si Si2 0.129857 0.690098 0.349284
Si Si3 0.694890 0.788246 0.756287
Si Si4 0.723727 0.911159 0.367014
Si Si5 0.208824 0.558652 0.381547
Si Si6 0.875996 0.733754 0.329302
O O1 0.370171 0.136976 0.131698
O O2 0.463628 0.313237 0.641795
O O3 0.629382 0.275520 0.356768
O O4 0.734321 0.535888 0.362944
O O5 0.223375 0.677450 0.366751
O O6 0.986194 0.616504 0.550490
O O7 0.280520 0.946002 0.483764
O O8 0.000000 0.500000 0.000000
O O9 0.500000 0.500000 0.500000
O O10 0.848183 0.859840 0.579580
O O11 0.747463 0.850056 0.037426
O O12 0.918401 0.104585 0.584247
O O13 0.192837 0.404225 0.030234
#
# Coordination Sequence:
#
# PCOD9051050 Si02
#       6
#     2   2   2   2   2   2
#     4  11  24  43  69 102 143 177 230 280 342 407
#     4  11  24  46  73 103 136 181 236 286 344 409
#     4  10  25  45  68 105 145 179 231 283 340 416
#     4  12  25  43  74 102 138 186 234 276 351 408
#     4  11  23  45  75  97 145 182 222 299 341 401
#     4  11  24  46  69 104 142 182 231 284 343 407
#
# _framework density 26.257968000000002
#
# number of rings (size 3 to 8) (size 9 to 14) (size 15 to 20)
#    0.000    1.000    3.333    2.500    2.333    7.333 
#    0.000    4.167    0.000    0.000    0.000    0.000 
#    0.000    0.000    0.000    0.000    0.000    0.000 
#
# Total GULP energy -67050.305305 kJ/mol
# GULP energy per Si atom -5587.525442 kJ/mol
# Density = 2.619820 g / cm^3
# Si number density = 26.257968 Si / 1000 Ang^3
#
#
#
# Elastic Constant Matrix: (Units=GPa)
#
#
# Indices 1 2 3 4 5 6 
#
# 1 152.5402 45.1649 6.6299 -6.4287 30.4389 -2.4881
# 2 45.1649 114.0356 30.0611 -24.5187 1.1123 -0.0327
# 3 6.6299 30.0611 106.0089 -15.7494 6.2399 -15.3210
# 4 -6.4287 -24.5187 -15.7494 30.7979 1.0290 -0.2486
# 5 30.4389 1.1123 6.2399 1.0290 35.6556 -3.9975
# 6 -2.4881 -0.0327 -15.3210 -0.2486 -3.9975 46.8175
#
#
#
# Elastic Compliance Matrix: (Units=1/GPa)
#
#
# Indices 1 2 3 4 5 6 
#
# 1 0.009238 -0.003929 0.000953 -0.000447 -0.007904 0.000123
# 2 -0.003929 0.012634 -0.002449 0.007877 0.003083 -0.000696
# 3 0.000953 -0.002449 0.011347 0.004162 -0.002442 0.003576
# 4 -0.000447 0.007877 0.004162 0.040842 -0.001611 0.001423
# 5 -0.007904 0.003083 -0.002442 -0.001611 0.035372 0.001795
# 6 0.000123 -0.000696 0.003576 0.001423 0.001795 0.022697
#
#
# Mechanical properties :
#
#
# Convention : Reuss Voigt Hill
#
# Bulk Modulus (GPa) = 44.70397 59.58852 52.14625
# Shear Modulus (GPa) = 33.23679 42.03613 37.63646
#
# Velocity S-wave (km/s) = 3.56164 4.00545 3.79005
# Velocity P-wave (km/s) = 5.82886 6.64337 6.24940
#
# Compressibility (1/GPa) = 0.02236938
#
# Stress axis : x y z
#
# Youngs Moduli (GPa) = 108.24992 79.14995 88.12959
#
# Poissons Ratio (x) = 0.31098 -0.08398
# Poissons Ratio (y) = 0.42531 0.21581
# Poissons Ratio (z) = -0.10316 0.19382
#
# Static dielectric constant tensor:
#      x y z
#    x 2.166700 -0.094890 -0.033720 
#    y -0.094890 2.084450 -0.003590 
#    z -0.033720 -0.003590 2.045720 
# 
# From -- ./inp_files/34255.got.cif
#   From: 2010.05.17/outbox.cif.g08.bks.cpg/sg2_18_cif.got.tgz:34255.got - 2010.06.03 11:33:40.
