data_PCOD9051864
_publ_section_title
;
Structure prediction by ZEFSAII (Michael W. Deem and Ramdas Pophale) SiO2 
 PCOD9051864
Probable space group: P -1
;
_chemical_formula_sum "Si O2"
_cell_formula_units_Z 14
_cell_length_a 9.906680
_cell_length_b 4.910089
_cell_length_c 16.595307
_cell_angle_alpha 76.253632
_cell_angle_beta 131.369475
_cell_angle_gamma 118.088827
_cell_volume 531.142791
_symmetry_space_group_name_H-M "P -1"
_symmetry_group_IT_number 2
_symmetry_cell_setting 'triclinic'
loop_
_space_group_symop_operation_xyz
x,y,z
-x,-y,-z
loop_
_atom_site_type_symbol
_atom_site_label
_atom_site_fract_x
_atom_site_fract_y
_atom_site_fract_z
Si Si1 0.132713 0.633006 0.217908
Si Si2 0.496642 0.742407 0.914726
Si Si3 0.949850 0.068550 0.065201
Si Si4 0.844044 0.828700 0.636273
Si Si5 0.519125 0.880202 0.604870
Si Si6 0.765553 0.784009 0.430988
Si Si7 0.702565 0.831119 0.227763
O O1 0.110085 0.467676 0.307987
O O2 0.990610 0.807877 0.147553
O O3 0.364080 0.878578 0.295916
O O4 0.070922 0.396089 0.134858
O O5 0.429940 0.519548 0.826550
O O6 0.358745 0.923171 0.859019
O O7 0.500000 0.500000 0.000000
O O8 0.720845 0.002769 0.979165
O O9 0.000000 0.000000 0.000000
O O10 0.693596 0.778493 0.653822
O O11 0.732997 0.830424 0.509217
O O12 0.066951 0.096854 0.702481
O O13 0.322319 0.591110 0.577950
O O14 0.500000 0.000000 0.500000
O O15 0.679729 0.866632 0.311481
O O16 0.000000 0.000000 0.500000
#
# Coordination Sequence:
#
# PCOD9051864 Si02
#       7
#     2   2   2   2   2   2   2
#     4  12  25  47  79 108 155 200 258 322 387 453
#     4  12  26  50  75 108 151 202 267 319 386 461
#     4  12  28  49  74 111 150 200 263 328 387 448
#     4  11  24  47  77 113 151 205 261 309 386 484
#     4  12  26  45  82 116 156 208 265 312 387 484
#     4  10  25  48  72 116 159 200 247 325 396 472
#     4  11  27  47  77 110 156 202 253 328 399 448
#
# _framework density 26.358260000000001
#
# number of rings (size 3 to 8) (size 9 to 14) (size 15 to 20)
#    0.000    0.571    2.857    3.857    4.000    2.286 
#    0.000    3.571    0.000    0.000    0.000    0.000 
#    0.000    0.000    0.000    0.000    0.000    0.000 
#
# Total GULP energy -78241.531696 kJ/mol
# GULP energy per Si atom -5588.680835 kJ/mol
# Density = 2.629827 g / cm^3
# Si number density = 26.358260 Si / 1000 Ang^3
#
#
#
# Elastic Constant Matrix: (Units=GPa)
#
#
# Indices 1 2 3 4 5 6 
#
# 1 86.9912 33.5693 20.4031 27.9287 -19.9900 -12.8875
# 2 33.5693 147.1723 56.0304 38.8747 -2.4563 -2.7217
# 3 20.4031 56.0304 126.5232 35.7579 -10.0589 -9.2688
# 4 27.9287 38.8747 35.7579 66.6642 -0.1240 2.3558
# 5 -19.9900 -2.4563 -10.0589 -0.1240 41.4010 -0.0836
# 6 -12.8875 -2.7217 -9.2688 2.3558 -0.0836 43.8942
#
#
#
# Elastic Compliance Matrix: (Units=1/GPa)
#
#
# Indices 1 2 3 4 5 6 
#
# 1 0.016947 -0.002361 0.001229 -0.006560 0.008333 0.005457
# 2 -0.002361 0.009183 -0.003078 -0.002695 -0.001352 -0.000632
# 3 0.001229 -0.003078 0.010810 -0.004608 0.003029 0.002706
# 4 -0.006560 -0.002695 -0.004608 0.021934 -0.004390 -0.004252
# 5 0.008333 -0.001352 0.003029 -0.004390 0.028826 0.003293
# 6 0.005457 -0.000632 0.002706 -0.004252 0.003293 0.025151
#
#
# Mechanical properties :
#
#
# Convention : Reuss Voigt Hill
#
# Bulk Modulus (GPa) = 35.06293 64.52136 49.79214
# Shear Modulus (GPa) = 38.23264 47.10415 42.66840
#
# Velocity S-wave (km/s) = 3.81267 4.23197 4.02778
# Velocity P-wave (km/s) = 5.71955 6.95781 6.36885
#
# Compressibility (1/GPa) = 0.02852015
#
# Stress axis : x y z
#
# Youngs Moduli (GPa) = 59.00578 108.90096 92.50731
#
# Poissons Ratio (x) = 0.25708 -0.11366
# Poissons Ratio (y) = 0.13929 0.28473
# Poissons Ratio (z) = -0.07250 0.33519
#
# Static dielectric constant tensor:
#      x y z
#    x 2.242990 -0.138560 0.066330 
#    y -0.138560 2.168580 -0.059100 
#    z 0.066330 -0.059100 2.123630 
# 
# From -- ./inp_files/564417.got.cif
#   From: 2010.05.17/outbox.cif.g08.bks.cpg/sg2_283_cif.got.tgz:564417.got - 2010.06.03 11:33:40.
