data_PCOD9051705
_publ_section_title
;
Structure prediction by ZEFSAII (Michael W. Deem and Ramdas Pophale) SiO2 
 PCOD9051705
Probable space group: P -1
;
_chemical_formula_sum "Si O2"
_cell_formula_units_Z 14
_cell_length_a 4.922781
_cell_length_b 12.561048
_cell_length_c 10.077081
_cell_angle_alpha 114.434517
_cell_angle_beta 71.010166
_cell_angle_gamma 78.874115
_cell_volume 496.083849
_symmetry_space_group_name_H-M "P -1"
_symmetry_group_IT_number 2
_symmetry_cell_setting 'triclinic'
loop_
_space_group_symop_operation_xyz
x,y,z
-x,-y,-z
loop_
_atom_site_type_symbol
_atom_site_label
_atom_site_fract_x
_atom_site_fract_y
_atom_site_fract_z
Si Si1 0.788312 0.769141 0.836724
Si Si2 0.274411 0.889572 0.777818
Si Si3 0.900917 0.114700 0.787698
Si Si4 0.774572 0.906483 0.541475
Si Si5 0.395518 0.669679 0.357448
Si Si6 0.149501 0.307756 0.932139
Si Si7 0.003082 0.496866 0.717974
O O1 0.519984 0.866486 0.843996
O O2 0.090473 0.800662 0.790106
O O3 0.675462 0.778153 0.012101
O O4 0.886150 0.621341 0.707840
O O5 0.505404 0.860637 0.601221
O O6 0.031822 0.029081 0.853686
O O7 0.178819 0.088148 0.618991
O O8 0.734895 0.035264 0.689975
O O9 0.886518 0.255884 0.901925
O O10 0.093235 0.797830 0.487029
O O11 0.609167 0.694244 0.220316
O O12 0.640372 0.598409 0.397500
O O13 0.233394 0.573209 0.288224
O O14 0.010814 0.439752 0.100939
#
# Coordination Sequence:
#
# PCOD9051705 Si02
#       7
#     2   2   2   2   2   2   2
#     4  10  26  45  74 103 151 187 244 281 367 433
#     4  12  24  50  70 104 150 196 231 297 350 443
#     4  11  26  48  75 108 146 187 239 310 353 423
#     4  11  28  45  77 109 144 189 248 291 363 429
#     4  12  24  46  78 105 144 188 239 307 359 405
#     4  10  26  44  77 112 144 183 243 299 369 426
#     4  10  25  47  72 111 142 187 240 301 359 421
#
# _framework density 28.221036999999999
#
# number of rings (size 3 to 8) (size 9 to 14) (size 15 to 20)
#    0.857    0.286    1.429    3.000    8.000    4.571 
#    0.000    4.286    0.000    0.000    0.000    0.000 
#    0.000    0.000    0.000    0.000    0.000    0.000 
#
# Total GULP energy -78383.362740 kJ/mol
# GULP energy per Si atom -5598.811624 kJ/mol
# Density = 2.815680 g / cm^3
# Si number density = 28.221037 Si / 1000 Ang^3
#
#
#
# Elastic Constant Matrix: (Units=GPa)
#
#
# Indices 1 2 3 4 5 6 
#
# 1 182.3463 29.7900 6.1420 15.7275 22.3310 47.4935
# 2 29.7900 93.8562 10.1846 7.7884 26.5242 21.1016
# 3 6.1420 10.1846 54.0090 24.2399 10.0179 16.8244
# 4 15.7275 7.7884 24.2399 52.1515 -1.5997 10.4692
# 5 22.3310 26.5242 10.0179 -1.5997 26.0249 -5.4805
# 6 47.4935 21.1016 16.8244 10.4692 -5.4805 71.3415
#
#
#
# Elastic Compliance Matrix: (Units=1/GPa)
#
#
# Indices 1 2 3 4 5 6 
#
# 1 0.009681 0.003538 0.006637 -0.005122 -0.016804 -0.009596
# 2 0.003538 0.020011 0.007537 -0.006166 -0.029108 -0.011383
# 3 0.006637 0.007537 0.034217 -0.017046 -0.030663 -0.014571
# 4 -0.005122 -0.006166 -0.017046 0.028867 0.020402 0.006585
# 5 -0.016804 -0.029108 -0.030663 0.020402 0.102283 0.031891
# 6 -0.009596 -0.011383 -0.014571 0.006585 0.031891 0.028692
#
#
# Mechanical properties :
#
#
# Convention : Reuss Voigt Hill
#
# Bulk Modulus (GPa) = 10.06728 46.93831 28.50279
# Shear Modulus (GPa) = 22.57966 48.84326 35.71146
#
# Velocity S-wave (km/s) = 2.83167 4.16473 3.56113
# Velocity P-wave (km/s) = 3.77706 6.30834 5.19910
#
# Compressibility (1/GPa) = 0.09933172
#
# Stress axis : x y z
#
# Youngs Moduli (GPa) = 103.28992 49.97353 29.22559
#
# Poissons Ratio (x) = -0.17682 -0.19396
# Poissons Ratio (y) = -0.36547 -0.22026
# Poissons Ratio (z) = -0.68550 -0.37663
#
# Static dielectric constant tensor:
#      x y z
#    x 2.232350 -0.151720 -0.158290 
#    y -0.151720 2.292290 0.134090 
#    z -0.158290 0.134090 2.536600 
# 
# From -- ./inp_files/366984.got.cif
#   From: 2010.05.17/outbox.cif.g08.bks.cpg/sg2_184_cif.got.tgz:366984.got - 2010.06.03 11:33:40.
