data_PCOD9051279
_publ_section_title
;
Structure prediction by ZEFSAII (Michael W. Deem and Ramdas Pophale) SiO2 
 PCOD9051279
Probable space group: P -1
;
_chemical_formula_sum "Si O2"
_cell_formula_units_Z 14
_cell_length_a 17.909979
_cell_length_b 8.999217
_cell_length_c 8.640313
_cell_angle_alpha 32.983467
_cell_angle_beta 54.511268
_cell_angle_gamma 58.124824
_cell_volume 614.635256
_symmetry_space_group_name_H-M "P -1"
_symmetry_group_IT_number 2
_symmetry_cell_setting 'triclinic'
loop_
_space_group_symop_operation_xyz
x,y,z
-x,-y,-z
loop_
_atom_site_type_symbol
_atom_site_label
_atom_site_fract_x
_atom_site_fract_y
_atom_site_fract_z
Si Si1 0.792278 0.985392 0.258992
Si Si2 0.727993 0.435129 0.370116
Si Si3 0.529133 0.750327 0.853556
Si Si4 0.322594 0.108465 0.217717
Si Si5 0.647726 0.899550 0.291641
Si Si6 0.061723 0.717130 0.656433
Si Si7 0.093895 0.588291 0.374651
O O1 0.737640 0.990391 0.480267
O O2 0.732842 0.056495 0.111683
O O3 0.832468 0.672859 0.472326
O O4 0.870330 0.189316 0.977982
O O5 0.685648 0.624783 0.397538
O O6 0.833940 0.315952 0.373506
O O7 0.667533 0.178901 0.637104
O O8 0.724981 0.652750 0.042103
O O9 0.590515 0.752544 0.932922
O O10 0.597382 0.866602 0.545182
O O11 0.435069 0.934016 0.843691
O O12 0.500000 0.500000 0.000000
O O13 0.075410 0.687301 0.483185
O O14 0.000000 0.000000 0.500000
O O15 0.000000 0.500000 0.000000
O O16 0.000000 0.500000 0.500000
#
# Coordination Sequence:
#
# PCOD9051279 Si02
#       7
#     2   2   2   2   2   2   2
#     4  11  25  47  72 102 142 190 247 289 362 432
#     4  12  27  48  73 108 148 196 240 299 374 437
#     4  10  25  47  75 107 146 192 242 305 357 432
#     4  11  28  45  74 110 148 193 239 302 363 433
#     4  10  25  45  75 104 144 194 244 294 366 439
#     4  12  28  48  71 105 149 189 240 302 369 422
#     4  12  27  46  73 104 136 191 246 304 356 429
#
# _framework density 22.777735
#
# number of rings (size 3 to 8) (size 9 to 14) (size 15 to 20)
#    0.000    0.857    1.429    3.000   20.000    1.143 
#    0.000    0.000    0.000    0.000    0.000    0.000 
#    0.000    0.000    0.000    0.000    0.000    0.000 
#
# Total GULP energy -78160.738871 kJ/mol
# GULP energy per Si atom -5582.909919 kJ/mol
# Density = 2.272589 g / cm^3
# Si number density = 22.777735 Si / 1000 Ang^3
#
#
#
# Elastic Constant Matrix: (Units=GPa)
#
#
# Indices 1 2 3 4 5 6 
#
# 1 805.6309 -144.0903 352.1286 23.4965 -80.2797 -329.1756
# 2 -144.0903 186.9090 -60.2873 -20.7972 33.3238 88.9967
# 3 352.1286 -60.2873 269.6068 6.5010 -41.8412 -160.0572
# 4 23.4965 -20.7972 6.5010 38.5771 -0.7321 -12.9660
# 5 -80.2797 33.3238 -41.8412 -0.7321 48.8833 42.5070
# 6 -329.1756 88.9967 -160.0572 -12.9660 42.5070 202.7923
#
#
#
# Elastic Compliance Matrix: (Units=1/GPa)
#
#
# Indices 1 2 3 4 5 6 
#
# 1 0.004757 0.000058 -0.003044 -0.000625 0.000721 0.005103
# 2 0.000058 0.007416 -0.000646 0.003058 -0.002991 -0.002848
# 3 -0.003044 -0.000646 0.009076 0.000772 0.001222 0.002300
# 4 -0.000625 0.003058 0.000772 0.027965 -0.002527 0.000572
# 5 0.000721 -0.002991 0.001222 -0.002527 0.026697 -0.002310
# 6 0.005103 -0.002848 0.002300 0.000572 -0.002310 0.016800
#
#
# Mechanical properties :
#
#
# Convention : Reuss Voigt Hill
#
# Bulk Modulus (GPa) = 71.50223 173.07209 122.28716
# Shear Modulus (GPa) = 47.78407 132.34360 90.06384
#
# Velocity S-wave (km/s) = 4.58519 7.63075 6.29493
# Velocity P-wave (km/s) = 7.71306 12.40104 10.32659
#
# Compressibility (1/GPa) = 0.01398558
#
# Stress axis : x y z
#
# Youngs Moduli (GPa) = 210.21030 134.84301 110.17612
#
# Poissons Ratio (x) = -0.00778 0.33535
# Poissons Ratio (y) = -0.01212 0.07116
# Poissons Ratio (z) = 0.63984 0.08709
#
# Static dielectric constant tensor:
#      x y z
#    x 1.965580 0.423480 0.042530 
#    y 0.423480 -0.832890 -0.293160 
#    z 0.042530 -0.293160 1.831490 
# 
# From -- ./inp_files/87965.got.cif
#   From: 2010.05.17/outbox.cif.g08.bks.cpg/sg2_44_cif.got.tgz:87965.got - 2010.06.03 11:33:40.
