data_PCOD9051079
_publ_section_title
;
Structure prediction by ZEFSAII (Michael W. Deem and Ramdas Pophale) SiO2 
 PCOD9051079
Probable space group: P -1
;
_chemical_formula_sum "Si O2"
_cell_formula_units_Z 16
_cell_length_a 12.563039
_cell_length_b 5.370386
_cell_length_c 11.879660
_cell_angle_alpha 88.736131
_cell_angle_beta 71.639041
_cell_angle_gamma 62.191162
_cell_volume 665.355160
_symmetry_space_group_name_H-M "P -1"
_symmetry_group_IT_number 2
_symmetry_cell_setting 'triclinic'
loop_
_space_group_symop_operation_xyz
x,y,z
-x,-y,-z
loop_
_atom_site_type_symbol
_atom_site_label
_atom_site_fract_x
_atom_site_fract_y
_atom_site_fract_z
Si Si1 0.814081 0.978272 0.667050
Si Si2 0.204220 0.510843 0.461995
Si Si3 0.757183 0.032709 0.225449
Si Si4 0.314577 0.229789 0.956612
Si Si5 0.946456 0.476501 0.271173
Si Si6 0.562830 0.236517 0.892121
Si Si7 0.107353 0.695983 0.933653
Si Si8 0.491206 0.263558 0.431514
O O1 0.808182 0.755344 0.581927
O O2 0.915806 0.749913 0.723161
O O3 0.855084 0.197861 0.594575
O O4 0.675994 0.184763 0.769262
O O5 0.145236 0.565896 0.606813
O O6 0.354673 0.406321 0.416228
O O7 0.788281 0.279552 0.180512
O O8 0.616525 0.143400 0.316255
O O9 0.747163 0.887452 0.113662
O O10 0.866756 0.821599 0.278070
O O11 0.440031 0.244446 0.872487
O O12 0.191733 0.534764 0.015089
O O13 0.365816 0.039480 0.050265
O O14 0.957608 0.411365 0.134453
O O15 0.500000 0.500000 0.000000
O O16 0.000000 0.000000 0.000000
O O17 0.500000 0.500000 0.500000
O O18 0.500000 0.000000 0.500000
#
# Coordination Sequence:
#
# PCOD9051079 Si02
#       8
#     2   2   2   2   2   2   2   2
#     4  12  30  46  79 104 151 198 255 296 377 441
#     4  12  27  50  74 113 146 196 249 307 370 444
#     4  11  25  45  72 104 146 189 246 307 375 443
#     4  10  25  45  69 102 144 181 249 299 378 433
#     4  11  27  47  72 105 150 194 243 309 365 445
#     4  11  26  46  72 103 146 194 243 315 370 442
#     4  11  27  44  75 107 146 194 248 307 380 452
#     4  12  25  45  77 108 147 190 243 304 377 433
#
# _framework density 24.047308999999998
#
# number of rings (size 3 to 8) (size 9 to 14) (size 15 to 20)
#    0.000    0.750    1.250    3.750   17.500    1.000 
#    0.000    0.000    0.000    0.000    0.000    0.000 
#    0.000    0.000    0.000    0.000    0.000    0.000 
#
# Total GULP energy -89288.299972 kJ/mol
# GULP energy per Si atom -5580.518748 kJ/mol
# Density = 2.399258 g / cm^3
# Si number density = 24.047309 Si / 1000 Ang^3
#
#
#
# Elastic Constant Matrix: (Units=GPa)
#
#
# Indices 1 2 3 4 5 6 
#
# 1 46.0282 35.8224 4.8091 3.3280 -1.9722 -24.3713
# 2 35.8224 127.6472 20.8395 -7.6337 6.8731 -37.6372
# 3 4.8091 20.8395 76.9323 10.3187 -10.1342 -9.0194
# 4 3.3280 -7.6337 10.3187 38.7581 -1.3517 1.4824
# 5 -1.9722 6.8731 -10.1342 -1.3517 41.5093 0.5688
# 6 -24.3713 -37.6372 -9.0194 1.4824 0.5688 50.0754
#
#
#
# Elastic Compliance Matrix: (Units=1/GPa)
#
#
# Indices 1 2 3 4 5 6 
#
# 1 0.033454 -0.006754 0.002184 -0.005131 0.002913 0.011718
# 2 -0.006754 0.012151 -0.003130 0.003501 -0.003055 0.005214
# 3 0.002184 -0.003130 0.015065 -0.004729 0.004125 0.001517
# 4 -0.005131 0.003501 -0.004729 0.028213 -0.001038 -0.001541
# 5 0.002913 -0.003055 0.004125 -0.001038 0.025714 -0.000396
# 6 0.011718 0.005214 0.001517 -0.001541 -0.000396 0.029915
#
#
# Mechanical properties :
#
#
# Convention : Reuss Voigt Hill
#
# Bulk Modulus (GPa) = 22.08906 41.50553 31.79730
# Shear Modulus (GPa) = 28.57102 38.67766 33.62434
#
# Velocity S-wave (km/s) = 3.45065 4.01484 3.74339
# Velocity P-wave (km/s) = 5.00815 6.22811 5.65114
#
# Compressibility (1/GPa) = 0.04527128
#
# Stress axis : x y z
#
# Youngs Moduli (GPa) = 29.89178 82.29470 66.37737
#
# Poissons Ratio (x) = 0.55578 -0.14496
# Poissons Ratio (y) = 0.20188 0.20777
# Poissons Ratio (z) = -0.06528 0.25759
#
# Static dielectric constant tensor:
#      x y z
#    x 1.923580 0.085100 0.001030 
#    y 0.085100 2.050530 0.004360 
#    z 0.001030 0.004360 1.917630 
# 
# From -- ./inp_files/69932.got.cif
#   From: 2010.05.17/outbox.cif.g08.bks.cpg/sg2_35_cif.got.tgz:69932.got - 2010.06.03 11:33:40.
