data_PCOD9051937
_publ_section_title
;
Structure prediction by ZEFSAII (Michael W. Deem and Ramdas Pophale) SiO2 
 PCOD9051937
Probable space group: P -1
;
_chemical_formula_sum "Si O2"
_cell_formula_units_Z 12
_cell_length_a 9.114637
_cell_length_b 5.197784
_cell_length_c 13.988161
_cell_angle_alpha 100.149105
_cell_angle_beta 57.038917
_cell_angle_gamma 103.521227
_cell_volume 539.645977
_symmetry_space_group_name_H-M "P -1"
_symmetry_group_IT_number 2
_symmetry_cell_setting 'triclinic'
loop_
_space_group_symop_operation_xyz
x,y,z
-x,-y,-z
loop_
_atom_site_type_symbol
_atom_site_label
_atom_site_fract_x
_atom_site_fract_y
_atom_site_fract_z
Si Si1 0.414326 0.205319 0.983348
Si Si2 0.507536 0.814801 0.266896
Si Si3 0.666744 0.177677 0.401720
Si Si4 0.884780 0.209811 0.512260
Si Si5 0.784019 0.563654 0.248866
Si Si6 0.997401 0.911288 0.884658
O O1 0.452514 0.152366 0.855874
O O2 0.500000 0.500000 0.000000
O O3 0.500000 0.000000 0.000000
O O4 0.206380 0.164566 0.075156
O O5 0.301423 0.788546 0.365254
O O6 0.607381 0.573894 0.249510
O O7 0.614011 0.055561 0.306921
O O8 0.824441 0.154112 0.419185
O O9 0.707352 0.490110 0.378508
O O10 0.500000 0.000000 0.500000
O O11 0.000000 0.500000 0.500000
O O12 0.000000 0.000000 0.500000
O O13 0.907580 0.844188 0.198169
O O14 0.911116 0.349136 0.170848
O O15 0.000000 0.000000 0.000000
#
# Coordination Sequence:
#
# PCOD9051937 Si02
#       6
#     2   2   2   2   2   2
#     4  12  29  48  72 110 158 199 244 313 384 437
#     4  11  27  50  77 104 152 201 252 302 376 455
#     4  10  25  48  79 105 146 198 252 305 371 454
#     4  11  29  48  75 112 151 187 243 314 386 444
#     4  12  24  43  79 108 140 193 263 300 368 428
#     4  12  25  45  75 105 146 196 258 307 356 454
#
# _framework density 22.236802000000001
#
# number of rings (size 3 to 8) (size 9 to 14) (size 15 to 20)
#    0.000    0.667    3.333    1.500   11.667    5.333 
#    0.000    0.000    0.000    0.000    0.000    0.000 
#    0.000    0.000    0.000    0.000    0.000    0.000 
#
# Total GULP energy -66907.226420 kJ/mol
# GULP energy per Si atom -5575.602202 kJ/mol
# Density = 2.218619 g / cm^3
# Si number density = 22.236802 Si / 1000 Ang^3
#
#
#
# Elastic Constant Matrix: (Units=GPa)
#
#
# Indices 1 2 3 4 5 6 
#
# 1 216.1362 113.2821 78.8010 -15.6815 -19.6662 -20.8954
# 2 113.2821 198.3301 72.8712 -18.7689 -11.2653 -18.1441
# 3 78.8010 72.8712 127.0154 -23.0908 -4.9208 -11.6738
# 4 -15.6815 -18.7689 -23.0908 40.6467 -0.9714 0.0565
# 5 -19.6662 -11.2653 -4.9208 -0.9714 67.8540 -4.0235
# 6 -20.8954 -18.1441 -11.6738 0.0565 -4.0235 60.6039
#
#
#
# Elastic Compliance Matrix: (Units=1/GPa)
#
#
# Indices 1 2 3 4 5 6 
#
# 1 0.007488 -0.003085 -0.002710 -0.000040 0.001534 0.001238
# 2 -0.003085 0.007851 -0.002292 0.001139 0.000311 0.000865
# 3 -0.002710 -0.002292 0.011748 0.004564 -0.000212 0.000624
# 4 -0.000040 0.001139 0.004564 0.027728 0.000979 0.001246
# 5 0.001534 0.000311 -0.000212 0.000979 0.015327 0.001598
# 6 0.001238 0.000865 0.000624 0.001246 0.001598 0.017412
#
#
# Mechanical properties :
#
#
# Convention : Reuss Voigt Hill
#
# Bulk Modulus (GPa) = 91.62365 119.04336 105.33351
# Shear Modulus (GPa) = 46.57103 52.25609 49.41356
#
# Velocity S-wave (km/s) = 4.58134 4.85292 4.71909
# Velocity P-wave (km/s) = 8.32334 9.22235 8.78435
#
# Compressibility (1/GPa) = 0.01091421
#
# Stress axis : x y z
#
# Youngs Moduli (GPa) = 133.55054 127.37924 85.12125
#
# Poissons Ratio (x) = 0.39291 0.23066
# Poissons Ratio (y) = 0.41195 0.19507
# Poissons Ratio (z) = 0.36190 0.29191
#
# Static dielectric constant tensor:
#      x y z
#    x 1.771120 0.085840 -0.014810 
#    y 0.085840 1.731870 -0.075670 
#    z -0.014810 -0.075670 1.953800 
# 
# From -- ./inp_files/487164.got.cif
#   From: 2010.05.17/outbox.cif.g08.bks.cpg/sg2_244_cif.got.tgz:487164.got - 2010.06.03 11:33:40.
