data_PCOD9051817
_publ_section_title
;
Structure prediction by ZEFSAII (Michael W. Deem and Ramdas Pophale) SiO2 
 PCOD9051817
Probable space group: P -1
;
_chemical_formula_sum "Si O2"
_cell_formula_units_Z 12
_cell_length_a 12.093842
_cell_length_b 10.893399
_cell_length_c 4.947869
_cell_angle_alpha 92.670118
_cell_angle_beta 92.838127
_cell_angle_gamma 46.231406
_cell_volume 470.078579
_symmetry_space_group_name_H-M "P -1"
_symmetry_group_IT_number 2
_symmetry_cell_setting 'triclinic'
loop_
_space_group_symop_operation_xyz
x,y,z
-x,-y,-z
loop_
_atom_site_type_symbol
_atom_site_label
_atom_site_fract_x
_atom_site_fract_y
_atom_site_fract_z
Si Si1 0.878116 0.334836 0.136314
Si Si2 0.563029 0.254406 0.774339
Si Si3 0.217335 0.067625 0.950124
Si Si4 0.180336 0.855496 0.562435
Si Si5 0.349127 0.409457 0.249138
Si Si6 0.173417 0.367967 0.897448
O O1 0.802689 0.280127 0.274024
O O2 0.836648 0.501219 0.274872
O O3 0.059828 0.182083 0.114822
O O4 0.808964 0.399482 0.830398
O O5 0.705326 0.226188 0.685164
O O6 0.444909 0.338175 0.523302
O O7 0.639289 0.066100 0.850604
O O8 0.468025 0.369517 0.033863
O O9 0.213848 0.199227 0.804529
O O10 0.217588 0.950273 0.743219
O O11 0.000000 0.000000 0.500000
O O12 0.296639 0.313708 0.134180
O O13 0.000000 0.500000 0.000000
#
# Coordination Sequence:
#
# PCOD9051817 Si02
#       6
#     2   2   2   2   2   2
#     4   9  22  46  70 102 140 192 236 294 351 432
#     4  12  25  46  71 112 145 187 236 306 360 418
#     4  11  22  46  75 104 139 191 244 293 353 433
#     4  12  25  43  73 107 142 191 245 294 353 431
#     4  10  25  48  69 112 144 189 232 305 360 420
#     4   8  20  48  72 102 142 189 241 288 356 434
#
# _framework density 25.527646000000001
#
# number of rings (size 3 to 8) (size 9 to 14) (size 15 to 20)
#    1.000    0.667    3.333    0.500    0.000    4.000 
#    3.000    1.667    0.000    0.000    0.000    0.000 
#    0.000    0.000    0.000    0.000    0.000    0.000 
#
# Total GULP energy -67044.815014 kJ/mol
# GULP energy per Si atom -5587.067918 kJ/mol
# Density = 2.546954 g / cm^3
# Si number density = 25.527646 Si / 1000 Ang^3
#
#
#
# Elastic Constant Matrix: (Units=GPa)
#
#
# Indices 1 2 3 4 5 6 
#
# 1 124.5489 48.5851 24.6160 0.2687 -2.8951 12.6665
# 2 48.5851 122.9718 46.2988 -35.0133 -2.0571 15.1055
# 3 24.6160 46.2988 98.9469 -19.2688 2.4832 -4.1803
# 4 0.2687 -35.0133 -19.2688 38.7955 -6.6523 4.3414
# 5 -2.8951 -2.0571 2.4832 -6.6523 25.6333 -6.6834
# 6 12.6665 15.1055 -4.1803 4.3414 -6.6834 82.0675
#
#
#
# Elastic Compliance Matrix: (Units=1/GPa)
#
#
# Indices 1 2 3 4 5 6 
#
# 1 0.010295 -0.005066 -0.001229 -0.005307 -0.000630 -0.000490
# 2 -0.005066 0.015722 -0.003708 0.013337 0.003807 -0.002696
# 3 -0.001229 -0.003708 0.012753 0.002742 -0.000614 0.001327
# 4 -0.005307 0.013337 0.002742 0.041275 0.010174 -0.002851
# 5 -0.000630 0.003807 -0.000614 0.010174 0.042543 0.002292
# 6 -0.000490 -0.002696 0.001327 -0.002851 0.002292 0.013162
#
#
# Mechanical properties :
#
#
# Convention : Reuss Voigt Hill
#
# Bulk Modulus (GPa) = 53.29794 65.05195 59.17495
# Shear Modulus (GPa) = 30.86207 44.43044 37.64625
#
# Velocity S-wave (km/s) = 3.48079 4.17644 3.84438
# Velocity P-wave (km/s) = 6.08920 6.98535 6.55261
#
# Compressibility (1/GPa) = 0.01876245
#
# Stress axis : x y z
#
# Youngs Moduli (GPa) = 97.13730 63.60495 78.41394
#
# Poissons Ratio (x) = 0.32223 0.09637
# Poissons Ratio (y) = 0.49211 0.29080
# Poissons Ratio (z) = 0.11938 0.23588
#
# Static dielectric constant tensor:
#      x y z
#    x 2.039160 0.030210 0.001090 
#    y 0.030210 2.046220 0.056280 
#    z 0.001090 0.056280 2.101160 
# 
# From -- ./inp_files/64277.got.cif
#   From: 2010.05.17/outbox.cif.g08.bks.cpg/sg2_33_cif.got.tgz:64277.got - 2010.06.03 11:33:40.
