data_PCOD9051779
_publ_section_title
;
Structure prediction by ZEFSAII (Michael W. Deem and Ramdas Pophale) SiO2 
 PCOD9051779
Probable space group: P -1
;
_chemical_formula_sum "Si O2"
_cell_formula_units_Z 12
_cell_length_a 4.818397
_cell_length_b 13.875474
_cell_length_c 9.050897
_cell_angle_alpha 61.431762
_cell_angle_beta 64.870369
_cell_angle_gamma 66.195030
_cell_volume 465.588858
_symmetry_space_group_name_H-M "P -1"
_symmetry_group_IT_number 2
_symmetry_cell_setting 'triclinic'
loop_
_space_group_symop_operation_xyz
x,y,z
-x,-y,-z
loop_
_atom_site_type_symbol
_atom_site_label
_atom_site_fract_x
_atom_site_fract_y
_atom_site_fract_z
Si Si1 0.791944 0.292374 0.236912
Si Si2 0.507019 0.900096 0.455837
Si Si3 0.176599 0.173952 0.990815
Si Si4 0.233117 0.517872 0.672610
Si Si5 0.291782 0.601873 0.125843
Si Si6 0.151266 0.927430 0.214530
O O1 0.567229 0.209263 0.373881
O O2 0.828517 0.359868 0.326098
O O3 0.110375 0.215369 0.145754
O O4 0.657655 0.383376 0.071123
O O5 0.255946 0.935266 0.355395
O O6 0.849663 0.877545 0.320024
O O7 0.500000 0.000000 0.500000
O O8 0.073572 0.056943 0.081131
O O9 0.539465 0.145487 0.883571
O O10 0.950630 0.276483 0.877440
O O11 0.500000 0.500000 0.500000
O O12 0.389845 0.426929 0.831206
O O13 0.908969 0.488568 0.722129
#
# Coordination Sequence:
#
# PCOD9051779 Si02
#       6
#     2   2   2   2   2   2
#     4  10  25  47  76 110 143 200 239 303 365 433
#     4  12  25  45  71 108 150 189 240 299 359 428
#     4   9  24  47  74 106 143 200 240 293 365 434
#     4  12  26  48  74 110 144 185 248 311 367 427
#     4  10  25  48  73 104 144 192 243 299 365 435
#     4  11  25  47  70 109 149 192 241 295 355 440
#
# _framework density 25.773814000000002
#
# number of rings (size 3 to 8) (size 9 to 14) (size 15 to 20)
#    1.000    0.333    1.667    2.000    2.333    9.333 
#    0.000    0.000    0.000    0.000    0.000    0.000 
#    0.000    0.000    0.000    0.000    0.000    0.000 
#
# Total GULP energy -67294.196853 kJ/mol
# GULP energy per Si atom -5607.849738 kJ/mol
# Density = 2.571515 g / cm^3
# Si number density = 25.773814 Si / 1000 Ang^3
#
#
#
# Elastic Constant Matrix: (Units=GPa)
#
#
# Indices 1 2 3 4 5 6 
#
# 1 87.6775 19.2987 13.2687 -5.6009 -8.7448 8.6243
# 2 19.2987 158.4575 46.5619 16.0472 -16.7666 6.6239
# 3 13.2687 46.5619 117.2401 4.8932 -29.9211 14.5416
# 4 -5.6009 16.0472 4.8932 51.8432 1.5031 -6.9223
# 5 -8.7448 -16.7666 -29.9211 1.5031 46.5673 1.2844
# 6 8.6243 6.6239 14.5416 -6.9223 1.2844 39.7346
#
#
#
# Elastic Compliance Matrix: (Units=1/GPa)
#
#
# Indices 1 2 3 4 5 6 
#
# 1 0.012195 -0.001291 -0.000225 0.001401 0.001695 -0.002160
# 2 -0.001291 0.007549 -0.002432 -0.002346 0.001003 -0.000529
# 3 -0.000225 -0.002432 0.011853 -0.001164 0.006854 -0.004308
# 4 0.001401 -0.002346 -0.001164 0.020902 -0.002121 0.004223
# 5 0.001695 0.001003 0.006854 -0.002121 0.026744 -0.004277
# 6 -0.002160 -0.000529 -0.004308 0.004223 -0.004277 0.028175
#
#
# Mechanical properties :
#
#
# Convention : Reuss Voigt Hill
#
# Bulk Modulus (GPa) = 42.19638 57.95928 50.07783
# Shear Modulus (GPa) = 40.57958 46.57874 43.57916
#
# Velocity S-wave (km/s) = 3.97224 4.25574 4.11643
# Velocity P-wave (km/s) = 6.11928 6.83264 6.48577
#
# Compressibility (1/GPa) = 0.02369872
#
# Stress axis : x y z
#
# Youngs Moduli (GPa) = 82.00268 132.47371 84.36499
#
# Poissons Ratio (x) = 0.17106 0.01902
# Poissons Ratio (y) = 0.10589 0.20520
# Poissons Ratio (z) = 0.01848 0.32222
#
# Static dielectric constant tensor:
#      x y z
#    x 1.947690 -0.017350 0.048870 
#    y -0.017350 2.050790 0.031640 
#    z 0.048870 0.031640 2.042230 
# 
# From -- ./inp_files/130126.got.cif
#   From: 2010.05.17/outbox.cif.g08.bks.cpg/sg2_66_cif.got.tgz:130126.got - 2010.06.03 11:33:40.
