data_PCOD9051215
_publ_section_title
;
Structure prediction by ZEFSAII (Michael W. Deem and Ramdas Pophale) SiO2 
 PCOD9051215
Probable space group: P -1
;
_chemical_formula_sum "Si O2"
_cell_formula_units_Z 14
_cell_length_a 8.933914
_cell_length_b 8.579862
_cell_length_c 8.969928
_cell_angle_alpha 119.178553
_cell_angle_beta 109.596301
_cell_angle_gamma 82.762294
_cell_volume 564.952849
_symmetry_space_group_name_H-M "P -1"
_symmetry_group_IT_number 2
_symmetry_cell_setting 'triclinic'
loop_
_space_group_symop_operation_xyz
x,y,z
-x,-y,-z
loop_
_atom_site_type_symbol
_atom_site_label
_atom_site_fract_x
_atom_site_fract_y
_atom_site_fract_z
Si Si1 0.599144 0.625028 0.311188
Si Si2 0.040199 0.465638 0.167823
Si Si3 0.057472 0.190659 0.536049
Si Si4 0.571993 0.092416 0.716490
Si Si5 0.914265 0.144260 0.140376
Si Si6 0.569354 0.217643 0.083369
Si Si7 0.669256 0.748305 0.712684
O O1 0.754269 0.747123 0.363379
O O2 0.428515 0.705663 0.251499
O O3 0.604941 0.426768 0.162512
O O4 0.617089 0.630087 0.498061
O O5 0.196282 0.355788 0.205022
O O6 0.034615 0.651384 0.340892
O O7 0.911087 0.322962 0.124551
O O8 0.000000 0.500000 0.000000
O O9 0.009252 0.184912 0.343506
O O10 0.000000 0.000000 0.500000
O O11 0.500000 0.000000 0.500000
O O12 0.697832 0.948138 0.741223
O O13 0.491280 0.132420 0.868315
O O14 0.731432 0.114084 0.113353
O O15 0.000000 0.000000 0.000000
O O16 0.465962 0.222731 0.198723
#
# Coordination Sequence:
#
# PCOD9051215 Si02
#       7
#     2   2   2   2   2   2   2
#     4  11  24  48  75 111 151 198 255 314 378 460
#     4  12  26  49  76 109 152 202 259 317 381 464
#     4  12  27  49  78 109 155 203 260 318 388 450
#     4  10  25  45  72 106 154 196 246 307 377 454
#     4  12  26  48  77 111 154 202 261 318 380 455
#     4  12  25  44  77 111 152 202 251 313 384 451
#     4  11  25  48  72 112 154 197 249 317 384 453
#
# _framework density 24.780829000000001
#
# number of rings (size 3 to 8) (size 9 to 14) (size 15 to 20)
#    0.000    0.571    2.857    4.286    6.000    1.143 
#    5.143    0.000    0.000    0.000    0.000    0.000 
#    0.000    0.000    0.000    0.000    0.000    0.000 
#
# Total GULP energy -78072.014719 kJ/mol
# GULP energy per Si atom -5576.572480 kJ/mol
# Density = 2.472443 g / cm^3
# Si number density = 24.780829 Si / 1000 Ang^3
#
#
#
# Elastic Constant Matrix: (Units=GPa)
#
#
# Indices 1 2 3 4 5 6 
#
# 1 118.0500 66.7248 61.1380 -1.8592 -18.2766 -20.8101
# 2 66.7248 210.7627 90.0789 4.6744 0.0092 -21.1179
# 3 61.1380 90.0789 199.3821 -0.4554 -27.3834 -23.2811
# 4 -1.8592 4.6744 -0.4554 60.9237 -6.2979 -0.2775
# 5 -18.2766 0.0092 -27.3834 -6.2979 32.2721 6.8981
# 6 -20.8101 -21.1179 -23.2811 -0.2775 6.8981 55.7160
#
#
#
# Elastic Compliance Matrix: (Units=1/GPa)
#
#
# Indices 1 2 3 4 5 6 
#
# 1 0.012157 -0.003100 -0.001314 0.001182 0.005545 0.002136
# 2 -0.003100 0.007008 -0.002728 -0.001112 -0.004483 0.000908
# 3 -0.001314 -0.002728 0.007531 0.000809 0.005606 0.000932
# 4 0.001182 -0.001112 0.000809 0.017028 0.004709 -0.000140
# 5 0.005545 -0.004483 0.005606 0.004709 0.040285 -0.002250
# 6 0.002136 0.000908 0.000932 -0.000140 -0.002250 0.019758
#
#
# Mechanical properties :
#
#
# Convention : Reuss Voigt Hill
#
# Bulk Modulus (GPa) = 80.55535 107.11981 93.83758
# Shear Modulus (GPa) = 40.92116 50.46592 45.69354
#
# Velocity S-wave (km/s) = 4.06806 4.51764 4.29873
# Velocity P-wave (km/s) = 7.39210 8.39839 7.91126
#
# Compressibility (1/GPa) = 0.01241383
#
# Stress axis : x y z
#
# Youngs Moduli (GPa) = 82.25654 142.70094 132.77897
#
# Poissons Ratio (x) = 0.44234 0.17443
# Poissons Ratio (y) = 0.25497 0.36218
# Poissons Ratio (z) = 0.10806 0.38925
#
# Static dielectric constant tensor:
#      x y z
#    x 2.075340 0.037800 0.114200 
#    y 0.037800 1.994260 0.018140 
#    z 0.114200 0.018140 1.921900 
# 
# From -- ./inp_files/156231.got.cif
#   From: 2010.05.17/outbox.cif.g08.bks.cpg/sg2_79_cif.got.tgz:156231.got - 2010.06.03 11:33:40.
