data_PCOD9051420
_publ_section_title
;
Structure prediction by ZEFSAII (Michael W. Deem and Ramdas Pophale) SiO2 
 PCOD9051420
Probable space group: P -1
;
_chemical_formula_sum "Si O2"
_cell_formula_units_Z 14
_cell_length_a 20.762306
_cell_length_b 13.466404
_cell_length_c 26.199322
_cell_angle_alpha 24.331592
_cell_angle_beta 168.923115
_cell_angle_gamma 156.749367
_cell_volume 551.177639
_symmetry_space_group_name_H-M "P -1"
_symmetry_group_IT_number 2
_symmetry_cell_setting 'triclinic'
loop_
_space_group_symop_operation_xyz
x,y,z
-x,-y,-z
loop_
_atom_site_type_symbol
_atom_site_label
_atom_site_fract_x
_atom_site_fract_y
_atom_site_fract_z
Si Si1 0.917131 0.652096 0.017694
Si Si2 0.217586 0.753529 0.579397
Si Si3 0.813952 0.912046 0.047787
Si Si4 0.369652 0.947039 0.776652
Si Si5 0.261226 0.178664 0.736271
Si Si6 0.459561 0.000018 0.388444
Si Si7 0.197978 0.429391 0.428488
O O1 0.533091 0.451107 0.807228
O O2 0.829258 0.867612 0.882981
O O3 0.151511 0.510405 0.296493
O O4 0.112881 0.802675 0.050556
O O5 0.520599 0.736841 0.863576
O O6 0.000000 0.500000 0.500000
O O7 0.937779 0.836544 0.357382
O O8 0.412412 0.936934 0.599713
O O9 0.677941 0.903923 0.003510
O O10 0.197279 0.879649 0.365219
O O11 0.051433 0.898695 0.511209
O O12 0.195056 0.734816 0.781994
O O13 0.426179 0.236350 0.702466
O O14 0.500000 0.000000 0.000000
O O15 0.331418 0.696437 0.436143
#
# Coordination Sequence:
#
# PCOD9051420 Si02
#       7
#     2   2   2   2   2   2   2
#     4  12  24  46  70 104 144 190 237 293 362 427
#     4  11  25  46  69 107 144 188 240 297 360 426
#     4  11  27  45  71 106 143 186 240 299 359 424
#     4  10  25  46  70 108 139 191 241 298 356 430
#     4  11  23  44  72 102 142 189 238 294 358 426
#     4  12  26  46  72 106 146 193 236 299 361 431
#     4  11  24  45  75 101 147 189 243 292 364 430
#
# _framework density 25.40016
#
# number of rings (size 3 to 8) (size 9 to 14) (size 15 to 20)
#    0.000    0.857    4.286    1.714    2.000    2.857 
#    0.000    0.000    0.000    0.000    0.000    0.000 
#    0.000    0.000    0.000    0.000    0.000    0.000 
#
# Total GULP energy -78431.849831 kJ/mol
# GULP energy per Si atom -5602.274988 kJ/mol
# Density = 2.534235 g / cm^3
# Si number density = 25.400160 Si / 1000 Ang^3
#
#
#
# Elastic Constant Matrix: (Units=GPa)
#
#
# Indices 1 2 3 4 5 6 
#
# 1 115.9895 31.9351 7.0809 -5.2359 6.6281 13.5957
# 2 31.9351 162.4194 29.5445 -5.6942 14.1286 -7.8145
# 3 7.0809 29.5445 99.0078 13.6979 1.2681 -9.4661
# 4 -5.2359 -5.6942 13.6979 31.2757 3.5960 -6.1925
# 5 6.6281 14.1286 1.2681 3.5960 33.8842 -0.9692
# 6 13.5957 -7.8145 -9.4661 -6.1925 -0.9692 45.9261
#
#
#
# Elastic Compliance Matrix: (Units=1/GPa)
#
#
# Indices 1 2 3 4 5 6 
#
# 1 0.009645 -0.001789 -0.000590 0.001073 -0.001323 -0.003164
# 2 -0.001789 0.007336 -0.002239 0.002666 -0.002862 0.001615
# 3 -0.000590 -0.002239 0.011695 -0.005475 0.001235 0.001492
# 4 0.001073 0.002666 -0.005475 0.036350 -0.004865 0.003806
# 5 -0.001323 -0.002862 0.001235 -0.004865 0.031439 0.000167
# 6 -0.003164 0.001615 0.001492 0.003806 0.000167 0.023810
#
#
# Mechanical properties :
#
#
# Convention : Reuss Voigt Hill
#
# Bulk Modulus (GPa) = 51.43895 57.17084 54.30490
# Shear Modulus (GPa) = 36.76745 42.80760 39.78753
#
# Velocity S-wave (km/s) = 3.80877 4.10973 3.96211
# Velocity P-wave (km/s) = 6.29585 6.71392 6.50824
#
# Compressibility (1/GPa) = 0.01944052
#
# Stress axis : x y z
#
# Youngs Moduli (GPa) = 103.68159 136.31498 85.50791
#
# Poissons Ratio (x) = 0.24381 0.05046
# Poissons Ratio (y) = 0.18544 0.19144
# Poissons Ratio (z) = 0.06119 0.30519
#
# Static dielectric constant tensor:
#      x y z
#    x 2.078730 0.029220 -0.058610 
#    y 0.029220 2.083120 0.031160 
#    z -0.058610 0.031160 1.994110 
# 
# From -- ./inp_files/624190.got.cif
#   From: 2010.05.17/outbox.cif.g08.bks.cpg/sg2_313_cif.got.tgz:624190.got - 2010.06.03 11:33:40.
