data_PCOD9051362
_publ_section_title
;
Structure prediction by ZEFSAII (Michael W. Deem and Ramdas Pophale) SiO2 
 PCOD9051362
Probable space group: P -1
;
_chemical_formula_sum "Si O2"
_cell_formula_units_Z 10
_cell_length_a 6.300036
_cell_length_b 10.040030
_cell_length_c 12.325235
_cell_angle_alpha 35.981740
_cell_angle_beta 57.656466
_cell_angle_gamma 64.729087
_cell_volume 386.947366
_symmetry_space_group_name_H-M "P -1"
_symmetry_group_IT_number 2
_symmetry_cell_setting 'triclinic'
loop_
_space_group_symop_operation_xyz
x,y,z
-x,-y,-z
loop_
_atom_site_type_symbol
_atom_site_label
_atom_site_fract_x
_atom_site_fract_y
_atom_site_fract_z
Si Si1 0.191358 0.339778 0.250740
Si Si2 0.137020 0.282965 0.660586
Si Si3 0.235696 0.131420 0.979467
Si Si4 0.326393 0.517076 0.876026
Si Si5 0.323571 0.848408 0.484461
O O1 0.374454 0.476430 0.188590
O O2 0.327665 0.116761 0.312359
O O3 0.934163 0.248011 0.434068
O O4 0.184241 0.488843 0.046141
O O5 0.424011 0.259573 0.556573
O O6 0.000000 0.500000 0.500000
O O7 0.169711 0.255417 0.801237
O O8 0.978676 0.058422 0.818167
O O9 0.268774 0.319716 0.937930
O O10 0.500000 0.000000 0.000000
O O11 0.280486 0.761072 0.675884
#
# Coordination Sequence:
#
# PCOD9051362 Si02
#       5
#     2   2   2   2   2
#     4  10  25  46  68 105 144 185 239 296 358 423
#     4  11  27  49  74 107 146 190 242 301 365 430
#     4  11  26  48  74 106 144 192 246 300 359 428
#     4  11  24  43  71 104 143 184 234 300 361 424
#     4  11  24  44  72 100 140 190 238 294 356 429
#
# _framework density 25.843309000000001
#
# number of rings (size 3 to 8) (size 9 to 14) (size 15 to 20)
#    0.000    1.200    0.000    3.600    0.000   20.800 
#    0.000    1.000    0.000    0.000    0.000    0.000 
#    0.000    0.000    0.000    0.000    0.000    0.000 
#
# Total GULP energy -56016.531028 kJ/mol
# GULP energy per Si atom -5601.653103 kJ/mol
# Density = 2.578449 g / cm^3
# Si number density = 25.843309 Si / 1000 Ang^3
#
#
#
# Elastic Constant Matrix: (Units=GPa)
#
#
# Indices 1 2 3 4 5 6 
#
# 1 186.8701 105.0584 77.6877 -6.4562 -21.6152 4.1018
# 2 105.0584 114.1852 58.8377 -22.1835 -16.9559 1.1996
# 3 77.6877 58.8377 141.7997 -15.6125 -6.9065 7.4821
# 4 -6.4562 -22.1835 -15.6125 29.9657 -8.5663 -3.2104
# 5 -21.6152 -16.9559 -6.9065 -8.5663 71.8251 -2.6628
# 6 4.1018 1.1996 7.4821 -3.2104 -2.6628 68.3551
#
#
#
# Elastic Compliance Matrix: (Units=1/GPa)
#
#
# Indices 1 2 3 4 5 6 
#
# 1 0.013081 -0.011999 -0.003014 -0.007738 -0.000131 -0.000613
# 2 -0.011999 0.024276 -0.001643 0.015790 0.003896 0.001367
# 3 -0.003014 -0.001643 0.009769 0.003146 -0.000007 -0.000712
# 4 -0.007738 0.015790 0.003146 0.047414 0.007444 0.002360
# 5 -0.000131 0.003896 -0.000007 0.007444 0.015723 0.000902
# 6 -0.000613 0.001367 -0.000712 0.002360 0.000902 0.014866
#
#
# Mechanical properties :
#
#
# Convention : Reuss Voigt Hill
#
# Bulk Modulus (GPa) = 72.38919 102.89142 87.64031
# Shear Modulus (GPa) = 30.66645 47.44725 39.05685
#
# Velocity S-wave (km/s) = 3.44849 4.28946 3.89175
# Velocity P-wave (km/s) = 6.62780 8.02699 7.36072
#
# Compressibility (1/GPa) = 0.01381422
#
# Stress axis : x y z
#
# Youngs Moduli (GPa) = 76.44761 41.19341 102.36663
#
# Poissons Ratio (x) = 0.49426 0.30853
# Poissons Ratio (y) = 0.91726 0.16819
# Poissons Ratio (z) = 0.23041 0.06768
#
# Static dielectric constant tensor:
#      x y z
#    x 2.254190 -0.012470 -0.019050 
#    y -0.012470 1.985330 0.032380 
#    z -0.019050 0.032380 2.007460 
# 
# From -- ./inp_files/362539.got.cif
#   From: 2010.05.17/outbox.cif.g08.bks.cpg/sg2_182_cif.got.tgz:362539.got - 2010.06.03 11:33:40.
