data_PCOD9051740
_publ_section_title
;
Structure prediction by ZEFSAII (Michael W. Deem and Ramdas Pophale) SiO2 
 PCOD9051740
Probable space group: P -1
;
_chemical_formula_sum "Si O2"
_cell_formula_units_Z 15
_cell_length_a 10.114384
_cell_length_b 6.761356
_cell_length_c 20.261731
_cell_angle_alpha 40.970411
_cell_angle_beta 40.680143
_cell_angle_gamma 48.813661
_cell_volume 580.117812
_symmetry_space_group_name_H-M "P -1"
_symmetry_group_IT_number 2
_symmetry_cell_setting 'triclinic'
loop_
_space_group_symop_operation_xyz
x,y,z
-x,-y,-z
loop_
_atom_site_type_symbol
_atom_site_label
_atom_site_fract_x
_atom_site_fract_y
_atom_site_fract_z
Si Si1 0.000000 0.000000 0.500000
Si Si2 0.607440 0.166606 0.707468
Si Si3 0.270146 0.112866 0.631992
Si Si4 0.734452 0.778601 0.542678
Si Si5 0.178768 0.650658 0.927782
Si Si6 0.041307 0.242222 0.181993
Si Si7 0.554817 0.165192 0.869819
Si Si8 0.195650 0.349299 0.731856
O O1 0.114616 0.150216 0.477365
O O2 0.788082 0.007031 0.630015
O O3 0.683605 0.443060 0.646794
O O4 0.523247 0.025971 0.842634
O O5 0.413890 0.312460 0.696663
O O6 0.515228 0.017488 0.569136
O O7 0.164112 0.821978 0.760248
O O8 0.198551 0.197907 0.564320
O O9 0.204103 0.382930 0.641399
O O10 0.406678 0.497614 0.852800
O O11 0.137515 0.017918 0.850890
O O12 0.152729 0.507977 0.045808
O O13 0.000000 0.500000 0.000000
O O14 0.963002 0.365653 0.251466
O O15 0.197658 0.919732 0.196675
O O16 0.500000 0.000000 0.000000
#
# Coordination Sequence:
#
# PCOD9051740 Si02
#       8
#     1   2   2   2   2   2   2   2
#     4  12  26  44  72 106 142 198 250 308 384 436
#     4  12  25  47  74 107 151 198 258 309 378 456
#     4  11  23  44  72 106 151 195 255 315 373 448
#     4  11  25  45  73 104 147 200 252 316 373 459
#     4  11  22  45  76 102 148 203 248 305 380 450
#     4  11  23  45  71 110 148 192 257 314 372 441
#     4  10  25  47  74 106 153 195 247 319 375 439
#     4  12  24  44  78 109 146 205 254 307 379 461
#
# _framework density 25.856818000000001
#
# number of rings (size 3 to 8) (size 9 to 14) (size 15 to 20)
#    0.000    0.800    4.000    3.200    0.000    2.667 
#    2.400    2.000    0.000    0.000    0.000    0.000 
#    0.000    0.000    0.000    0.000    0.000    0.000 
#
# Total GULP energy -83539.599096 kJ/mol
# GULP energy per Si atom -5569.306606 kJ/mol
# Density = 2.579797 g / cm^3
# Si number density = 25.856818 Si / 1000 Ang^3
#
#
#
# Elastic Constant Matrix: (Units=GPa)
#
#
# Indices 1 2 3 4 5 6 
#
# 1 153.8492 42.5493 44.9906 16.7011 0.3389 32.4316
# 2 42.5493 104.6998 46.4010 36.6908 -0.1643 9.9577
# 3 44.9906 46.4010 111.8385 30.1873 9.9048 11.6055
# 4 16.7011 36.6908 30.1873 70.9128 8.9528 4.8705
# 5 0.3389 -0.1643 9.9048 8.9528 43.8787 8.1262
# 6 32.4316 9.9577 11.6055 4.8705 8.1262 34.1247
#
#
#
# Elastic Compliance Matrix: (Units=1/GPa)
#
#
# Indices 1 2 3 4 5 6 
#
# 1 0.009425 -0.002100 -0.002296 0.000157 0.001894 -0.008037
# 2 -0.002100 0.013961 -0.003611 -0.005417 0.002095 -0.000575
# 3 -0.002296 -0.003611 0.012245 -0.002518 -0.002240 -0.000036
# 4 0.000157 -0.005417 -0.002518 0.018322 -0.003275 0.000452
# 5 0.001894 0.002095 -0.002240 -0.003275 0.025291 -0.007205
# 6 -0.008037 -0.000575 -0.000036 0.000452 -0.007205 0.038774
#
#
# Mechanical properties :
#
#
# Convention : Reuss Voigt Hill
#
# Bulk Modulus (GPa) = 50.97931 70.91880 60.94906
# Shear Modulus (GPa) = 35.56836 45.54635 40.55736
#
# Velocity S-wave (km/s) = 3.71292 4.20156 3.96477
# Velocity P-wave (km/s) = 6.17574 7.14314 6.67699
#
# Compressibility (1/GPa) = 0.01961580
#
# Stress axis : x y z
#
# Youngs Moduli (GPa) = 106.09706 71.62572 81.66388
#
# Poissons Ratio (x) = 0.15045 0.18753
# Poissons Ratio (y) = 0.22285 0.29491
# Poissons Ratio (z) = 0.24364 0.25866
#
# Static dielectric constant tensor:
#      x y z
#    x 2.096530 -0.110650 0.198050 
#    y -0.110650 2.135550 -0.226530 
#    z 0.198050 -0.226530 2.685660 
# 
# From -- ./inp_files/553217.got.cif
#   From: 2010.05.17/outbox.cif.g08.bks.cpg/sg2_277_cif.got.tgz:553217.got - 2010.06.03 11:33:40.
