data_PCOD9051769
_publ_section_title
;
Structure prediction by ZEFSAII (Michael W. Deem and Ramdas Pophale) SiO2 
 PCOD9051769
Probable space group: P -1
;
_chemical_formula_sum "Si O2"
_cell_formula_units_Z 16
_cell_length_a 12.936300
_cell_length_b 11.111006
_cell_length_c 5.587331
_cell_angle_alpha 77.938043
_cell_angle_beta 62.622536
_cell_angle_gamma 59.928548
_cell_volume 616.917705
_symmetry_space_group_name_H-M "P -1"
_symmetry_group_IT_number 2
_symmetry_cell_setting 'triclinic'
loop_
_space_group_symop_operation_xyz
x,y,z
-x,-y,-z
loop_
_atom_site_type_symbol
_atom_site_label
_atom_site_fract_x
_atom_site_fract_y
_atom_site_fract_z
Si Si1 0.747160 0.869213 0.023813
Si Si2 0.293107 0.810972 0.587310
Si Si3 0.933395 0.917040 0.481440
Si Si4 0.793786 0.415450 0.163635
Si Si5 0.418966 0.552806 0.309777
Si Si6 0.269771 0.347806 0.218858
Si Si7 0.063332 0.310587 0.729730
Si Si8 0.522646 0.123429 0.302278
O O1 0.872134 0.873327 0.781069
O O2 0.719744 0.758168 0.960890
O O3 0.800635 0.808004 0.251729
O O4 0.630611 0.022987 0.041015
O O5 0.225791 0.720918 0.804065
O O6 0.404944 0.818592 0.622016
O O7 0.180462 0.965027 0.603630
O O8 0.358795 0.720390 0.317051
O O9 0.995917 0.774111 0.325896
O O10 0.000000 0.000000 0.500000
O O11 0.728337 0.524610 0.974341
O O12 0.709331 0.469605 0.478953
O O13 0.944288 0.390212 0.010286
O O14 0.500000 0.500000 0.500000
O O15 0.500000 0.500000 0.000000
O O16 0.128729 0.389204 0.477135
O O17 0.395777 0.252460 0.282734
O O18 0.500000 0.000000 0.500000
#
# Coordination Sequence:
#
# PCOD9051769 Si02
#       8
#     2   2   2   2   2   2   2   2
#     4  11  24  43  76 109 155 213 281 335 415 484
#     4  10  25  47  75 121 156 212 272 342 427 490
#     4  11  24  42  74 114 156 207 264 346 413 495
#     4  10  26  48  79 116 161 218 270 340 422 504
#     4  10  26  52  76 115 166 213 277 338 423 503
#     4  11  25  47  75 117 164 226 277 337 414 505
#     4  11  23  49  75 117 164 209 280 334 415 494
#     4  12  23  47  80 113 164 216 277 351 408 495
#
# _framework density 25.935390000000002
#
# number of rings (size 3 to 8) (size 9 to 14) (size 15 to 20)
#    0.750    0.500    2.500    2.250    1.750    7.000 
#    4.500    0.000    0.000    0.000    0.000    0.875 
#    0.000    0.000    0.000    0.000    0.000    0.000 
#
# Total GULP energy -89364.191630 kJ/mol
# GULP energy per Si atom -5585.261977 kJ/mol
# Density = 2.587636 g / cm^3
# Si number density = 25.935390 Si / 1000 Ang^3
#
#
#
# Elastic Constant Matrix: (Units=GPa)
#
#
# Indices 1 2 3 4 5 6 
#
# 1 116.7509 -1.4530 35.4120 -5.3462 -6.6472 -2.9231
# 2 -1.4530 37.7974 43.1843 -28.1581 -9.0882 -18.8398
# 3 35.4120 43.1843 161.1602 -1.5884 -26.2846 2.3295
# 4 -5.3462 -28.1581 -1.5884 41.5979 -9.2306 -5.4391
# 5 -6.6472 -9.0882 -26.2846 -9.2306 14.8768 2.3119
# 6 -2.9231 -18.8398 2.3295 -5.4391 2.3119 47.8236
#
#
#
# Elastic Compliance Matrix: (Units=1/GPa)
#
#
# Indices 1 2 3 4 5 6 
#
# 1 0.007235 -0.012307 0.000112 -0.010200 -0.009623 -0.005106
# 2 -0.012307 -0.073558 0.010800 -0.071069 -0.070018 -0.034954
# 3 0.000112 0.010800 0.008213 0.014761 0.029680 0.004105
# 4 -0.010200 -0.071069 0.014761 -0.037950 -0.040513 -0.031697
# 5 -0.009623 -0.070018 0.029680 -0.040513 0.053165 -0.036795
# 6 -0.005106 -0.034954 0.004105 -0.031697 -0.036795 0.004802
#
#
# Mechanical properties :
#
#
# Convention : Reuss Voigt Hill
#
# Bulk Modulus (GPa) = -16.42026 52.22169 17.90071
# Shear Modulus (GPa) = -89.92654 36.76402 -26.58126
#
# Velocity S-wave (km/s) = -5.89479 3.76909 -3.20488
# Velocity P-wave (km/s) = 7.25785 6.25463 2.60346
#
# Compressibility (1/GPa) = -0.06090037
#
# Stress axis : x y z
#
# Youngs Moduli (GPa) = 138.20963 -13.59468 121.75274
#
# Poissons Ratio (x) = -0.16731 -0.01361
# Poissons Ratio (y) = 1.70097 -1.31492
# Poissons Ratio (z) = -0.01544 0.14682
#
# Static dielectric constant tensor:
#      x y z
#    x 2.030900 -0.351900 -0.296430 
#    y -0.351900 1.143700 -0.738740 
#    z -0.296430 -0.738740 1.503820 
# 
# From -- ./inp_files/76031.got.cif
#   From: 2010.05.17/outbox.cif.g08.bks.cpg/sg2_39_cif.got.tgz:76031.got - 2010.06.03 11:33:40.
