data_PCOD9051105
_publ_section_title
;
Structure prediction by ZEFSAII (Michael W. Deem and Ramdas Pophale) SiO2 
 PCOD9051105
Probable space group: P -1
;
_chemical_formula_sum "Si O2"
_cell_formula_units_Z 14
_cell_length_a 5.543326
_cell_length_b 11.559069
_cell_length_c 14.858049
_cell_angle_alpha 54.539661
_cell_angle_beta 92.438668
_cell_angle_gamma 125.871574
_cell_volume 560.973468
_symmetry_space_group_name_H-M "P -1"
_symmetry_group_IT_number 2
_symmetry_cell_setting 'triclinic'
loop_
_space_group_symop_operation_xyz
x,y,z
-x,-y,-z
loop_
_atom_site_type_symbol
_atom_site_label
_atom_site_fract_x
_atom_site_fract_y
_atom_site_fract_z
Si Si1 0.161528 0.878996 0.602751
Si Si2 0.612867 0.641320 0.569004
Si Si3 0.513690 0.719981 0.874347
Si Si4 0.660293 0.369233 0.610079
Si Si5 0.319594 0.567114 0.130844
Si Si6 0.185591 0.447319 0.814226
Si Si7 0.717043 0.045779 0.229734
O O1 0.276507 0.991681 0.647262
O O2 0.904576 0.829819 0.546041
O O3 0.953613 0.656302 0.735694
O O4 0.500000 0.000000 0.500000
O O5 0.671441 0.495341 0.627739
O O6 0.598194 0.681193 0.447894
O O7 0.293272 0.537476 0.674907
O O8 0.396924 0.614379 0.822205
O O9 0.428422 0.853058 0.821685
O O10 0.900193 0.833440 0.844969
O O11 0.317314 0.567553 0.022425
O O12 0.000000 0.500000 0.500000
O O13 0.531622 0.163325 0.729368
O O14 0.679207 0.657129 0.126110
O O15 0.190578 0.665896 0.118598
#
# Coordination Sequence:
#
# PCOD9051105 Si02
#       7
#     2   2   2   2   2   2   2
#     4  11  24  42  70 109 137 179 229 296 350 416
#     4  10  25  45  69  99 142 189 234 289 361 421
#     4  12  23  44  67 109 139 187 232 289 355 412
#     4  11  27  46  69  98 142 197 237 289 357 428
#     4  11  23  40  68 104 146 182 225 291 354 420
#     4  11  21  40  68 103 133 185 230 287 346 425
#     4  12  27  41  74 104 143 180 237 297 344 425
#
# _framework density 24.956616
#
# number of rings (size 3 to 8) (size 9 to 14) (size 15 to 20)
#    0.000    0.857    4.286    2.571   12.000    0.571 
#    0.000    0.000    0.000   12.000    0.000    0.000 
#    0.000    0.000    0.000    0.000    0.000    0.000 
#
# Total GULP energy -78241.562359 kJ/mol
# GULP energy per Si atom -5588.683026 kJ/mol
# Density = 2.489981 g / cm^3
# Si number density = 24.956616 Si / 1000 Ang^3
#
#
#
# Elastic Constant Matrix: (Units=GPa)
#
#
# Indices 1 2 3 4 5 6 
#
# 1 180.2865 25.0148 26.7870 -12.4667 -8.8680 -26.7806
# 2 25.0148 110.4679 30.2312 -5.0521 -0.8381 -29.6111
# 3 26.7870 30.2312 84.3983 7.8898 -16.1267 -19.0754
# 4 -12.4667 -5.0521 7.8898 32.1522 -7.1000 -0.6321
# 5 -8.8680 -0.8381 -16.1267 -7.1000 46.9767 6.4869
# 6 -26.7806 -29.6111 -19.0754 -0.6321 6.4869 34.9943
#
#
#
# Elastic Compliance Matrix: (Units=1/GPa)
#
#
# Indices 1 2 3 4 5 6 
#
# 1 0.006630 0.000210 -0.001343 0.003166 0.000658 0.004455
# 2 0.000210 0.012448 -0.002951 0.002580 -0.001665 0.009441
# 3 -0.001343 -0.002951 0.015337 -0.003824 0.003820 0.004058
# 4 0.003166 0.002580 -0.003824 0.034657 0.004243 0.002361
# 5 0.000658 -0.001665 0.003820 0.004243 0.023770 -0.003153
# 6 0.004455 0.009441 0.004058 0.002361 -0.003153 0.042813
#
#
# Mechanical properties :
#
#
# Convention : Reuss Voigt Hill
#
# Bulk Modulus (GPa) = 38.09964 59.91316 49.00640
# Shear Modulus (GPa) = 32.77144 42.36595 37.56870
#
# Velocity S-wave (km/s) = 3.62765 4.12464 3.88411
# Velocity P-wave (km/s) = 5.73114 6.83686 6.30827
#
# Compressibility (1/GPa) = 0.02624696
#
# Stress axis : x y z
#
# Youngs Moduli (GPa) = 150.82568 80.33134 65.20362
#
# Poissons Ratio (x) = -0.01688 0.08757
# Poissons Ratio (y) = -0.03169 0.19243
# Poissons Ratio (z) = 0.20256 0.23708
#
# Static dielectric constant tensor:
#      x y z
#    x 2.129710 0.010400 0.120230 
#    y 0.010400 1.942790 -0.007040 
#    z 0.120230 -0.007040 2.030100 
# 
# From -- ./inp_files/288765.got.cif
#   From: 2010.05.17/outbox.cif.g08.bks.cpg/sg2_145_cif.got.tgz:288765.got - 2010.06.03 11:33:40.
