data_PCOD9051045
_publ_section_title
;
Structure prediction by ZEFSAII (Michael W. Deem and Ramdas Pophale) SiO2 
 PCOD9051045
Probable space group: P -1
;
_chemical_formula_sum "Si O2"
_cell_formula_units_Z 14
_cell_length_a 9.251440
_cell_length_b 8.797487
_cell_length_c 19.822261
_cell_angle_alpha 131.092272
_cell_angle_beta 47.073413
_cell_angle_gamma 147.553120
_cell_volume 619.652928
_symmetry_space_group_name_H-M "P -1"
_symmetry_group_IT_number 2
_symmetry_cell_setting 'triclinic'
loop_
_space_group_symop_operation_xyz
x,y,z
-x,-y,-z
loop_
_atom_site_type_symbol
_atom_site_label
_atom_site_fract_x
_atom_site_fract_y
_atom_site_fract_z
Si Si1 0.402338 0.641772 0.044556
Si Si2 0.753956 0.258020 0.156667
Si Si3 0.533302 0.731839 0.244395
Si Si4 0.721167 0.432436 0.081172
Si Si5 0.209060 0.332005 0.507260
Si Si6 0.678676 0.336671 0.558840
Si Si7 0.942771 0.402776 0.282918
O O1 0.062162 0.393056 0.079674
O O2 0.534187 0.913714 0.127502
O O3 0.500000 0.500000 0.000000
O O4 0.480517 0.753029 0.973952
O O5 0.641100 0.315365 0.149045
O O6 0.828387 0.404809 0.248482
O O7 0.727811 0.680046 0.152365
O O8 0.419714 0.655588 0.334919
O O9 0.255870 0.536709 0.227604
O O10 0.720891 0.066689 0.272865
O O11 0.000000 0.500000 0.000000
O O12 0.500000 0.500000 0.500000
O O13 0.309715 0.466288 0.439282
O O14 0.067184 0.428959 0.610397
O O15 0.000000 0.000000 0.500000
O O16 0.000000 0.500000 0.500000
O O17 0.500000 0.000000 0.500000
#
# Coordination Sequence:
#
# PCOD9051045 Si02
#       7
#     2   2   2   2   2   2   2
#     4  11  22  42  67  92 128 177 226 278 347 413
#     4  11  24  41  64  96 134 171 221 290 343 408
#     4  12  25  46  73 100 141 192 238 290 344 431
#     4  10  25  45  68 104 139 180 237 296 353 408
#     4  12  26  44  72 105 148 182 231 300 360 420
#     4  12  23  48  72 105 141 189 240 289 353 433
#     4  12  25  46  68 105 140 186 240 279 354 435
#
# _framework density 22.593294
#
# number of rings (size 3 to 8) (size 9 to 14) (size 15 to 20)
#    0.000    0.571    2.857    5.143    2.000    5.714 
#    0.000    0.000    0.000    0.000    0.000    0.000 
#    0.000    0.000    0.000    0.000    0.000    0.000 
#
# Total GULP energy -78155.573047 kJ/mol
# GULP energy per Si atom -5582.540932 kJ/mol
# Density = 2.254187 g / cm^3
# Si number density = 22.593294 Si / 1000 Ang^3
#
#
#
# Elastic Constant Matrix: (Units=GPa)
#
#
# Indices 1 2 3 4 5 6 
#
# 1 129.6662 53.8866 17.8926 -6.2036 20.2515 -3.7960
# 2 53.8866 136.4627 11.3490 -1.8830 7.3356 -2.2141
# 3 17.8926 11.3490 88.3729 -0.5207 10.7688 -2.9215
# 4 -6.2036 -1.8830 -0.5207 27.6798 -0.3897 0.5607
# 5 20.2515 7.3356 10.7688 -0.3897 52.3839 -8.2570
# 6 -3.7960 -2.2141 -2.9215 0.5607 -8.2570 33.2843
#
#
#
# Elastic Compliance Matrix: (Units=1/GPa)
#
#
# Indices 1 2 3 4 5 6 
#
# 1 0.009961 -0.003644 -0.001161 0.001919 -0.003089 -0.000007
# 2 -0.003644 0.008786 -0.000421 -0.000227 0.000296 0.000209
# 3 -0.001161 -0.000421 0.011845 -0.000101 -0.001862 0.000419
# 4 0.001919 -0.000227 -0.000101 0.036544 -0.000504 -0.000546
# 5 -0.003089 0.000296 -0.001862 -0.000504 0.021381 0.004817
# 6 -0.000007 0.000209 0.000419 -0.000546 0.004817 0.031298
#
#
# Mechanical properties :
#
#
# Convention : Reuss Voigt Hill
#
# Bulk Modulus (GPa) = 49.65505 57.86202 53.75853
# Shear Modulus (GPa) = 36.50121 40.76118 38.63120
#
# Velocity S-wave (km/s) = 4.02378 4.25211 4.13952
# Velocity P-wave (km/s) = 6.60404 7.05501 6.83324
#
# Compressibility (1/GPa) = 0.02013894
#
# Stress axis : x y z
#
# Youngs Moduli (GPa) = 100.39258 113.81152 84.42371
#
# Poissons Ratio (x) = 0.41477 0.09804
# Poissons Ratio (y) = 0.36587 0.03555
# Poissons Ratio (z) = 0.11658 0.04792
#
# Static dielectric constant tensor:
#      x y z
#    x 2.137780 -0.312760 0.272680 
#    y -0.312760 2.104870 -0.253670 
#    z 0.272680 -0.253670 1.994310 
# 
# From -- ./inp_files/588107.got.cif
#   From: 2010.05.17/outbox.cif.g08.bks.cpg/sg2_295_cif.got.tgz:588107.got - 2010.06.03 11:33:40.
