data_PCOD9051328
_publ_section_title
;
Structure prediction by ZEFSAII (Michael W. Deem and Ramdas Pophale) SiO2 
 PCOD9051328
Probable space group: P -1
;
_chemical_formula_sum "Si O2"
_cell_formula_units_Z 14
_cell_length_a 8.926833
_cell_length_b 9.108523
_cell_length_c 12.121110
_cell_angle_alpha 61.251639
_cell_angle_beta 114.779045
_cell_angle_gamma 67.890619
_cell_volume 539.470597
_symmetry_space_group_name_H-M "P -1"
_symmetry_group_IT_number 2
_symmetry_cell_setting 'triclinic'
loop_
_space_group_symop_operation_xyz
x,y,z
-x,-y,-z
loop_
_atom_site_type_symbol
_atom_site_label
_atom_site_fract_x
_atom_site_fract_y
_atom_site_fract_z
Si Si1 0.691506 0.003616 0.587010
Si Si2 0.535902 0.180315 0.719928
Si Si3 0.503172 0.363190 0.203412
Si Si4 0.868093 0.377663 0.281021
Si Si5 0.214199 0.706091 0.165162
Si Si6 0.754607 0.911765 0.315784
Si Si7 0.858219 0.770739 0.154046
O O1 0.622642 0.203604 0.410702
O O2 0.500000 0.000000 0.500000
O O3 0.661816 0.070849 0.680339
O O4 0.954307 0.752564 0.721412
O O5 0.555127 0.358387 0.698805
O O6 0.293903 0.249389 0.616201
O O7 0.679397 0.974613 0.933455
O O8 0.255060 0.611177 0.088260
O O9 0.651479 0.410646 0.187318
O O10 0.531845 0.188227 0.190926
O O11 0.026151 0.197761 0.498868
O O12 0.804256 0.614809 0.202363
O O13 0.123666 0.622643 0.245048
O O14 0.000000 0.000000 0.000000
O O15 0.811483 0.890636 0.213560
#
# Coordination Sequence:
#
# PCOD9051328 Si02
#       7
#     2   2   2   2   2   2   2
#     4  11  21  42  72 105 138 175 232 287 334 409
#     4  11  24  44  69  97 142 177 228 281 347 398
#     4  11  24  44  73 102 135 182 233 281 344 400
#     4  11  24  43  71 104 141 181 231 276 344 409
#     4  10  25  46  66  99 138 178 230 281 346 406
#     4  11  23  44  71 103 140 178 230 281 337 416
#     4  11  25  44  67  99 142 184 225 281 344 404
#
# _framework density 25.951369
#
# number of rings (size 3 to 8) (size 9 to 14) (size 15 to 20)
#    0.000    1.143    2.857    4.286    4.000    2.286 
#    2.571    3.571    0.000    0.000    0.000    0.000 
#    0.000    0.000    0.000    0.000    0.000    0.000 
#
# Total GULP energy -78468.414768 kJ/mol
# GULP energy per Si atom -5604.886769 kJ/mol
# Density = 2.589230 g / cm^3
# Si number density = 25.951369 Si / 1000 Ang^3
#
#
#
# Elastic Constant Matrix: (Units=GPa)
#
#
# Indices 1 2 3 4 5 6 
#
# 1 160.5302 54.7186 11.0647 5.1547 4.2838 4.5134
# 2 54.7186 188.2299 41.0626 20.6293 -6.1385 -18.3012
# 3 11.0647 41.0626 72.5137 21.2194 -12.7050 -6.2733
# 4 5.1547 20.6293 21.2194 44.8065 -0.1234 -6.7415
# 5 4.2838 -6.1385 -12.7050 -0.1234 33.5695 1.3394
# 6 4.5134 -18.3012 -6.2733 -6.7415 1.3394 54.1813
#
#
#
# Elastic Compliance Matrix: (Units=1/GPa)
#
#
# Indices 1 2 3 4 5 6 
#
# 1 0.007058 -0.002186 -0.000213 0.000095 -0.001328 -0.001306
# 2 -0.002186 0.006945 -0.003012 -0.001215 0.000324 0.002020
# 3 -0.000213 -0.003012 0.018887 -0.007501 0.006593 0.000091
# 4 0.000095 -0.001215 -0.007501 0.026729 -0.003059 0.002115
# 5 -0.001328 0.000324 0.006593 -0.003059 0.032510 -0.000201
# 6 -0.001306 0.002020 0.000091 0.002115 -0.000201 0.019526
#
#
# Mechanical properties :
#
#
# Convention : Reuss Voigt Hill
#
# Bulk Modulus (GPa) = 45.31424 70.55174 57.93299
# Shear Modulus (GPa) = 38.51067 47.47332 42.99199
#
# Velocity S-wave (km/s) = 3.85639 4.28169 4.07460
# Velocity P-wave (km/s) = 6.10968 7.18951 6.67148
#
# Compressibility (1/GPa) = 0.02206812
#
# Stress axis : x y z
#
# Youngs Moduli (GPa) = 141.67624 143.97846 52.94680
#
# Poissons Ratio (x) = 0.31477 0.01126
# Poissons Ratio (y) = 0.30974 0.15950
# Poissons Ratio (z) = 0.03012 0.43373
#
# Static dielectric constant tensor:
#      x y z
#    x 2.077210 -0.022170 0.087180 
#    y -0.022170 2.052140 -0.045770 
#    z 0.087180 -0.045770 2.153750 
# 
# From -- ./inp_files/152048.got.cif
#   From: 2010.05.17/outbox.cif.g08.bks.cpg/sg2_77_cif.got.tgz:152048.got - 2010.06.03 11:33:40.
