data_PCOD9051175
_publ_section_title
;
Structure prediction by ZEFSAII (Michael W. Deem and Ramdas Pophale) SiO2 
 PCOD9051175
Probable space group: P -1
;
_chemical_formula_sum "Si O2"
_cell_formula_units_Z 14
_cell_length_a 13.647450
_cell_length_b 19.695832
_cell_length_c 26.860400
_cell_angle_alpha 17.776240
_cell_angle_beta 15.967318
_cell_angle_gamma 25.309053
_cell_volume 600.658376
_symmetry_space_group_name_H-M "P -1"
_symmetry_group_IT_number 2
_symmetry_cell_setting 'triclinic'
loop_
_space_group_symop_operation_xyz
x,y,z
-x,-y,-z
loop_
_atom_site_type_symbol
_atom_site_label
_atom_site_fract_x
_atom_site_fract_y
_atom_site_fract_z
Si Si1 0.884776 0.524274 0.982413
Si Si2 0.085970 0.424409 0.273515
Si Si3 0.084253 0.890507 0.924011
Si Si4 0.995059 0.881793 0.864984
Si Si5 0.834207 0.996387 0.529400
Si Si6 0.904554 0.373738 0.686684
Si Si7 0.175103 0.700245 0.403352
O O1 0.474426 0.565757 0.152829
O O2 0.931209 0.313121 0.072510
O O3 0.000000 0.500000 0.000000
O O4 0.102937 0.754316 0.696316
O O5 0.979568 0.186597 0.464785
O O6 0.027082 0.379507 0.391823
O O7 0.500000 0.500000 0.000000
O O8 0.894310 0.637492 0.202038
O O9 0.408466 0.922107 0.783364
O O10 0.222451 0.901132 0.791467
O O11 0.888342 0.108152 0.874058
O O12 0.015771 0.114377 0.662702
O O13 0.582623 0.818647 0.129618
O O14 0.000000 0.000000 0.500000
O O15 0.000000 0.500000 0.500000
O O16 0.183923 0.487371 0.511648
#
# Coordination Sequence:
#
# PCOD9051175 Si02
#       7
#     2   2   2   2   2   2   2
#     4  12  27  45  75 106 145 194 244 299 369 434
#     4  10  25  45  71 107 147 194 247 296 368 442
#     4  11  25  47  74 106 151 186 251 299 366 441
#     4  11  25  46  76 110 141 194 251 302 373 431
#     4  11  25  47  73 103 150 189 241 303 359 439
#     4  12  26  46  72 110 148 189 245 306 362 435
#     4  11  25  45  77 104 152 189 245 312 364 435
#
# _framework density 23.307756999999999
#
# number of rings (size 3 to 8) (size 9 to 14) (size 15 to 20)
#    0.000    0.857    1.429    4.286   12.000    2.857 
#    2.571    0.000    0.000    0.000    0.000    0.000 
#    0.000    0.000    0.000    0.000    0.000    0.000 
#
# Total GULP energy -78362.537233 kJ/mol
# GULP energy per Si atom -5597.324088 kJ/mol
# Density = 2.325471 g / cm^3
# Si number density = 23.307757 Si / 1000 Ang^3
#
#
#
# Elastic Constant Matrix: (Units=GPa)
#
#
# Indices 1 2 3 4 5 6 
#
# 1 175.4059 50.6166 27.9801 -21.0396 19.2526 16.0104
# 2 50.6166 155.2551 54.0476 -48.5276 10.7593 15.9447
# 3 27.9801 54.0476 75.1651 -17.7321 19.7568 7.8884
# 4 -21.0396 -48.5276 -17.7321 47.3233 -3.5209 -4.7251
# 5 19.2526 10.7593 19.7568 -3.5209 45.8225 -5.2752
# 6 16.0104 15.9447 7.8884 -4.7251 -5.2752 42.3008
#
#
#
# Elastic Compliance Matrix: (Units=1/GPa)
#
#
# Indices 1 2 3 4 5 6 
#
# 1 0.006753 -0.001317 -0.000421 0.001090 -0.002513 -0.002173
# 2 -0.001317 0.011997 -0.005957 0.009370 0.000822 -0.001764
# 3 -0.000421 -0.005957 0.019983 0.000435 -0.007258 -0.002178
# 4 0.001090 0.009370 0.000435 0.031290 -0.000510 -0.000594
# 5 -0.002513 0.000822 -0.007258 -0.000510 0.026378 0.005227
# 6 -0.002173 -0.001764 -0.002178 -0.000594 0.005227 0.026119
#
#
# Mechanical properties :
#
#
# Convention : Reuss Voigt Hill
#
# Bulk Modulus (GPa) = 42.83904 74.56831 58.70367
# Shear Modulus (GPa) = 34.31942 45.30143 39.81043
#
# Velocity S-wave (km/s) = 3.84141 4.41343 4.13732
# Velocity P-wave (km/s) = 6.17210 7.61798 6.93284
#
# Compressibility (1/GPa) = 0.02334320
#
# Stress axis : x y z
#
# Youngs Moduli (GPa) = 148.07812 83.35514 50.04344
#
# Poissons Ratio (x) = 0.10978 0.02107
# Poissons Ratio (y) = 0.19503 0.29809
# Poissons Ratio (z) = 0.06236 0.49651
#
# Static dielectric constant tensor:
#      x y z
#    x 1.891000 -0.019510 -0.060000 
#    y -0.019510 1.904040 0.043390 
#    z -0.060000 0.043390 1.938880 
# 
# From -- ./inp_files/610655.got.cif
#   From: 2010.05.17/outbox.cif.g08.bks.cpg/sg2_306_cif.got.tgz:610655.got - 2010.06.03 11:33:40.
