data_PCOD9051457
_publ_section_title
;
Structure prediction by ZEFSAII (Michael W. Deem and Ramdas Pophale) SiO2 
 PCOD9051457
Probable space group: P -1
;
_chemical_formula_sum "Si O2"
_cell_formula_units_Z 11
_cell_length_a 6.119558
_cell_length_b 7.982736
_cell_length_c 9.547725
_cell_angle_alpha 89.151311
_cell_angle_beta 75.079770
_cell_angle_gamma 89.436558
_cell_volume 450.630922
_symmetry_space_group_name_H-M "P -1"
_symmetry_group_IT_number 2
_symmetry_cell_setting 'triclinic'
loop_
_space_group_symop_operation_xyz
x,y,z
-x,-y,-z
loop_
_atom_site_type_symbol
_atom_site_label
_atom_site_fract_x
_atom_site_fract_y
_atom_site_fract_z
Si Si1 0.539761 0.069377 0.838758
Si Si2 0.863645 0.381922 0.222775
Si Si3 0.500000 0.500000 0.500000
Si Si4 0.585727 0.829104 0.413704
Si Si5 0.121721 0.148252 0.394603
Si Si6 0.723899 0.385496 0.942005
O O1 0.346926 0.122116 0.755702
O O2 0.674702 0.237837 0.845508
O O3 0.685784 0.934406 0.732129
O O4 0.500000 0.000000 0.000000
O O5 0.655294 0.470858 0.332786
O O6 0.967487 0.245817 0.311320
O O7 0.067387 0.507163 0.149968
O O8 0.783939 0.312831 0.086748
O O9 0.405780 0.681463 0.446672
O O10 0.759139 0.745538 0.500823
O O11 0.500000 0.000000 0.500000
O O12 0.000000 0.000000 0.500000
O O13 0.500000 0.500000 0.000000
#
# Coordination Sequence:
#
# PCOD9051457 Si02
#       6
#     2   2   1   2   2   2
#     4  11  25  45  77 104 146 201 243 311 382 445
#     4  11  27  47  75 112 145 201 248 316 367 458
#     4  12  26  46  80 104 152 198 252 308 380 444
#     4  10  25  46  71 109 151 193 250 311 376 447
#     4  11  26  46  72 106 152 192 252 313 374 449
#     4  11  26  49  75 108 152 190 256 308 381 447
#
# _framework density 24.410219000000001
#
# number of rings (size 3 to 8) (size 9 to 14) (size 15 to 20)
#    0.000    1.091    0.000    4.364   15.273    2.909 
#    0.000    0.000    0.000    0.000    0.000    0.000 
#    0.000    0.000    0.000    0.000    0.000    0.000 
#
# Total GULP energy -61257.090619 kJ/mol
# GULP energy per Si atom -5568.826420 kJ/mol
# Density = 2.435466 g / cm^3
# Si number density = 24.410219 Si / 1000 Ang^3
#
#
#
# Elastic Constant Matrix: (Units=GPa)
#
#
# Indices 1 2 3 4 5 6 
#
# 1 75.2112 5.9796 60.2742 -9.6873 30.3034 -17.4964
# 2 5.9796 72.8584 41.2332 -15.0502 24.8117 -23.3062
# 3 60.2742 41.2332 213.5921 -31.4458 34.6813 -8.7617
# 4 -9.6873 -15.0502 -31.4458 46.2718 -4.2228 10.1097
# 5 30.3034 24.8117 34.6813 -4.2228 63.2624 -8.4549
# 6 -17.4964 -23.3062 -8.7617 10.1097 -8.4549 32.0241
#
#
#
# Elastic Compliance Matrix: (Units=1/GPa)
#
#
# Indices 1 2 3 4 5 6 
#
# 1 0.026825 0.011363 -0.007345 -0.000660 -0.010884 0.018251
# 2 0.011363 0.026253 -0.005583 0.001716 -0.009804 0.020657
# 3 -0.007345 -0.005583 0.007978 0.003628 0.000659 -0.006864
# 4 -0.000660 0.001716 0.003628 0.025816 -0.001514 -0.006669
# 5 -0.010884 -0.009804 0.000659 -0.001514 0.023575 -0.006199
# 6 0.018251 0.020657 -0.006864 -0.006669 -0.006199 0.054822
#
#
# Mechanical properties :
#
#
# Convention : Reuss Voigt Hill
#
# Bulk Modulus (GPa) = 17.26298 64.07066 40.66682
# Shear Modulus (GPa) = 26.63744 45.25663 35.94703
#
# Velocity S-wave (km/s) = 3.30698 4.31049 3.84164
# Velocity P-wave (km/s) = 4.65498 7.14690 6.03105
#
# Compressibility (1/GPa) = 0.05792743
#
# Stress axis : x y z
#
# Youngs Moduli (GPa) = 37.27934 38.09049 125.34929
#
# Poissons Ratio (x) = -0.43284 0.92064
# Poissons Ratio (y) = -0.42362 0.69982
# Poissons Ratio (z) = 0.27380 0.21266
#
# Static dielectric constant tensor:
#      x y z
#    x 2.001580 0.061760 0.062950 
#    y 0.061760 2.042580 -0.005240 
#    z 0.062950 -0.005240 1.934130 
# 
# From -- ./inp_files/17132.got.cif
#   From: 2010.05.17/outbox.cif.g08.bks.cpg/sg2_9_cif.got.tgz:17132.got - 2010.06.03 11:33:40.
