data_PCOD9051028
_publ_section_title
;
Structure prediction by ZEFSAII (Michael W. Deem and Ramdas Pophale) SiO2 
 PCOD9051028
Probable space group: P -1
;
_chemical_formula_sum "Si O2"
_cell_formula_units_Z 12
_cell_length_a 5.878174
_cell_length_b 14.065567
_cell_length_c 8.007457
_cell_angle_alpha 128.583230
_cell_angle_beta 72.931898
_cell_angle_gamma 87.397746
_cell_volume 471.051223
_symmetry_space_group_name_H-M "P -1"
_symmetry_group_IT_number 2
_symmetry_cell_setting 'triclinic'
loop_
_space_group_symop_operation_xyz
x,y,z
-x,-y,-z
loop_
_atom_site_type_symbol
_atom_site_label
_atom_site_fract_x
_atom_site_fract_y
_atom_site_fract_z
Si Si1 0.083014 0.749743 0.417225
Si Si2 0.797250 0.610639 0.566695
Si Si3 0.813383 0.441555 0.079422
Si Si4 0.344723 0.017077 0.380989
Si Si5 0.306714 0.767056 0.970641
Si Si6 0.733897 0.093418 0.205440
O O1 0.863956 0.847778 0.462162
O O2 0.939669 0.700047 0.542150
O O3 0.245762 0.830459 0.549665
O O4 0.263012 0.632498 0.143218
O O5 0.690434 0.549569 0.362241
O O6 0.589102 0.673197 0.819448
O O7 0.000000 0.500000 0.500000
O O8 0.879288 0.315743 0.047927
O O9 0.000000 0.500000 0.000000
O O10 0.546273 0.013986 0.190245
O O11 0.500000 0.000000 0.500000
O O12 0.249715 0.895806 0.231606
O O13 0.323476 0.808278 0.823357
O O14 0.000000 0.000000 0.000000
#
# Coordination Sequence:
#
# PCOD9051028 Si02
#       6
#     2   2   2   2   2   2
#     4  11  24  47  68 106 147 184 234 294 360 425
#     4  11  24  46  71 101 141 190 244 292 344 420
#     4  10  25  45  67  98 140 187 237 286 346 421
#     4  12  27  43  71 110 147 184 231 295 367 427
#     4  12  24  46  74 105 142 186 242 294 356 423
#     4  12  24  43  72 107 146 181 230 292 357 429
#
# _framework density 25.474938000000002
#
# number of rings (size 3 to 8) (size 9 to 14) (size 15 to 20)
#    0.000    0.667    3.333    4.000    4.667    1.333 
#    0.000    2.500    0.000    0.000    0.000    0.000 
#    0.000    0.000    0.000    0.000    0.000    0.000 
#
# Total GULP energy -66973.404127 kJ/mol
# GULP energy per Si atom -5581.117011 kJ/mol
# Density = 2.541696 g / cm^3
# Si number density = 25.474938 Si / 1000 Ang^3
#
#
#
# Elastic Constant Matrix: (Units=GPa)
#
#
# Indices 1 2 3 4 5 6 
#
# 1 52.7337 48.2214 6.5755 0.2299 -11.1122 -9.2942
# 2 48.2214 196.2039 26.2439 -3.0109 -5.0839 17.1402
# 3 6.5755 26.2439 125.1099 2.4188 2.6940 7.6228
# 4 0.2299 -3.0109 2.4188 49.5385 2.7854 0.0535
# 5 -11.1122 -5.0839 2.6940 2.7854 49.3148 1.5339
# 6 -9.2942 17.1402 7.6228 0.0535 1.5339 49.8900
#
#
#
# Elastic Compliance Matrix: (Units=1/GPa)
#
#
# Indices 1 2 3 4 5 6 
#
# 1 0.028361 -0.007453 -0.000500 -0.000875 0.005458 0.007754
# 2 -0.007453 0.007368 -0.000919 0.000575 -0.000785 -0.003756
# 3 -0.000500 -0.000919 0.008296 -0.000423 -0.000605 -0.001026
# 4 -0.000875 0.000575 -0.000423 0.020317 -0.001254 -0.000279
# 5 0.005458 -0.000785 -0.000605 -0.001254 0.021508 0.000719
# 6 0.007754 -0.003756 -0.001026 -0.000279 0.000719 0.022914
#
#
# Mechanical properties :
#
#
# Convention : Reuss Voigt Hill
#
# Bulk Modulus (GPa) = 38.05129 59.56992 48.81060
# Shear Modulus (GPa) = 36.96350 49.28246 43.12298
#
# Velocity S-wave (km/s) = 3.81330 4.40312 4.11878
# Velocity P-wave (km/s) = 5.86153 7.02029 6.46691
#
# Compressibility (1/GPa) = 0.02628032
#
# Stress axis : x y z
#
# Youngs Moduli (GPa) = 35.25948 135.72249 120.54283
#
# Poissons Ratio (x) = 1.01152 0.06030
# Poissons Ratio (y) = 0.26278 0.11081
# Poissons Ratio (z) = 0.01764 0.12476
#
# Static dielectric constant tensor:
#      x y z
#    x 2.169800 -0.176450 -0.084740 
#    y -0.176450 2.143540 0.052720 
#    z -0.084740 0.052720 2.098820 
# 
# From -- ./inp_files/132652.got.cif
#   From: 2010.05.17/outbox.cif.g08.bks.cpg/sg2_67_cif.got.tgz:132652.got - 2010.06.03 11:33:40.
