data_PCOD9051953
_publ_section_title
;
Structure prediction by ZEFSAII (Michael W. Deem and Ramdas Pophale) SiO2 
 PCOD9051953
Probable space group: P -1
;
_chemical_formula_sum "Si O2"
_cell_formula_units_Z 16
_cell_length_a 11.578381
_cell_length_b 26.664161
_cell_length_c 9.158090
_cell_angle_alpha 43.283981
_cell_angle_beta 135.711893
_cell_angle_gamma 157.571752
_cell_volume 729.548173
_symmetry_space_group_name_H-M "P -1"
_symmetry_group_IT_number 2
_symmetry_cell_setting 'triclinic'
loop_
_space_group_symop_operation_xyz
x,y,z
-x,-y,-z
loop_
_atom_site_type_symbol
_atom_site_label
_atom_site_fract_x
_atom_site_fract_y
_atom_site_fract_z
Si Si1 0.726091 0.401169 0.346678
Si Si2 0.342446 0.126317 0.981901
Si Si3 0.856958 0.125593 0.355950
Si Si4 0.743131 0.645111 0.982882
Si Si5 0.771174 0.582253 0.457227
Si Si6 0.734607 0.158655 0.452666
Si Si7 0.182028 0.570198 0.166149
Si Si8 0.786807 0.885113 0.426976
O O1 0.445837 0.351107 0.212721
O O2 0.536527 0.255597 0.488848
O O3 0.000000 0.500000 0.500000
O O4 0.910248 0.499015 0.170019
O O5 0.526591 0.269296 0.888109
O O6 0.311999 0.105867 0.823697
O O7 0.527088 0.130735 0.217868
O O8 0.000000 0.000000 0.000000
O O9 0.934543 0.183412 0.468636
O O10 0.957189 0.225478 0.118644
O O11 0.025099 0.113040 0.483081
O O12 0.496551 0.973160 0.374202
O O13 0.500000 0.500000 0.000000
O O14 0.783204 0.633384 0.210139
O O15 0.500000 0.500000 0.500000
O O16 0.752868 0.489229 0.601973
O O17 0.070087 0.714911 0.538799
O O18 0.000000 0.500000 0.000000
O O19 0.000000 0.000000 0.500000
#
# Coordination Sequence:
#
# PCOD9051953 Si02
#       8
#     2   2   2   2   2   2   2   2
#     4  11  24  45  70 102 140 191 238 299 358 425
#     4  12  26  46  75 106 146 194 240 302 371 432
#     4  10  25  49  68 101 145 188 239 296 368 434
#     4  11  25  44  71 103 146 188 238 302 369 432
#     4  12  27  44  74 107 144 190 246 305 369 442
#     4  11  25  48  73 103 145 193 246 301 366 447
#     4  12  26  44  72 106 143 187 248 298 360 441
#     4  11  26  47  71 104 148 186 241 302 364 438
#
# _framework density 21.931381999999999
#
# number of rings (size 3 to 8) (size 9 to 14) (size 15 to 20)
#    0.000    0.750    3.750    2.250    8.750    1.500 
#    9.000    0.000    0.000    0.000    0.000    0.000 
#    0.000    0.000    0.000    0.000    0.000    0.000 
#
# Total GULP energy -89241.081074 kJ/mol
# GULP energy per Si atom -5577.567567 kJ/mol
# Density = 2.188147 g / cm^3
# Si number density = 21.931382 Si / 1000 Ang^3
#
#
#
# Elastic Constant Matrix: (Units=GPa)
#
#
# Indices 1 2 3 4 5 6 
#
# 1 74.0938 42.7685 27.8928 -3.9734 -6.3661 0.7508
# 2 42.7685 185.8789 71.8673 -13.9693 -21.1512 -3.3329
# 3 27.8928 71.8673 129.1221 2.7533 -24.2704 -1.6310
# 4 -3.9734 -13.9693 2.7533 46.0066 -0.7848 -9.0183
# 5 -6.3661 -21.1512 -24.2704 -0.7848 35.6457 -0.4382
# 6 0.7508 -3.3329 -1.6310 -9.0183 -0.4382 30.0296
#
#
#
# Elastic Compliance Matrix: (Units=1/GPa)
#
#
# Indices 1 2 3 4 5 6 
#
# 1 0.015908 -0.002943 -0.001847 0.000453 -0.000161 -0.000691
# 2 -0.002943 0.007812 -0.003397 0.002664 0.001875 0.001583
# 3 -0.001847 -0.003397 0.011033 -0.001803 0.005125 -0.000198
# 4 0.000453 0.002664 -0.001803 0.024172 0.001058 0.007461
# 5 -0.000161 0.001875 0.005125 0.001058 0.032666 0.001285
# 6 -0.000691 0.001583 -0.000198 0.007461 0.001285 0.035742
#
#
# Mechanical properties :
#
#
# Convention : Reuss Voigt Hill
#
# Bulk Modulus (GPa) = 54.40679 74.90576 64.65628
# Shear Modulus (GPa) = 33.37016 38.77411 36.07214
#
# Velocity S-wave (km/s) = 3.90496 4.20929 4.05998
# Velocity P-wave (km/s) = 6.72259 7.60611 7.17796
#
# Compressibility (1/GPa) = 0.01838006
#
# Stress axis : x y z
#
# Youngs Moduli (GPa) = 62.86216 128.00488 90.63342
#
# Poissons Ratio (x) = 0.37668 0.16742
# Poissons Ratio (y) = 0.18499 0.30786
# Poissons Ratio (z) = 0.11612 0.43480
#
# Static dielectric constant tensor:
#      x y z
#    x 1.860040 0.026080 -0.014920 
#    y 0.026080 1.803930 -0.071730 
#    z -0.014920 -0.071730 1.776930 
# 
# From -- ./inp_files/285814.got.cif
#   From: 2010.05.17/outbox.cif.g08.bks.cpg/sg2_143_cif.got.tgz:285814.got - 2010.06.03 11:33:40.
