data_PCOD9051005
_publ_section_title
;
Structure prediction by ZEFSAII (Michael W. Deem and Ramdas Pophale) SiO2 
 PCOD9051005
Probable space group: P -1
;
_chemical_formula_sum "Si O2"
_cell_formula_units_Z 16
_cell_length_a 8.256253
_cell_length_b 15.061060
_cell_length_c 8.432133
_cell_angle_alpha 84.064480
_cell_angle_beta 132.451573
_cell_angle_gamma 114.097004
_cell_volume 682.766530
_symmetry_space_group_name_H-M "P -1"
_symmetry_group_IT_number 2
_symmetry_cell_setting 'triclinic'
loop_
_space_group_symop_operation_xyz
x,y,z
-x,-y,-z
loop_
_atom_site_type_symbol
_atom_site_label
_atom_site_fract_x
_atom_site_fract_y
_atom_site_fract_z
Si Si1 0.995015 0.877937 0.433340
Si Si2 0.042220 0.054569 0.253530
Si Si3 0.508941 0.690198 0.752948
Si Si4 0.914375 0.192435 0.945850
Si Si5 0.425722 0.869163 0.575911
Si Si6 0.108542 0.611224 0.973962
Si Si7 0.188408 0.483238 0.514790
Si Si8 0.386301 0.346396 0.824927
O O1 0.289666 0.913404 0.597348
O O2 0.910460 0.896761 0.546971
O O3 0.852376 0.760350 0.327064
O O4 0.919217 0.937123 0.239885
O O5 0.287872 0.076676 0.306799
O O6 0.877670 0.100057 0.053534
O O7 0.383420 0.762582 0.640096
O O8 0.386569 0.595387 0.571929
O O9 0.501211 0.643924 0.928277
O O10 0.795351 0.760827 0.903624
O O11 0.735347 0.150638 0.686235
O O12 0.902624 0.292513 0.977504
O O13 0.960313 0.587444 0.714654
O O14 0.398617 0.648322 0.145153
O O15 0.000000 0.500000 0.000000
O O16 0.318707 0.432158 0.712959
O O17 0.000000 0.500000 0.500000
#
# Coordination Sequence:
#
# PCOD9051005 Si02
#       8
#     2   2   2   2   2   2   2   2
#     4  11  23  46  71  96 139 176 224 282 338 394
#     4  10  25  45  66 105 135 173 227 282 332 404
#     4  11  24  41  68  97 130 174 224 273 323 402
#     4  11  24  44  67  97 138 172 224 277 335 396
#     4  11  23  45  70  99 135 182 220 275 341 399
#     4  12  27  42  67 100 135 175 218 280 337 391
#     4  12  25  41  67  94 131 174 221 269 329 400
#     4  12  25  43  68  99 129 175 229 270 327 407
#
# _framework density 23.434070999999999
#
# number of rings (size 3 to 8) (size 9 to 14) (size 15 to 20)
#    0.000    0.750    2.500    4.500    3.500    4.500 
#    2.250    1.875    0.000    0.000    0.000    0.000 
#    0.000    0.000    0.000    0.000    0.000    0.000 
#
# Total GULP energy -89414.758481 kJ/mol
# GULP energy per Si atom -5588.422405 kJ/mol
# Density = 2.338073 g / cm^3
# Si number density = 23.434071 Si / 1000 Ang^3
#
#
#
# Elastic Constant Matrix: (Units=GPa)
#
#
# Indices 1 2 3 4 5 6 
#
# 1 86.4034 22.0073 17.1494 -11.6495 8.5034 -11.4118
# 2 22.0073 109.9941 21.6906 -40.7106 5.3791 -12.4679
# 3 17.1494 21.6906 69.2481 -30.1621 9.5275 -0.2749
# 4 -11.6495 -40.7106 -30.1621 53.5551 -6.3473 3.6440
# 5 8.5034 5.3791 9.5275 -6.3473 28.7860 -0.8486
# 6 -11.4118 -12.4679 -0.2749 3.6440 -0.8486 33.9091
#
#
#
# Elastic Compliance Matrix: (Units=1/GPa)
#
#
# Indices 1 2 3 4 5 6 
#
# 1 0.013229 -0.001759 -0.002539 -0.000470 -0.002731 0.003767
# 2 -0.001759 0.013352 0.000549 0.009867 0.000115 0.003264
# 3 -0.002539 0.000549 0.020140 0.010892 -0.003668 -0.001752
# 4 -0.000470 0.009867 0.010892 0.032415 0.001841 0.000121
# 5 -0.002731 0.000115 -0.003668 0.001841 0.037139 -0.000175
# 6 0.003767 0.003264 -0.001752 0.000121 -0.000175 0.031927
#
#
# Mechanical properties :
#
#
# Convention : Reuss Voigt Hill
#
# Bulk Modulus (GPa) = 25.49708 43.03778 34.26743
# Shear Modulus (GPa) = 29.62543 36.90325 33.26434
#
# Velocity S-wave (km/s) = 3.55942 3.97264 3.77169
# Velocity P-wave (km/s) = 5.27225 6.28075 5.79847
#
# Compressibility (1/GPa) = 0.03922018
#
# Stress axis : x y z
#
# Youngs Moduli (GPa) = 75.59373 74.89743 49.65348
#
# Poissons Ratio (x) = 0.13178 0.12606
# Poissons Ratio (y) = 0.13300 -0.02724
# Poissons Ratio (z) = 0.19192 -0.04108
#
# Static dielectric constant tensor:
#      x y z
#    x 1.940400 0.102080 -0.022980 
#    y 0.102080 1.744730 0.012090 
#    z -0.022980 0.012090 1.882280 
# 
# From -- ./inp_files/48904.got.cif
#   From: 2010.05.17/outbox.cif.g08.bks.cpg/sg2_25_cif.got.tgz:48904.got - 2010.06.03 11:33:40.
