data_PCOD9051578
_publ_section_title
;
Structure prediction by ZEFSAII (Michael W. Deem and Ramdas Pophale) SiO2 
 PCOD9051578
Probable space group: P -1
;
_chemical_formula_sum "Si O2"
_cell_formula_units_Z 14
_cell_length_a 14.181965
_cell_length_b 5.659762
_cell_length_c 12.138943
_cell_angle_alpha 116.843776
_cell_angle_beta 43.302110
_cell_angle_gamma 107.405403
_cell_volume 595.550832
_symmetry_space_group_name_H-M "P -1"
_symmetry_group_IT_number 2
_symmetry_cell_setting 'triclinic'
loop_
_space_group_symop_operation_xyz
x,y,z
-x,-y,-z
loop_
_atom_site_type_symbol
_atom_site_label
_atom_site_fract_x
_atom_site_fract_y
_atom_site_fract_z
Si Si1 0.637951 0.313265 0.212548
Si Si2 0.716828 0.496584 0.760268
Si Si3 0.397182 0.138488 0.527208
Si Si4 0.570625 0.272139 0.012201
Si Si5 0.846943 0.245581 0.390178
Si Si6 0.005313 0.672444 0.920238
Si Si7 0.153860 0.155411 0.093640
O O1 0.495384 0.203096 0.355827
O O2 0.619680 0.339940 0.104568
O O3 0.658229 0.586809 0.314305
O O4 0.760940 0.095863 0.079881
O O5 0.560538 0.526841 0.855871
O O6 0.812464 0.433661 0.562386
O O7 0.764474 0.731818 0.848369
O O8 0.698133 0.269073 0.818880
O O9 0.500000 0.000000 0.500000
O O10 0.274121 0.954231 0.562666
O O11 0.500000 0.000000 0.000000
O O12 0.867457 0.390920 0.285385
O O13 0.997835 0.104394 0.253147
O O14 0.876242 0.639526 0.939265
O O15 0.000000 0.500000 0.000000
O O16 0.000000 0.000000 0.000000
#
# Coordination Sequence:
#
# PCOD9051578 Si02
#       7
#     2   2   2   2   2   2   2
#     4  11  25  46  73 114 152 209 263 332 397 475
#     4  11  23  46  73 109 150 200 265 323 394 470
#     4  11  26  47  74 108 156 205 269 327 395 481
#     4  11  23  42  74 104 149 201 258 324 394 468
#     4  10  25  48  75 109 154 203 261 331 391 478
#     4  10  26  51  75 112 158 210 257 323 406 479
#     4  10  25  46  78 109 153 201 263 322 402 473
#
# _framework density 23.507649000000001
#
# number of rings (size 3 to 8) (size 9 to 14) (size 15 to 20)
#    0.857    0.571    1.429    2.143    6.000    2.857 
#    7.714    0.714    0.000    0.000    0.000    0.000 
#    0.000    0.000    0.000    0.000    0.000    0.000 
#
# Total GULP energy -78186.609807 kJ/mol
# GULP energy per Si atom -5584.757843 kJ/mol
# Density = 2.345415 g / cm^3
# Si number density = 23.507649 Si / 1000 Ang^3
#
#
#
# Elastic Constant Matrix: (Units=GPa)
#
#
# Indices 1 2 3 4 5 6 
#
# 1 133.2249 44.7160 40.0317 -3.4521 7.5102 -8.9547
# 2 44.7160 88.2529 55.9073 -4.4689 15.2445 5.4869
# 3 40.0317 55.9073 169.1559 -0.6495 25.1026 -14.0173
# 4 -3.4521 -4.4689 -0.6495 32.9950 -7.7966 -0.1265
# 5 7.5102 15.2445 25.1026 -7.7966 41.5808 -9.2624
# 6 -8.9547 5.4869 -14.0173 -0.1265 -9.2624 37.3482
#
#
#
# Elastic Compliance Matrix: (Units=1/GPa)
#
#
# Indices 1 2 3 4 5 6 
#
# 1 0.009437 -0.004781 -0.000575 0.000622 0.001191 0.003047
# 2 -0.004781 0.017908 -0.004710 0.000822 -0.004169 -0.006576
# 3 -0.000575 -0.004710 0.008248 -0.001163 -0.002704 0.002975
# 4 0.000622 0.000822 -0.001163 0.032023 0.006590 0.001335
# 5 0.001191 -0.004169 -0.002704 0.006590 0.029860 0.007311
# 6 0.003047 -0.006576 0.002975 0.001335 0.007311 0.031406
#
#
# Mechanical properties :
#
#
# Convention : Reuss Voigt Hill
#
# Bulk Modulus (GPa) = 64.68136 74.66042 69.67089
# Shear Modulus (GPa) = 32.43190 39.05005 35.74097
#
# Velocity S-wave (km/s) = 3.71837 4.08016 3.90346
# Velocity P-wave (km/s) = 6.78305 7.35023 7.07233
#
# Compressibility (1/GPa) = 0.01546040
#
# Stress axis : x y z
#
# Youngs Moduli (GPa) = 105.96133 55.84033 121.24188
#
# Poissons Ratio (x) = 0.26698 0.06972
# Poissons Ratio (y) = 0.50661 0.57110
# Poissons Ratio (z) = 0.06094 0.26303
#
# Static dielectric constant tensor:
#      x y z
#    x 2.024290 -0.067700 0.147050 
#    y -0.067700 2.027340 -0.023760 
#    z 0.147050 -0.023760 2.386510 
# 
# From -- ./inp_files/442115.got.cif
#   From: 2010.05.17/outbox.cif.g08.bks.cpg/sg2_222_cif.got.tgz:442115.got - 2010.06.03 11:33:40.
