data_PCOD9051966
_publ_section_title
;
Structure prediction by ZEFSAII (Michael W. Deem and Ramdas Pophale) SiO2 
 PCOD9051966
Probable space group: P -1
;
_chemical_formula_sum "Si O2"
_cell_formula_units_Z 15
_cell_length_a 8.809891
_cell_length_b 12.290494
_cell_length_c 10.837839
_cell_angle_alpha 143.056899
_cell_angle_beta 97.765124
_cell_angle_gamma 63.170679
_cell_volume 570.982548
_symmetry_space_group_name_H-M "P -1"
_symmetry_group_IT_number 2
_symmetry_cell_setting 'triclinic'
loop_
_space_group_symop_operation_xyz
x,y,z
-x,-y,-z
loop_
_atom_site_type_symbol
_atom_site_label
_atom_site_fract_x
_atom_site_fract_y
_atom_site_fract_z
Si Si1 0.278840 0.300409 0.158078
Si Si2 0.000000 0.500000 0.500000
Si Si3 0.828143 0.249337 0.180900
Si Si4 0.722855 0.832529 0.386684
Si Si5 0.609149 0.175873 0.268480
Si Si6 0.189137 0.903840 0.544686
Si Si7 0.227393 0.887811 0.205768
Si Si8 0.657987 0.560203 0.974519
O O1 0.430985 0.237172 0.224990
O O2 0.329617 0.334225 0.058233
O O3 0.092968 0.505515 0.383508
O O4 0.263880 0.092507 0.967844
O O5 0.888735 0.413016 0.336295
O O6 0.687717 0.295470 0.315972
O O7 0.749540 0.220716 0.021614
O O8 0.000000 0.000000 0.000000
O O9 0.500000 0.000000 0.500000
O O10 0.809163 0.919171 0.379062
O O11 0.767424 0.896284 0.580560
O O12 0.760795 0.604743 0.135272
O O13 0.632527 0.204931 0.441087
O O14 0.233899 0.696408 0.280541
O O15 0.985515 0.020944 0.693100
O O16 0.436810 0.695028 0.105617
#
# Coordination Sequence:
#
# PCOD9051966 Si02
#       8
#     2   1   2   2   2   2   2   2
#     4  11  23  41  67 105 138 186 227 285 354 419
#     4  12  26  38  66 100 138 180 228 276 336 424
#     4  12  23  44  64 102 139 177 223 281 347 412
#     4  10  25  49  71 101 142 178 239 297 339 410
#     4  11  23  42  71  95 145 179 226 284 355 415
#     4  12  24  45  73 102 133 190 229 289 350 414
#     4  11  25  46  73  98 142 186 227 294 342 410
#     4  11  25  45  72 103 139 182 235 285 352 414
#
# _framework density 26.270505
#
# number of rings (size 3 to 8) (size 9 to 14) (size 15 to 20)
#    0.000    0.800    5.333    1.200    1.867    3.733 
#    0.000    4.000    0.000    0.000    0.000    0.000 
#    0.000    0.000    0.000    0.000    0.000    0.000 
#
# Total GULP energy -83519.534655 kJ/mol
# GULP energy per Si atom -5567.968977 kJ/mol
# Density = 2.621071 g / cm^3
# Si number density = 26.270505 Si / 1000 Ang^3
#
#
#
# Elastic Constant Matrix: (Units=GPa)
#
#
# Indices 1 2 3 4 5 6 
#
# 1 84.2627 28.2206 1.2207 8.2894 10.4541 2.4240
# 2 28.2206 59.3810 34.0758 -4.2293 11.3006 -9.7117
# 3 1.2207 34.0758 109.2905 -14.3996 32.4705 -11.5317
# 4 8.2894 -4.2293 -14.3996 28.3241 -16.7063 -0.1081
# 5 10.4541 11.3006 32.4705 -16.7063 76.2043 -15.7136
# 6 2.4240 -9.7117 -11.5317 -0.1081 -15.7136 25.3812
#
#
#
# Elastic Compliance Matrix: (Units=1/GPa)
#
#
# Indices 1 2 3 4 5 6 
#
# 1 0.017082 -0.010556 0.002781 -0.008380 -0.005406 -0.007790
# 2 -0.010556 0.027740 -0.007888 0.005701 0.004136 0.010623
# 3 0.002781 -0.007888 0.013151 0.002131 -0.004346 0.000010
# 4 -0.008380 0.005701 0.002131 0.046852 0.012063 0.011618
# 5 -0.005406 0.004136 -0.004346 0.012063 0.020386 0.012797
# 6 -0.007790 0.010623 0.000010 0.011618 0.012797 0.052185
#
#
# Mechanical properties :
#
#
# Convention : Reuss Voigt Hill
#
# Bulk Modulus (GPa) = 37.52777 42.21872 39.87325
# Shear Modulus (GPa) = 22.97745 38.60972 30.79358
#
# Velocity S-wave (km/s) = 2.96065 3.83782 3.42742
# Velocity P-wave (km/s) = 5.09936 5.97864 5.55642
#
# Compressibility (1/GPa) = 0.02664693
#
# Stress axis : x y z
#
# Youngs Moduli (GPa) = 58.54170 36.04930 76.03805
#
# Poissons Ratio (x) = 0.38053 -0.21143
# Poissons Ratio (y) = 0.61795 0.59977
# Poissons Ratio (z) = -0.16278 0.28435
#
# Static dielectric constant tensor:
#      x y z
#    x 2.103600 -0.080150 -0.017070 
#    y -0.080150 2.128060 -0.012920 
#    z -0.017070 -0.012920 2.080820 
# 
# From -- ./inp_files/382032.got.cif
#   From: 2010.05.17/outbox.cif.g08.bks.cpg/sg2_192_cif.got.tgz:382032.got - 2010.06.03 11:33:40.
