data_PCOD9051080
_publ_section_title
;
Structure prediction by ZEFSAII (Michael W. Deem and Ramdas Pophale) SiO2 
 PCOD9051080
Probable space group: P -1
;
_chemical_formula_sum "Si O2"
_cell_formula_units_Z 14
_cell_length_a 15.401987
_cell_length_b 23.802086
_cell_length_c 5.501493
_cell_angle_alpha 90.500825
_cell_angle_beta 97.937289
_cell_angle_gamma 159.834916
_cell_volume 629.517325
_symmetry_space_group_name_H-M "P -1"
_symmetry_group_IT_number 2
_symmetry_cell_setting 'triclinic'
loop_
_space_group_symop_operation_xyz
x,y,z
-x,-y,-z
loop_
_atom_site_type_symbol
_atom_site_label
_atom_site_fract_x
_atom_site_fract_y
_atom_site_fract_z
Si Si1 0.806611 0.710632 0.083691
Si Si2 0.815986 0.005186 0.375562
Si Si3 0.737529 0.061395 0.050112
Si Si4 0.177640 0.159249 0.183609
Si Si5 0.757830 0.393190 0.802367
Si Si6 0.271109 0.842732 0.596956
Si Si7 0.758374 0.458547 0.314429
O O1 0.978184 0.829049 0.394891
O O2 0.500000 0.500000 0.000000
O O3 0.806744 0.771381 0.949527
O O4 0.999519 0.783493 0.020170
O O5 0.698208 0.973719 0.118650
O O6 0.012420 0.075044 0.360374
O O7 0.539240 0.815522 0.391097
O O8 0.810675 0.152487 0.281579
O O9 0.444267 0.904155 0.828661
O O10 0.489425 0.326490 0.312426
O O11 0.000000 0.000000 0.000000
O O12 0.849486 0.476391 0.584150
O O13 0.695281 0.392058 0.024109
O O14 0.000000 0.500000 0.000000
O O15 0.007661 0.653256 0.371194
O O16 0.500000 0.000000 0.500000
#
# Coordination Sequence:
#
# PCOD9051080 Si02
#       7
#     2   2   2   2   2   2   2
#     4  11  27  43  73 104 147 196 251 307 376 453
#     4  11  25  46  73  99 151 191 245 309 374 444
#     4  10  25  45  69 103 141 191 246 300 386 438
#     4  11  25  47  69 106 146 194 246 305 374 442
#     4  12  28  48  77 109 149 193 250 305 377 450
#     4  11  26  45  73 101 147 191 248 313 378 443
#     4  12  29  46  77 110 146 193 254 306 374 450
#
# _framework density 22.239260999999999
#
# number of rings (size 3 to 8) (size 9 to 14) (size 15 to 20)
#    0.000    0.857    1.429    3.000   18.000    2.286 
#    0.000    0.000    0.000    0.000    0.000    0.000 
#    0.000    0.000    0.000    0.000    0.000    0.000 
#
# Total GULP energy -78176.182066 kJ/mol
# GULP energy per Si atom -5584.013005 kJ/mol
# Density = 2.218864 g / cm^3
# Si number density = 22.239261 Si / 1000 Ang^3
#
#
#
# Elastic Constant Matrix: (Units=GPa)
#
#
# Indices 1 2 3 4 5 6 
#
# 1 101.5879 32.5043 23.1387 4.7743 -14.9165 21.5578
# 2 32.5043 136.1395 19.8949 31.8318 -26.5946 -2.7229
# 3 23.1387 19.8949 64.1187 11.4643 -17.4324 -1.1951
# 4 4.7743 31.8318 11.4643 42.1840 0.5506 -4.1048
# 5 -14.9165 -26.5946 -17.4324 0.5506 36.0418 -9.5431
# 6 21.5578 -2.7229 -1.1951 -4.1048 -9.5431 37.0881
#
#
#
# Elastic Compliance Matrix: (Units=1/GPa)
#
#
# Indices 1 2 3 4 5 6 
#
# 1 0.013473 -0.003306 -0.004612 0.001422 -0.001343 -0.008411
# 2 -0.003306 0.011875 0.001744 -0.008763 0.009517 0.004328
# 3 -0.004612 0.001744 0.020927 -0.006074 0.011092 0.005665
# 4 0.001422 -0.008763 -0.006074 0.031876 -0.009454 -0.000570
# 5 -0.001343 0.009517 0.011092 -0.009454 0.042850 0.011816
# 6 -0.008411 0.004328 0.005665 -0.000570 0.011816 0.035329
#
#
# Mechanical properties :
#
#
# Convention : Reuss Voigt Hill
#
# Bulk Modulus (GPa) = 29.47683 50.32466 39.90075
# Shear Modulus (GPa) = 27.77967 38.14999 32.96483
#
# Velocity S-wave (km/s) = 3.53813 4.14627 3.85422
# Velocity P-wave (km/s) = 5.47489 6.75278 6.14713
#
# Compressibility (1/GPa) = 0.03392495
#
# Stress axis : x y z
#
# Youngs Moduli (GPa) = 74.22381 84.21324 47.78521
#
# Poissons Ratio (x) = 0.27839 0.22041
# Poissons Ratio (y) = 0.24537 -0.08331
# Poissons Ratio (z) = 0.34235 -0.14683
#
# Static dielectric constant tensor:
#      x y z
#    x 1.764030 0.034660 0.028810 
#    y 0.034660 1.758250 -0.023120 
#    z 0.028810 -0.023120 1.889330 
# 
# From -- ./inp_files/72648.got.cif
#   From: 2010.05.17/outbox.cif.g08.bks.cpg/sg2_37_cif.got.tgz:72648.got - 2010.06.03 11:33:40.
