data_PCOD9051988
_publ_section_title
;
Structure prediction by ZEFSAII (Michael W. Deem and Ramdas Pophale) SiO2 
 PCOD9051988
Probable space group: P -1
;
_chemical_formula_sum "Si O2"
_cell_formula_units_Z 16
_cell_length_a 5.972405
_cell_length_b 14.530647
_cell_length_c 11.761795
_cell_angle_alpha 125.275839
_cell_angle_beta 91.745302
_cell_angle_gamma 60.632301
_cell_volume 678.836681
_symmetry_space_group_name_H-M "P -1"
_symmetry_group_IT_number 2
_symmetry_cell_setting 'triclinic'
loop_
_space_group_symop_operation_xyz
x,y,z
-x,-y,-z
loop_
_atom_site_type_symbol
_atom_site_label
_atom_site_fract_x
_atom_site_fract_y
_atom_site_fract_z
Si Si1 0.241358 0.949651 0.597114
Si Si2 0.224714 0.522695 0.956404
Si Si3 0.702692 0.145647 0.102354
Si Si4 0.733195 0.343565 0.418100
Si Si5 0.658352 0.855224 0.726706
Si Si6 0.694071 0.305508 0.656841
Si Si7 0.672630 0.112955 0.835176
Si Si8 0.833296 0.776499 0.230631
O O1 0.491757 0.853153 0.617139
O O2 0.231700 0.848731 0.439383
O O3 0.271430 0.066940 0.636731
O O4 0.970956 0.036296 0.731847
O O5 0.385075 0.418961 0.779584
O O6 0.500000 0.500000 0.000000
O O7 0.000000 0.500000 0.000000
O O8 0.026304 0.689965 0.062484
O O9 0.703389 0.249443 0.262531
O O10 0.493246 0.121483 0.141185
O O11 0.628770 0.197738 0.008958
O O12 0.000000 0.000000 0.000000
O O13 0.500000 0.500000 0.500000
O O14 0.713652 0.320474 0.534236
O O15 0.046875 0.288118 0.365258
O O16 0.662248 0.986759 0.789987
O O17 0.939999 0.304241 0.722895
O O18 0.445820 0.203076 0.799690
#
# Coordination Sequence:
#
# PCOD9051988 Si02
#       8
#     2   2   2   2   2   2   2   2
#     4  11  22  43  71 113 139 183 242 300 375 440
#     4  10  25  49  73 104 148 203 249 301 377 453
#     4  12  22  44  70  98 143 188 239 306 360 434
#     4  12  28  47  70 106 142 192 251 294 376 446
#     4  11  21  43  71  99 144 183 242 298 376 427
#     4  11  23  51  71 103 152 189 240 318 368 447
#     4  11  23  40  71 107 142 181 244 300 361 444
#     4  10  26  43  74 108 140 191 245 294 376 443
#
# _framework density 23.569734
#
# number of rings (size 3 to 8) (size 9 to 14) (size 15 to 20)
#    0.000    1.000    5.000    0.750    3.500    5.000 
#    4.500    0.000    0.000    0.000    0.000    0.000 
#    0.000    0.000    0.000    0.000    0.000    0.000 
#
# Total GULP energy -89232.742025 kJ/mol
# GULP energy per Si atom -5577.046377 kJ/mol
# Density = 2.351609 g / cm^3
# Si number density = 23.569734 Si / 1000 Ang^3
#
#
#
# Elastic Constant Matrix: (Units=GPa)
#
#
# Indices 1 2 3 4 5 6 
#
# 1 115.9931 40.2719 64.3437 -8.3503 -17.8239 -27.1006
# 2 40.2719 89.7899 56.0160 5.1085 -9.4671 -25.8009
# 3 64.3437 56.0160 170.1384 1.4107 -12.5316 -8.8709
# 4 -8.3503 5.1085 1.4107 47.3070 -9.0596 -2.0780
# 5 -17.8239 -9.4671 -12.5316 -9.0596 53.4463 -5.5755
# 6 -27.1006 -25.8009 -8.8709 -2.0780 -5.5755 34.0216
#
#
#
# Elastic Compliance Matrix: (Units=1/GPa)
#
#
# Indices 1 2 3 4 5 6 
#
# 1 0.015407 -0.000025 -0.004769 0.004567 0.006071 0.012284
# 2 -0.000025 0.018551 -0.005158 -0.000634 0.003339 0.013212
# 3 -0.004769 -0.005158 0.009010 -0.001020 -0.001150 -0.005611
# 4 0.004567 -0.000634 -0.001020 0.023362 0.005679 0.005248
# 5 0.006071 0.003339 -0.001150 0.005679 0.023190 0.011216
# 6 0.012284 0.013212 -0.005611 0.005248 0.011216 0.049893
#
#
# Mechanical properties :
#
#
# Convention : Reuss Voigt Hill
#
# Bulk Modulus (GPa) = 43.35683 77.46496 60.41089
# Shear Modulus (GPa) = 29.93943 41.30764 35.62353
#
# Velocity S-wave (km/s) = 3.56792 4.19091 3.89190
# Velocity P-wave (km/s) = 5.95050 7.50706 6.77364
#
# Compressibility (1/GPa) = 0.02306442
#
# Stress axis : x y z
#
# Youngs Moduli (GPa) = 64.90618 53.90613 110.98295
#
# Poissons Ratio (x) = 0.00136 0.52923
# Poissons Ratio (y) = 0.00164 0.57246
# Poissons Ratio (z) = 0.30951 0.27805
#
# Static dielectric constant tensor:
#      x y z
#    x 1.949300 0.161150 -0.049390 
#    y 0.161150 1.697390 0.211750 
#    z -0.049390 0.211750 1.733210 
# 
# From -- ./inp_files/367944.got.cif
#   From: 2010.05.17/outbox.cif.g08.bks.cpg/sg2_184_cif.got.tgz:367944.got - 2010.06.03 11:33:40.
