data_PCOD9051305
_publ_section_title
;
Structure prediction by ZEFSAII (Michael W. Deem and Ramdas Pophale) SiO2 
 PCOD9051305
Probable space group: P -1
;
_chemical_formula_sum "Si O2"
_cell_formula_units_Z 16
_cell_length_a 8.917932
_cell_length_b 9.852608
_cell_length_c 9.401496
_cell_angle_alpha 119.676822
_cell_angle_beta 117.203135
_cell_angle_gamma 73.303794
_cell_volume 636.334284
_symmetry_space_group_name_H-M "P -1"
_symmetry_group_IT_number 2
_symmetry_cell_setting 'triclinic'
loop_
_space_group_symop_operation_xyz
x,y,z
-x,-y,-z
loop_
_atom_site_type_symbol
_atom_site_label
_atom_site_fract_x
_atom_site_fract_y
_atom_site_fract_z
Si Si1 0.174645 0.843166 0.202503
Si Si2 0.370123 0.669216 0.692555
Si Si3 0.574985 0.108154 0.922841
Si Si4 0.400879 0.296425 0.463892
Si Si5 0.211354 0.191318 0.081030
Si Si6 0.705990 0.880180 0.421550
Si Si7 0.167449 0.525080 0.169055
Si Si8 0.978166 0.364757 0.535683
O O1 0.282996 0.874131 0.127361
O O2 0.239809 0.673815 0.207133
O O3 0.203645 0.972728 0.401531
O O4 0.976860 0.839240 0.067543
O O5 0.383528 0.478053 0.598207
O O6 0.459691 0.714330 0.606876
O O7 0.172205 0.732843 0.636678
O O8 0.430011 0.742621 0.901504
O O9 0.400693 0.091191 0.753435
O O10 0.654073 0.954758 0.961665
O O11 0.233881 0.235168 0.281027
O O12 0.421793 0.179602 0.544669
O O13 0.262850 0.354810 0.121203
O O14 0.851311 0.736968 0.402387
O O15 0.106489 0.563524 0.321001
O O16 0.000000 0.500000 0.000000
O O17 0.000000 0.500000 0.500000
#
# Coordination Sequence:
#
# PCOD9051305 Si02
#       8
#     2   2   2   2   2   2   2   2
#     4  11  26  47  82 120 158 209 262 331 402 463
#     4  11  27  47  78 119 156 215 263 319 399 466
#     4  12  28  45  81 117 162 202 269 327 391 471
#     4  11  25  48  79 114 164 203 260 328 396 467
#     4  11  23  49  81 116 151 210 261 320 392 482
#     4  12  27  49  78 115 167 203 265 332 399 460
#     4  10  25  45  79 115 153 197 263 326 388 463
#     4  12  25  49  79 114 154 211 263 321 383 482
#
# _framework density 25.144016000000001
#
# number of rings (size 3 to 8) (size 9 to 14) (size 15 to 20)
#    0.000    0.750    3.750    1.500    7.000    3.500 
#    0.000    0.000    0.000    0.000    0.000    0.000 
#    0.000    0.000    0.000    0.000    0.000    0.000 
#
# Total GULP energy -89593.881617 kJ/mol
# GULP energy per Si atom -5599.617601 kJ/mol
# Density = 2.508679 g / cm^3
# Si number density = 25.144016 Si / 1000 Ang^3
#
#
#
# Elastic Constant Matrix: (Units=GPa)
#
#
# Indices 1 2 3 4 5 6 
#
# 1 90.4935 50.4921 49.8016 -0.9950 19.7340 -13.6872
# 2 50.4921 180.3599 71.7481 -2.5034 10.0751 -10.0123
# 3 49.8016 71.7481 211.6778 5.7904 7.9748 -12.2811
# 4 -0.9950 -2.5034 5.7904 46.6927 -2.8967 2.3108
# 5 19.7340 10.0751 7.9748 -2.8967 30.9138 -1.7484
# 6 -13.6872 -10.0123 -12.2811 2.3108 -1.7484 44.7226
#
#
#
# Elastic Compliance Matrix: (Units=1/GPa)
#
#
# Indices 1 2 3 4 5 6 
#
# 1 0.016412 -0.003002 -0.002312 -0.000234 -0.008732 0.003387
# 2 -0.003002 0.007072 -0.001699 0.000524 0.000109 0.000175
# 3 -0.002312 -0.001699 0.005885 -0.000871 0.000463 0.000591
# 4 -0.000234 0.000524 -0.000871 0.021743 0.002171 -0.001232
# 5 -0.008732 0.000109 0.000463 0.002171 0.037905 -0.001151
# 6 0.003387 0.000175 0.000591 -0.001232 -0.001151 0.023617
#
#
# Mechanical properties :
#
#
# Convention : Reuss Voigt Hill
#
# Bulk Modulus (GPa) = 65.18005 91.84610 78.51307
# Shear Modulus (GPa) = 37.94390 45.16510 41.55450
#
# Velocity S-wave (km/s) = 3.88888 4.24282 4.06970
# Velocity P-wave (km/s) = 6.79290 7.78520 7.30592
#
# Compressibility (1/GPa) = 0.01534212
#
# Stress axis : x y z
#
# Youngs Moduli (GPa) = 60.93178 141.40867 169.93695
#
# Poissons Ratio (x) = 0.42456 0.39285
# Poissons Ratio (y) = 0.18294 0.28870
# Poissons Ratio (z) = 0.14086 0.24023
#
# Static dielectric constant tensor:
#      x y z
#    x 1.992550 -0.023530 0.047310 
#    y -0.023530 2.056370 -0.058820 
#    z 0.047310 -0.058820 1.986710 
# 
# From -- ./inp_files/426765.got.cif
#   From: 2010.05.17/outbox.cif.g08.bks.cpg/sg2_214_cif.got.tgz:426765.got - 2010.06.03 11:33:40.
