data_PCOD9051383
_publ_section_title
;
Structure prediction by ZEFSAII (Michael W. Deem and Ramdas Pophale) SiO2 
 PCOD9051383
Probable space group: P -1
;
_chemical_formula_sum "Si O2"
_cell_formula_units_Z 14
_cell_length_a 16.977989
_cell_length_b 7.785726
_cell_length_c 10.581524
_cell_angle_alpha 41.636705
_cell_angle_beta 44.414937
_cell_angle_gamma 40.352456
_cell_volume 566.646922
_symmetry_space_group_name_H-M "P -1"
_symmetry_group_IT_number 2
_symmetry_cell_setting 'triclinic'
loop_
_space_group_symop_operation_xyz
x,y,z
-x,-y,-z
loop_
_atom_site_type_symbol
_atom_site_label
_atom_site_fract_x
_atom_site_fract_y
_atom_site_fract_z
Si Si1 0.181857 0.073116 0.076185
Si Si2 0.068649 0.696262 0.932894
Si Si3 0.604118 0.951830 0.800185
Si Si4 0.648797 0.901228 0.501132
Si Si5 0.368124 0.613827 0.915438
Si Si6 0.931660 0.707018 0.344433
Si Si7 0.351285 0.631072 0.321289
O O1 0.182710 0.377315 0.935936
O O2 0.284771 0.868356 0.968138
O O3 0.041944 0.177864 0.118217
O O4 0.223046 0.865629 0.265885
O O5 0.100819 0.956401 0.776080
O O6 0.009643 0.635047 0.162279
O O7 0.568365 0.964307 0.687531
O O8 0.648175 0.192102 0.651076
O O9 0.695605 0.596710 0.909429
O O10 0.500000 0.000000 0.000000
O O11 0.798131 0.710191 0.473829
O O12 0.631535 0.697603 0.527615
O O13 0.630015 0.212583 0.305371
O O14 0.520725 0.422875 0.874271
O O15 0.000000 0.500000 0.500000
#
# Coordination Sequence:
#
# PCOD9051383 Si02
#       7
#     2   2   2   2   2   2   2
#     4  11  22  44  73  98 140 185 239 286 356 417
#     4  10  25  46  69 104 137 191 237 296 353 416
#     4  10  26  45  69 103 139 190 234 286 351 422
#     4  12  25  45  71 106 142 183 238 297 353 422
#     4  11  24  47  72 101 146 191 232 291 357 425
#     4  11  25  45  71 100 143 185 240 297 354 415
#     4  11  25  44  73 103 143 187 232 294 354 422
#
# _framework density 24.706744
#
# number of rings (size 3 to 8) (size 9 to 14) (size 15 to 20)
#    0.000    1.143    2.857    1.714    6.000    3.429 
#    0.000    2.143    0.000    0.000    0.000    0.000 
#    0.000    0.000    0.000    0.000    0.000    0.000 
#
# Total GULP energy -78188.649598 kJ/mol
# GULP energy per Si atom -5584.903543 kJ/mol
# Density = 2.465051 g / cm^3
# Si number density = 24.706744 Si / 1000 Ang^3
#
#
#
# Elastic Constant Matrix: (Units=GPa)
#
#
# Indices 1 2 3 4 5 6 
#
# 1 78.2549 32.2109 16.2817 -12.9912 -5.1584 17.4002
# 2 32.2109 135.1705 22.5723 -22.3766 -4.7854 36.0990
# 3 16.2817 22.5723 78.6384 -22.5044 6.2792 24.0633
# 4 -12.9912 -22.3766 -22.5044 34.8955 -1.9265 -6.0288
# 5 -5.1584 -4.7854 6.2792 -1.9265 32.3825 -9.7032
# 6 17.4002 36.0990 24.0633 -6.0288 -9.7032 50.5675
#
#
#
# Elastic Compliance Matrix: (Units=1/GPa)
#
#
# Indices 1 2 3 4 5 6 
#
# 1 0.015075 -0.002172 -0.000941 0.003281 0.001719 -0.002468
# 2 -0.002172 0.010380 0.001110 0.005368 -0.000712 -0.006687
# 3 -0.000941 0.001110 0.018967 0.010657 -0.005829 -0.009342
# 4 0.003281 0.005368 0.010657 0.039268 -0.000019 -0.005355
# 5 0.001719 -0.000712 -0.005829 -0.000019 0.034996 0.009403
# 6 -0.002468 -0.006687 -0.009342 -0.005355 0.009403 0.031010
#
#
# Mechanical properties :
#
#
# Convention : Reuss Voigt Hill
#
# Bulk Modulus (GPa) = 24.74315 48.24374 36.49345
# Shear Modulus (GPa) = 29.90896 38.30235 34.10565
#
# Velocity S-wave (km/s) = 3.48308 3.94163 3.71943
# Velocity P-wave (km/s) = 5.11979 6.34698 5.76613
#
# Compressibility (1/GPa) = 0.04041523
#
# Stress axis : x y z
#
# Youngs Moduli (GPa) = 66.33327 96.34163 52.72430
#
# Poissons Ratio (x) = 0.20927 0.04960
# Poissons Ratio (y) = 0.14409 -0.05851
# Poissons Ratio (z) = 0.06240 -0.10691
#
# Static dielectric constant tensor:
#      x y z
#    x 2.104700 0.019490 -0.045390 
#    y 0.019490 1.992510 -0.027070 
#    z -0.045390 -0.027070 1.996890 
# 
# From -- ./inp_files/459703.got.cif
#   From: 2010.05.17/outbox.cif.g08.bks.cpg/sg2_230_cif.got.tgz:459703.got - 2010.06.03 11:33:40.
