data_PCOD9051510
_publ_section_title
;
Structure prediction by ZEFSAII (Michael W. Deem and Ramdas Pophale) SiO2 
 PCOD9051510
Probable space group: P -1
;
_chemical_formula_sum "Si O2"
_cell_formula_units_Z 16
_cell_length_a 14.404952
_cell_length_b 9.919254
_cell_length_c 8.915330
_cell_angle_alpha 67.974242
_cell_angle_beta 142.498623
_cell_angle_gamma 99.043769
_cell_volume 696.331639
_symmetry_space_group_name_H-M "P -1"
_symmetry_group_IT_number 2
_symmetry_cell_setting 'triclinic'
loop_
_space_group_symop_operation_xyz
x,y,z
-x,-y,-z
loop_
_atom_site_type_symbol
_atom_site_label
_atom_site_fract_x
_atom_site_fract_y
_atom_site_fract_z
Si Si1 0.346851 0.137826 0.255804
Si Si2 0.757712 0.314366 0.600072
Si Si3 0.614131 0.323603 0.081482
Si Si4 0.477649 0.400241 0.370876
Si Si5 0.304227 0.208790 0.825814
Si Si6 0.109391 0.129595 0.192465
Si Si7 0.840343 0.043550 0.375020
Si Si8 0.850904 0.600338 0.683337
O O1 0.363225 0.291497 0.293945
O O2 0.214708 0.081897 0.201792
O O3 0.500000 0.000000 0.500000
O O4 0.305482 0.192490 0.011093
O O5 0.695720 0.326138 0.346543
O O6 0.633105 0.274849 0.569780
O O7 0.748730 0.481278 0.583206
O O8 0.932769 0.213582 0.885220
O O9 0.739073 0.213891 0.179093
O O10 0.575433 0.485655 0.884572
O O11 0.460980 0.255540 0.945721
O O12 0.500000 0.500000 0.500000
O O13 0.153120 0.334781 0.517480
O O14 0.278935 0.053108 0.794706
O O15 0.184359 0.247806 0.330774
O O16 0.114156 0.002365 0.374953
O O17 0.000000 0.000000 0.500000
O O18 0.000000 0.500000 0.000000
#
# Coordination Sequence:
#
# PCOD9051510 Si02
#       8
#     2   2   2   2   2   2   2   2
#     4  12  27  46  72 113 149 197 249 304 376 447
#     4  11  22  44  72 103 147 185 239 304 360 441
#     4  12  25  47  74 106 146 193 246 306 373 431
#     4  12  27  44  74 110 146 193 252 301 367 444
#     4  11  23  46  75 100 149 188 248 296 372 438
#     4  10  25  46  73 103 147 191 241 300 376 435
#     4  11  28  48  73 105 143 198 248 305 371 444
#     4   9  19  42  71 101 138 187 233 295 365 427
#
# _framework density 22.977557000000001
#
# number of rings (size 3 to 8) (size 9 to 14) (size 15 to 20)
#    0.000    1.000    2.500    3.000    7.000    0.500 
#    4.500    3.125    0.000    0.000    0.000    0.000 
#    0.000    0.000    0.000    0.000    0.000    0.000 
#
# Total GULP energy -89304.062853 kJ/mol
# GULP energy per Si atom -5581.503928 kJ/mol
# Density = 2.292526 g / cm^3
# Si number density = 22.977557 Si / 1000 Ang^3
#
#
#
# Elastic Constant Matrix: (Units=GPa)
#
#
# Indices 1 2 3 4 5 6 
#
# 1 152.2843 18.4284 61.4005 -16.4663 1.0165 -0.6617
# 2 18.4284 103.0210 33.4988 8.7688 3.7761 1.2198
# 3 61.4005 33.4988 133.1972 -0.6653 -13.0846 -4.2515
# 4 -16.4663 8.7688 -0.6653 40.4431 -4.8748 2.4816
# 5 1.0165 3.7761 -13.0846 -4.8748 34.8061 -2.7911
# 6 -0.6617 1.2198 -4.2515 2.4816 -2.7911 25.5704
#
#
#
# Elastic Compliance Matrix: (Units=1/GPa)
#
#
# Indices 1 2 3 4 5 6 
#
# 1 0.008609 -0.000479 -0.003985 0.003443 -0.001287 -0.000892
# 2 -0.000479 0.011094 -0.002889 -0.002918 -0.002768 -0.001041
# 3 -0.003985 -0.002889 0.010590 -0.000418 0.004539 0.002331
# 4 0.003443 -0.002918 -0.000418 0.027330 0.003719 -0.002088
# 5 -0.001287 -0.002768 0.004539 0.003719 0.031612 0.003943
# 6 -0.000892 -0.001041 0.002331 -0.002088 0.003943 0.040155
#
#
# Mechanical properties :
#
#
# Convention : Reuss Voigt Hill
#
# Bulk Modulus (GPa) = 64.16444 68.35087 66.25766
# Shear Modulus (GPa) = 33.49159 38.50892 36.00025
#
# Velocity S-wave (km/s) = 3.82197 4.09826 3.96252
# Velocity P-wave (km/s) = 6.88927 7.22535 7.05931
#
# Compressibility (1/GPa) = 0.01558496
#
# Stress axis : x y z
#
# Youngs Moduli (GPa) = 116.16299 90.13905 94.43195
#
# Poissons Ratio (x) = 0.04320 0.37636
# Poissons Ratio (y) = 0.05568 0.27280
# Poissons Ratio (z) = 0.46297 0.26040
#
# Static dielectric constant tensor:
#      x y z
#    x 1.857330 0.027300 0.019500 
#    y 0.027300 1.928940 0.004900 
#    z 0.019500 0.004900 1.849690 
# 
# From -- ./inp_files/298027.got.cif
#   From: 2010.05.17/outbox.cif.g08.bks.cpg/sg2_150_cif.got.tgz:298027.got - 2010.06.03 11:33:40.
