data_PCOD9051177
_publ_section_title
;
Structure prediction by ZEFSAII (Michael W. Deem and Ramdas Pophale) SiO2 
 PCOD9051177
Probable space group: P -1
;
_chemical_formula_sum "Si O2"
_cell_formula_units_Z 16
_cell_length_a 12.434955
_cell_length_b 7.795749
_cell_length_c 10.020302
_cell_angle_alpha 125.305647
_cell_angle_beta 102.737711
_cell_angle_gamma 59.819511
_cell_volume 681.870315
_symmetry_space_group_name_H-M "P -1"
_symmetry_group_IT_number 2
_symmetry_cell_setting 'triclinic'
loop_
_space_group_symop_operation_xyz
x,y,z
-x,-y,-z
loop_
_atom_site_type_symbol
_atom_site_label
_atom_site_fract_x
_atom_site_fract_y
_atom_site_fract_z
Si Si1 0.877506 0.596030 0.835273
Si Si2 0.410125 0.099505 0.819353
Si Si3 0.142335 0.484003 0.890094
Si Si4 0.411638 0.288124 0.519350
Si Si5 0.231821 0.853075 0.030998
Si Si6 0.540736 0.280059 0.125966
Si Si7 0.306335 0.594213 0.397271
Si Si8 0.331870 0.925134 0.373530
O O1 0.795945 0.494524 0.690930
O O2 0.024884 0.472448 0.788360
O O3 0.866696 0.542399 0.964007
O O4 0.828101 0.875402 0.915819
O O5 0.278358 0.273450 0.799404
O O6 0.476735 0.245629 0.959942
O O7 0.501493 0.894642 0.654228
O O8 0.394440 0.968562 0.886668
O O9 0.143347 0.730847 0.967374
O O10 0.352953 0.538566 0.537856
O O11 0.516332 0.230045 0.634266
O O12 0.314170 0.192140 0.482130
O O13 0.286255 0.859832 0.195625
O O14 0.343524 0.691695 0.887104
O O15 0.423203 0.439661 0.260867
O O16 0.270077 0.854751 0.448279
#
# Coordination Sequence:
#
# PCOD9051177 Si02
#       8
#     2   2   2   2   2   2   2   2
#     4  11  21  37  50  81 111 140 177 216 261 317
#     4  10  17  35  51  76 110 139 169 217 266 318
#     4  11  23  33  56  79 106 148 176 209 270 315
#     4  10  22  35  54  79 114 135 178 220 257 318
#     4  12  20  35  55  82 113 132 175 223 266 317
#     4  10  18  30  54  82 107 136 162 219 284 310
#     4  11  20  37  56  79 112 139 173 218 266 319
#     4  11  21  33  54  85 102 148 172 210 275 312
#
# _framework density 23.464872
#
# number of rings (size 3 to 8) (size 9 to 14) (size 15 to 20)
#    0.000    1.250    6.250    1.500    1.750    1.000 
#    0.000    0.000    0.000    1.500    0.000    0.000 
#    0.000    0.000    0.000    0.000    0.000    0.000 
#
# Total GULP energy -89390.508999 kJ/mol
# GULP energy per Si atom -5586.906812 kJ/mol
# Density = 2.341146 g / cm^3
# Si number density = 23.464872 Si / 1000 Ang^3
#
#
#
# Elastic Constant Matrix: (Units=GPa)
#
#
# Indices 1 2 3 4 5 6 
#
# 1 129.5567 58.9045 25.8760 -5.1964 29.0355 26.2469
# 2 58.9045 100.8263 8.1787 -8.4985 1.9408 26.8785
# 3 25.8760 8.1787 44.9462 -13.2356 4.8012 -0.1767
# 4 -5.1964 -8.4985 -13.2356 29.8777 6.2535 1.0460
# 5 29.0355 1.9408 4.8012 6.2535 33.1932 0.8557
# 6 26.2469 26.8785 -0.1767 1.0460 0.8557 42.7372
#
#
#
# Elastic Compliance Matrix: (Units=1/GPa)
#
#
# Indices 1 2 3 4 5 6 
#
# 1 0.016315 -0.007302 -0.006475 0.000779 -0.012920 -0.005215
# 2 -0.007302 0.015698 0.001750 0.003168 0.004763 -0.005554
# 3 -0.006475 0.001750 0.029497 0.012583 -0.001145 0.002713
# 4 0.000779 0.003168 0.012583 0.042411 -0.010593 -0.003245
# 5 -0.012920 0.004763 -0.001145 -0.010593 0.043200 0.004329
# 6 -0.005215 -0.005554 0.002713 -0.003245 0.004329 0.030098
#
#
# Mechanical properties :
#
#
# Convention : Reuss Voigt Hill
#
# Bulk Modulus (GPa) = 26.69865 51.24973 38.97419
# Shear Modulus (GPa) = 23.39085 33.31961 28.35523
#
# Velocity S-wave (km/s) = 3.16071 3.77235 3.47999
# Velocity P-wave (km/s) = 4.97222 6.39239 5.72650
#
# Compressibility (1/GPa) = 0.03745508
#
# Stress axis : x y z
#
# Youngs Moduli (GPa) = 61.29331 63.70263 33.90218
#
# Poissons Ratio (x) = 0.46514 0.21952
# Poissons Ratio (y) = 0.44755 -0.05931
# Poissons Ratio (z) = 0.39687 -0.11145
#
# Static dielectric constant tensor:
#      x y z
#    x 1.883090 0.072470 0.028800 
#    y 0.072470 2.027080 0.062240 
#    z 0.028800 0.062240 1.928560 
# 
# From -- ./inp_files/415687.got.cif
#   From: 2010.05.17/outbox.cif.g08.bks.cpg/sg2_208_cif.got.tgz:415687.got - 2010.06.03 11:33:40.
