data_PCOD9051365
_publ_section_title
;
Structure prediction by ZEFSAII (Michael W. Deem and Ramdas Pophale) SiO2 
 PCOD9051365
Probable space group: P -1
;
_chemical_formula_sum "Si O2"
_cell_formula_units_Z 10
_cell_length_a 11.505394
_cell_length_b 11.850200
_cell_length_c 5.118567
_cell_angle_alpha 77.249793
_cell_angle_beta 92.196342
_cell_angle_gamma 36.030145
_cell_volume 370.683515
_symmetry_space_group_name_H-M "P -1"
_symmetry_group_IT_number 2
_symmetry_cell_setting 'triclinic'
loop_
_space_group_symop_operation_xyz
x,y,z
-x,-y,-z
loop_
_atom_site_type_symbol
_atom_site_label
_atom_site_fract_x
_atom_site_fract_y
_atom_site_fract_z
Si Si1 0.990781 0.404838 0.335063
Si Si2 0.628844 0.934023 0.794462
Si Si3 0.314780 0.495165 0.020091
Si Si4 0.757450 0.196076 0.277466
Si Si5 0.115362 0.102043 0.901100
O O1 0.762760 0.548352 0.137922
O O2 0.000000 0.500000 0.500000
O O3 0.139593 0.305132 0.149158
O O4 0.095189 0.204722 0.595138
O O5 0.500000 0.000000 0.500000
O O6 0.701414 0.001429 0.843394
O O7 0.500000 0.000000 0.000000
O O8 0.322181 0.606408 0.795224
O O9 0.544846 0.298246 0.277174
O O10 0.116138 0.689644 0.094026
O O11 0.811810 0.087311 0.063600
O O12 0.000000 0.000000 0.500000
#
# Coordination Sequence:
#
# PCOD9051365 Si02
#       5
#     2   2   2   2   2
#     4  11  25  46  72 108 157 198 255 315 386 457
#     4  11  24  45  72 107 147 201 257 309 378 461
#     4  10  25  46  68 110 149 196 257 318 378 462
#     4  11  23  46  76 103 150 201 255 317 384 457
#     4  11  24  45  72 106 152 200 253 316 388 452
#
# _framework density 26.977194000000001
#
# number of rings (size 3 to 8) (size 9 to 14) (size 15 to 20)
#    0.000    1.200    4.000    0.600    2.800    5.600 
#    3.600    0.000    0.000    0.000    0.000    0.000 
#    0.000    0.000    0.000    0.000    0.000    0.000 
#
# Total GULP energy -55805.185265 kJ/mol
# GULP energy per Si atom -5580.518526 kJ/mol
# Density = 2.691579 g / cm^3
# Si number density = 26.977194 Si / 1000 Ang^3
#
#
#
# Elastic Constant Matrix: (Units=GPa)
#
#
# Indices 1 2 3 4 5 6 
#
# 1 184.7932 75.1014 91.5875 3.0467 72.1550 -13.0843
# 2 75.1014 130.8852 48.9470 13.5656 17.2649 -18.9554
# 3 91.5875 48.9470 128.3305 4.5002 39.7365 -11.9165
# 4 3.0467 13.5656 4.5002 60.7659 2.4871 9.9165
# 5 72.1550 17.2649 39.7365 2.4871 67.8268 -3.9415
# 6 -13.0843 -18.9554 -11.9165 9.9165 -3.9415 66.2831
#
#
#
# Elastic Compliance Matrix: (Units=1/GPa)
#
#
# Indices 1 2 3 4 5 6 
#
# 1 0.014048 -0.005005 -0.004815 0.001276 -0.010918 -0.000364
# 2 -0.005005 0.011254 -0.001496 -0.002719 0.003586 0.002581
# 3 -0.004815 -0.001496 0.012419 -0.000407 -0.001710 0.000814
# 4 0.001276 -0.002719 -0.000407 0.017622 -0.001265 -0.003310
# 5 -0.010918 0.003586 -0.001710 -0.001265 0.026512 0.000329
# 6 -0.000364 0.002581 0.000814 -0.003310 0.000329 0.016414
#
#
# Mechanical properties :
#
#
# Convention : Reuss Voigt Hill
#
# Bulk Modulus (GPa) = 66.27052 97.25341 81.76197
# Shear Modulus (GPa) = 39.70460 54.20001 46.95231
#
# Velocity S-wave (km/s) = 3.84055 4.48717 4.17639
# Velocity P-wave (km/s) = 6.65471 7.93566 7.32324
#
# Compressibility (1/GPa) = 0.01508966
#
# Stress axis : x y z
#
# Youngs Moduli (GPa) = 71.18501 88.85658 80.52416
#
# Poissons Ratio (x) = 0.44471 0.38771
# Poissons Ratio (y) = 0.35627 0.12045
# Poissons Ratio (z) = 0.34275 0.13291
#
# Static dielectric constant tensor:
#      x y z
#    x 2.216100 0.006540 -0.111590 
#    y 0.006540 2.122310 -0.118920 
#    z -0.111590 -0.118920 2.285570 
# 
# From -- ./inp_files/70613.got.cif
#   From: 2010.05.17/outbox.cif.g08.bks.cpg/sg2_36_cif.got.tgz:70613.got - 2010.06.03 11:33:40.
