data_PCOD9051802
_publ_section_title
;
Structure prediction by ZEFSAII (Michael W. Deem and Ramdas Pophale) SiO2 
 PCOD9051802
Probable space group: P -1
;
_chemical_formula_sum "Si O2"
_cell_formula_units_Z 15
_cell_length_a 14.951907
_cell_length_b 9.791303
_cell_length_c 10.699755
_cell_angle_alpha 137.423573
_cell_angle_beta 36.268149
_cell_angle_gamma 142.562028
_cell_volume 542.780958
_symmetry_space_group_name_H-M "P -1"
_symmetry_group_IT_number 2
_symmetry_cell_setting 'triclinic'
loop_
_space_group_symop_operation_xyz
x,y,z
-x,-y,-z
loop_
_atom_site_type_symbol
_atom_site_label
_atom_site_fract_x
_atom_site_fract_y
_atom_site_fract_z
Si Si1 0.000000 0.500000 0.000000
Si Si2 0.227576 0.086256 0.093055
Si Si3 0.166878 0.701864 0.511385
Si Si4 0.963625 0.793008 0.001203
Si Si5 0.625763 0.160017 0.081039
Si Si6 0.512897 0.244108 0.692891
Si Si7 0.755416 0.633081 0.512328
Si Si8 0.678975 0.801284 0.461962
O O1 0.167737 0.649833 0.023077
O O2 0.135951 0.475076 0.739862
O O3 0.166835 0.205670 0.343354
O O4 0.338150 0.213734 0.931236
O O5 0.057876 0.858888 0.077239
O O6 0.361096 0.025420 0.968665
O O7 0.325465 0.657114 0.326770
O O8 0.000000 0.500000 0.500000
O O9 0.236225 0.935799 0.509877
O O10 0.082187 0.709362 0.742786
O O11 0.762160 0.693678 0.199441
O O12 0.000000 0.000000 0.000000
O O13 0.521808 0.274387 0.340621
O O14 0.500000 0.000000 0.000000
O O15 0.575586 0.424933 0.631463
O O16 0.500000 0.000000 0.500000
O O17 0.737113 0.783136 0.524222
#
# Coordination Sequence:
#
# PCOD9051802 Si02
#       8
#     1   2   2   2   2   2   2   2
#     4  12  32  54  82 130 174 228 294 358 456 522
#     4  12  25  53  86 119 171 232 285 361 439 528
#     4  11  26  51  83 121 170 225 285 350 435 522
#     4  10  25  47  81 123 168 223 285 353 431 520
#     4  12  27  55  84 122 178 228 280 369 438 525
#     4  12  26  52  80 116 166 222 279 348 433 518
#     4  12  30  51  86 127 167 229 293 361 444 520
#     4  11  26  54  82 123 174 218 290 363 434 519
#
# _framework density 27.635456999999999
#
# number of rings (size 3 to 8) (size 9 to 14) (size 15 to 20)
#    0.000    0.533    4.000    2.000    7.467    1.600 
#    2.400    1.333    0.000    0.000    0.000    0.000 
#    0.000    0.000    0.000    0.000    0.000    0.000 
#
# Total GULP energy -83714.567529 kJ/mol
# GULP energy per Si atom -5580.971169 kJ/mol
# Density = 2.757256 g / cm^3
# Si number density = 27.635457 Si / 1000 Ang^3
#
#
#
# Elastic Constant Matrix: (Units=GPa)
#
#
# Indices 1 2 3 4 5 6 
#
# 1 158.6046 42.4218 26.9829 -14.8687 7.8353 12.9456
# 2 42.4218 100.8322 54.8186 -29.4512 8.4906 31.9932
# 3 26.9829 54.8186 186.1273 -32.7289 8.5080 9.2525
# 4 -14.8687 -29.4512 -32.7289 68.3422 5.5347 3.8549
# 5 7.8353 8.4906 8.5080 5.5347 52.0211 -11.4674
# 6 12.9456 31.9932 9.2525 3.8549 -11.4674 56.8985
#
#
#
# Elastic Compliance Matrix: (Units=1/GPa)
#
#
# Indices 1 2 3 4 5 6 
#
# 1 0.007136 -0.002658 -0.000131 0.000419 -0.000727 -0.000283
# 2 -0.002658 0.018699 -0.003096 0.007045 -0.005309 -0.010953
# 3 -0.000131 -0.003096 0.006637 0.001845 -0.000661 0.000433
# 4 0.000419 0.007045 0.001845 0.019430 -0.005057 -0.006692
# 5 -0.000727 -0.005309 -0.000661 -0.005057 0.022645 0.008165
# 6 -0.000283 -0.010953 0.000433 -0.006692 0.008165 0.025827
#
#
# Mechanical properties :
#
#
# Convention : Reuss Voigt Hill
#
# Bulk Modulus (GPa) = 48.30272 77.11233 62.70752
# Shear Modulus (GPa) = 42.00123 56.87507 49.43815
#
# Velocity S-wave (km/s) = 3.90273 4.54149 4.23417
# Velocity P-wave (km/s) = 6.15019 7.44743 6.82968
#
# Compressibility (1/GPa) = 0.02070277
#
# Stress axis : x y z
#
# Youngs Moduli (GPa) = 140.12590 53.47853 150.68142
#
# Poissons Ratio (x) = 0.14214 0.01970
# Poissons Ratio (y) = 0.37245 0.46650
# Poissons Ratio (z) = 0.01832 0.16557
#
# Static dielectric constant tensor:
#      x y z
#    x 2.524910 -0.131530 0.198690 
#    y -0.131530 2.303920 -0.033110 
#    z 0.198690 -0.033110 2.065810 
# 
# From -- ./inp_files/465621.got.cif
#   From: 2010.05.17/outbox.cif.g08.bks.cpg/sg2_233_cif.got.tgz:465621.got - 2010.06.03 11:33:40.
