data_PCOD9051344
_publ_section_title
;
Structure prediction by ZEFSAII (Michael W. Deem and Ramdas Pophale) SiO2 
 PCOD9051344
Probable space group: P -1
;
_chemical_formula_sum "Si O2"
_cell_formula_units_Z 14
_cell_length_a 8.996748
_cell_length_b 9.884674
_cell_length_c 20.454486
_cell_angle_alpha 50.861683
_cell_angle_beta 152.291782
_cell_angle_gamma 134.750656
_cell_volume 600.485945
_symmetry_space_group_name_H-M "P -1"
_symmetry_group_IT_number 2
_symmetry_cell_setting 'triclinic'
loop_
_space_group_symop_operation_xyz
x,y,z
-x,-y,-z
loop_
_atom_site_type_symbol
_atom_site_label
_atom_site_fract_x
_atom_site_fract_y
_atom_site_fract_z
Si Si1 0.379887 0.620491 0.466854
Si Si2 0.440154 0.094414 0.014344
Si Si3 0.629433 0.020107 0.712940
Si Si4 0.559965 0.402697 0.239792
Si Si5 0.767911 0.524248 0.038030
Si Si6 0.662808 0.544188 0.368784
Si Si7 0.500228 0.866404 0.234561
O O1 0.500000 0.500000 0.500000
O O2 0.467766 0.832295 0.412085
O O3 0.521416 0.595222 0.600544
O O4 0.959582 0.520128 0.338856
O O5 0.478971 0.980280 0.127635
O O6 0.712606 0.311791 0.061646
O O7 0.050246 0.091935 0.861466
O O8 0.500000 0.000000 0.000000
O O9 0.467933 0.014211 0.724077
O O10 0.498905 0.809317 0.698243
O O11 0.329954 0.389367 0.091118
O O12 0.473848 0.505350 0.236893
O O13 0.500000 0.500000 0.000000
O O14 0.141270 0.676464 0.159254
O O15 0.763917 0.762862 0.361227
O O16 0.000000 0.500000 0.500000
#
# Coordination Sequence:
#
# PCOD9051344 Si02
#       7
#     2   2   2   2   2   2   2
#     4  11  23  47  70  94 133 179 229 271 327 401
#     4  12  26  40  65 104 137 172 220 279 338 398
#     4  12  24  44  69 100 133 175 226 277 330 402
#     4  11  24  43  68  98 136 172 222 281 338 388
#     4  12  23  42  71 100 137 179 221 275 342 402
#     4  10  25  46  67  94 137 179 217 278 332 392
#     4  12  24  45  70  99 137 177 223 275 338 404
#
# _framework density 23.314449
#
# number of rings (size 3 to 8) (size 9 to 14) (size 15 to 20)
#    0.000    0.571    5.714    2.143    4.000    2.286 
#    0.000    0.000    0.000    0.000    0.000    0.000 
#    0.000    0.000    0.000    0.000    0.000    0.000 
#
# Total GULP energy -78392.721379 kJ/mol
# GULP energy per Si atom -5599.480099 kJ/mol
# Density = 2.326138 g / cm^3
# Si number density = 23.314449 Si / 1000 Ang^3
#
#
#
# Elastic Constant Matrix: (Units=GPa)
#
#
# Indices 1 2 3 4 5 6 
#
# 1 118.4706 -0.0416 12.0397 -19.3857 -11.9814 -14.1089
# 2 -0.0416 90.6446 -8.8644 -22.4524 6.5535 7.2567
# 3 12.0397 -8.8644 71.0051 -23.6276 -8.8441 7.6120
# 4 -19.3857 -22.4524 -23.6276 48.0116 5.9898 -4.3046
# 5 -11.9814 6.5535 -8.8441 5.9898 37.6537 -9.0563
# 6 -14.1089 7.2567 7.6120 -4.3046 -9.0563 40.0444
#
#
#
# Elastic Compliance Matrix: (Units=1/GPa)
#
#
# Indices 1 2 3 4 5 6 
#
# 1 0.010070 0.000311 -0.000410 0.003995 0.003575 0.004808
# 2 0.000311 0.014307 0.004729 0.009298 -0.003524 -0.003180
# 3 -0.000410 0.004729 0.018836 0.010909 0.000968 -0.003190
# 4 0.003995 0.009298 0.010909 0.032558 -0.002842 0.000506
# 5 0.003575 -0.003524 0.000968 -0.002842 0.031014 0.008423
# 6 0.004808 -0.003180 -0.003190 0.000506 0.008423 0.029808
#
#
# Mechanical properties :
#
#
# Convention : Reuss Voigt Hill
#
# Bulk Modulus (GPa) = 19.05663 31.82087 25.43875
# Shear Modulus (GPa) = 34.52457 43.60773 39.06615
#
# Velocity S-wave (km/s) = 3.85232 4.32952 4.09787
# Velocity P-wave (km/s) = 5.28949 6.21862 5.77278
#
# Compressibility (1/GPa) = 0.05247519
#
# Stress axis : x y z
#
# Youngs Moduli (GPa) = 99.30046 69.89458 53.08962
#
# Poissons Ratio (x) = -0.02172 0.02174
# Poissons Ratio (y) = -0.03086 -0.25108
# Poissons Ratio (z) = 0.04066 -0.33056
#
# Static dielectric constant tensor:
#      x y z
#    x 1.896010 -0.015790 0.033010 
#    y -0.015790 1.837510 0.012170 
#    z 0.033010 0.012170 1.969630 
# 
# From -- ./inp_files/178611.got.cif
#   From: 2010.05.17/outbox.cif.g08.bks.cpg/sg2_90_cif.got.tgz:178611.got - 2010.06.03 11:33:40.
