data_PCOD9051771
_publ_section_title
;
Structure prediction by ZEFSAII (Michael W. Deem and Ramdas Pophale) SiO2 
 PCOD9051771
Probable space group: P -1
;
_chemical_formula_sum "Si O2"
_cell_formula_units_Z 13
_cell_length_a 9.085535
_cell_length_b 9.350624
_cell_length_c 9.597248
_cell_angle_alpha 72.232603
_cell_angle_beta 136.346355
_cell_angle_gamma 113.887540
_cell_volume 514.519638
_symmetry_space_group_name_H-M "P -1"
_symmetry_group_IT_number 2
_symmetry_cell_setting 'triclinic'
loop_
_space_group_symop_operation_xyz
x,y,z
-x,-y,-z
loop_
_atom_site_type_symbol
_atom_site_label
_atom_site_fract_x
_atom_site_fract_y
_atom_site_fract_z
Si Si1 0.635480 0.662435 0.369372
Si Si2 0.771137 0.963231 0.935171
Si Si3 0.432180 0.644588 0.733639
Si Si4 0.000000 0.500000 0.000000
Si Si5 0.145925 0.672849 0.767538
Si Si6 0.671619 0.254494 0.656217
Si Si7 0.784856 0.988858 0.261585
O O1 0.510675 0.502324 0.255408
O O2 0.532601 0.684709 0.441721
O O3 0.629987 0.817117 0.237091
O O4 0.889883 0.657690 0.555510
O O5 0.643631 0.781438 0.884071
O O6 0.644787 0.079496 0.743212
O O7 0.826534 0.002294 0.122475
O O8 0.000000 0.000000 0.000000
O O9 0.265018 0.587869 0.764613
O O10 0.320799 0.722053 0.510963
O O11 0.113851 0.628561 0.161663
O O12 0.871996 0.377093 0.070439
O O13 0.281852 0.856615 0.787811
O O14 0.000000 0.000000 0.500000
#
# Coordination Sequence:
#
# PCOD9051771 Si02
#       7
#     2   2   2   1   2   2   2
#     4  11  26  47  79 108 154 205 250 310 388 453
#     4  12  30  48  77 114 152 199 261 321 380 455
#     4  12  28  48  78 114 155 200 260 312 381 453
#     4  12  26  44  82 108 154 196 266 302 384 450
#     4  11  25  50  78 110 152 204 255 319 376 458
#     4  12  28  48  77 109 157 201 252 316 385 454
#     4  10  25  47  76 103 150 200 249 309 387 444
#
# _framework density 25.266283000000001
#
# number of rings (size 3 to 8) (size 9 to 14) (size 15 to 20)
#    0.000    0.615    3.077    2.308   12.923    1.846 
#    0.000    0.000    0.000    0.000    0.000    0.000 
#    0.000    0.000    0.000    0.000    0.000    0.000 
#
# Total GULP energy -72626.667609 kJ/mol
# GULP energy per Si atom -5586.666739 kJ/mol
# Density = 2.520878 g / cm^3
# Si number density = 25.266283 Si / 1000 Ang^3
#
#
#
# Elastic Constant Matrix: (Units=GPa)
#
#
# Indices 1 2 3 4 5 6 
#
# 1 95.9446 11.9627 20.0438 -3.1964 -12.4037 6.8684
# 2 11.9627 143.3139 12.9821 6.1471 3.7507 15.2389
# 3 20.0438 12.9821 110.8277 4.5074 -18.4257 4.2620
# 4 -3.1964 6.1471 4.5074 43.5818 8.3879 -6.4919
# 5 -12.4037 3.7507 -18.4257 8.3879 51.8609 -5.8054
# 6 6.8684 15.2389 4.2620 -6.4919 -5.8054 30.9607
#
#
#
# Elastic Compliance Matrix: (Units=1/GPa)
#
#
# Indices 1 2 3 4 5 6 
#
# 1 0.011213 -0.000709 -0.001589 0.000500 0.001925 -0.001454
# 2 -0.000709 0.007624 -0.000754 -0.001415 -0.001210 -0.004015
# 3 -0.001589 -0.000754 0.010067 -0.001781 0.003497 -0.000380
# 4 0.000500 -0.001415 -0.001781 0.024899 -0.003841 0.005331
# 5 0.001925 -0.001210 0.003497 -0.003841 0.022031 0.003013
# 6 -0.001454 -0.004015 -0.000380 0.005331 0.003013 0.036333
#
#
# Mechanical properties :
#
#
# Convention : Reuss Voigt Hill
#
# Bulk Modulus (GPa) = 43.86064 48.89592 46.37828
# Shear Modulus (GPa) = 39.72291 45.62054 42.67172
#
# Velocity S-wave (km/s) = 3.96936 4.25383 4.11406
# Velocity P-wave (km/s) = 6.19716 6.59705 6.40023
#
# Compressibility (1/GPa) = 0.02279949
#
# Stress axis : x y z
#
# Youngs Moduli (GPa) = 89.18479 131.15685 99.33302
#
# Poissons Ratio (x) = 0.09302 0.15786
# Poissons Ratio (y) = 0.06325 0.07490
# Poissons Ratio (z) = 0.14173 0.09889
#
# Static dielectric constant tensor:
#      x y z
#    x 1.958840 0.013020 0.065830 
#    y 0.013020 1.996000 -0.033930 
#    z 0.065830 -0.033930 2.004900 
# 
# From -- ./inp_files/158345.got.cif
#   From: 2010.05.17/outbox.cif.g08.bks.cpg/sg2_80_cif.got.tgz:158345.got - 2010.06.03 11:33:40.
