data_PCOD9051021
_publ_section_title
;
Structure prediction by ZEFSAII (Michael W. Deem and Ramdas Pophale) SiO2 
 PCOD9051021
Probable space group: P -1
;
_chemical_formula_sum "Si O2"
_cell_formula_units_Z 16
_cell_length_a 8.411122
_cell_length_b 22.464898
_cell_length_c 6.817551
_cell_angle_alpha 91.940629
_cell_angle_beta 121.171441
_cell_angle_gamma 130.648835
_cell_volume 686.215022
_symmetry_space_group_name_H-M "P -1"
_symmetry_group_IT_number 2
_symmetry_cell_setting 'triclinic'
loop_
_space_group_symop_operation_xyz
x,y,z
-x,-y,-z
loop_
_atom_site_type_symbol
_atom_site_label
_atom_site_fract_x
_atom_site_fract_y
_atom_site_fract_z
Si Si1 0.690720 0.649018 0.159309
Si Si2 0.802268 0.604711 0.615517
Si Si3 0.221540 0.521489 0.508287
Si Si4 0.099649 0.877638 0.775504
Si Si5 0.339765 0.983969 0.590190
Si Si6 0.542090 0.328880 0.651922
Si Si7 0.795938 0.260580 0.774657
Si Si8 0.119842 0.045607 0.295315
O O1 0.718554 0.612996 0.359470
O O2 0.533265 0.665636 0.174173
O O3 0.016954 0.724590 0.275868
O O4 0.489606 0.577328 0.840059
O O5 0.500000 0.500000 0.500000
O O6 0.963282 0.583284 0.677111
O O7 0.006198 0.695493 0.895990
O O8 0.327448 0.586010 0.394049
O O9 0.000000 0.500000 0.500000
O O10 0.793559 0.772719 0.640016
O O11 0.059678 0.939309 0.769163
O O12 0.172238 0.889704 0.592522
O O13 0.381240 0.927420 0.084975
O O14 0.114395 0.981604 0.400462
O O15 0.500000 0.000000 0.500000
O O16 0.738199 0.318336 0.736106
O O17 0.466810 0.150666 0.549535
O O18 0.000000 0.000000 0.000000
#
# Coordination Sequence:
#
# PCOD9051021 Si02
#       8
#     2   2   2   2   2   2   2   2
#     4  12  25  44  71 100 142 190 233 292 353 422
#     4  12  24  44  68 100 139 182 235 286 349 421
#     4  12  26  43  74 100 141 191 236 291 359 420
#     4  10  25  45  67 106 142 184 236 301 356 427
#     4  11  23  41  75 100 138 186 238 289 363 433
#     4  11  26  45  67 105 143 180 242 292 352 428
#     4  11  27  46  70 105 142 186 238 295 351 427
#     4  11  24  48  72 103 146 187 237 298 359 424
#
# _framework density 23.316305
#
# number of rings (size 3 to 8) (size 9 to 14) (size 15 to 20)
#    0.000    0.750    3.750    2.250    7.000    1.000 
#    4.500    0.000    0.000    0.000    0.000    0.000 
#    0.000    0.000    0.000    0.000    0.000    0.000 
#
# Total GULP energy -89206.036907 kJ/mol
# GULP energy per Si atom -5575.377307 kJ/mol
# Density = 2.326324 g / cm^3
# Si number density = 23.316305 Si / 1000 Ang^3
#
#
#
# Elastic Constant Matrix: (Units=GPa)
#
#
# Indices 1 2 3 4 5 6 
#
# 1 129.0216 12.7963 20.3920 -0.4376 -10.2914 -2.4955
# 2 12.7963 37.5453 33.9744 -9.1711 -4.1250 -7.8386
# 3 20.3920 33.9744 118.3465 -1.9971 1.2656 -3.3872
# 4 -0.4376 -9.1711 -1.9971 28.4556 0.2879 4.2183
# 5 -10.2914 -4.1250 1.2656 0.2879 46.7951 -1.6393
# 6 -2.4955 -7.8386 -3.3872 4.2183 -1.6393 37.8479
#
#
#
# Elastic Compliance Matrix: (Units=1/GPa)
#
#
# Indices 1 2 3 4 5 6 
#
# 1 0.008216 -0.001918 -0.000887 -0.000601 0.001673 0.000205
# 2 -0.001918 0.042319 -0.011474 0.011809 0.003773 0.006458
# 3 -0.000887 -0.011474 0.011835 -0.002696 -0.001550 -0.001142
# 4 -0.000601 0.011809 -0.002696 0.039063 0.000666 -0.002160
# 5 0.001673 0.003773 -0.001550 0.000666 0.022165 0.001639
# 6 0.000205 0.006458 -0.001142 -0.002160 0.001639 0.027982
#
#
# Mechanical properties :
#
#
# Convention : Reuss Voigt Hill
#
# Bulk Modulus (GPa) = 29.57615 46.58207 38.07911
# Shear Modulus (GPa) = 26.12190 37.13644 31.62917
#
# Velocity S-wave (km/s) = 3.35076 3.99522 3.68710
# Velocity P-wave (km/s) = 5.26141 6.42683 5.87310
#
# Compressibility (1/GPa) = 0.03381102
#
# Stress axis : x y z
#
# Youngs Moduli (GPa) = 121.70717 23.63032 84.49458
#
# Poissons Ratio (x) = 0.04532 0.07498
# Poissons Ratio (y) = 0.23340 0.96952
# Poissons Ratio (z) = 0.10800 0.27114
#
# Static dielectric constant tensor:
#      x y z
#    x 1.450790 0.266090 0.352310 
#    y 0.266090 1.779210 -0.152420 
#    z 0.352310 -0.152420 1.738370 
# 
# From -- ./inp_files/55526.got.cif
#   From: 2010.05.17/outbox.cif.g08.bks.cpg/sg2_28_cif.got.tgz:55526.got - 2010.06.03 11:33:40.
