data_PCOD9051102
_publ_section_title
;
Structure prediction by ZEFSAII (Michael W. Deem and Ramdas Pophale) SiO2 
 PCOD9051102
Probable space group: P -1
;
_chemical_formula_sum "Si O2"
_cell_formula_units_Z 14
_cell_length_a 10.498814
_cell_length_b 7.609261
_cell_length_c 16.687181
_cell_angle_alpha 41.157736
_cell_angle_beta 141.289835
_cell_angle_gamma 137.245116
_cell_volume 512.619907
_symmetry_space_group_name_H-M "P -1"
_symmetry_group_IT_number 2
_symmetry_cell_setting 'triclinic'
loop_
_space_group_symop_operation_xyz
x,y,z
-x,-y,-z
loop_
_atom_site_type_symbol
_atom_site_label
_atom_site_fract_x
_atom_site_fract_y
_atom_site_fract_z
Si Si1 0.546716 0.764612 0.220294
Si Si2 0.119544 0.757278 0.531508
Si Si3 0.459932 0.977662 0.265892
Si Si4 0.739918 0.620854 0.036484
Si Si5 0.137966 0.617134 0.340173
Si Si6 0.192496 0.808641 0.914255
Si Si7 0.250202 0.164042 0.317086
O O1 0.582929 0.927553 0.265674
O O2 0.467163 0.432005 0.316243
O O3 0.734294 0.894626 0.202575
O O4 0.350333 0.835923 0.056553
O O5 0.951384 0.671679 0.552835
O O6 0.000000 0.500000 0.500000
O O7 0.356610 0.788357 0.672168
O O8 0.187170 0.053365 0.414453
O O9 0.328441 0.678763 0.347527
O O10 0.270035 0.093963 0.107059
O O11 0.500000 0.500000 0.000000
O O12 0.924205 0.645194 0.183734
O O13 0.772127 0.417751 0.052187
O O14 0.239228 0.890037 0.354648
O O15 0.945954 0.738345 0.841746
#
# Coordination Sequence:
#
# PCOD9051102 Si02
#       7
#     2   2   2   2   2   2   2
#     4  11  24  41  66 100 135 177 217 280 346 394
#     4  10  25  45  69  98 136 185 232 279 327 399
#     4  12  24  44  71 101 137 177 235 275 335 403
#     4  12  22  43  74  99 135 172 225 283 337 398
#     4  11  24  43  71 103 132 180 229 281 334 401
#     4  11  24  42  68  99 138 175 217 282 343 402
#     4  11  25  43  66  99 141 177 225 273 342 401
#
# _framework density 27.310683999999998
#
# number of rings (size 3 to 8) (size 9 to 14) (size 15 to 20)
#    0.000    0.857    2.857    3.429    2.000    6.286 
#    0.000    5.000    0.000    0.000    0.000    0.000 
#    0.000    0.000    0.000    0.000    0.000    0.000 
#
# Total GULP energy -78508.384473 kJ/mol
# GULP energy per Si atom -5607.741748 kJ/mol
# Density = 2.724852 g / cm^3
# Si number density = 27.310684 Si / 1000 Ang^3
#
#
#
# Elastic Constant Matrix: (Units=GPa)
#
#
# Indices 1 2 3 4 5 6 
#
# 1 68.5048 33.9912 36.6328 -3.1793 0.5390 14.8314
# 2 33.9912 152.3334 50.6286 -8.8529 -18.2373 6.4358
# 3 36.6328 50.6286 121.3084 -1.8526 -6.7428 6.5963
# 4 -3.1793 -8.8529 -1.8526 43.3741 12.2953 -6.4330
# 5 0.5390 -18.2373 -6.7428 12.2953 46.2097 -10.8549
# 6 14.8314 6.4358 6.5963 -6.4330 -10.8549 51.3246
#
#
#
# Elastic Compliance Matrix: (Units=1/GPa)
#
#
# Indices 1 2 3 4 5 6 
#
# 1 0.019808 -0.003042 -0.004605 0.000853 -0.003600 -0.005405
# 2 -0.003042 0.008428 -0.002467 0.000661 0.003028 0.000863
# 3 -0.004605 -0.002467 0.010683 -0.000578 0.000882 0.000381
# 4 0.000853 0.000661 -0.000578 0.025213 -0.006166 0.001601
# 5 -0.003600 0.003028 0.000882 -0.006166 0.025880 0.005248
# 6 -0.005405 0.000863 0.000381 0.001601 0.005248 0.022199
#
#
# Mechanical properties :
#
#
# Convention : Reuss Voigt Hill
#
# Bulk Modulus (GPa) = 53.50525 64.96132 59.23328
# Shear Modulus (GPa) = 36.05669 42.90794 39.48232
#
# Velocity S-wave (km/s) = 3.63745 3.96802 3.80633
# Velocity P-wave (km/s) = 6.10535 6.69561 6.40728
#
# Compressibility (1/GPa) = 0.01868975
#
# Stress axis : x y z
#
# Youngs Moduli (GPa) = 50.48515 118.65278 93.60463
#
# Poissons Ratio (x) = 0.36100 0.43105
# Poissons Ratio (y) = 0.15360 0.23094
# Poissons Ratio (z) = 0.23248 0.29274
#
# Static dielectric constant tensor:
#      x y z
#    x 2.062170 0.011240 -0.025070 
#    y 0.011240 2.082220 -0.045370 
#    z -0.025070 -0.045370 2.209180 
# 
# From -- ./inp_files/515096.got.cif
#   From: 2010.05.17/outbox.cif.g08.bks.cpg/sg2_258_cif.got.tgz:515096.got - 2010.06.03 11:33:40.
