data_PCOD9051375
_publ_section_title
;
Structure prediction by ZEFSAII (Michael W. Deem and Ramdas Pophale) SiO2 
 PCOD9051375
Probable space group: P -1
;
_chemical_formula_sum "Si O2"
_cell_formula_units_Z 16
_cell_length_a 9.675009
_cell_length_b 31.417374
_cell_length_c 5.255679
_cell_angle_alpha 76.513959
_cell_angle_beta 100.424891
_cell_angle_gamma 153.597588
_cell_volume 689.349342
_symmetry_space_group_name_H-M "P -1"
_symmetry_group_IT_number 2
_symmetry_cell_setting 'triclinic'
loop_
_space_group_symop_operation_xyz
x,y,z
-x,-y,-z
loop_
_atom_site_type_symbol
_atom_site_label
_atom_site_fract_x
_atom_site_fract_y
_atom_site_fract_z
Si Si1 0.386689 0.801636 0.840480
Si Si2 0.331348 0.175286 0.495333
Si Si3 0.097760 0.179794 0.033859
Si Si4 0.728098 0.981452 0.831889
Si Si5 0.705768 0.320546 0.791514
Si Si6 0.138101 0.514733 0.773899
Si Si7 0.123663 0.270633 0.280269
Si Si8 0.359438 0.904216 0.315304
O O1 0.495142 0.818302 0.569580
O O2 0.657398 0.910391 0.861347
O O3 0.072356 0.741918 0.855943
O O4 0.329173 0.738477 0.034939
O O5 0.129152 0.145097 0.261698
O O6 0.601562 0.284489 0.515851
O O7 0.085121 0.093644 0.743758
O O8 0.067547 0.212856 0.162594
O O9 0.425967 0.272604 0.871199
O O10 0.813032 0.101025 0.849072
O O11 0.536462 0.952271 0.577128
O O12 0.580097 0.948656 0.103658
O O13 0.016638 0.431171 0.819704
O O14 0.510334 0.620405 0.741254
O O15 0.000000 0.500000 0.500000
O O16 0.000000 0.500000 0.000000
O O17 0.948288 0.210759 0.570355
#
# Coordination Sequence:
#
# PCOD9051375 Si02
#       8
#     2   2   2   2   2   2   2   2
#     4  10  25  46  69 101 149 192 237 295 352 426
#     4  11  26  44  68 105 147 192 243 298 353 420
#     4  11  21  44  69 101 146 186 236 304 353 415
#     4  11  26  44  72 102 142 199 242 290 355 427
#     4  11  26  44  72 107 148 186 239 297 357 424
#     4  12  26  47  80 111 141 184 238 290 364 435
#     4  11  24  47  75 105 143 191 235 296 361 423
#     4  11  23  43  69 106 138 179 249 294 353 411
#
# _framework density 23.210291999999999
#
# number of rings (size 3 to 8) (size 9 to 14) (size 15 to 20)
#    0.000    1.000    3.750    2.625    8.750    2.000 
#    0.000    0.625    0.000    0.000    0.000    0.000 
#    0.000    0.000    0.000    0.000    0.000    0.000 
#
# Total GULP energy -89430.966954 kJ/mol
# GULP energy per Si atom -5589.435435 kJ/mol
# Density = 2.315746 g / cm^3
# Si number density = 23.210292 Si / 1000 Ang^3
#
#
#
# Elastic Constant Matrix: (Units=GPa)
#
#
# Indices 1 2 3 4 5 6 
#
# 1 136.9612 45.0561 36.2448 4.1673 -13.0494 1.6604
# 2 45.0561 167.4022 42.6224 -14.4643 -13.5044 -3.9131
# 3 36.2448 42.6224 99.6017 10.4122 -13.5659 -1.2653
# 4 4.1673 -14.4643 10.4122 30.9926 1.5767 -1.3996
# 5 -13.0494 -13.5044 -13.5659 1.5767 48.6409 0.0529
# 6 1.6604 -3.9131 -1.2653 -1.3996 0.0529 33.7200
#
#
#
# Elastic Compliance Matrix: (Units=1/GPa)
#
#
# Indices 1 2 3 4 5 6 
#
# 1 0.008621 -0.001841 -0.002034 -0.001435 0.001282 -0.000776
# 2 -0.001841 0.007749 -0.003057 0.004907 0.000644 0.001078
# 3 -0.002034 -0.003057 0.013008 -0.005647 0.002416 -0.000005
# 4 -0.001435 0.004907 -0.005647 0.036826 -0.001793 0.001960
# 5 0.001282 0.000644 0.002416 -0.001793 0.021814 -0.000006
# 6 -0.000776 0.001078 -0.000005 0.001960 -0.000006 0.029900
#
#
# Mechanical properties :
#
#
# Convention : Reuss Voigt Hill
#
# Bulk Modulus (GPa) = 64.46832 72.42351 68.44591
# Shear Modulus (GPa) = 36.50877 41.34016 38.92447
#
# Velocity S-wave (km/s) = 3.97035 4.22490 4.09960
# Velocity P-wave (km/s) = 6.98959 7.42096 7.20850
#
# Compressibility (1/GPa) = 0.01551149
#
# Stress axis : x y z
#
# Youngs Moduli (GPa) = 116.00215 129.05272 76.87541
#
# Poissons Ratio (x) = 0.23758 0.15640
# Poissons Ratio (y) = 0.21356 0.23505
# Poissons Ratio (z) = 0.23600 0.39458
#
# Static dielectric constant tensor:
#      x y z
#    x 1.881830 -0.021290 0.044890 
#    y -0.021290 1.893180 0.043540 
#    z 0.044890 0.043540 1.996990 
# 
# From -- ./inp_files/56857.got.cif
#   From: 2010.05.17/outbox.cif.g08.bks.cpg/sg2_29_cif.got.tgz:56857.got - 2010.06.03 11:33:40.
