data_PCOD9051942
_publ_section_title
;
Structure prediction by ZEFSAII (Michael W. Deem and Ramdas Pophale) SiO2 
 PCOD9051942
Probable space group: P -1
;
_chemical_formula_sum "Si O2"
_cell_formula_units_Z 10
_cell_length_a 7.758283
_cell_length_b 12.206943
_cell_length_c 5.493857
_cell_angle_alpha 99.217950
_cell_angle_beta 82.698746
_cell_angle_gamma 50.700855
_cell_volume 379.224633
_symmetry_space_group_name_H-M "P -1"
_symmetry_group_IT_number 2
_symmetry_cell_setting 'triclinic'
loop_
_space_group_symop_operation_xyz
x,y,z
-x,-y,-z
loop_
_atom_site_type_symbol
_atom_site_label
_atom_site_fract_x
_atom_site_fract_y
_atom_site_fract_z
Si Si1 0.389202 0.307974 0.970712
Si Si2 0.502214 0.793763 0.595586
Si Si3 0.872375 0.760272 0.779723
Si Si4 0.101674 0.079598 0.539181
Si Si5 0.773737 0.401144 0.962112
O O1 0.495691 0.277527 0.675115
O O2 0.557078 0.241583 0.152685
O O3 0.197775 0.485089 0.098666
O O4 0.281740 0.229606 0.973657
O O5 0.762508 0.728011 0.579365
O O6 0.324295 0.968373 0.633098
O O7 0.832053 0.898864 0.728746
O O8 0.133312 0.640050 0.790994
O O9 0.922330 0.244151 0.742822
O O10 0.000000 0.000000 0.500000
O O11 0.500000 0.500000 0.000000
#
# Coordination Sequence:
#
# PCOD9051942 Si02
#       5
#     2   2   2   2   2
#     4  10  25  48  80 112 147 189 252 308 371 438
#     4  10  25  48  80 112 147 189 252 308 371 438
#     4  10  26  44  84 100 158 184 262 298 382 424
#     4  12  28  47  73 110 152 200 247 306 374 444
#     4  12  28  47  73 110 152 200 247 306 374 444
#
# _framework density 26.369593999999999
#
# number of rings (size 3 to 8) (size 9 to 14) (size 15 to 20)
#    1.200    0.000    0.000    3.600    8.400    4.800 
#    0.000    2.000    0.000    0.000    0.000    0.000 
#    0.000    0.000    0.000    0.000    0.000    0.000 
#
# Total GULP energy -55837.483427 kJ/mol
# GULP energy per Si atom -5583.748343 kJ/mol
# Density = 2.630958 g / cm^3
# Si number density = 26.369594 Si / 1000 Ang^3
#
#
#
# Elastic Constant Matrix: (Units=GPa)
#
#
# Indices 1 2 3 4 5 6 
#
# 1 115.9481 54.2446 35.1710 -8.3005 20.8182 -4.1108
# 2 54.2446 232.6030 91.0407 -13.5696 20.4819 -12.9603
# 3 35.1710 91.0407 138.4172 -8.0613 23.5527 -10.5943
# 4 -8.3005 -13.5696 -8.0613 68.2549 -6.2546 4.9455
# 5 20.8182 20.4819 23.5527 -6.2546 12.7634 -3.6189
# 6 -4.1108 -12.9603 -10.5943 4.9455 -3.6189 63.6711
#
#
#
# Elastic Compliance Matrix: (Units=1/GPa)
#
#
# Indices 1 2 3 4 5 6 
#
# 1 0.012712 -0.001725 0.001402 -0.000517 -0.020934 -0.000447
# 2 -0.001725 0.006149 -0.003506 0.000546 -0.000173 0.000505
# 3 0.001402 -0.003506 0.012595 -0.000923 -0.020244 0.000394
# 4 -0.000517 0.000546 -0.000923 0.015471 0.009035 -0.000764
# 5 -0.020934 -0.000173 -0.020244 0.009035 0.155515 0.003382
# 6 -0.000447 0.000505 0.000394 -0.000764 0.003382 0.016097
#
#
# Mechanical properties :
#
#
# Convention : Reuss Voigt Hill
#
# Bulk Modulus (GPa) = 42.01946 94.20899 68.11422
# Shear Modulus (GPa) = 21.35573 49.37200 35.36386
#
# Velocity S-wave (km/s) = 2.84889 4.33171 3.66606
# Velocity P-wave (km/s) = 5.17600 7.79886 6.61866
#
# Compressibility (1/GPa) = 0.02379850
#
# Stress axis : x y z
#
# Youngs Moduli (GPa) = 78.66579 162.62802 79.39448
#
# Poissons Ratio (x) = 0.28055 -0.11134
# Poissons Ratio (y) = 0.13571 0.27837
# Poissons Ratio (z) = -0.11032 0.57020
#
# Static dielectric constant tensor:
#      x y z
#    x 2.129200 0.010830 -0.063630 
#    y 0.010830 2.070880 -0.015060 
#    z -0.063630 -0.015060 2.189940 
# 
# From -- ./inp_files/18843.got.cif
#   From: 2010.05.17/outbox.cif.g08.bks.cpg/sg2_10_cif.got.tgz:18843.got - 2010.06.03 11:33:40.
