data_PCOD9051059
_publ_section_title
;
Structure prediction by ZEFSAII (Michael W. Deem and Ramdas Pophale) SiO2 
 PCOD9051059
Probable space group: P -1
;
_chemical_formula_sum "Si O2"
_cell_formula_units_Z 16
_cell_length_a 19.462793
_cell_length_b 13.510508
_cell_length_c 8.257491
_cell_angle_alpha 126.199718
_cell_angle_beta 54.017120
_cell_angle_gamma 153.341512
_cell_volume 775.383629
_symmetry_space_group_name_H-M "P -1"
_symmetry_group_IT_number 2
_symmetry_cell_setting 'triclinic'
loop_
_space_group_symop_operation_xyz
x,y,z
-x,-y,-z
loop_
_atom_site_type_symbol
_atom_site_label
_atom_site_fract_x
_atom_site_fract_y
_atom_site_fract_z
Si Si1 0.321360 0.758784 0.495251
Si Si2 0.869075 0.506868 0.182532
Si Si3 0.853608 0.239827 0.418970
Si Si4 0.720867 0.528723 0.906895
Si Si5 0.331841 0.347596 0.152223
Si Si6 0.554785 0.655632 0.716793
Si Si7 0.006760 0.827302 0.011988
Si Si8 0.801900 0.164836 0.790491
O O1 0.246578 0.614963 0.624216
O O2 0.249853 0.805699 0.601924
O O3 0.295801 0.637059 0.260115
O O4 0.500000 0.000000 0.500000
O O5 0.032433 0.676365 0.211100
O O6 0.800075 0.304576 0.986562
O O7 0.910451 0.661884 0.142920
O O8 0.918854 0.199430 0.205516
O O9 0.787002 0.137358 0.590326
O O10 0.000000 0.500000 0.500000
O O11 0.687412 0.540863 0.784953
O O12 0.885839 0.744193 0.975636
O O13 0.596744 0.457990 0.111773
O O14 0.354346 0.333777 0.289570
O O15 0.500000 0.500000 0.000000
O O16 0.163419 0.090254 0.087978
O O17 0.500000 0.500000 0.500000
O O18 0.672811 0.912646 0.783562
#
# Coordination Sequence:
#
# PCOD9051059 Si02
#       8
#     2   2   2   2   2   2   2   2
#     4  12  26  42  68 104 141 176 226 284 344 413
#     4  11  21  39  68 103 130 175 225 282 346 393
#     4  12  22  41  67 101 135 178 221 274 347 410
#     4  11  25  46  66 102 139 179 233 280 344 404
#     4  10  25  45  68  94 134 189 230 278 340 404
#     4  11  26  46  68 101 137 183 233 282 342 410
#     4  12  23  44  72 100 140 177 232 286 336 415
#     4  11  21  39  69  97 135 175 229 281 334 410
#
# _framework density 20.634947
#
# number of rings (size 3 to 8) (size 9 to 14) (size 15 to 20)
#    0.000    0.750    5.000    1.875    7.000    2.000 
#    2.250    3.750    0.000    0.000    0.000    0.000 
#    0.000    0.000    0.000    0.000    0.000    0.000 
#
# Total GULP energy -89105.108833 kJ/mol
# GULP energy per Si atom -5569.069302 kJ/mol
# Density = 2.058798 g / cm^3
# Si number density = 20.634947 Si / 1000 Ang^3
#
#
#
# Elastic Constant Matrix: (Units=GPa)
#
#
# Indices 1 2 3 4 5 6 
#
# 1 115.2953 43.5997 17.8652 -16.6044 -7.1666 8.8534
# 2 43.5997 98.8631 25.7234 0.3179 -7.1532 27.9670
# 3 17.8652 25.7234 76.7322 -12.7158 -10.6055 8.2679
# 4 -16.6044 0.3179 -12.7158 19.8572 1.8422 2.7770
# 5 -7.1666 -7.1532 -10.6055 1.8422 20.6270 0.1932
# 6 8.8534 27.9670 8.2679 2.7770 0.1932 33.8720
#
#
#
# Elastic Compliance Matrix: (Units=1/GPa)
#
#
# Indices 1 2 3 4 5 6 
#
# 1 0.012319 -0.005702 0.001067 0.010856 0.001879 0.000327
# 2 -0.005702 0.016973 -0.003834 -0.006183 0.002590 -0.011096
# 3 0.001067 -0.003834 0.017197 0.011651 0.006864 -0.002306
# 4 0.010856 -0.006183 0.011651 0.067704 0.001629 -0.006137
# 5 0.001879 0.002590 0.006864 0.001629 0.053459 -0.004744
# 6 0.000327 -0.011096 -0.002306 -0.006137 -0.004744 0.039692
#
#
# Mechanical properties :
#
#
# Convention : Reuss Voigt Hill
#
# Bulk Modulus (GPa) = 33.83839 51.69635 42.76737
# Shear Modulus (GPa) = 21.35530 28.45141 24.90336
#
# Velocity S-wave (km/s) = 3.22049 3.71724 3.47775
# Velocity P-wave (km/s) = 5.50118 6.59781 6.07429
#
# Compressibility (1/GPa) = 0.02955224
#
# Stress axis : x y z
#
# Youngs Moduli (GPa) = 81.17270 58.91623 58.14920
#
# Poissons Ratio (x) = 0.33594 -0.06203
# Poissons Ratio (y) = 0.46284 0.22292
# Poissons Ratio (z) = -0.08658 0.22586
#
# Static dielectric constant tensor:
#      x y z
#    x 1.728780 -0.085230 0.029610 
#    y -0.085230 1.730240 -0.037200 
#    z 0.029610 -0.037200 1.723980 
# 
# From -- ./inp_files/333716.got.cif
#   From: 2010.05.17/outbox.cif.g08.bks.cpg/sg2_167_cif.got.tgz:333716.got - 2010.06.03 11:33:40.
