data_PCOD9051990
_publ_section_title
;
Structure prediction by ZEFSAII (Michael W. Deem and Ramdas Pophale) SiO2 
 PCOD9051990
Probable space group: P -1
;
_chemical_formula_sum "Si O2"
_cell_formula_units_Z 16
_cell_length_a 15.897538
_cell_length_b 5.741705
_cell_length_c 8.563863
_cell_angle_alpha 71.671958
_cell_angle_beta 97.780868
_cell_angle_gamma 72.516936
_cell_volume 684.581210
_symmetry_space_group_name_H-M "P -1"
_symmetry_group_IT_number 2
_symmetry_cell_setting 'triclinic'
loop_
_space_group_symop_operation_xyz
x,y,z
-x,-y,-z
loop_
_atom_site_type_symbol
_atom_site_label
_atom_site_fract_x
_atom_site_fract_y
_atom_site_fract_z
Si Si1 0.475434 0.676049 0.206909
Si Si2 0.669475 0.630554 0.212851
Si Si3 0.299825 0.819769 0.939191
Si Si4 0.425084 0.873614 0.480300
Si Si5 0.926955 0.768691 0.484724
Si Si6 0.251047 0.309563 0.477689
Si Si7 0.994016 0.132311 0.207954
Si Si8 0.143943 0.723178 0.108325
O O1 0.559277 0.751364 0.152505
O O2 0.417943 0.851301 0.297752
O O3 0.532798 0.401212 0.362673
O O4 0.400851 0.662673 0.069514
O O5 0.704017 0.374912 0.163424
O O6 0.706793 0.546752 0.416074
O O7 0.698959 0.883815 0.138381
O O8 0.214924 0.837010 0.024051
O O9 0.500000 0.000000 0.500000
O O10 0.331898 0.052817 0.495859
O O11 0.827554 0.764410 0.445233
O O12 0.950152 0.773085 0.672028
O O13 0.000000 0.500000 0.500000
O O14 0.941694 0.993748 0.336707
O O15 0.205295 0.485215 0.280769
O O16 0.069217 0.924296 0.161379
O O17 0.917436 0.329694 0.034948
#
# Coordination Sequence:
#
# PCOD9051990 Si02
#       8
#     2   2   2   2   2   2   2   2
#     4  11  26  46  76 107 155 203 252 314 383 446
#     4  12  28  49  75 111 156 202 256 314 382 455
#     4  12  29  48  78 111 153 202 261 316 380 459
#     4  11  24  46  74 115 153 195 253 319 377 454
#     4  11  24  47  78 106 145 192 246 311 387 454
#     4  12  26  46  80 108 147 204 253 311 386 463
#     4  10  25  49  73 105 150 188 249 317 386 451
#     4  11  26  47  73 111 144 197 252 318 380 456
#
# _framework density 23.371953999999999
#
# number of rings (size 3 to 8) (size 9 to 14) (size 15 to 20)
#    0.000    0.750    2.500    3.000    8.750    1.500 
#    0.000    0.000    0.000    0.000    0.000    0.000 
#    0.000    0.000    0.000    0.000    0.000    0.000 
#
# Total GULP energy -89503.195087 kJ/mol
# GULP energy per Si atom -5593.949693 kJ/mol
# Density = 2.331876 g / cm^3
# Si number density = 23.371954 Si / 1000 Ang^3
#
#
#
# Elastic Constant Matrix: (Units=GPa)
#
#
# Indices 1 2 3 4 5 6 
#
# 1 149.3810 29.5167 29.4538 8.7834 6.4625 -2.1795
# 2 29.5167 94.3552 40.6613 25.8055 1.2577 4.3215
# 3 29.4538 40.6613 116.6540 20.3371 23.1012 4.9565
# 4 8.7834 25.8055 20.3371 35.6478 7.0895 -2.3083
# 5 6.4625 1.2577 23.1012 7.0895 43.9480 -0.1881
# 6 -2.1795 4.3215 4.9565 -2.3083 -0.1881 31.4694
#
#
#
# Elastic Compliance Matrix: (Units=1/GPa)
#
#
# Indices 1 2 3 4 5 6 
#
# 1 0.007322 -0.001930 -0.001204 0.000434 -0.000454 0.000991
# 2 -0.001930 0.015478 -0.003844 -0.009355 0.003361 -0.002320
# 3 -0.001204 -0.003844 0.011847 -0.002690 -0.005514 -0.001652
# 4 0.000434 -0.009355 -0.002690 0.037415 -0.004399 0.004457
# 5 -0.000454 0.003361 -0.005514 -0.004399 0.026333 0.000210
# 6 0.000991 -0.002320 -0.001652 0.004457 0.000210 0.032752
#
#
# Mechanical properties :
#
#
# Convention : Reuss Voigt Hill
#
# Bulk Modulus (GPa) = 48.32750 62.18378 55.25564
# Shear Modulus (GPa) = 32.89461 39.59692 36.24576
#
# Velocity S-wave (km/s) = 3.75566 4.12054 3.94232
# Velocity P-wave (km/s) = 6.28721 7.02156 6.66451
#
# Compressibility (1/GPa) = 0.02069215
#
# Stress axis : x y z
#
# Youngs Moduli (GPa) = 136.58357 64.60625 84.40816
#
# Poissons Ratio (x) = 0.12467 0.10161
# Poissons Ratio (y) = 0.26356 0.32447
# Poissons Ratio (z) = 0.16442 0.24835
#
# Static dielectric constant tensor:
#      x y z
#    x 1.675150 -0.495540 -1.192300 
#    y -0.495540 0.354750 -3.254630 
#    z -1.192300 -3.254630 -4.929380 
# 
# From -- ./inp_files/288524.got.cif
#   From: 2010.05.17/outbox.cif.g08.bks.cpg/sg2_145_cif.got.tgz:288524.got - 2010.06.03 11:33:40.
