data_PCOD9051984
_publ_section_title
;
Structure prediction by ZEFSAII (Michael W. Deem and Ramdas Pophale) SiO2 
 PCOD9051984
Probable space group: P -1
;
_chemical_formula_sum "Si O2"
_cell_formula_units_Z 16
_cell_length_a 5.530069
_cell_length_b 11.796026
_cell_length_c 17.647657
_cell_angle_alpha 49.549474
_cell_angle_beta 90.299989
_cell_angle_gamma 117.289377
_cell_volume 702.093734
_symmetry_space_group_name_H-M "P -1"
_symmetry_group_IT_number 2
_symmetry_cell_setting 'triclinic'
loop_
_space_group_symop_operation_xyz
x,y,z
-x,-y,-z
loop_
_atom_site_type_symbol
_atom_site_label
_atom_site_fract_x
_atom_site_fract_y
_atom_site_fract_z
Si Si1 0.134024 0.359406 0.719887
Si Si2 0.165701 0.309904 0.073113
Si Si3 0.279579 0.418748 0.863309
Si Si4 0.268416 0.323906 0.462961
Si Si5 0.003074 0.366175 0.197105
Si Si6 0.898040 0.910693 0.292056
Si Si7 0.845454 0.103134 0.436096
Si Si8 0.267797 0.635648 0.383674
O O1 0.178832 0.326522 0.820309
O O2 0.400253 0.585211 0.609742
O O3 0.089472 0.204746 0.727029
O O4 0.836130 0.340115 0.706997
O O5 0.970318 0.337015 0.119195
O O6 0.500000 0.500000 0.000000
O O7 0.102615 0.290072 0.992170
O O8 0.124789 0.127314 0.182650
O O9 0.635157 0.507193 0.837290
O O10 0.186542 0.560932 0.805893
O O11 0.086689 0.160359 0.594632
O O12 0.372947 0.508322 0.426138
O O13 0.048692 0.280823 0.413113
O O14 0.884412 0.173019 0.320899
O O15 0.546480 0.834453 0.326461
O O16 0.500000 0.000000 0.500000
O O17 0.000000 0.000000 0.500000
O O18 0.000000 0.500000 0.500000
#
# Coordination Sequence:
#
# PCOD9051984 Si02
#       8
#     2   2   2   2   2   2   2   2
#     4  11  22  41  70 100 144 178 227 292 360 430
#     4  10  25  49  72  94 138 189 247 301 348 413
#     4  11  24  45  74  99 132 190 241 290 353 412
#     4  11  22  39  66  98 145 180 223 284 358 436
#     4  11  23  47  70  98 136 187 238 287 354 422
#     4  11  23  42  66 107 136 184 241 284 361 429
#     4  12  26  40  64 108 143 181 229 286 353 430
#     4  11  20  38  65 103 138 179 221 285 359 434
#
# _framework density 22.788981
#
# number of rings (size 3 to 8) (size 9 to 14) (size 15 to 20)
#    0.000    1.000    3.750    3.375    3.500    2.500 
#    9.000    0.625    0.000    0.000    0.000    0.000 
#    0.000    0.000    0.000    0.000    0.000    0.000 
#
# Total GULP energy -89078.846313 kJ/mol
# GULP energy per Si atom -5567.427895 kJ/mol
# Density = 2.273711 g / cm^3
# Si number density = 22.788981 Si / 1000 Ang^3
#
#
#
# Elastic Constant Matrix: (Units=GPa)
#
#
# Indices 1 2 3 4 5 6 
#
# 1 70.9275 4.2279 3.6613 -9.2368 0.9662 1.8032
# 2 4.2279 82.0776 33.5811 11.1693 -4.1968 -3.5475
# 3 3.6613 33.5811 137.7050 9.1899 6.1299 -0.9757
# 4 -9.2368 11.1693 9.1899 50.2799 0.5749 4.6154
# 5 0.9662 -4.1968 6.1299 0.5749 26.4350 -0.6570
# 6 1.8032 -3.5475 -0.9757 4.6154 -0.6570 30.1189
#
#
#
# Elastic Compliance Matrix: (Units=1/GPa)
#
#
# Indices 1 2 3 4 5 6 
#
# 1 0.014643 -0.001168 -0.000292 0.003151 -0.000759 -0.001523
# 2 -0.001168 0.014295 -0.003382 -0.003009 0.003216 0.002175
# 3 -0.000292 -0.003382 0.008254 -0.000779 -0.002424 -0.000047
# 4 0.003151 -0.003009 -0.000779 0.021648 -0.000980 -0.003907
# 5 -0.000759 0.003216 -0.002424 -0.000980 0.038984 0.001346
# 6 -0.001523 0.002175 -0.000047 -0.003907 0.001346 0.034176
#
#
# Mechanical properties :
#
#
# Convention : Reuss Voigt Hill
#
# Bulk Modulus (GPa) = 36.35291 41.51675 38.93483
# Shear Modulus (GPa) = 33.14462 37.98272 35.56367
#
# Velocity S-wave (km/s) = 3.81782 4.08697 3.95468
# Velocity P-wave (km/s) = 5.95155 6.36620 6.16236
#
# Compressibility (1/GPa) = 0.02750812
#
# Stress axis : x y z
#
# Youngs Moduli (GPa) = 68.29160 69.95269 121.15373
#
# Poissons Ratio (x) = 0.08174 0.03534
# Poissons Ratio (y) = 0.07980 0.40974
# Poissons Ratio (z) = 0.01992 0.23658
#
# Static dielectric constant tensor:
#      x y z
#    x 1.827090 0.049170 0.123870 
#    y 0.049170 1.906000 -0.105560 
#    z 0.123870 -0.105560 1.760820 
# 
# From -- ./inp_files/126880.got.cif
#   From: 2010.05.17/outbox.cif.g08.bks.cpg/sg2_64_cif.got.tgz:126880.got - 2010.06.03 11:33:40.
