data_PCOD9051663
_publ_section_title
;
Structure prediction by ZEFSAII (Michael W. Deem and Ramdas Pophale) SiO2 
 PCOD9051663
Probable space group: P -1
;
_chemical_formula_sum "Si O2"
_cell_formula_units_Z 15
_cell_length_a 15.817816
_cell_length_b 5.220425
_cell_length_c 7.661402
_cell_angle_alpha 115.611366
_cell_angle_beta 88.598582
_cell_angle_gamma 108.701096
_cell_volume 535.520440
_symmetry_space_group_name_H-M "P -1"
_symmetry_group_IT_number 2
_symmetry_cell_setting 'triclinic'
loop_
_space_group_symop_operation_xyz
x,y,z
-x,-y,-z
loop_
_atom_site_type_symbol
_atom_site_label
_atom_site_fract_x
_atom_site_fract_y
_atom_site_fract_z
Si Si1 0.597025 0.956573 0.126982
Si Si2 0.400215 0.612015 0.197012
Si Si3 0.741004 0.997573 0.428267
Si Si4 0.596404 0.479451 0.454500
Si Si5 0.944331 0.222471 0.797592
Si Si6 0.789209 0.404446 0.838294
Si Si7 0.892737 0.965296 0.214885
Si Si8 0.000000 0.500000 0.500000
O O1 0.497752 0.794969 0.169194
O O2 0.680775 0.980256 0.255774
O O3 0.598038 0.297402 0.223577
O O4 0.605671 0.738600 0.910196
O O5 0.394574 0.696309 0.423234
O O6 0.312117 0.635643 0.113822
O O7 0.675479 0.792480 0.518270
O O8 0.815125 0.845242 0.327823
O O9 0.781325 0.328375 0.610953
O O10 0.500000 0.500000 0.500000
O O11 0.841149 0.181040 0.838371
O O12 0.000383 0.992422 0.746005
O O13 0.953114 0.309037 0.619850
O O14 0.000000 0.500000 0.000000
O O15 0.855110 0.738943 0.990003
O O16 0.909059 0.319188 0.323191
#
# Coordination Sequence:
#
# PCOD9051663 Si02
#       8
#     2   2   2   2   2   2   2   1
#     4  11  24  45  69  98 146 186 231 290 348 415
#     4  11  23  44  70 101 143 188 232 289 350 417
#     4  12  24  44  71 102 142 185 235 291 349 423
#     4  12  25  42  70 103 138 191 235 282 353 415
#     4  10  25  47  71 106 142 183 241 300 358 432
#     4  11  23  45  70 101 142 181 233 296 347 420
#     4  11  26  48  72 107 142 185 239 301 360 434
#     4  12  24  48  82  96 146 194 230 304 388 416
#
# _framework density 28.010134000000001
#
# number of rings (size 3 to 8) (size 9 to 14) (size 15 to 20)
#    0.000    0.800    5.333    1.600    0.000    5.867 
#    4.800    0.000    0.000    0.000    0.000    0.000 
#    0.000    0.000    0.000    0.000    0.000    0.000 
#
# Total GULP energy -83548.515903 kJ/mol
# GULP energy per Si atom -5569.901060 kJ/mol
# Density = 2.794638 g / cm^3
# Si number density = 28.010134 Si / 1000 Ang^3
#
#
#
# Elastic Constant Matrix: (Units=GPa)
#
#
# Indices 1 2 3 4 5 6 
#
# 1 214.8863 27.0888 44.2435 4.0702 2.4161 0.4628
# 2 27.0888 43.7509 22.1536 2.0149 -0.9037 8.0621
# 3 44.2435 22.1536 169.8230 19.5370 1.4571 11.1067
# 4 4.0702 2.0149 19.5370 40.7502 3.7240 4.4577
# 5 2.4161 -0.9037 1.4571 3.7240 58.8124 4.8301
# 6 0.4628 8.0621 11.1067 4.4577 4.8301 23.2692
#
#
#
# Elastic Compliance Matrix: (Units=1/GPa)
#
#
# Indices 1 2 3 4 5 6 
#
# 1 0.005253 -0.002996 -0.001075 0.000005 -0.000360 0.001520
# 2 -0.002996 0.027504 -0.002348 0.000911 0.001268 -0.008787
# 3 -0.001075 -0.002348 0.006935 -0.002904 0.000181 -0.001957
# 4 0.000005 0.000911 -0.002904 0.026411 -0.001281 -0.003723
# 5 -0.000360 0.001268 0.000181 -0.001281 0.017434 -0.003892
# 6 0.001520 -0.008787 -0.001957 -0.003723 -0.003892 0.048444
#
#
# Mechanical properties :
#
#
# Convention : Reuss Voigt Hill
#
# Bulk Modulus (GPa) = 37.23801 68.38132 52.80967
# Shear Modulus (GPa) = 32.51570 46.89799 39.70685
#
# Velocity S-wave (km/s) = 3.41083 4.09629 3.76917
# Velocity P-wave (km/s) = 5.36982 6.84389 6.15117
#
# Compressibility (1/GPa) = 0.02685428
#
# Stress axis : x y z
#
# Youngs Moduli (GPa) = 190.35684 36.35791 144.18949
#
# Poissons Ratio (x) = 0.10894 0.15496
# Poissons Ratio (y) = 0.57037 0.33860
# Poissons Ratio (z) = 0.20458 0.08538
#
# Static dielectric constant tensor:
#      x y z
#    x 1.932990 0.303920 0.375600 
#    y 0.303920 1.874510 -0.284640 
#    z 0.375600 -0.284640 1.924100 
# 
# From -- ./inp_files/289287.got.cif
#   From: 2010.05.17/outbox.cif.g08.bks.cpg/sg2_145_cif.got.tgz:289287.got - 2010.06.03 11:33:40.
