data_PCOD9051538
_publ_section_title
;
Structure prediction by ZEFSAII (Michael W. Deem and Ramdas Pophale) SiO2 
 PCOD9051538
Probable space group: P -1
;
_chemical_formula_sum "Si O2"
_cell_formula_units_Z 15
_cell_length_a 11.378558
_cell_length_b 6.461124
_cell_length_c 11.367411
_cell_angle_alpha 90.427729
_cell_angle_beta 49.315393
_cell_angle_gamma 79.024085
_cell_volume 612.340404
_symmetry_space_group_name_H-M "P -1"
_symmetry_group_IT_number 2
_symmetry_cell_setting 'triclinic'
loop_
_space_group_symop_operation_xyz
x,y,z
-x,-y,-z
loop_
_atom_site_type_symbol
_atom_site_label
_atom_site_fract_x
_atom_site_fract_y
_atom_site_fract_z
Si Si1 0.567816 0.143334 0.547367
Si Si2 0.677515 0.790882 0.638018
Si Si3 0.117549 0.326819 0.260340
Si Si4 0.865603 0.290221 0.885356
Si Si5 0.790746 0.419687 0.380436
Si Si6 0.376128 0.964671 0.984485
Si Si7 0.783133 0.648803 0.143779
Si Si8 0.000000 0.000000 0.000000
O O1 0.666942 0.287811 0.419637
O O2 0.409439 0.271781 0.719369
O O3 0.500000 0.000000 0.500000
O O4 0.693028 0.994123 0.553770
O O5 0.798863 0.729717 0.668224
O O6 0.700695 0.594889 0.533237
O O7 0.492099 0.870164 0.800547
O O8 0.079653 0.578871 0.254181
O O9 0.946581 0.283774 0.346729
O O10 0.245366 0.191796 0.082726
O O11 0.716257 0.214870 0.930207
O O12 0.821673 0.455806 0.024222
O O13 0.969508 0.082809 0.884235
O O14 0.837503 0.534429 0.234698
O O15 0.500000 0.000000 0.000000
O O16 0.868912 0.842581 0.072061
#
# Coordination Sequence:
#
# PCOD9051538 Si02
#       8
#     2   2   2   2   2   2   2   1
#     4  12  27  44  73 108 150 201 248 301 371 462
#     4  11  25  48  73 108 150 203 247 304 381 453
#     4  11  26  48  74 110 149 197 254 315 376 444
#     4  12  25  43  74 108 148 192 249 318 374 446
#     4  12  27  47  75 111 154 198 251 308 387 447
#     4  10  25  46  74 105 152 199 254 306 373 452
#     4  12  27  46  75 114 151 200 251 322 382 445
#     4  12  26  44  74 108 150 188 254 316 378 440
#
# _framework density 24.496175999999998
#
# number of rings (size 3 to 8) (size 9 to 14) (size 15 to 20)
#    0.000    0.533    2.667    4.400    5.600    5.867 
#    0.000    0.000    0.000    0.000    0.000    0.000 
#    0.000    0.000    0.000    0.000    0.000    0.000 
#
# Total GULP energy -83584.922055 kJ/mol
# GULP energy per Si atom -5572.328137 kJ/mol
# Density = 2.444042 g / cm^3
# Si number density = 24.496176 Si / 1000 Ang^3
#
#
#
# Elastic Constant Matrix: (Units=GPa)
#
#
# Indices 1 2 3 4 5 6 
#
# 1 146.3439 53.0643 14.7584 -21.5339 5.2747 2.5391
# 2 53.0643 79.1174 32.7932 -26.6880 -3.3217 7.7224
# 3 14.7584 32.7932 62.3287 3.5477 2.7664 10.3138
# 4 -21.5339 -26.6880 3.5477 49.5285 4.3712 -1.7760
# 5 5.2747 -3.3217 2.7664 4.3712 43.8338 -6.2005
# 6 2.5391 7.7224 10.3138 -1.7760 -6.2005 55.7927
#
#
#
# Elastic Compliance Matrix: (Units=1/GPa)
#
#
# Indices 1 2 3 4 5 6 
#
# 1 0.009254 -0.006695 0.001369 0.000475 -0.001744 0.000074
# 2 -0.006695 0.026966 -0.013364 0.012353 0.002419 -0.000295
# 3 0.001369 -0.013364 0.023841 -0.008223 -0.002306 -0.003138
# 4 0.000475 0.012353 -0.008223 0.027776 -0.001297 0.000529
# 5 -0.001744 0.002419 -0.002306 -0.001297 0.023875 0.002783
# 6 0.000074 -0.000295 -0.003138 0.000529 0.002783 0.018867
#
#
# Mechanical properties :
#
#
# Convention : Reuss Voigt Hill
#
# Bulk Modulus (GPa) = 44.08828 54.33576 49.21202
# Shear Modulus (GPa) = 28.48704 42.30928 35.39816
#
# Velocity S-wave (km/s) = 3.41386 4.16044 3.80550
# Velocity P-wave (km/s) = 5.79451 6.73116 6.28032
#
# Compressibility (1/GPa) = 0.02268176
#
# Stress axis : x y z
#
# Youngs Moduli (GPa) = 108.06136 37.08354 41.94504
#
# Poissons Ratio (x) = 0.24826 -0.05743
# Poissons Ratio (y) = 0.72342 0.56056
# Poissons Ratio (z) = -0.14796 0.49559
#
# Static dielectric constant tensor:
#      x y z
#    x 1.970570 -0.060770 -0.012710 
#    y -0.060770 2.082340 0.021430 
#    z -0.012710 0.021430 1.985230 
# 
# From -- ./inp_files/410419.got.cif
#   From: 2010.05.17/outbox.cif.g08.bks.cpg/sg2_206_cif.got.tgz:410419.got - 2010.06.03 11:33:40.
