data_PCOD9051594
_publ_section_title
;
Structure prediction by ZEFSAII (Michael W. Deem and Ramdas Pophale) SiO2 
 PCOD9051594
Probable space group: P -1
;
_chemical_formula_sum "Si O2"
_cell_formula_units_Z 14
_cell_length_a 8.495326
_cell_length_b 5.397223
_cell_length_c 14.605886
_cell_angle_alpha 101.660865
_cell_angle_beta 119.562542
_cell_angle_gamma 69.678665
_cell_volume 545.869367
_symmetry_space_group_name_H-M "P -1"
_symmetry_group_IT_number 2
_symmetry_cell_setting 'triclinic'
loop_
_space_group_symop_operation_xyz
x,y,z
-x,-y,-z
loop_
_atom_site_type_symbol
_atom_site_label
_atom_site_fract_x
_atom_site_fract_y
_atom_site_fract_z
Si Si1 0.407282 0.293229 0.702198
Si Si2 0.207668 0.123924 0.978341
Si Si3 0.829825 0.101442 0.855774
Si Si4 0.299328 0.510311 0.487742
Si Si5 0.462068 0.658340 0.906943
Si Si6 0.037268 0.306198 0.283094
Si Si7 0.920509 0.888387 0.341657
O O1 0.633881 0.186112 0.751628
O O2 0.325408 0.430986 0.594738
O O3 0.394484 0.494763 0.798064
O O4 0.286384 0.086312 0.672502
O O5 0.338036 0.301639 0.059338
O O6 0.211205 0.938219 0.053634
O O7 0.987469 0.254715 0.904527
O O8 0.317641 0.942874 0.912608
O O9 0.937429 0.824909 0.817869
O O10 0.500000 0.500000 0.500000
O O11 0.229022 0.301387 0.391383
O O12 0.115488 0.773424 0.448682
O O13 0.500000 0.500000 0.000000
O O14 0.942251 0.618878 0.269686
O O15 0.946167 0.132415 0.310676
#
# Coordination Sequence:
#
# PCOD9051594 Si02
#       7
#     2   2   2   2   2   2   2
#     4  12  25  44  76 106 141 196 245 296 378 428
#     4  10  25  47  66 103 144 182 252 298 370 421
#     4  11  24  43  72 106 140 194 237 308 364 440
#     4  10  25  48  71 109 149 188 244 303 363 442
#     4  11  24  46  70 100 137 190 239 306 351 443
#     4  10  25  48  75 105 150 193 241 298 370 430
#     4  10  25  48  73 108 149 194 241 306 352 446
#
# _framework density 25.647165000000001
#
# number of rings (size 3 to 8) (size 9 to 14) (size 15 to 20)
#    0.857    0.571    1.429    2.143    4.000    4.571 
#    0.000    0.000    0.000    0.000    0.000    0.000 
#    0.000    0.000    0.000    0.000    0.000    0.000 
#
# Total GULP energy -78254.181470 kJ/mol
# GULP energy per Si atom -5589.584391 kJ/mol
# Density = 2.558879 g / cm^3
# Si number density = 25.647165 Si / 1000 Ang^3
#
#
#
# Elastic Constant Matrix: (Units=GPa)
#
#
# Indices 1 2 3 4 5 6 
#
# 1 176.1617 46.5583 62.1753 2.6683 48.4246 29.2234
# 2 46.5583 64.4608 25.4741 -5.9134 14.5311 17.2275
# 3 62.1753 25.4741 135.0496 14.1951 19.4928 15.9573
# 4 2.6683 -5.9134 14.1951 41.2073 -0.0873 6.3076
# 5 48.4246 14.5311 19.4928 -0.0873 62.3259 1.7436
# 6 29.2234 17.2275 15.9573 6.3076 1.7436 43.4007
#
#
#
# Elastic Compliance Matrix: (Units=1/GPa)
#
#
# Indices 1 2 3 4 5 6 
#
# 1 0.009817 -0.003656 -0.002540 0.000320 -0.005867 -0.004036
# 2 -0.003656 0.021248 -0.001945 0.004858 -0.001333 -0.005910
# 3 -0.002540 -0.001945 0.009417 -0.003286 -0.000510 -0.000482
# 4 0.000320 0.004858 -0.003286 0.026814 -0.000181 -0.004825
# 5 -0.005867 -0.001333 -0.000510 -0.000181 0.020965 0.003851
# 6 -0.004036 -0.005910 -0.000482 -0.004825 0.003851 0.028828
#
#
# Mechanical properties :
#
#
# Convention : Reuss Voigt Hill
#
# Bulk Modulus (GPa) = 41.32176 71.56528 56.44352
# Shear Modulus (GPa) = 35.35146 45.48441 40.41794
#
# Velocity S-wave (km/s) = 3.71668 4.21582 3.97410
# Velocity P-wave (km/s) = 5.87919 7.18762 6.56608
#
# Compressibility (1/GPa) = 0.02420032
#
# Stress axis : x y z
#
# Youngs Moduli (GPa) = 101.86697 47.06313 106.19463
#
# Poissons Ratio (x) = 0.17207 0.26971
# Poissons Ratio (y) = 0.37244 0.20651
# Poissons Ratio (z) = 0.25872 0.09152
#
# Static dielectric constant tensor:
#      x y z
#    x 2.081500 -0.071380 0.059010 
#    y -0.071380 2.104540 -0.023150 
#    z 0.059010 -0.023150 2.026310 
# 
# From -- ./inp_files/552143.got.cif
#   From: 2010.05.17/outbox.cif.g08.bks.cpg/sg2_277_cif.got.tgz:552143.got - 2010.06.03 11:33:40.
