data_PCOD9051494
_publ_section_title
;
Structure prediction by ZEFSAII (Michael W. Deem and Ramdas Pophale) SiO2 
 PCOD9051494
Probable space group: P -1
;
_chemical_formula_sum "Si O2"
_cell_formula_units_Z 12
_cell_length_a 8.149414
_cell_length_b 13.942627
_cell_length_c 7.059009
_cell_angle_alpha 124.704578
_cell_angle_beta 75.823521
_cell_angle_gamma 71.456690
_cell_volume 523.527555
_symmetry_space_group_name_H-M "P -1"
_symmetry_group_IT_number 2
_symmetry_cell_setting 'triclinic'
loop_
_space_group_symop_operation_xyz
x,y,z
-x,-y,-z
loop_
_atom_site_type_symbol
_atom_site_label
_atom_site_fract_x
_atom_site_fract_y
_atom_site_fract_z
Si Si1 0.642613 0.330218 0.237479
Si Si2 0.291997 0.564724 0.022206
Si Si3 0.010842 0.758359 0.653590
Si Si4 0.773674 0.645325 0.199262
Si Si5 0.632080 0.764433 0.962235
Si Si6 0.330150 0.059217 0.279750
O O1 0.500000 0.500000 0.500000
O O2 0.340284 0.419478 0.751155
O O3 0.754453 0.321257 0.995627
O O4 0.822253 0.256388 0.263253
O O5 0.500000 0.500000 0.000000
O O6 0.129602 0.639051 0.323932
O O7 0.835927 0.745908 0.791704
O O8 0.874764 0.903072 0.729594
O O9 0.506351 0.720943 0.821139
O O10 0.722218 0.792393 0.458187
O O11 0.713788 0.673978 0.028365
O O12 0.000000 0.500000 0.000000
O O13 0.449742 0.929798 0.246395
O O14 0.500000 0.000000 0.000000
#
# Coordination Sequence:
#
# PCOD9051494 Si02
#       6
#     2   2   2   2   2   2
#     4  12  26  44  73 112 150 190 251 308 367 439
#     4  12  24  44  67 113 146 186 244 313 362 425
#     4  11  25  47  73 106 150 194 245 297 375 436
#     4  12  23  44  80 104 144 195 252 301 359 443
#     4  11  26  49  75 108 148 199 245 304 373 444
#     4  10  25  46  72 109 149 196 244 301 376 440
#
# _framework density 22.921427000000001
#
# number of rings (size 3 to 8) (size 9 to 14) (size 15 to 20)
#    0.000    0.667    5.000    1.500    4.667    3.333 
#    0.000    2.500    0.000    0.000    0.000    0.000 
#    0.000    0.000    0.000    0.000    0.000    0.000 
#
# Total GULP energy -66831.502214 kJ/mol
# GULP energy per Si atom -5569.291851 kJ/mol
# Density = 2.286926 g / cm^3
# Si number density = 22.921427 Si / 1000 Ang^3
#
#
#
# Elastic Constant Matrix: (Units=GPa)
#
#
# Indices 1 2 3 4 5 6 
#
# 1 135.2213 40.6707 50.5552 16.1673 10.6359 -30.3934
# 2 40.6707 145.7086 50.6427 19.3251 -6.5600 -40.3966
# 3 50.5552 50.6427 95.4026 13.1837 9.9617 -16.8631
# 4 16.1673 19.3251 13.1837 46.6606 1.4913 -1.9818
# 5 10.6359 -6.5600 9.9617 1.4913 29.0822 -2.5059
# 6 -30.3934 -40.3966 -16.8631 -1.9818 -2.5059 46.1600
#
#
#
# Elastic Compliance Matrix: (Units=1/GPa)
#
#
# Indices 1 2 3 4 5 6 
#
# 1 0.010539 0.000269 -0.004273 -0.002270 -0.001746 0.005421
# 2 0.000269 0.011516 -0.004801 -0.003301 0.005057 0.008634
# 3 -0.004273 -0.004801 0.015650 -0.000862 -0.004975 -0.001605
# 4 -0.002270 -0.003301 -0.000862 0.023706 -0.001158 -0.003743
# 5 -0.001746 0.005057 -0.004975 -0.001158 0.038228 0.003484
# 6 0.005421 0.008634 -0.001605 -0.003743 0.003484 0.032231
#
#
# Mechanical properties :
#
#
# Convention : Reuss Voigt Hill
#
# Bulk Modulus (GPa) = 49.76713 73.34109 61.55411
# Shear Modulus (GPa) = 32.01420 40.01149 36.01285
#
# Velocity S-wave (km/s) = 3.74129 4.18256 3.96807
# Velocity P-wave (km/s) = 6.35785 7.44253 6.92147
#
# Compressibility (1/GPa) = 0.02009359
#
# Stress axis : x y z
#
# Youngs Moduli (GPa) = 94.88198 86.83683 63.89818
#
# Poissons Ratio (x) = -0.02335 0.27307
# Poissons Ratio (y) = -0.02552 0.30679
# Poissons Ratio (z) = 0.40547 0.41693
#
# Static dielectric constant tensor:
#      x y z
#    x 2.022580 0.052600 -0.095840 
#    y 0.052600 1.943100 -0.034590 
#    z -0.095840 -0.034590 1.927390 
# 
# From -- ./inp_files/100098.got.cif
#   From: 2010.05.17/outbox.cif.g08.bks.cpg/sg2_51_cif.got.tgz:100098.got - 2010.06.03 11:33:40.
