data_PCOD9051487
_publ_section_title
;
Structure prediction by ZEFSAII (Michael W. Deem and Ramdas Pophale) SiO2 
 PCOD9051487
Probable space group: P -1
;
_chemical_formula_sum "Si O2"
_cell_formula_units_Z 13
_cell_length_a 9.995971
_cell_length_b 12.714312
_cell_length_c 9.235909
_cell_angle_alpha 130.136827
_cell_angle_beta 44.481352
_cell_angle_gamma 137.859918
_cell_volume 534.893485
_symmetry_space_group_name_H-M "P -1"
_symmetry_group_IT_number 2
_symmetry_cell_setting 'triclinic'
loop_
_space_group_symop_operation_xyz
x,y,z
-x,-y,-z
loop_
_atom_site_type_symbol
_atom_site_label
_atom_site_fract_x
_atom_site_fract_y
_atom_site_fract_z
Si Si1 0.060352 0.502325 0.288718
Si Si2 0.345521 0.815490 0.824566
Si Si3 0.206291 0.169796 0.437859
Si Si4 0.314943 0.994066 0.742588
Si Si5 0.806014 0.775364 0.839124
Si Si6 0.500000 0.500000 0.000000
Si Si7 0.052288 0.668178 0.177908
O O1 0.276728 0.488239 0.090180
O O2 0.103827 0.656261 0.295707
O O3 0.000000 0.500000 0.500000
O O4 0.844936 0.347497 0.249620
O O5 0.569062 0.811580 0.659194
O O6 0.361025 0.951716 0.828596
O O7 0.251667 0.808017 0.051605
O O8 0.203509 0.173091 0.269160
O O9 0.154492 0.305601 0.648458
O O10 0.000000 0.000000 0.500000
O O11 0.062736 0.859360 0.767354
O O12 0.500000 0.000000 0.500000
O O13 0.309043 0.157965 0.901181
O O14 0.651587 0.585600 0.811597
O O15 0.000000 0.500000 0.000000
#
# Coordination Sequence:
#
# PCOD9051487 Si02
#       7
#     2   2   2   2   2   1   2
#     4  11  25  43  71 106 148 195 247 303 379 448
#     4  11  25  46  72 109 148 195 250 311 380 452
#     4  12  26  47  78 108 149 201 259 309 381 460
#     4  11  25  47  72 108 155 198 254 311 384 447
#     4  11  26  45  73 112 150 202 251 313 378 461
#     4  12  24  42  70 106 146 182 252 302 368 436
#     4  10  25  46  72 107 152 192 242 314 381 449
#
# _framework density 24.303906000000001
#
# number of rings (size 3 to 8) (size 9 to 14) (size 15 to 20)
#    0.000    0.923    1.538    3.692    2.154   11.077 
#    0.000    0.000    0.000    0.000    0.000    0.000 
#    0.000    0.000    0.000    0.000    0.000    0.000 
#
# Total GULP energy -72557.125703 kJ/mol
# GULP energy per Si atom -5581.317362 kJ/mol
# Density = 2.424859 g / cm^3
# Si number density = 24.303906 Si / 1000 Ang^3
#
#
#
# Elastic Constant Matrix: (Units=GPa)
#
#
# Indices 1 2 3 4 5 6 
#
# 1 187.0919 39.4371 56.1004 -15.7271 -35.2689 10.2054
# 2 39.4371 35.3480 28.6951 -22.8392 4.7636 3.9731
# 3 56.1004 28.6951 140.3266 -6.5914 -27.0827 6.6579
# 4 -15.7271 -22.8392 -6.5914 49.2113 -9.3335 2.8681
# 5 -35.2689 4.7636 -27.0827 -9.3335 68.9620 -17.0761
# 6 10.2054 3.9731 6.6579 2.8681 -17.0761 48.8267
#
#
#
# Elastic Compliance Matrix: (Units=1/GPa)
#
#
# Indices 1 2 3 4 5 6 
#
# 1 0.008538 -0.011094 -0.000290 -0.001559 0.005060 0.001019
# 2 -0.011094 0.067425 -0.010355 0.024342 -0.013019 -0.007739
# 3 -0.000290 -0.010355 0.010025 -0.002787 0.004437 0.001252
# 4 -0.001559 0.024342 -0.002787 0.030897 -0.000171 -0.003150
# 5 0.005060 -0.013019 0.004437 -0.000171 0.021415 0.006896
# 6 0.001019 -0.007739 0.001252 -0.003150 0.006896 0.023323
#
#
# Mechanical properties :
#
#
# Convention : Reuss Voigt Hill
#
# Bulk Modulus (GPa) = 23.52263 67.91461 45.71862
# Shear Modulus (GPa) = 22.80292 49.30225 36.05259
#
# Velocity S-wave (km/s) = 3.06640 4.50885 3.85568
# Velocity P-wave (km/s) = 4.71557 7.42367 6.21882
#
# Compressibility (1/GPa) = 0.04251226
#
# Stress axis : x y z
#
# Youngs Moduli (GPa) = 117.12986 14.83133 99.74581
#
# Poissons Ratio (x) = 0.16453 0.02889
# Poissons Ratio (y) = 1.29938 1.03283
# Poissons Ratio (z) = 0.03392 0.15357
#
# Static dielectric constant tensor:
#      x y z
#    x 1.448760 -0.244700 0.483890 
#    y -0.244700 1.972120 0.261290 
#    z 0.483890 0.261290 1.475750 
# 
# From -- ./inp_files/90224.got.cif
#   From: 2010.05.17/outbox.cif.g08.bks.cpg/sg2_46_cif.got.tgz:90224.got - 2010.06.03 11:33:40.
