data_PCOD9051958
_publ_section_title
;
Structure prediction by ZEFSAII (Michael W. Deem and Ramdas Pophale) SiO2 
 PCOD9051958
Probable space group: P -1
;
_chemical_formula_sum "Si O2"
_cell_formula_units_Z 12
_cell_length_a 7.253812
_cell_length_b 9.973486
_cell_length_c 6.935428
_cell_angle_alpha 89.269589
_cell_angle_beta 64.702081
_cell_angle_gamma 86.951501
_cell_volume 452.960725
_symmetry_space_group_name_H-M "P -1"
_symmetry_group_IT_number 2
_symmetry_cell_setting 'triclinic'
loop_
_space_group_symop_operation_xyz
x,y,z
-x,-y,-z
loop_
_atom_site_type_symbol
_atom_site_label
_atom_site_fract_x
_atom_site_fract_y
_atom_site_fract_z
Si Si1 0.342151 0.179155 0.196550
Si Si2 0.837331 0.538640 0.802879
Si Si3 0.295150 0.531740 0.717928
Si Si4 0.712681 0.255162 0.765679
Si Si5 0.657753 0.164149 0.353821
Si Si6 0.026651 0.978825 0.259249
O O1 0.205596 0.317046 0.278612
O O2 0.442397 0.131160 0.355883
O O3 0.219611 0.069141 0.142675
O O4 0.526907 0.216698 0.979973
O O5 0.268313 0.457964 0.936717
O O6 0.743288 0.412432 0.745526
O O7 0.079406 0.509593 0.713152
O O8 0.500000 0.500000 0.500000
O O9 0.292874 0.691028 0.758563
O O10 0.666389 0.197515 0.576064
O O11 0.910589 0.177447 0.776131
O O12 0.833206 0.048799 0.238705
O O13 0.000000 0.000000 0.500000
#
# Coordination Sequence:
#
# PCOD9051958 Si02
#       6
#     2   2   2   2   2   2
#     4  12  24  47  76 102 150 191 240 306 366 436
#     4  11  25  47  75 113 150 188 247 312 364 438
#     4  11  24  45  75 111 149 196 244 298 376 441
#     4  11  25  45  74 108 147 191 246 305 364 436
#     4  11  25  45  74 104 143 196 247 292 375 437
#     4  10  25  49  69 105 147 192 250 297 360 445
#
# _framework density 26.492362
#
# number of rings (size 3 to 8) (size 9 to 14) (size 15 to 20)
#    0.000    1.000    3.333    2.000    2.333    6.667 
#    0.000    5.000    0.000    0.000    0.000    0.000 
#    0.000    0.000    0.000    0.000    0.000    0.000 
#
# Total GULP energy -67281.624184 kJ/mol
# GULP energy per Si atom -5606.802015 kJ/mol
# Density = 2.643206 g / cm^3
# Si number density = 26.492362 Si / 1000 Ang^3
#
#
#
# Elastic Constant Matrix: (Units=GPa)
#
#
# Indices 1 2 3 4 5 6 
#
# 1 178.0428 55.2780 62.8202 9.2781 6.5880 -22.7795
# 2 55.2780 105.9363 5.7809 3.1140 7.0544 -22.4409
# 3 62.8202 5.7809 119.7265 2.7266 -4.3151 -0.9986
# 4 9.2781 3.1140 2.7266 34.4521 2.9139 -1.7842
# 5 6.5880 7.0544 -4.3151 2.9139 41.2107 -3.8834
# 6 -22.7795 -22.4409 -0.9986 -1.7842 -3.8834 57.2495
#
#
#
# Elastic Compliance Matrix: (Units=1/GPa)
#
#
# Indices 1 2 3 4 5 6 
#
# 1 0.008672 -0.003807 -0.004351 -0.001477 -0.000919 0.001774
# 2 -0.003807 0.012089 0.001402 0.000073 -0.001019 0.003182
# 3 -0.004351 0.001402 0.010613 0.000034 0.001480 -0.000895
# 4 -0.001477 0.000073 0.000034 0.029583 -0.001842 0.000238
# 5 -0.000919 -0.001019 0.001480 -0.001842 0.024957 0.000896
# 6 0.001774 0.003182 -0.000895 0.000238 0.000896 0.019473
#
#
# Mechanical properties :
#
#
# Convention : Reuss Voigt Hill
#
# Bulk Modulus (GPa) = 55.98534 72.38485 64.18510
# Shear Modulus (GPa) = 40.04745 45.23757 42.64251
#
# Velocity S-wave (km/s) = 3.89223 4.13676 4.01635
# Velocity P-wave (km/s) = 6.43255 7.08514 6.76672
#
# Compressibility (1/GPa) = 0.01786182
#
# Stress axis : x y z
#
# Youngs Moduli (GPa) = 115.31700 82.71694 94.22687
#
# Poissons Ratio (x) = 0.31492 0.40997
# Poissons Ratio (y) = 0.43903 -0.13211
# Poissons Ratio (z) = 0.50173 -0.11597
#
# Static dielectric constant tensor:
#      x y z
#    x 2.175150 0.042140 0.053710 
#    y 0.042140 2.181680 0.027830 
#    z 0.053710 0.027830 2.158110 
# 
# From -- ./inp_files/130844.got.cif
#   From: 2010.05.17/outbox.cif.g08.bks.cpg/sg2_66_cif.got.tgz:130844.got - 2010.06.03 11:33:40.
