data_PCOD9051576
_publ_section_title
;
Structure prediction by ZEFSAII (Michael W. Deem and Ramdas Pophale) SiO2 
 PCOD9051576
Probable space group: P -1
;
_chemical_formula_sum "Si O2"
_cell_formula_units_Z 14
_cell_length_a 9.752801
_cell_length_b 9.626859
_cell_length_c 12.959032
_cell_angle_alpha 126.348069
_cell_angle_beta 147.126851
_cell_angle_gamma 71.506341
_cell_volume 484.410734
_symmetry_space_group_name_H-M "P -1"
_symmetry_group_IT_number 2
_symmetry_cell_setting 'triclinic'
loop_
_space_group_symop_operation_xyz
x,y,z
-x,-y,-z
loop_
_atom_site_type_symbol
_atom_site_label
_atom_site_fract_x
_atom_site_fract_y
_atom_site_fract_z
Si Si1 0.335306 0.227239 0.269279
Si Si2 0.410383 0.014039 0.782493
Si Si3 0.082336 0.612315 0.377397
Si Si4 0.720848 0.926741 0.490305
Si Si5 0.159853 0.320829 0.417318
Si Si6 0.864874 0.290451 0.870936
Si Si7 0.452629 0.397821 0.040284
O O1 0.641915 0.379426 0.500832
O O2 0.633263 0.519541 0.303233
O O3 0.358140 0.034214 0.156992
O O4 0.098532 0.255742 0.068127
O O5 0.255432 0.063570 0.611512
O O6 0.472332 0.195809 0.970532
O O7 0.214269 0.807832 0.610142
O O8 0.237535 0.871427 0.351868
O O9 0.981714 0.424986 0.300860
O O10 0.865367 0.627688 0.166979
O O11 0.588850 0.224667 0.739327
O O12 0.939213 0.860712 0.652269
O O13 0.284712 0.249459 0.367438
O O14 0.000000 0.500000 0.000000
O O15 0.500000 0.500000 0.000000
#
# Coordination Sequence:
#
# PCOD9051576 Si02
#       7
#     2   2   2   2   2   2   2
#     4  10  25  46  77 121 156 202 268 336 401 476
#     4  10  25  52  71 114 158 211 268 327 402 483
#     4  10  27  49  80 114 163 206 278 331 399 493
#     4  11  25  45  76 120 162 210 267 330 402 481
#     4  12  26  48  81 122 155 209 267 332 408 476
#     4  11  25  45  80 118 172 214 257 335 419 473
#     4  12  27  53  80 110 164 219 266 331 406 480
#
# _framework density 28.901094000000001
#
# number of rings (size 3 to 8) (size 9 to 14) (size 15 to 20)
#    0.857    0.286    1.429    3.429    4.000    6.286 
#    2.571    0.000    0.000    0.000    0.000    0.000 
#    0.000    0.000    0.000    0.000    0.000    0.000 
#
# Total GULP energy -78395.366271 kJ/mol
# GULP energy per Si atom -5599.669019 kJ/mol
# Density = 2.883531 g / cm^3
# Si number density = 28.901094 Si / 1000 Ang^3
#
#
#
# Elastic Constant Matrix: (Units=GPa)
#
#
# Indices 1 2 3 4 5 6 
#
# 1 116.6305 34.1888 36.2174 -9.0491 0.2727 -17.4725
# 2 34.1888 222.4992 34.9550 -2.5991 -5.0865 -23.7113
# 3 36.2174 34.9550 104.3381 -2.3914 -14.3980 -17.7414
# 4 -9.0491 -2.5991 -2.3914 58.4145 5.9922 -7.1114
# 5 0.2727 -5.0865 -14.3980 5.9922 44.7609 15.8814
# 6 -17.4725 -23.7113 -17.7414 -7.1114 15.8814 53.7051
#
#
#
# Elastic Compliance Matrix: (Units=1/GPa)
#
#
# Indices 1 2 3 4 5 6 
#
# 1 0.010401 -0.000820 -0.003123 0.002070 -0.002504 0.003005
# 2 -0.000820 0.004977 -0.001144 0.000304 -0.000451 0.001726
# 3 -0.003123 -0.001144 0.011722 -0.000215 0.003200 0.001376
# 4 0.002070 0.000304 -0.000215 0.018393 -0.004061 0.004373
# 5 -0.002504 -0.000451 0.003200 -0.004061 0.026873 -0.008441
# 6 0.003005 0.001726 0.001376 0.004373 -0.008441 0.023890
#
#
# Mechanical properties :
#
#
# Convention : Reuss Voigt Hill
#
# Bulk Modulus (GPa) = 59.08288 72.68780 65.88534
# Shear Modulus (GPa) = 44.61370 53.91655 49.26512
#
# Velocity S-wave (km/s) = 3.93322 4.32389 4.13317
# Velocity P-wave (km/s) = 6.41205 7.08048 6.75454
#
# Compressibility (1/GPa) = 0.01692538
#
# Stress axis : x y z
#
# Youngs Moduli (GPa) = 96.14630 200.90568 85.30796
#
# Poissons Ratio (x) = 0.16484 0.26639
# Poissons Ratio (y) = 0.07889 0.09763
# Poissons Ratio (z) = 0.30023 0.22993
#
# Static dielectric constant tensor:
#      x y z
#    x 2.300550 -0.040920 0.097870 
#    y -0.040920 2.238770 0.035410 
#    z 0.097870 0.035410 2.317830 
# 
# From -- ./inp_files/566157.got.cif
#   From: 2010.05.17/outbox.cif.g08.bks.cpg/sg2_284_cif.got.tgz:566157.got - 2010.06.03 11:33:40.
