data_PCOD9051715
_publ_section_title
;
Structure prediction by ZEFSAII (Michael W. Deem and Ramdas Pophale) SiO2 
 PCOD9051715
Probable space group: P -1
;
_chemical_formula_sum "Si O2"
_cell_formula_units_Z 16
_cell_length_a 14.072027
_cell_length_b 15.684642
_cell_length_c 9.326796
_cell_angle_alpha 72.424158
_cell_angle_beta 126.811673
_cell_angle_gamma 151.797494
_cell_volume 624.533023
_symmetry_space_group_name_H-M "P -1"
_symmetry_group_IT_number 2
_symmetry_cell_setting 'triclinic'
loop_
_space_group_symop_operation_xyz
x,y,z
-x,-y,-z
loop_
_atom_site_type_symbol
_atom_site_label
_atom_site_fract_x
_atom_site_fract_y
_atom_site_fract_z
Si Si1 0.603459 0.920141 0.193660
Si Si2 0.233430 0.875975 0.260165
Si Si3 0.431341 0.713322 0.712589
Si Si4 0.368935 0.284463 0.355370
Si Si5 0.160873 0.476301 0.169080
Si Si6 0.782319 0.883659 0.207046
Si Si7 0.639271 0.557537 0.948840
Si Si8 0.823857 0.263565 0.268446
O O1 0.821472 0.994716 0.291100
O O2 0.451175 0.861082 0.945900
O O3 0.376048 0.705114 0.194317
O O4 0.738749 0.101122 0.300484
O O5 0.956486 0.727221 0.175245
O O6 0.500000 0.000000 0.500000
O O7 0.414810 0.085766 0.261519
O O8 0.057545 0.701428 0.065765
O O9 0.554347 0.740351 0.676040
O O10 0.542264 0.745010 0.940348
O O11 0.075242 0.467418 0.501455
O O12 0.355257 0.527554 0.379870
O O13 0.316970 0.334613 0.183996
O O14 0.077653 0.063291 0.297517
O O15 0.972637 0.373189 0.189575
O O16 0.606323 0.679541 0.219387
O O17 0.500000 0.500000 0.000000
#
# Coordination Sequence:
#
# PCOD9051715 Si02
#       8
#     2   2   2   2   2   2   2   2
#     4  11  24  47  69 107 146 203 254 314 382 451
#     4  12  26  49  80 115 153 202 256 320 388 456
#     4  11  23  47  72 105 150 196 247 315 388 446
#     4  11  26  48  75 108 154 204 251 319 385 458
#     4  11  25  50  74 108 151 200 256 318 382 456
#     4  12  24  45  73 110 150 190 264 312 375 459
#     4  12  25  49  80 115 154 201 258 314 390 462
#     4  10  25  47  73 103 153 200 255 317 380 459
#
# _framework density 25.619142
#
# number of rings (size 3 to 8) (size 9 to 14) (size 15 to 20)
#    0.000    0.750    3.750    3.000    0.000    4.500 
#   11.250    0.000    0.000    0.000    0.000    0.000 
#    0.000    0.000    0.000    0.000    0.000    0.000 
#
# Total GULP energy -89680.920982 kJ/mol
# GULP energy per Si atom -5605.057561 kJ/mol
# Density = 2.556083 g / cm^3
# Si number density = 25.619142 Si / 1000 Ang^3
#
#
#
# Elastic Constant Matrix: (Units=GPa)
#
#
# Indices 1 2 3 4 5 6 
#
# 1 123.1947 46.1748 43.3918 -0.9710 9.7017 -1.9053
# 2 46.1748 153.1389 41.4586 9.4577 4.7358 -8.8462
# 3 43.3918 41.4586 171.2646 0.0531 7.0891 7.8831
# 4 -0.9710 9.4577 0.0531 33.4175 2.6015 -2.7628
# 5 9.7017 4.7358 7.0891 2.6015 29.8945 1.9890
# 6 -1.9053 -8.8462 7.8831 -2.7628 1.9890 20.4911
#
#
#
# Elastic Compliance Matrix: (Units=1/GPa)
#
#
# Indices 1 2 3 4 5 6 
#
# 1 0.009910 -0.002423 -0.001865 0.001260 -0.002567 0.001012
# 2 -0.002423 0.007996 -0.001476 -0.002024 -0.000190 0.003540
# 3 -0.001865 -0.001476 0.006848 0.000118 -0.000571 -0.003374
# 4 0.001260 -0.002024 0.000118 0.031077 -0.003066 0.003686
# 5 -0.002567 -0.000190 -0.000571 -0.003066 0.034976 -0.003909
# 6 0.001012 0.003540 -0.003374 0.003686 -0.003909 0.052598
#
#
# Mechanical properties :
#
#
# Convention : Reuss Voigt Hill
#
# Bulk Modulus (GPa) = 75.61498 78.84983 77.23240
# Shear Modulus (GPa) = 31.37918 37.86551 34.62234
#
# Velocity S-wave (km/s) = 3.50356 3.84867 3.68016
# Velocity P-wave (km/s) = 6.77832 7.11296 6.94766
#
# Compressibility (1/GPa) = 0.01322489
#
# Stress axis : x y z
#
# Youngs Moduli (GPa) = 100.90723 125.06902 146.03665
#
# Poissons Ratio (x) = 0.30307 0.27235
# Poissons Ratio (y) = 0.24452 0.21555
# Poissons Ratio (z) = 0.18819 0.18461
#
# Static dielectric constant tensor:
#      x y z
#    x 2.070540 -0.022860 0.045600 
#    y -0.022860 2.007520 -0.008080 
#    z 0.045600 -0.008080 2.042390 
# 
# From -- ./inp_files/455703.got.cif
#   From: 2010.05.17/outbox.cif.g08.bks.cpg/sg2_228_cif.got.tgz:455703.got - 2010.06.03 11:33:40.
