data_PCOD9051171
_publ_section_title
;
Structure prediction by ZEFSAII (Michael W. Deem and Ramdas Pophale) SiO2 
 PCOD9051171
Probable space group: P -1
;
_chemical_formula_sum "Si O2"
_cell_formula_units_Z 15
_cell_length_a 20.920589
_cell_length_b 5.324004
_cell_length_c 5.265008
_cell_angle_alpha 87.891554
_cell_angle_beta 103.267750
_cell_angle_gamma 95.031133
_cell_volume 568.487682
_symmetry_space_group_name_H-M "P -1"
_symmetry_group_IT_number 2
_symmetry_cell_setting 'triclinic'
loop_
_space_group_symop_operation_xyz
x,y,z
-x,-y,-z
loop_
_atom_site_type_symbol
_atom_site_label
_atom_site_fract_x
_atom_site_fract_y
_atom_site_fract_z
Si Si1 0.234328 0.057805 0.445471
Si Si2 0.348311 0.566777 0.162332
Si Si3 0.041379 0.589998 0.276471
Si Si4 0.634518 0.698354 0.311740
Si Si5 0.210214 0.575010 0.114331
Si Si6 0.130593 0.285110 0.660351
Si Si7 0.491884 0.837694 0.247684
Si Si8 0.000000 0.000000 0.500000
O O1 0.313136 0.070444 0.568284
O O2 0.192502 0.132557 0.649759
O O3 0.223249 0.297358 0.244243
O O4 0.205795 0.798264 0.303519
O O5 0.344821 0.511129 0.462183
O O6 0.417950 0.717540 0.178172
O O7 0.354225 0.340475 0.974532
O O8 0.278512 0.667309 0.026566
O O9 0.103389 0.429933 0.383086
O O10 0.000000 0.500000 0.500000
O O11 0.045729 0.885102 0.317886
O O12 0.000000 0.500000 0.000000
O O13 0.556640 0.685042 0.299240
O O14 0.151646 0.510114 0.866341
O O15 0.068698 0.102950 0.705513
O O16 0.500000 0.000000 0.500000
O O17 0.500000 0.000000 0.000000
#
# Coordination Sequence:
#
# PCOD9051171 Si02
#       8
#     2   2   2   2   2   2   2   1
#     4  11  27  47  77 108 155 204 261 324 394 470
#     4  11  23  46  70 106 151 208 261 325 389 469
#     4  10  25  45  71 106 145 189 245 305 381 460
#     4  11  23  46  70 107 149 208 262 326 390 465
#     4  11  27  48  74 112 151 205 262 321 394 471
#     4  11  26  47  72 111 146 203 253 326 389 474
#     4  12  24  40  68 110 151 208 262 327 391 459
#     4  10  26  46  74 106 148 194 250 314 390 464
#
# _framework density 26.385795999999999
#
# number of rings (size 3 to 8) (size 9 to 14) (size 15 to 20)
#    0.000    1.067    1.333    3.200    7.467    4.267 
#    0.000    0.000    0.000    0.000    0.000    0.000 
#    0.000    0.000    0.000    0.000    0.000    0.000 
#
# Total GULP energy -83589.974821 kJ/mol
# GULP energy per Si atom -5572.664988 kJ/mol
# Density = 2.632574 g / cm^3
# Si number density = 26.385796 Si / 1000 Ang^3
#
#
#
# Elastic Constant Matrix: (Units=GPa)
#
#
# Indices 1 2 3 4 5 6 
#
# 1 148.0978 24.1462 8.3153 17.4976 20.9938 19.8270
# 2 24.1462 105.2534 48.3881 36.8533 5.6169 13.7724
# 3 8.3153 48.3881 129.5315 30.2888 13.5968 16.2661
# 4 17.4976 36.8533 30.2888 50.9659 7.2106 -1.7480
# 5 20.9938 5.6169 13.5968 7.2106 45.6108 18.6789
# 6 19.8270 13.7724 16.2661 -1.7480 18.6789 42.2010
#
#
#
# Elastic Compliance Matrix: (Units=1/GPa)
#
#
# Indices 1 2 3 4 5 6 
#
# 1 0.007831 -0.000920 0.000997 -0.002399 -0.002232 -0.002875
# 2 -0.000920 0.014800 -0.003015 -0.009184 0.002971 -0.004931
# 3 0.000997 -0.003015 0.010281 -0.004204 -0.001227 -0.003078
# 4 -0.002399 -0.009184 -0.004204 0.030633 -0.005162 0.009299
# 5 -0.002232 0.002971 -0.001227 -0.005162 0.028861 -0.012436
# 6 -0.002875 -0.004931 -0.003078 0.009299 -0.012436 0.033732
#
#
# Mechanical properties :
#
#
# Convention : Reuss Voigt Hill
#
# Bulk Modulus (GPa) = 36.98616 60.50912 48.74764
# Shear Modulus (GPa) = 35.45452 47.89107 41.67279
#
# Velocity S-wave (km/s) = 3.66962 4.26494 3.97843
# Velocity P-wave (km/s) = 5.65710 6.87279 6.29436
#
# Compressibility (1/GPa) = 0.02703714
#
# Stress axis : x y z
#
# Youngs Moduli (GPa) = 127.69866 67.56616 97.26910
#
# Poissons Ratio (x) = 0.06214 -0.09698
# Poissons Ratio (y) = 0.11744 0.29325
# Poissons Ratio (z) = -0.12732 0.20370
#
# Static dielectric constant tensor:
#      x y z
#    x 2.283210 -0.034790 0.120580 
#    y -0.034790 2.201030 -0.097050 
#    z 0.120580 -0.097050 2.201920 
# 
# From -- ./inp_files/114147.got.cif
#   From: 2010.05.17/outbox.cif.g08.bks.cpg/sg2_58_cif.got.tgz:114147.got - 2010.06.03 11:33:40.
