data_PCOD9051056
_publ_section_title
;
Structure prediction by ZEFSAII (Michael W. Deem and Ramdas Pophale) SiO2 
 PCOD9051056
Probable space group: P -1
;
_chemical_formula_sum "Si O2"
_cell_formula_units_Z 16
_cell_length_a 9.929195
_cell_length_b 9.338977
_cell_length_c 15.281048
_cell_angle_alpha 88.222839
_cell_angle_beta 116.762322
_cell_angle_gamma 44.986574
_cell_volume 744.814637
_symmetry_space_group_name_H-M "P -1"
_symmetry_group_IT_number 2
_symmetry_cell_setting 'triclinic'
loop_
_space_group_symop_operation_xyz
x,y,z
-x,-y,-z
loop_
_atom_site_type_symbol
_atom_site_label
_atom_site_fract_x
_atom_site_fract_y
_atom_site_fract_z
Si Si1 0.421710 0.650429 0.392056
Si Si2 0.300614 0.879173 0.100864
Si Si3 0.380838 0.895718 0.668826
Si Si4 0.118433 0.707949 0.586450
Si Si5 0.370792 0.253578 0.439928
Si Si6 0.788939 0.670479 0.314498
Si Si7 0.946641 0.026232 0.134363
Si Si8 0.373425 0.653737 0.807888
O O1 0.500000 0.500000 0.500000
O O2 0.611838 0.462603 0.373728
O O3 0.491263 0.754721 0.445654
O O4 0.144977 0.827661 0.270944
O O5 0.550584 0.785255 0.188046
O O6 0.110233 0.018793 0.126270
O O7 0.408094 0.634119 0.127799
O O8 0.142923 0.020428 0.962813
O O9 0.563179 0.752470 0.640281
O O10 0.438407 0.746358 0.769496
O O11 0.332984 0.095382 0.682381
O O12 0.107169 0.064620 0.543761
O O13 0.123099 0.531904 0.596176
O O14 0.129813 0.766318 0.684817
O O15 0.062662 0.498091 0.354409
O O16 0.500000 0.000000 0.500000
O O17 0.706064 0.257522 0.117662
#
# Coordination Sequence:
#
# PCOD9051056 Si02
#       8
#     2   2   2   2   2   2   2   2
#     4  12  23  39  68 100 129 163 209 268 325 376
#     4  10  25  45  68  92 124 172 223 263 299 389
#     4  12  23  38  61  95 135 168 206 266 326 379
#     4  11  20  39  59  92 135 164 207 260 318 383
#     4  12  25  38  64  95 132 177 207 256 331 386
#     4  11  23  41  60  90 132 171 211 260 309 390
#     4  11  23  43  71  93 125 170 218 262 321 368
#     4  11  23  39  64  94 127 162 218 269 314 372
#
# _framework density 21.481854999999999
#
# number of rings (size 3 to 8) (size 9 to 14) (size 15 to 20)
#    0.000    0.750    5.000    4.125    1.750    0.000 
#    0.000    0.625    0.000    3.750    0.000    0.000 
#    0.000    0.000    0.000    0.000    0.000    0.000 
#
# Total GULP energy -89324.195875 kJ/mol
# GULP energy per Si atom -5582.762242 kJ/mol
# Density = 2.143296 g / cm^3
# Si number density = 21.481855 Si / 1000 Ang^3
#
#
#
# Elastic Constant Matrix: (Units=GPa)
#
#
# Indices 1 2 3 4 5 6 
#
# 1 68.6995 38.9410 29.6644 0.9018 -2.0718 -9.9245
# 2 38.9410 78.5781 24.4718 17.0094 -9.5142 -12.7393
# 3 29.6644 24.4718 118.3093 7.8356 10.5130 0.1987
# 4 0.9018 17.0094 7.8356 24.9181 -6.5877 0.7276
# 5 -2.0718 -9.5142 10.5130 -6.5877 37.9100 3.6331
# 6 -9.9245 -12.7393 0.1987 0.7276 3.6331 43.7356
#
#
#
# Elastic Compliance Matrix: (Units=1/GPa)
#
#
# Indices 1 2 3 4 5 6 
#
# 1 0.023043 -0.011662 -0.004002 0.008541 0.000769 0.001644
# 2 -0.011662 0.022914 -0.001100 -0.014320 0.002541 0.004060
# 3 -0.004002 -0.001100 0.010244 -0.003310 -0.003824 -0.000902
# 4 0.008541 -0.014320 -0.003310 0.052676 0.007299 -0.003701
# 5 0.000769 0.002541 -0.003824 0.007299 0.029544 -0.001644
# 6 0.001644 0.004060 -0.000902 -0.003701 -0.001644 0.024623
#
#
# Mechanical properties :
#
#
# Convention : Reuss Voigt Hill
#
# Bulk Modulus (GPa) = 44.10549 50.19347 47.14948
# Shear Modulus (GPa) = 24.49409 32.81339 28.65374
#
# Velocity S-wave (km/s) = 3.38038 3.91256 3.65616
# Velocity P-wave (km/s) = 5.98432 6.62020 6.31027
#
# Compressibility (1/GPa) = 0.02267291
#
# Stress axis : x y z
#
# Youngs Moduli (GPa) = 43.39621 43.64163 97.61825
#
# Poissons Ratio (x) = 0.50896 0.39069
# Poissons Ratio (y) = 0.50610 0.10734
# Poissons Ratio (z) = 0.17368 0.04799
#
# Static dielectric constant tensor:
#      x y z
#    x 1.996320 0.147190 -0.138070 
#    y 0.147190 1.980870 -0.013870 
#    z -0.138070 -0.013870 2.089860 
# 
# From -- ./inp_files/451818.got.cif
#   From: 2010.05.17/outbox.cif.g08.bks.cpg/sg2_226_cif.got.tgz:451818.got - 2010.06.03 11:33:40.
