data_PCOD9051883
_publ_section_title
;
Structure prediction by ZEFSAII (Michael W. Deem and Ramdas Pophale) SiO2 
 PCOD9051883
Probable space group: P -1
;
_chemical_formula_sum "Si O2"
_cell_formula_units_Z 15
_cell_length_a 12.898543
_cell_length_b 11.696597
_cell_length_c 4.946407
_cell_angle_alpha 95.897997
_cell_angle_beta 59.285724
_cell_angle_gamma 95.057372
_cell_volume 637.626596
_symmetry_space_group_name_H-M "P -1"
_symmetry_group_IT_number 2
_symmetry_cell_setting 'triclinic'
loop_
_space_group_symop_operation_xyz
x,y,z
-x,-y,-z
loop_
_atom_site_type_symbol
_atom_site_label
_atom_site_fract_x
_atom_site_fract_y
_atom_site_fract_z
Si Si1 0.422705 0.409389 0.259115
Si Si2 0.642099 0.269424 0.982901
Si Si3 0.085610 0.268163 0.034028
Si Si4 0.000000 0.500000 0.000000
Si Si5 0.758976 0.783151 0.690982
Si Si6 0.732468 0.036315 0.923785
Si Si7 0.259007 0.602322 0.643866
Si Si8 0.892020 0.082871 0.224425
O O1 0.334173 0.324845 0.184388
O O2 0.341036 0.492182 0.561479
O O3 0.500000 0.500000 0.000000
O O4 0.516684 0.325027 0.247096
O O5 0.639440 0.132606 0.990919
O O6 0.678632 0.315305 0.648262
O O7 0.743335 0.323954 0.062197
O O8 0.074827 0.402386 0.038059
O O9 0.185398 0.220503 0.684065
O O10 0.128695 0.234712 0.264704
O O11 0.956270 0.206918 0.128446
O O12 0.128530 0.554004 0.718653
O O13 0.700657 0.903256 0.870986
O O14 0.846794 0.066266 0.584444
O O15 0.780666 0.054449 0.167296
O O16 0.000000 0.000000 0.000000
#
# Coordination Sequence:
#
# PCOD9051883 Si02
#       8
#     2   2   2   1   2   2   2   2
#     4  10  25  48  73  95 138 186 233 287 340 402
#     4  11  25  45  71 101 131 182 237 283 331 407
#     4  12  26  40  66  99 140 176 221 273 338 416
#     4  12  26  42  68 100 142 170 220 292 330 416
#     4  12  25  44  66 100 132 178 227 278 341 396
#     4  12  23  42  70 100 139 174 235 275 336 413
#     4  11  25  45  69 102 137 182 225 280 354 402
#     4  12  22  43  66 100 137 191 212 270 347 413
#
# _framework density 23.524739
#
# number of rings (size 3 to 8) (size 9 to 14) (size 15 to 20)
#    0.000    0.533    4.000    4.000    3.733    4.800 
#    0.000    0.000    0.000    7.200    0.000    0.000 
#    0.000    0.000    0.000    0.000    0.000    0.000 
#
# Total GULP energy -83682.981114 kJ/mol
# GULP energy per Si atom -5578.865408 kJ/mol
# Density = 2.347120 g / cm^3
# Si number density = 23.524739 Si / 1000 Ang^3
#
#
#
# Elastic Constant Matrix: (Units=GPa)
#
#
# Indices 1 2 3 4 5 6 
#
# 1 46.3839 8.1801 2.6547 13.4472 1.7084 -10.3161
# 2 8.1801 125.3920 0.2895 11.4368 -2.9332 -18.3212
# 3 2.6547 0.2895 34.8158 -0.9041 6.0844 6.4293
# 4 13.4472 11.4368 -0.9041 25.3934 -8.0887 -10.3894
# 5 1.7084 -2.9332 6.0844 -8.0887 28.3192 -0.9877
# 6 -10.3161 -18.3212 6.4293 -10.3894 -0.9877 48.9318
#
#
#
# Elastic Compliance Matrix: (Units=1/GPa)
#
#
# Indices 1 2 3 4 5 6 
#
# 1 0.026769 -0.000135 -0.001969 -0.014827 -0.005350 0.002595
# 2 -0.000135 0.008634 -0.000710 -0.002582 0.000414 0.002757
# 3 -0.001969 -0.000710 0.031112 -0.002088 -0.007422 -0.005362
# 4 -0.014827 -0.002582 -0.002088 0.057588 0.017830 0.008769
# 5 -0.005350 0.000414 -0.007422 0.017830 0.042527 0.004646
# 6 0.002595 0.002757 -0.005362 0.008769 0.004646 0.024676
#
#
# Mechanical properties :
#
#
# Convention : Reuss Voigt Hill
#
# Bulk Modulus (GPa) = 16.42451 25.42671 20.92561
# Shear Modulus (GPa) = 23.01719 33.56005 28.28862
#
# Velocity S-wave (km/s) = 3.13137 3.78111 3.47148
# Velocity P-wave (km/s) = 4.48006 5.46758 4.99827
#
# Compressibility (1/GPa) = 0.06088462
#
# Stress axis : x y z
#
# Youngs Moduli (GPa) = 37.35727 115.82734 32.14220
#
# Poissons Ratio (x) = 0.01567 0.06330
# Poissons Ratio (y) = 0.00506 0.02282
# Poissons Ratio (z) = 0.07357 0.08224
#
# Static dielectric constant tensor:
#      x y z
#    x 1.903840 -0.002360 -0.015590 
#    y -0.002360 1.921840 0.044770 
#    z -0.015590 0.044770 1.849420 
# 
# From -- ./inp_files/71017.got.cif
#   From: 2010.05.17/outbox.cif.g08.bks.cpg/sg2_36_cif.got.tgz:71017.got - 2010.06.03 11:33:40.
