data_PCOD9051409
_publ_section_title
;
Structure prediction by ZEFSAII (Michael W. Deem and Ramdas Pophale) SiO2 
 PCOD9051409
Probable space group: P -1
;
_chemical_formula_sum "Si O2"
_cell_formula_units_Z 15
_cell_length_a 20.248514
_cell_length_b 4.680664
_cell_length_c 8.077371
_cell_angle_alpha 66.875033
_cell_angle_beta 120.961211
_cell_angle_gamma 117.351469
_cell_volume 570.656167
_symmetry_space_group_name_H-M "P -1"
_symmetry_group_IT_number 2
_symmetry_cell_setting 'triclinic'
loop_
_space_group_symop_operation_xyz
x,y,z
-x,-y,-z
loop_
_atom_site_type_symbol
_atom_site_label
_atom_site_fract_x
_atom_site_fract_y
_atom_site_fract_z
Si Si1 0.971988 0.910788 0.299292
Si Si2 0.707315 0.279772 0.080590
Si Si3 0.858736 0.885483 0.717627
Si Si4 0.540808 0.797128 0.867359
Si Si5 0.754673 0.318936 0.510224
Si Si6 0.500000 0.000000 0.500000
Si Si7 0.865732 0.342783 0.111315
Si Si8 0.629426 0.691401 0.665955
O O1 0.052018 0.006610 0.269962
O O2 0.911333 0.118123 0.138132
O O3 0.000000 0.000000 0.500000
O O4 0.919859 0.532582 0.291702
O O5 0.775953 0.169050 0.103020
O O6 0.731719 0.356894 0.283226
O O7 0.690707 0.568442 0.887160
O O8 0.620180 0.004294 0.016568
O O9 0.834559 0.204200 0.655202
O O10 0.783695 0.673049 0.553274
O O11 0.860476 0.631491 0.920244
O O12 0.567650 0.768486 0.710053
O O13 0.480234 0.980645 0.684913
O O14 0.500000 0.500000 0.000000
O O15 0.684917 0.025287 0.576665
O O16 0.579384 0.387492 0.556187
#
# Coordination Sequence:
#
# PCOD9051409 Si02
#       8
#     2   2   2   2   2   1   2   2
#     4  12  25  44  72 107 150 195 247 300 361 428
#     4  12  27  43  75 105 143 194 241 307 362 441
#     4  12  25  47  71 110 146 199 248 299 364 428
#     4  10  25  47  72 104 142 182 245 292 375 430
#     4  12  27  46  76 107 153 191 250 298 367 429
#     4   8  24  44  72  94 144 174 238 290 364 426
#     4  12  25  45  73 105 150 193 248 298 363 431
#     4  10  25  46  70 104 142 188 239 295 371 428
#
# _framework density 26.285533999999998
#
# number of rings (size 3 to 8) (size 9 to 14) (size 15 to 20)
#    0.800    0.000    1.333    5.200    5.600    2.133 
#    0.000    0.000    0.000    0.000    0.000    0.000 
#    0.000    0.000    0.000    0.000    0.000    0.000 
#
# Total GULP energy -83935.564993 kJ/mol
# GULP energy per Si atom -5595.704333 kJ/mol
# Density = 2.622571 g / cm^3
# Si number density = 26.285534 Si / 1000 Ang^3
#
#
#
# Elastic Constant Matrix: (Units=GPa)
#
#
# Indices 1 2 3 4 5 6 
#
# 1 117.3375 22.6169 23.9653 -6.0620 18.5597 -1.0194
# 2 22.6169 87.7224 4.3707 6.5249 10.3322 -12.9561
# 3 23.9653 4.3707 121.6339 1.0785 11.4846 2.7267
# 4 -6.0620 6.5249 1.0785 48.5310 2.1624 -13.8364
# 5 18.5597 10.3322 11.4846 2.1624 29.9669 0.1434
# 6 -1.0194 -12.9561 2.7267 -13.8364 0.1434 28.2960
#
#
#
# Elastic Compliance Matrix: (Units=1/GPa)
#
#
# Indices 1 2 3 4 5 6 
#
# 1 0.010130 -0.001990 -0.001467 0.001961 -0.005170 0.000580
# 2 -0.001990 0.013187 0.000106 -0.000198 -0.003369 0.005876
# 3 -0.001467 0.000106 0.008768 -0.000607 -0.002439 -0.001133
# 4 0.001961 -0.000198 -0.000607 0.024434 -0.002734 0.012000
# 5 -0.005170 -0.003369 -0.002439 -0.002734 0.038880 -0.003028
# 6 0.000580 0.005876 -0.001133 0.012000 -0.003028 0.044044
#
#
# Mechanical properties :
#
#
# Convention : Reuss Voigt Hill
#
# Bulk Modulus (GPa) = 39.39523 47.62217 43.50870
# Shear Modulus (GPa) = 32.34079 39.74150 36.04115
#
# Velocity S-wave (km/s) = 3.51146 3.89255 3.70691
# Velocity P-wave (km/s) = 5.60896 6.19348 5.90845
#
# Compressibility (1/GPa) = 0.02538378
#
# Stress axis : x y z
#
# Youngs Moduli (GPa) = 98.72061 75.83397 114.05588
#
# Poissons Ratio (x) = 0.15090 0.16727
# Poissons Ratio (y) = 0.19644 -0.01213
# Poissons Ratio (z) = 0.14478 -0.00806
#
# Static dielectric constant tensor:
#      x y z
#    x 2.116440 -0.049950 0.058750 
#    y -0.049950 2.060570 -0.033650 
#    z 0.058750 -0.033650 2.106840 
# 
# From -- ./inp_files/350982.got.cif
#   From: 2010.05.17/outbox.cif.g08.bks.cpg/sg2_176_cif.got.tgz:350982.got - 2010.06.03 11:33:40.
