data_PCOD9051301
_publ_section_title
;
Structure prediction by ZEFSAII (Michael W. Deem and Ramdas Pophale) SiO2 
 PCOD9051301
Probable space group: P -1
;
_chemical_formula_sum "Si O2"
_cell_formula_units_Z 14
_cell_length_a 8.265937
_cell_length_b 9.230245
_cell_length_c 11.291198
_cell_angle_alpha 114.150497
_cell_angle_beta 69.265810
_cell_angle_gamma 68.144316
_cell_volume 584.817472
_symmetry_space_group_name_H-M "P -1"
_symmetry_group_IT_number 2
_symmetry_cell_setting 'triclinic'
loop_
_space_group_symop_operation_xyz
x,y,z
-x,-y,-z
loop_
_atom_site_type_symbol
_atom_site_label
_atom_site_fract_x
_atom_site_fract_y
_atom_site_fract_z
Si Si1 0.896740 0.174537 0.350742
Si Si2 0.346174 0.489915 0.273397
Si Si3 0.431241 0.958584 0.374092
Si Si4 0.849372 0.559156 0.169795
Si Si5 0.005551 0.198477 0.676636
Si Si6 0.185082 0.767791 0.858574
Si Si7 0.660985 0.870356 0.803846
O O1 0.756781 0.342305 0.541795
O O2 0.744148 0.256029 0.302952
O O3 0.121419 0.142947 0.255428
O O4 0.957971 0.958321 0.290532
O O5 0.604351 0.332567 0.149321
O O6 0.271736 0.350790 0.271366
O O7 0.241114 0.630715 0.233889
O O8 0.598915 0.719795 0.249717
O O9 0.500000 0.000000 0.500000
O O10 0.177752 0.051618 0.480682
O O11 0.446655 0.043003 0.271943
O O12 0.909805 0.672456 0.274290
O O13 0.898194 0.363145 0.145914
O O14 0.000000 0.500000 0.000000
O O15 0.000000 0.000000 0.000000
O O16 0.500000 0.000000 0.000000
#
# Coordination Sequence:
#
# PCOD9051301 Si02
#       7
#     2   2   2   2   2   2   2
#     4  12  26  47  77 106 152 195 259 310 378 457
#     4  12  27  46  77 105 150 196 259 308 381 448
#     4  10  25  45  79 108 151 195 259 309 377 449
#     4  11  26  46  76 103 150 198 247 304 386 445
#     4  11  25  49  75 111 142 196 258 315 366 450
#     4  12  28  48  70 111 151 197 249 316 381 454
#     4  12  28  47  75 113 157 197 249 316 387 443
#
# _framework density 23.939094999999998
#
# number of rings (size 3 to 8) (size 9 to 14) (size 15 to 20)
#    0.000    0.571    1.429    4.714   16.000    0.000 
#    0.000    2.143    0.000    0.000    0.000    0.000 
#    0.000    0.000    0.000    0.000    0.000    0.000 
#
# Total GULP energy -78222.120633 kJ/mol
# GULP energy per Si atom -5587.294331 kJ/mol
# Density = 2.388461 g / cm^3
# Si number density = 23.939095 Si / 1000 Ang^3
#
#
#
# Elastic Constant Matrix: (Units=GPa)
#
#
# Indices 1 2 3 4 5 6 
#
# 1 74.2768 40.0334 16.6736 23.1680 -13.3634 5.5426
# 2 40.0334 200.9486 44.9412 28.6306 6.4036 8.4336
# 3 16.6736 44.9412 85.3019 23.6664 -18.8274 -8.5805
# 4 23.1680 28.6306 23.6664 50.8983 -3.0448 2.0961
# 5 -13.3634 6.4036 -18.8274 -3.0448 29.4763 8.8474
# 6 5.5426 8.4336 -8.5805 2.0961 8.8474 50.2297
#
#
#
# Elastic Compliance Matrix: (Units=1/GPa)
#
#
# Indices 1 2 3 4 5 6 
#
# 1 0.019276 -0.003570 0.002217 -0.007021 0.011047 -0.002802
# 2 -0.003570 0.006883 -0.004020 -0.000696 -0.005625 -0.000429
# 3 0.002217 -0.004020 0.018079 -0.006487 0.012267 0.001629
# 4 -0.007021 -0.000696 -0.006487 0.026014 -0.004326 -0.000540
# 5 0.011047 -0.005625 0.012267 -0.004326 0.049564 -0.006729
# 6 -0.002802 -0.000429 0.001629 -0.000540 -0.006729 0.021776
#
#
# Mechanical properties :
#
#
# Convention : Reuss Voigt Hill
#
# Bulk Modulus (GPa) = 29.85764 62.64709 46.25237
# Shear Modulus (GPa) = 30.58077 43.37946 36.98012
#
# Velocity S-wave (km/s) = 3.57801 4.26147 3.93461
# Velocity P-wave (km/s) = 5.43773 7.10209 6.32489
#
# Compressibility (1/GPa) = 0.03349227
#
# Stress axis : x y z
#
# Youngs Moduli (GPa) = 51.87799 145.28202 55.31341
#
# Poissons Ratio (x) = 0.51870 -0.12265
# Poissons Ratio (y) = 0.18522 0.22236
# Poissons Ratio (z) = -0.11503 0.58402
#
# Static dielectric constant tensor:
#      x y z
#    x 2.028310 -0.050970 0.016700 
#    y -0.050970 2.037370 -0.064910 
#    z 0.016700 -0.064910 1.916000 
# 
# From -- ./inp_files/158812.got.cif
#   From: 2010.05.17/outbox.cif.g08.bks.cpg/sg2_80_cif.got.tgz:158812.got - 2010.06.03 11:33:40.
