data_PCOD9051914
_publ_section_title
;
Structure prediction by ZEFSAII (Michael W. Deem and Ramdas Pophale) SiO2 
 PCOD9051914
Probable space group: P -1
;
_chemical_formula_sum "Si O2"
_cell_formula_units_Z 14
_cell_length_a 26.215695
_cell_length_b 13.814418
_cell_length_c 9.018058
_cell_angle_alpha 28.028270
_cell_angle_beta 33.657564
_cell_angle_gamma 22.712709
_cell_volume 589.601574
_symmetry_space_group_name_H-M "P -1"
_symmetry_group_IT_number 2
_symmetry_cell_setting 'triclinic'
loop_
_space_group_symop_operation_xyz
x,y,z
-x,-y,-z
loop_
_atom_site_type_symbol
_atom_site_label
_atom_site_fract_x
_atom_site_fract_y
_atom_site_fract_z
Si Si1 0.649071 0.798137 0.978799
Si Si2 0.763339 0.122923 0.919668
Si Si3 0.452063 0.220993 0.453408
Si Si4 0.861600 0.802466 0.500359
Si Si5 0.268108 0.264818 0.431815
Si Si6 0.891753 0.174859 0.759801
Si Si7 0.096861 0.183111 0.279803
O O1 0.723272 0.899739 0.679209
O O2 0.732777 0.595073 0.903720
O O3 0.643028 0.720804 0.265325
O O4 0.500000 0.000000 0.000000
O O5 0.625280 0.451127 0.855352
O O6 0.870482 0.114642 0.730694
O O7 0.773589 0.059413 0.806751
O O8 0.801716 0.841790 0.278052
O O9 0.500000 0.000000 0.500000
O O10 0.586127 0.045155 0.456740
O O11 0.879664 0.774399 0.671486
O O12 0.000000 0.500000 0.500000
O O13 0.855890 0.044975 0.129180
O O14 0.211552 0.479598 0.416182
O O15 0.028378 0.068839 0.603208
O O16 0.000000 0.500000 0.000000
#
# Coordination Sequence:
#
# PCOD9051914 Si02
#       7
#     2   2   2   2   2   2   2
#     4  10  25  48  75 108 151 197 256 310 376 463
#     4  12  25  45  74 105 152 193 256 314 383 444
#     4  11  25  44  73 108 147 198 253 318 377 443
#     4  12  27  48  79 112 155 205 254 312 389 461
#     4  11  23  49  69 106 149 197 251 312 378 461
#     4  12  25  47  74 104 157 199 249 314 383 458
#     4  12  27  45  74 114 150 198 256 315 384 456
#
# _framework density 23.74485
#
# number of rings (size 3 to 8) (size 9 to 14) (size 15 to 20)
#    0.000    0.571    4.286    3.000    8.000    0.000 
#    0.000    3.571    0.000    0.000    0.000    0.000 
#    0.000    0.000    0.000    0.000    0.000    0.000 
#
# Total GULP energy -78027.161569 kJ/mol
# GULP energy per Si atom -5573.368683 kJ/mol
# Density = 2.369081 g / cm^3
# Si number density = 23.744850 Si / 1000 Ang^3
#
#
#
# Elastic Constant Matrix: (Units=GPa)
#
#
# Indices 1 2 3 4 5 6 
#
# 1 132.7568 33.2987 37.4823 5.4675 -3.4999 17.7245
# 2 33.2987 106.1668 41.3256 -6.5669 -5.7901 20.8415
# 3 37.4823 41.3256 109.4222 0.9650 -16.1645 -2.0133
# 4 5.4675 -6.5669 0.9650 38.6383 3.9827 1.0313
# 5 -3.4999 -5.7901 -16.1645 3.9827 36.3006 5.2525
# 6 17.7245 20.8415 -2.0133 1.0313 5.2525 52.9063
#
#
#
# Elastic Compliance Matrix: (Units=1/GPa)
#
#
# Indices 1 2 3 4 5 6 
#
# 1 0.009012 -0.001405 -0.002589 -0.001383 0.000011 -0.002538
# 2 -0.001405 0.012672 -0.004362 0.002552 0.000354 -0.004772
# 3 -0.002589 -0.004362 0.012370 -0.001199 0.004310 0.002652
# 4 -0.001383 0.002552 -0.001199 0.026881 -0.003093 -0.000805
# 5 0.000011 0.000354 0.004310 -0.003093 0.030287 -0.002925
# 6 -0.002538 -0.004772 0.002652 -0.000805 -0.002925 0.022039
#
#
# Mechanical properties :
#
#
# Convention : Reuss Voigt Hill
#
# Bulk Modulus (GPa) = 57.67196 63.61767 60.64481
# Shear Modulus (GPa) = 36.83116 41.31832 39.07474
#
# Velocity S-wave (km/s) = 3.94270 4.17597 4.06101
# Velocity P-wave (km/s) = 6.71323 7.07828 6.89817
#
# Compressibility (1/GPa) = 0.01733945
#
# Stress axis : x y z
#
# Youngs Moduli (GPa) = 110.95999 78.91413 80.84346
#
# Poissons Ratio (x) = 0.11091 0.20932
# Poissons Ratio (y) = 0.15595 0.35268
# Poissons Ratio (z) = 0.28730 0.34426
#
# Static dielectric constant tensor:
#      x y z
#    x 1.997310 -0.033680 0.036070 
#    y -0.033680 1.943990 0.049460 
#    z 0.036070 0.049460 1.969240 
# 
# From -- ./inp_files/353763.got.cif
#   From: 2010.05.17/outbox.cif.g08.bks.cpg/sg2_177_cif.got.tgz:353763.got - 2010.06.03 11:33:40.
