data_PCOD9051274
_publ_section_title
;
Structure prediction by ZEFSAII (Michael W. Deem and Ramdas Pophale) SiO2 
 PCOD9051274
Probable space group: P -1
;
_chemical_formula_sum "Si O2"
_cell_formula_units_Z 16
_cell_length_a 9.140304
_cell_length_b 12.619979
_cell_length_c 9.250061
_cell_angle_alpha 122.968942
_cell_angle_beta 49.919783
_cell_angle_gamma 117.765487
_cell_volume 673.764409
_symmetry_space_group_name_H-M "P -1"
_symmetry_group_IT_number 2
_symmetry_cell_setting 'triclinic'
loop_
_space_group_symop_operation_xyz
x,y,z
-x,-y,-z
loop_
_atom_site_type_symbol
_atom_site_label
_atom_site_fract_x
_atom_site_fract_y
_atom_site_fract_z
Si Si1 0.090758 0.147316 0.014477
Si Si2 0.427530 0.561634 0.389616
Si Si3 0.635239 0.802485 0.611184
Si Si4 0.635619 0.320046 0.079228
Si Si5 0.245608 0.595006 0.229698
Si Si6 0.933279 0.374377 0.161296
Si Si7 0.032599 0.217807 0.401249
Si Si8 0.689085 0.972310 0.439318
O O1 0.160931 0.210437 0.170112
O O2 0.940237 0.234107 0.117618
O O3 0.238655 0.137545 0.784597
O O4 0.000000 0.000000 0.000000
O O5 0.566895 0.683723 0.458776
O O6 0.516282 0.435301 0.267201
O O7 0.383361 0.573174 0.256887
O O8 0.226576 0.563823 0.603673
O O9 0.477700 0.793687 0.834051
O O10 0.836564 0.788368 0.547240
O O11 0.650402 0.926154 0.593094
O O12 0.850949 0.358035 0.039439
O O13 0.653725 0.310427 0.889420
O O14 0.141629 0.463517 0.120929
O O15 0.072297 0.660661 0.451064
O O16 0.859135 0.095772 0.420332
O O17 0.500000 0.000000 0.500000
#
# Coordination Sequence:
#
# PCOD9051274 Si02
#       8
#     2   2   2   2   2   2   2   2
#     4  10  25  45  74  99 141 183 236 284 353 419
#     4  11  23  44  67 101 146 188 230 290 346 414
#     4  11  25  44  70  96 144 185 231 290 344 413
#     4  11  26  41  67 106 147 184 232 287 350 410
#     4  12  24  41  73 104 145 182 236 287 353 414
#     4  11  23  44  71 103 144 189 231 287 352 418
#     4  11  24  47  70 106 138 182 236 287 351 421
#     4  11  26  48  75 101 135 183 236 293 353 417
#
# _framework density 23.747174999999999
#
# number of rings (size 3 to 8) (size 9 to 14) (size 15 to 20)
#    0.000    1.000    1.250    5.250   10.500    2.000 
#    0.000    1.250    0.000    0.000    0.000    0.000 
#    0.000    0.000    0.000    0.000    0.000    0.000 
#
# Total GULP energy -89587.949001 kJ/mol
# GULP energy per Si atom -5599.246813 kJ/mol
# Density = 2.369313 g / cm^3
# Si number density = 23.747175 Si / 1000 Ang^3
#
#
#
# Elastic Constant Matrix: (Units=GPa)
#
#
# Indices 1 2 3 4 5 6 
#
# 1 175.6048 42.4466 10.4339 -9.4814 18.5437 -10.6072
# 2 42.4466 82.6677 9.5584 -10.8680 12.4023 -6.3202
# 3 10.4339 9.5584 64.9408 -9.2995 3.9266 -3.6735
# 4 -9.4814 -10.8680 -9.2995 34.4781 -15.4911 2.2694
# 5 18.5437 12.4023 3.9266 -15.4911 29.0738 -7.7619
# 6 -10.6072 -6.3202 -3.6735 2.2694 -7.7619 43.2210
#
#
#
# Elastic Compliance Matrix: (Units=1/GPa)
#
#
# Indices 1 2 3 4 5 6 
#
# 1 0.006785 -0.002988 -0.000520 -0.000685 -0.003174 0.000650
# 2 -0.002988 0.014518 -0.001142 0.002138 -0.002814 0.000675
# 3 -0.000520 -0.001142 0.016262 0.004369 0.001239 0.001081
# 4 -0.000685 0.002138 0.004369 0.039844 0.020738 0.002148
# 5 -0.003174 -0.002814 0.001239 0.020738 0.050335 0.006865
# 6 0.000650 0.000675 0.001081 0.002148 0.006865 0.024607
#
#
# Mechanical properties :
#
#
# Convention : Reuss Voigt Hill
#
# Bulk Modulus (GPa) = 35.37959 49.78790 42.58375
# Shear Modulus (GPa) = 29.22724 38.73954 33.98339
#
# Velocity S-wave (km/s) = 3.51203 4.04336 3.78703
# Velocity P-wave (km/s) = 5.60149 6.54291 6.09041
#
# Compressibility (1/GPa) = 0.02826488
#
# Stress axis : x y z
#
# Youngs Moduli (GPa) = 147.37914 68.88148 61.49272
#
# Poissons Ratio (x) = 0.20582 0.03196
# Poissons Ratio (y) = 0.44037 0.07024
# Poissons Ratio (z) = 0.07661 0.07868
#
# Static dielectric constant tensor:
#      x y z
#    x 1.861750 0.035590 0.009880 
#    y 0.035590 1.928400 -0.034820 
#    z 0.009880 -0.034820 1.931180 
# 
# From -- ./inp_files/189792.got.cif
#   From: 2010.05.17/outbox.cif.g08.bks.cpg/sg2_95_cif.got.tgz:189792.got - 2010.06.03 11:33:40.
