data_PCOD9051606
_publ_section_title
;
Structure prediction by ZEFSAII (Michael W. Deem and Ramdas Pophale) SiO2 
 PCOD9051606
Probable space group: P -1
;
_chemical_formula_sum "Si O2"
_cell_formula_units_Z 14
_cell_length_a 19.647367
_cell_length_b 6.795499
_cell_length_c 7.163592
_cell_angle_alpha 96.619044
_cell_angle_beta 49.574128
_cell_angle_gamma 120.472951
_cell_volume 593.329443
_symmetry_space_group_name_H-M "P -1"
_symmetry_group_IT_number 2
_symmetry_cell_setting 'triclinic'
loop_
_space_group_symop_operation_xyz
x,y,z
-x,-y,-z
loop_
_atom_site_type_symbol
_atom_site_label
_atom_site_fract_x
_atom_site_fract_y
_atom_site_fract_z
Si Si1 0.847179 0.821729 0.943507
Si Si2 0.993747 0.262025 0.519633
Si Si3 0.351616 0.690343 0.885678
Si Si4 0.242042 0.076955 0.546710
Si Si5 0.897978 0.457508 0.290630
Si Si6 0.600611 0.992901 0.490735
Si Si7 0.306462 0.579989 0.381663
O O1 0.941996 0.778978 0.753262
O O2 0.733514 0.571823 0.077386
O O3 0.839792 0.926004 0.160652
O O4 0.879425 0.019986 0.747259
O O5 0.062041 0.340810 0.600493
O O6 0.000000 0.500000 0.500000
O O7 0.347952 0.884308 0.787260
O O8 0.476017 0.773966 0.662288
O O9 0.322921 0.675473 0.152202
O O10 0.297049 0.331403 0.372922
O O11 0.169744 0.819608 0.543730
O O12 0.331191 0.074086 0.513981
O O13 0.806117 0.465330 0.345119
O O14 0.000000 0.500000 0.000000
O O15 0.602758 0.204212 0.626003
#
# Coordination Sequence:
#
# PCOD9051606 Si02
#       7
#     2   2   2   2   2   2   2
#     4  11  24  43  64 101 134 177 226 282 337 411
#     4  11  26  42  66 100 134 181 227 281 339 412
#     4  11  23  46  72  97 141 182 230 286 348 408
#     4  11  25  42  70  99 139 179 229 287 342 411
#     4  11  24  42  64  98 133 184 221 279 345 408
#     4  10  25  47  68 102 137 184 229 289 345 407
#     4  11  24  45  68 100 139 180 229 286 345 413
#
# _framework density 23.595659000000001
#
# number of rings (size 3 to 8) (size 9 to 14) (size 15 to 20)
#    0.000    1.143    4.286    0.429    6.000    1.714 
#    2.571    0.000    0.000    0.000    0.000    0.000 
#    0.000    0.000    0.000    0.000    0.000    0.000 
#
# Total GULP energy -78262.702196 kJ/mol
# GULP energy per Si atom -5590.193014 kJ/mol
# Density = 2.354195 g / cm^3
# Si number density = 23.595659 Si / 1000 Ang^3
#
#
#
# Elastic Constant Matrix: (Units=GPa)
#
#
# Indices 1 2 3 4 5 6 
#
# 1 61.2861 19.4353 25.8840 -14.4805 2.9260 -7.1890
# 2 19.4353 121.9468 47.8003 -20.4252 -5.1675 -13.3927
# 3 25.8840 47.8003 94.4023 -23.5545 7.6049 -6.4184
# 4 -14.4805 -20.4252 -23.5545 42.3767 7.5778 4.2653
# 5 2.9260 -5.1675 7.6049 7.5778 33.3221 -3.2339
# 6 -7.1890 -13.3927 -6.4184 4.2653 -3.2339 38.4778
#
#
#
# Elastic Compliance Matrix: (Units=1/GPa)
#
#
# Indices 1 2 3 4 5 6 
#
# 1 0.019442 -0.000825 -0.003524 0.004401 -0.001826 0.002116
# 2 -0.000825 0.010975 -0.005012 0.001414 0.002880 0.002915
# 3 -0.003524 -0.005012 0.016101 0.006439 -0.005695 -0.000910
# 4 0.004401 0.001414 0.006439 0.031135 -0.008893 -0.001810
# 5 -0.001826 0.002880 -0.005695 -0.008893 0.034286 0.003579
# 6 0.002116 0.002915 -0.000910 -0.001810 0.003579 0.027749
#
#
# Mechanical properties :
#
#
# Convention : Reuss Voigt Hill
#
# Bulk Modulus (GPa) = 35.97684 51.54161 43.75922
# Shear Modulus (GPa) = 29.81939 35.13636 32.47787
#
# Velocity S-wave (km/s) = 3.55881 3.86308 3.71406
# Velocity P-wave (km/s) = 5.67161 6.46443 6.08096
#
# Compressibility (1/GPa) = 0.02779566
#
# Stress axis : x y z
#
# Youngs Moduli (GPa) = 51.43468 91.11236 62.10895
#
# Poissons Ratio (x) = 0.07519 0.21887
# Poissons Ratio (y) = 0.04244 0.31130
# Poissons Ratio (z) = 0.18125 0.45667
#
# Static dielectric constant tensor:
#      x y z
#    x 1.955820 -0.020520 0.024560 
#    y -0.020520 1.895740 -0.023690 
#    z 0.024560 -0.023690 1.898790 
# 
# From -- ./inp_files/87401.got.cif
#   From: 2010.05.17/outbox.cif.g08.bks.cpg/sg2_44_cif.got.tgz:87401.got - 2010.06.03 11:33:40.
