data_PCOD9051848
_publ_section_title
;
Structure prediction by ZEFSAII (Michael W. Deem and Ramdas Pophale) SiO2 
 PCOD9051848
Probable space group: P -1
;
_chemical_formula_sum "Si O2"
_cell_formula_units_Z 16
_cell_length_a 11.518981
_cell_length_b 12.102752
_cell_length_c 6.393986
_cell_angle_alpha 85.488918
_cell_angle_beta 56.650766
_cell_angle_gamma 101.806204
_cell_volume 708.668978
_symmetry_space_group_name_H-M "P -1"
_symmetry_group_IT_number 2
_symmetry_cell_setting 'triclinic'
loop_
_space_group_symop_operation_xyz
x,y,z
-x,-y,-z
loop_
_atom_site_type_symbol
_atom_site_label
_atom_site_fract_x
_atom_site_fract_y
_atom_site_fract_z
Si Si1 0.918686 0.875026 0.483386
Si Si2 0.107877 0.529180 0.689056
Si Si3 0.115723 0.371312 0.303392
Si Si4 0.594330 0.230526 0.398469
Si Si5 0.308665 0.050116 0.570601
Si Si6 0.194800 0.855427 0.009620
Si Si7 0.380275 0.884601 0.217842
Si Si8 0.636033 0.468063 0.272073
O O1 0.875925 0.760404 0.688025
O O2 0.785729 0.882616 0.468286
O O3 0.030139 0.840750 0.221698
O O4 0.000000 0.000000 0.500000
O O5 0.114008 0.431468 0.524516
O O6 0.265696 0.558232 0.632473
O O7 0.039482 0.620633 0.631382
O O8 0.000000 0.500000 0.000000
O O9 0.252906 0.449088 0.014938
O O10 0.476056 0.120212 0.428057
O O11 0.565875 0.204186 0.678581
O O12 0.567461 0.336777 0.284145
O O13 0.757172 0.228297 0.184622
O O14 0.292411 0.940722 0.455278
O O15 0.252779 0.989522 0.855494
O O16 0.275543 0.833833 0.140268
O O17 0.500000 0.000000 0.000000
O O18 0.500000 0.500000 0.500000
#
# Coordination Sequence:
#
# PCOD9051848 Si02
#       8
#     2   2   2   2   2   2   2   2
#     4  12  27  43  69 105 140 181 227 287 358 415
#     4   9  22  48  74  98 136 184 239 290 345 415
#     4  10  25  48  71  99 142 188 237 290 348 416
#     4  11  25  40  71  97 133 185 232 278 347 420
#     4  11  23  43  61 101 140 173 217 284 343 406
#     4  11  23  42  67  97 136 180 228 273 345 422
#     4  11  19  40  67  97 134 176 225 274 332 412
#     4  11  27  46  68 105 138 179 237 297 359 410
#
# _framework density 22.577537
#
# number of rings (size 3 to 8) (size 9 to 14) (size 15 to 20)
#    0.000    1.250    3.750    1.125    8.750    2.500 
#    4.500    0.000    0.000    0.000    0.000    0.000 
#    0.000    0.000    0.000    0.000    0.000    0.000 
#
# Total GULP energy -89070.477943 kJ/mol
# GULP energy per Si atom -5566.904871 kJ/mol
# Density = 2.252615 g / cm^3
# Si number density = 22.577537 Si / 1000 Ang^3
#
#
#
# Elastic Constant Matrix: (Units=GPa)
#
#
# Indices 1 2 3 4 5 6 
#
# 1 75.9684 15.5811 25.1638 -0.8534 2.8070 -16.9884
# 2 15.5811 123.8839 54.2175 -29.4497 -1.5578 -21.0804
# 3 25.1638 54.2175 104.7146 -14.5498 -6.4002 -7.8809
# 4 -0.8534 -29.4497 -14.5498 35.3415 -1.8092 -1.8586
# 5 2.8070 -1.5578 -6.4002 -1.8092 38.3908 8.0162
# 6 -16.9884 -21.0804 -7.8809 -1.8586 8.0162 26.4746
#
#
#
# Elastic Compliance Matrix: (Units=1/GPa)
#
#
# Indices 1 2 3 4 5 6 
#
# 1 0.017253 0.002078 -0.004428 0.000767 -0.004561 0.012842
# 2 0.002078 0.015270 -0.006072 0.010830 -0.002810 0.013296
# 3 -0.004428 -0.006072 0.013670 0.000391 0.003333 -0.004588
# 4 0.000767 0.010830 0.000391 0.038116 -0.000258 0.011986
# 5 -0.004561 -0.002810 0.003333 -0.000258 0.029554 -0.013139
# 6 0.012842 0.013296 -0.004588 0.011986 -0.013139 0.060053
#
#
# Mechanical properties :
#
#
# Convention : Reuss Voigt Hill
#
# Bulk Modulus (GPa) = 34.07142 54.94352 44.50747
# Shear Modulus (GPa) = 24.93240 34.01501 29.47371
#
# Velocity S-wave (km/s) = 3.32671 3.88569 3.61701
# Velocity P-wave (km/s) = 5.46622 6.67231 6.09915
#
# Compressibility (1/GPa) = 0.02935012
#
# Stress axis : x y z
#
# Youngs Moduli (GPa) = 57.96189 65.48972 73.15177
#
# Poissons Ratio (x) = -0.13610 0.32389
# Poissons Ratio (y) = -0.12046 0.44416
# Poissons Ratio (z) = 0.25663 0.39764
#
# Static dielectric constant tensor:
#      x y z
#    x 1.853710 0.048580 0.031570 
#    y 0.048580 2.222550 -0.048270 
#    z 0.031570 -0.048270 2.085050 
# 
# From -- ./inp_files/69623.got.cif
#   From: 2010.05.17/outbox.cif.g08.bks.cpg/sg2_35_cif.got.tgz:69623.got - 2010.06.03 11:33:40.
