data_PCOD9051013
_publ_section_title
;
Structure prediction by ZEFSAII (Michael W. Deem and Ramdas Pophale) SiO2 
 PCOD9051013
Probable space group: P -1
;
_chemical_formula_sum "Si O2"
_cell_formula_units_Z 14
_cell_length_a 19.841347
_cell_length_b 8.332543
_cell_length_c 9.340533
_cell_angle_alpha 32.680468
_cell_angle_beta 47.974207
_cell_angle_gamma 60.740175
_cell_volume 608.563152
_symmetry_space_group_name_H-M "P -1"
_symmetry_group_IT_number 2
_symmetry_cell_setting 'triclinic'
loop_
_space_group_symop_operation_xyz
x,y,z
-x,-y,-z
loop_
_atom_site_type_symbol
_atom_site_label
_atom_site_fract_x
_atom_site_fract_y
_atom_site_fract_z
Si Si1 0.059945 0.333966 0.644046
Si Si2 0.744557 0.715224 0.733237
Si Si3 0.649055 0.622868 0.422787
Si Si4 0.536644 0.976648 0.127329
Si Si5 0.219874 0.582747 0.811976
Si Si6 0.590082 0.761506 0.694676
Si Si7 0.008745 0.352546 0.249039
O O1 0.159590 0.311029 0.459812
O O2 0.000000 0.500000 0.500000
O O3 0.065086 0.536149 0.627137
O O4 0.000000 0.000000 0.000000
O O5 0.662843 0.661889 0.774898
O O6 0.754539 0.059221 0.518466
O O7 0.732627 0.495236 0.050678
O O8 0.746286 0.604757 0.225459
O O9 0.637800 0.833075 0.417900
O O10 0.586107 0.712286 0.315229
O O11 0.611589 0.288502 0.789858
O O12 0.453819 0.986236 0.349371
O O13 0.500000 0.000000 0.000000
O O14 0.110866 0.483236 0.064418
O O15 0.500000 0.500000 0.000000
O O16 0.000000 0.000000 0.500000
O O17 0.000000 0.500000 0.000000
#
# Coordination Sequence:
#
# PCOD9051013 Si02
#       7
#     2   2   2   2   2   2   2
#     4  12  23  48  72 104 140 186 237 287 349 428
#     4  12  25  46  73  99 139 190 235 284 343 425
#     4  11  24  41  64  96 133 170 220 285 340 400
#     4  11  22  42  67  92 128 176 224 276 340 408
#     4  12  25  46  68 104 138 183 236 277 348 433
#     4  10  25  45  67 102 139 178 235 293 347 404
#     4  12  26  44  71 104 146 179 228 297 356 415
#
# _framework density 23.005008
#
# number of rings (size 3 to 8) (size 9 to 14) (size 15 to 20)
#    0.000    0.571    2.857    5.143    2.000    5.714 
#    2.571    0.000    0.000    0.000    0.000    0.000 
#    0.000    0.000    0.000    0.000    0.000    0.000 
#
# Total GULP energy -78327.565060 kJ/mol
# GULP energy per Si atom -5594.826076 kJ/mol
# Density = 2.295265 g / cm^3
# Si number density = 23.005008 Si / 1000 Ang^3
#
#
#
# Elastic Constant Matrix: (Units=GPa)
#
#
# Indices 1 2 3 4 5 6 
#
# 1 94.0790 9.7423 3.6633 -1.4045 7.5624 -14.3984
# 2 9.7423 159.3879 28.2382 28.9526 9.3098 -10.3690
# 3 3.6633 28.2382 78.5518 -14.0241 13.6207 -11.4938
# 4 -1.4045 28.9526 -14.0241 52.4207 -1.6652 1.9737
# 5 7.5624 9.3098 13.6207 -1.6652 39.8443 3.8146
# 6 -14.3984 -10.3690 -11.4938 1.9737 3.8146 39.8516
#
#
#
# Elastic Compliance Matrix: (Units=1/GPa)
#
#
# Indices 1 2 3 4 5 6 
#
# 1 0.011577 -0.000511 0.000896 0.000572 -0.002796 0.004547
# 2 -0.000511 0.008058 -0.003504 -0.005479 -0.000938 0.001263
# 3 0.000896 -0.003504 0.016571 0.006063 -0.005183 0.004387
# 4 0.000572 -0.005479 0.006063 0.023770 0.000156 -0.000662
# 5 -0.002796 -0.000938 -0.005183 0.000156 0.028148 -0.005451
# 6 0.004547 0.001263 0.004387 -0.000662 -0.005451 0.028884
#
#
# Mechanical properties :
#
#
# Convention : Reuss Voigt Hill
#
# Bulk Modulus (GPa) = 33.36842 46.14515 39.75679
# Shear Modulus (GPa) = 37.52768 45.78165 41.65466
#
# Velocity S-wave (km/s) = 4.04330 4.46586 4.25982
# Velocity P-wave (km/s) = 6.02777 6.83332 6.44314
#
# Compressibility (1/GPa) = 0.02996846
#
# Stress axis : x y z
#
# Youngs Moduli (GPa) = 86.38108 124.09755 60.34536
#
# Poissons Ratio (x) = 0.06344 -0.05408
# Poissons Ratio (y) = 0.04416 0.21144
# Poissons Ratio (z) = -0.07741 0.43481
#
# Static dielectric constant tensor:
#      x y z
#    x 1.844510 0.059620 0.002570 
#    y 0.059620 1.893600 0.001570 
#    z 0.002570 0.001570 1.825310 
# 
# From -- ./inp_files/343178.got.cif
#   From: 2010.05.17/outbox.cif.g08.bks.cpg/sg2_172_cif.got.tgz:343178.got - 2010.06.03 11:33:40.
