data_PCOD9051832
_publ_section_title
;
Structure prediction by ZEFSAII (Michael W. Deem and Ramdas Pophale) SiO2 
 PCOD9051832
Probable space group: P -1
;
_chemical_formula_sum "Si O2"
_cell_formula_units_Z 12
_cell_length_a 14.800128
_cell_length_b 6.804938
_cell_length_c 9.144026
_cell_angle_alpha 74.626459
_cell_angle_beta 47.024128
_cell_angle_gamma 50.602520
_cell_volume 497.289128
_symmetry_space_group_name_H-M "P -1"
_symmetry_group_IT_number 2
_symmetry_cell_setting 'triclinic'
loop_
_space_group_symop_operation_xyz
x,y,z
-x,-y,-z
loop_
_atom_site_type_symbol
_atom_site_label
_atom_site_fract_x
_atom_site_fract_y
_atom_site_fract_z
Si Si1 0.047918 0.783748 0.371675
Si Si2 0.764670 0.779041 0.600504
Si Si3 0.531334 0.364053 0.834630
Si Si4 0.786001 0.161728 0.058818
Si Si5 0.807092 0.709372 0.214337
Si Si6 0.660055 0.432535 0.411742
O O1 0.195813 0.485950 0.325879
O O2 0.907636 0.773605 0.497941
O O3 0.073944 0.895405 0.179302
O O4 0.000000 0.000000 0.500000
O O5 0.776507 0.764342 0.412621
O O6 0.608595 0.058639 0.785676
O O7 0.362555 0.555955 0.899512
O O8 0.647817 0.384885 0.602980
O O9 0.500000 0.500000 0.000000
O O10 0.800539 0.183330 0.210000
O O11 0.749205 0.962080 0.131443
O O12 0.698859 0.628304 0.310774
O O13 0.000000 0.500000 0.000000
O O14 0.500000 0.500000 0.500000
#
# Coordination Sequence:
#
# PCOD9051832 Si02
#       6
#     2   2   2   2   2   2
#     4  11  25  46  73 107 158 197 250 322 382 452
#     4  11  26  45  72 113 147 201 262 307 382 464
#     4  11  25  46  72 106 149 202 250 315 380 452
#     4  11  25  46  71 106 151 193 251 317 379 446
#     4  12  26  44  79 113 147 202 259 313 382 458
#     4  10  25  48  70 107 152 196 249 315 374 450
#
# _framework density 24.130831000000001
#
# number of rings (size 3 to 8) (size 9 to 14) (size 15 to 20)
#    0.000    1.000    1.667    3.000    7.000    8.667 
#    0.000    0.000    0.000    0.000    0.000    0.000 
#    0.000    0.000    0.000    0.000    0.000    0.000 
#
# Total GULP energy -66984.926428 kJ/mol
# GULP energy per Si atom -5582.077202 kJ/mol
# Density = 2.407591 g / cm^3
# Si number density = 24.130831 Si / 1000 Ang^3
#
#
#
# Elastic Constant Matrix: (Units=GPa)
#
#
# Indices 1 2 3 4 5 6 
#
# 1 115.3573 52.2684 49.9356 2.1636 3.1300 15.2420
# 2 52.2684 166.4338 60.0433 -22.8329 -11.3871 24.2626
# 3 49.9356 60.0433 189.5802 -13.3800 24.8492 17.2191
# 4 2.1636 -22.8329 -13.3800 49.6290 9.5640 -6.1399
# 5 3.1300 -11.3871 24.8492 9.5640 32.3517 -0.9174
# 6 15.2420 24.2626 17.2191 -6.1399 -0.9174 40.6050
#
#
#
# Elastic Compliance Matrix: (Units=1/GPa)
#
#
# Indices 1 2 3 4 5 6 
#
# 1 0.011149 -0.002797 -0.002088 -0.002636 0.000262 -0.002021
# 2 -0.002797 0.008677 -0.002139 0.002388 0.004183 -0.002772
# 3 -0.002088 -0.002139 0.007714 0.002456 -0.007231 -0.001001
# 4 -0.002636 0.002388 0.002456 0.023761 -0.007760 0.001939
# 5 0.000262 0.004183 -0.007231 -0.007760 0.040211 0.000203
# 6 -0.002021 -0.002772 -0.001001 0.001939 0.000203 0.027765
#
#
# Mechanical properties :
#
#
# Convention : Reuss Voigt Hill
#
# Bulk Modulus (GPa) = 74.11991 88.42956 81.27473
# Shear Modulus (GPa) = 36.27860 45.12540 40.70200
#
# Velocity S-wave (km/s) = 3.88159 4.32908 4.11143
# Velocity P-wave (km/s) = 7.13243 7.85578 7.50283
#
# Compressibility (1/GPa) = 0.01349165
#
# Stress axis : x y z
#
# Youngs Moduli (GPa) = 89.69187 115.25367 129.62937
#
# Poissons Ratio (x) = 0.32241 0.27062
# Poissons Ratio (y) = 0.25090 0.27730
# Poissons Ratio (z) = 0.18724 0.24655
#
# Static dielectric constant tensor:
#      x y z
#    x 2.001680 0.017690 -0.010540 
#    y 0.017690 2.018080 0.073570 
#    z -0.010540 0.073570 2.032580 
# 
# From -- ./inp_files/36713.got.cif
#   From: 2010.05.17/outbox.cif.g08.bks.cpg/sg2_19_cif.got.tgz:36713.got - 2010.06.03 11:33:40.
