data_PCOD9051341
_publ_section_title
;
Structure prediction by ZEFSAII (Michael W. Deem and Ramdas Pophale) SiO2 
 PCOD9051341
Probable space group: P -1
;
_chemical_formula_sum "Si O2"
_cell_formula_units_Z 15
_cell_length_a 14.967826
_cell_length_b 12.731668
_cell_length_c 13.529021
_cell_angle_alpha 131.505684
_cell_angle_beta 161.476158
_cell_angle_gamma 50.039892
_cell_volume 612.354524
_symmetry_space_group_name_H-M "P -1"
_symmetry_group_IT_number 2
_symmetry_cell_setting 'triclinic'
loop_
_space_group_symop_operation_xyz
x,y,z
-x,-y,-z
loop_
_atom_site_type_symbol
_atom_site_label
_atom_site_fract_x
_atom_site_fract_y
_atom_site_fract_z
Si Si1 0.408841 0.896046 0.250591
Si Si2 0.814178 0.023917 0.221475
Si Si3 0.847817 0.996247 0.636292
Si Si4 0.212649 0.686005 0.162601
Si Si5 0.326524 0.371555 0.542908
Si Si6 0.000000 0.500000 0.000000
Si Si7 0.335602 0.278788 0.097415
Si Si8 0.239876 0.678356 0.588186
O O1 0.516957 0.736407 0.285720
O O2 0.551724 0.942906 0.327664
O O3 0.500000 0.000000 0.500000
O O4 0.077144 0.920272 0.903142
O O5 0.027979 0.027949 0.356973
O O6 0.663834 0.177645 0.174991
O O7 0.632001 0.886467 0.945122
O O8 0.000000 0.000000 0.500000
O O9 0.832788 0.160578 0.745427
O O10 0.992352 0.667729 0.831122
O O11 0.143591 0.573326 0.101078
O O12 0.514645 0.661648 0.414473
O O13 0.320291 0.540344 0.649865
O O14 0.211858 0.358669 0.112186
O O15 0.093008 0.303666 0.773723
O O16 0.618556 0.334812 0.381412
#
# Coordination Sequence:
#
# PCOD9051341 Si02
#       8
#     2   2   2   2   2   1   2   2
#     4  12  24  41  69  97 134 161 221 268 337 382
#     4  10  25  46  67  93 132 179 220 259 314 389
#     4  12  24  43  66 101 126 174 214 271 319 392
#     4  12  23  38  64  94 137 160 208 263 335 385
#     4  12  23  41  63  95 126 173 204 271 329 380
#     4  12  22  38  60 104 130 156 206 272 322 402
#     4  11  23  38  63  91 126 166 207 259 319 386
#     4  11  23  42  60  88 124 172 215 252 311 379
#
# _framework density 24.495615999999998
#
# number of rings (size 3 to 8) (size 9 to 14) (size 15 to 20)
#    0.000    0.533    6.667    1.600    0.000    6.400 
#    0.000    1.333    0.000    0.000    0.000    0.000 
#    0.000    0.000    0.000    0.000    0.000    0.000 
#
# Total GULP energy -83831.080333 kJ/mol
# GULP energy per Si atom -5588.738689 kJ/mol
# Density = 2.443986 g / cm^3
# Si number density = 24.495616 Si / 1000 Ang^3
#
#
#
# Elastic Constant Matrix: (Units=GPa)
#
#
# Indices 1 2 3 4 5 6 
#
# 1 72.9885 30.6403 -4.5861 11.5671 15.6489 7.9175
# 2 30.6403 198.9180 7.7394 -2.0396 -6.0157 7.2614
# 3 -4.5861 7.7394 69.3435 -14.6276 8.9777 4.7211
# 4 11.5671 -2.0396 -14.6276 15.7515 2.0482 8.0848
# 5 15.6489 -6.0157 8.9777 2.0482 33.1119 2.7361
# 6 7.9175 7.2614 4.7211 8.0848 2.7361 46.5625
#
#
#
# Elastic Compliance Matrix: (Units=1/GPa)
#
#
# Indices 1 2 3 4 5 6 
#
# 1 0.019106 -0.003349 -0.000071 -0.013455 -0.008798 0.000134
# 2 -0.003349 0.005707 -0.000550 0.002807 0.002670 -0.000909
# 3 -0.000071 -0.000550 0.020496 0.022711 -0.006571 -0.005538
# 4 -0.013455 0.002807 0.022711 0.104819 -0.004252 -0.018403
# 5 -0.008798 0.002670 -0.006571 -0.004252 0.036862 0.000318
# 6 0.000134 -0.000909 -0.005538 -0.018403 0.000318 0.025334
#
#
# Mechanical properties :
#
#
# Convention : Reuss Voigt Hill
#
# Bulk Modulus (GPa) = 26.76003 45.42634 36.09318
# Shear Modulus (GPa) = 21.48488 39.58226 30.53357
#
# Velocity S-wave (km/s) = 2.96479 4.02418 3.53440
# Velocity P-wave (km/s) = 4.76110 6.33853 5.60558
#
# Compressibility (1/GPa) = 0.03736917
#
# Stress axis : x y z
#
# Youngs Moduli (GPa) = 52.33851 175.21669 48.78944
#
# Poissons Ratio (x) = 0.58683 0.00346
# Poissons Ratio (y) = 0.17529 0.02685
# Poissons Ratio (z) = 0.00371 0.09641
#
# Static dielectric constant tensor:
#      x y z
#    x 1.912930 -0.017810 -0.067570 
#    y -0.017810 1.959050 0.038430 
#    z -0.067570 0.038430 1.920710 
# 
# From -- ./inp_files/454989.got.cif
#   From: 2010.05.17/outbox.cif.g08.bks.cpg/sg2_228_cif.got.tgz:454989.got - 2010.06.03 11:33:40.
