data_PCOD9051573
_publ_section_title
;
Structure prediction by ZEFSAII (Michael W. Deem and Ramdas Pophale) SiO2 
 PCOD9051573
Probable space group: P -1
;
_chemical_formula_sum "Si O2"
_cell_formula_units_Z 10
_cell_length_a 7.426034
_cell_length_b 6.492689
_cell_length_c 9.578552
_cell_angle_alpha 80.979050
_cell_angle_beta 65.619970
_cell_angle_gamma 117.156093
_cell_volume 338.626596
_symmetry_space_group_name_H-M "P -1"
_symmetry_group_IT_number 2
_symmetry_cell_setting 'triclinic'
loop_
_space_group_symop_operation_xyz
x,y,z
-x,-y,-z
loop_
_atom_site_type_symbol
_atom_site_label
_atom_site_fract_x
_atom_site_fract_y
_atom_site_fract_z
Si Si1 0.565814 0.275265 0.331990
Si Si2 0.534314 0.909887 0.145380
Si Si3 0.967856 0.458697 0.675136
Si Si4 0.060897 0.044707 0.642712
Si Si5 0.066810 0.287053 0.013352
O O1 0.353500 0.206836 0.514990
O O2 0.210591 0.675936 0.653004
O O3 0.487313 0.047770 0.271340
O O4 0.682768 0.534572 0.173314
O O5 0.305773 0.620053 0.225820
O O6 0.817020 0.029297 0.062863
O O7 0.500000 0.000000 0.000000
O O8 0.000000 0.500000 0.500000
O O9 0.985485 0.219702 0.712453
O O10 0.000000 0.000000 0.500000
O O11 0.932288 0.807070 0.819724
O O12 0.000000 0.500000 0.000000
#
# Coordination Sequence:
#
# PCOD9051573 Si02
#       5
#     2   2   2   2   2
#     4  11  25  49  76 106 156 198 249 315 376 444
#     4  11  23  46  74 110 146 194 253 306 371 453
#     4  12  27  46  76 110 151 201 248 311 385 444
#     4  12  27  48  75 113 153 196 258 310 371 457
#     4  10  25  46  77 109 148 198 250 306 378 447
#
# _framework density 29.531054999999999
#
# number of rings (size 3 to 8) (size 9 to 14) (size 15 to 20)
#    0.000    0.800    4.000    1.800    5.600    5.600 
#    3.600    0.000    0.000    0.000    0.000    0.000 
#    0.000    0.000    0.000    0.000    0.000    0.000 
#
# Total GULP energy -55777.922023 kJ/mol
# GULP energy per Si atom -5577.792202 kJ/mol
# Density = 2.946384 g / cm^3
# Si number density = 29.531055 Si / 1000 Ang^3
#
#
#
# Elastic Constant Matrix: (Units=GPa)
#
#
# Indices 1 2 3 4 5 6 
#
# 1 166.3138 63.0949 56.1556 -12.5146 -19.2767 42.5778
# 2 63.0949 174.7498 37.8723 -12.6659 7.7289 40.1916
# 3 56.1556 37.8723 210.1332 -45.2709 16.3813 14.4866
# 4 -12.5146 -12.6659 -45.2709 62.7057 1.7163 16.9597
# 5 -19.2767 7.7289 16.3813 1.7163 84.0796 -1.8640
# 6 42.5778 40.1916 14.4866 16.9597 -1.8640 67.7235
#
#
#
# Elastic Compliance Matrix: (Units=1/GPa)
#
#
# Indices 1 2 3 4 5 6 
#
# 1 0.008724 -0.001814 -0.001604 0.001323 0.002357 -0.004332
# 2 -0.001814 0.007493 -0.000023 0.002221 -0.001232 -0.003891
# 3 -0.001604 -0.000023 0.006485 0.004846 -0.001764 -0.001627
# 4 0.001323 0.002221 0.004846 0.022604 -0.001503 -0.008889
# 5 0.002357 -0.001232 -0.001764 -0.001503 0.012929 0.000359
# 6 -0.004332 -0.003891 -0.001627 -0.008889 0.000359 0.022383
#
#
# Mechanical properties :
#
#
# Convention : Reuss Voigt Hill
#
# Bulk Modulus (GPa) = 63.21237 96.16027 79.68632
# Shear Modulus (GPa) = 53.89368 69.17337 61.53353
#
# Velocity S-wave (km/s) = 4.27662 4.84508 4.56970
# Velocity P-wave (km/s) = 6.77036 7.99580 7.40846
#
# Compressibility (1/GPa) = 0.01581969
#
# Stress axis : x y z
#
# Youngs Moduli (GPa) = 114.62021 133.45840 154.19140
#
# Poissons Ratio (x) = 0.24214 0.24740
# Poissons Ratio (y) = 0.20796 0.00351
# Poissons Ratio (z) = 0.18391 0.00304
#
# Static dielectric constant tensor:
#      x y z
#    x 2.450640 -0.222560 -0.113630 
#    y -0.222560 2.490550 0.054470 
#    z -0.113630 0.054470 2.437690 
# 
# From -- ./inp_files/158457.got.cif
#   From: 2010.05.17/outbox.cif.g08.bks.cpg/sg2_80_cif.got.tgz:158457.got - 2010.06.03 11:33:40.
