data_PCOD9051065
_publ_section_title
;
Structure prediction by ZEFSAII (Michael W. Deem and Ramdas Pophale) SiO2 
 PCOD9051065
Probable space group: P -1
;
_chemical_formula_sum "Si O2"
_cell_formula_units_Z 10
_cell_length_a 7.575109
_cell_length_b 10.435177
_cell_length_c 7.055168
_cell_angle_alpha 116.746256
_cell_angle_beta 90.426899
_cell_angle_gamma 56.181132
_cell_volume 390.931877
_symmetry_space_group_name_H-M "P -1"
_symmetry_group_IT_number 2
_symmetry_cell_setting 'triclinic'
loop_
_space_group_symop_operation_xyz
x,y,z
-x,-y,-z
loop_
_atom_site_type_symbol
_atom_site_label
_atom_site_fract_x
_atom_site_fract_y
_atom_site_fract_z
Si Si1 0.091433 0.584656 0.341104
Si Si2 0.299456 0.390881 0.852613
Si Si3 0.668658 0.911519 0.117231
Si Si4 0.941986 0.189542 0.192111
Si Si5 0.498047 0.306755 0.429456
O O1 0.990542 0.770931 0.579222
O O2 0.269611 0.421966 0.379189
O O3 0.894459 0.581023 0.263445
O O4 0.220363 0.539536 0.113206
O O5 0.376936 0.208118 0.843367
O O6 0.460081 0.378327 0.690501
O O7 0.607701 0.094902 0.329881
O O8 0.921246 0.790371 0.951926
O O9 0.500000 0.000000 0.000000
O O10 0.676517 0.307181 0.308794
O O11 0.000000 0.000000 0.000000
#
# Coordination Sequence:
#
# PCOD9051065 Si02
#       5
#     2   2   2   2   2
#     4  11  24  44  71 101 138 173 228 280 329 400
#     4  11  25  41  74 105 128 179 229 273 337 397
#     4  11  22  45  70  97 137 180 224 273 334 402
#     4  10  25  45  68  97 140 181 216 280 341 393
#     4  11  23  45  69  99 139 177 221 279 334 397
#
# _framework density 25.579903999999999
#
# number of rings (size 3 to 8) (size 9 to 14) (size 15 to 20)
#    0.000    1.200    2.000    3.000    5.600    0.800 
#    3.600    3.000    0.000    0.000    0.000    0.000 
#    0.000    0.000    0.000    0.000    0.000    0.000 
#
# Total GULP energy -55807.166420 kJ/mol
# GULP energy per Si atom -5580.716642 kJ/mol
# Density = 2.552168 g / cm^3
# Si number density = 25.579904 Si / 1000 Ang^3
#
#
#
# Elastic Constant Matrix: (Units=GPa)
#
#
# Indices 1 2 3 4 5 6 
#
# 1 79.2534 54.5434 38.2946 -6.6024 4.4753 4.6408
# 2 54.5434 132.2405 67.4220 -16.3378 -7.6782 17.6270
# 3 38.2946 67.4220 245.4343 5.6179 -6.5238 17.8691
# 4 -6.6024 -16.3378 5.6179 40.6987 12.3399 8.0734
# 5 4.4753 -7.6782 -6.5238 12.3399 61.1208 4.7951
# 6 4.6408 17.6270 17.8691 8.0734 4.7951 40.2382
#
#
#
# Elastic Compliance Matrix: (Units=1/GPa)
#
#
# Indices 1 2 3 4 5 6 
#
# 1 0.018247 -0.007297 -0.001054 0.000627 -0.002629 0.001748
# 2 -0.007297 0.013031 -0.002150 0.004942 0.001341 -0.005064
# 3 -0.001054 -0.002150 0.004954 -0.001776 0.000763 -0.000871
# 4 0.000627 0.004942 -0.001776 0.029800 -0.005096 -0.006820
# 5 -0.002629 0.001341 0.000763 -0.005096 0.017969 -0.001742
# 6 0.001748 -0.005064 -0.000871 -0.006820 -0.001742 0.028831
#
#
# Mechanical properties :
#
#
# Convention : Reuss Voigt Hill
#
# Bulk Modulus (GPa) = 65.65851 86.38314 76.02083
# Shear Modulus (GPa) = 35.99429 48.18943 42.09186
#
# Velocity S-wave (km/s) = 3.75524 4.34508 4.06088
# Velocity P-wave (km/s) = 6.67280 7.68220 7.19522
#
# Compressibility (1/GPa) = 0.01523032
#
# Stress axis : x y z
#
# Youngs Moduli (GPa) = 54.80280 76.73897 201.86362
#
# Poissons Ratio (x) = 0.55996 0.21277
# Poissons Ratio (y) = 0.39989 0.43401
# Poissons Ratio (z) = 0.05776 0.16499
#
# Static dielectric constant tensor:
#      x y z
#    x 2.149810 0.011550 -0.032190 
#    y 0.011550 2.077530 0.111390 
#    z -0.032190 0.111390 2.087300 
# 
# From -- ./inp_files/25624.got.cif
#   From: 2010.05.17/outbox.cif.g08.bks.cpg/sg2_13_cif.got.tgz:25624.got - 2010.06.03 11:33:40.
