data_PCOD9051429
_publ_section_title
;
Structure prediction by ZEFSAII (Michael W. Deem and Ramdas Pophale) SiO2 
 PCOD9051429
Probable space group: P -1
;
_chemical_formula_sum "Si O2"
_cell_formula_units_Z 12
_cell_length_a 14.023566
_cell_length_b 8.058829
_cell_length_c 16.818853
_cell_angle_alpha 123.274933
_cell_angle_beta 155.337896
_cell_angle_gamma 42.088374
_cell_volume 474.834325
_symmetry_space_group_name_H-M "P -1"
_symmetry_group_IT_number 2
_symmetry_cell_setting 'triclinic'
loop_
_space_group_symop_operation_xyz
x,y,z
-x,-y,-z
loop_
_atom_site_type_symbol
_atom_site_label
_atom_site_fract_x
_atom_site_fract_y
_atom_site_fract_z
Si Si1 0.199722 0.066350 0.133797
Si Si2 0.178215 0.775444 0.791094
Si Si3 0.584287 0.597435 0.763430
Si Si4 0.504915 0.020140 0.915640
Si Si5 0.191073 0.560587 0.571606
Si Si6 0.528492 0.240152 0.451578
O O1 0.274744 0.224999 0.281898
O O2 0.544646 0.767833 0.294745
O O3 0.934809 0.299989 0.931624
O O4 0.000000 0.000000 0.000000
O O5 0.167524 0.704154 0.672740
O O6 0.500000 0.500000 0.000000
O O7 0.225510 0.980976 0.889354
O O8 0.866478 0.939313 0.652559
O O9 0.345189 0.583127 0.618240
O O10 0.462943 0.781569 0.642914
O O11 0.603708 0.751907 0.884797
O O12 0.163392 0.284388 0.685616
O O13 0.500000 0.000000 0.000000
O O14 0.500000 0.500000 0.500000
#
# Coordination Sequence:
#
# PCOD9051429 Si02
#       6
#     2   2   2   2   2   2
#     4  10  25  46  70  99 145 195 232 295 370 431
#     4  12  27  42  71 108 146 189 241 301 367 435
#     4  11  23  46  72 102 145 191 242 301 358 433
#     4  12  23  43  73 103 142 188 242 295 360 428
#     4  11  24  47  68 108 146 189 242 300 367 433
#     4  12  26  46  72 109 146 188 250 302 356 435
#
# _framework density 25.271974
#
# number of rings (size 3 to 8) (size 9 to 14) (size 15 to 20)
#    0.000    0.667    3.333    4.000    4.667    1.333 
#    0.000    2.500    0.000    0.000    0.000    0.000 
#    0.000    0.000    0.000    0.000    0.000    0.000 
#
# Total GULP energy -66900.961710 kJ/mol
# GULP energy per Si atom -5575.080143 kJ/mol
# Density = 2.521445 g / cm^3
# Si number density = 25.271974 Si / 1000 Ang^3
#
#
#
# Elastic Constant Matrix: (Units=GPa)
#
#
# Indices 1 2 3 4 5 6 
#
# 1 58.3796 7.1494 21.8472 8.6663 -6.5446 -0.7070
# 2 7.1494 122.6979 63.2843 -12.2288 12.8623 2.1288
# 3 21.8472 63.2843 130.5556 -5.2177 9.8749 -19.9634
# 4 8.6663 -12.2288 -5.2177 68.6232 12.7751 3.7686
# 5 -6.5446 12.8623 9.8749 12.7751 43.5466 9.3645
# 6 -0.7070 2.1288 -19.9634 3.7686 9.3645 25.3238
#
#
#
# Elastic Compliance Matrix: (Units=1/GPa)
#
#
# Indices 1 2 3 4 5 6 
#
# 1 0.020132 0.000480 -0.005012 -0.003712 0.006223 -0.005178
# 2 0.000480 0.012004 -0.006645 0.002147 -0.001290 -0.006076
# 3 -0.005012 -0.006645 0.014179 0.000742 -0.005099 0.013372
# 4 -0.003712 0.002147 0.000742 0.016640 -0.006273 0.000144
# 5 0.006223 -0.001290 -0.005099 -0.006273 0.030288 -0.014005
# 6 -0.005178 -0.006076 0.013372 0.000144 -0.014005 0.055553
#
#
# Mechanical properties :
#
#
# Convention : Reuss Voigt Hill
#
# Bulk Modulus (GPa) = 41.73513 55.13278 48.43395
# Shear Modulus (GPa) = 27.91125 42.12219 35.01672
#
# Velocity S-wave (km/s) = 3.32691 4.08702 3.72640
# Velocity P-wave (km/s) = 5.59536 6.64340 6.14177
#
# Compressibility (1/GPa) = 0.02396063
#
# Stress axis : x y z
#
# Youngs Moduli (GPa) = 49.67145 83.30575 70.52545
#
# Poissons Ratio (x) = -0.03996 0.35350
# Poissons Ratio (y) = -0.02382 0.46862
# Poissons Ratio (z) = 0.24897 0.55354
#
# Static dielectric constant tensor:
#      x y z
#    x 2.042490 0.082810 0.124170 
#    y 0.082810 2.063640 0.036410 
#    z 0.124170 0.036410 2.204090 
# 
# From -- ./inp_files/28933.got.cif
#   From: 2010.05.17/outbox.cif.g08.bks.cpg/sg2_15_cif.got.tgz:28933.got - 2010.06.03 11:33:40.
