data_PCOD9051263
_publ_section_title
;
Structure prediction by ZEFSAII (Michael W. Deem and Ramdas Pophale) SiO2 
 PCOD9051263
Probable space group: P -1
;
_chemical_formula_sum "Si O2"
_cell_formula_units_Z 16
_cell_length_a 27.500548
_cell_length_b 12.387212
_cell_length_c 5.734966
_cell_angle_alpha 51.888512
_cell_angle_beta 49.932573
_cell_angle_gamma 25.844993
_cell_volume 647.554108
_symmetry_space_group_name_H-M "P -1"
_symmetry_group_IT_number 2
_symmetry_cell_setting 'triclinic'
loop_
_space_group_symop_operation_xyz
x,y,z
-x,-y,-z
loop_
_atom_site_type_symbol
_atom_site_label
_atom_site_fract_x
_atom_site_fract_y
_atom_site_fract_z
Si Si1 0.279344 0.085735 0.034432
Si Si2 0.389517 0.068673 0.052101
Si Si3 0.219850 0.785901 0.094446
Si Si4 0.621099 0.346467 0.905041
Si Si5 0.104107 0.261429 0.662419
Si Si6 0.156625 0.410672 0.597554
Si Si7 0.974892 0.973528 0.360169
Si Si8 0.373845 0.397597 0.772783
O O1 0.383425 0.985852 0.950720
O O2 0.220662 0.099371 0.390881
O O3 0.306538 0.924373 0.972497
O O4 0.188032 0.354510 0.847906
O O5 0.275316 0.233766 0.332497
O O6 0.505358 0.828198 0.157081
O O7 0.378220 0.251625 0.799476
O O8 0.333982 0.665017 0.981198
O O9 0.157684 0.833685 0.448319
O O10 0.266469 0.591079 0.026967
O O11 0.125393 0.063115 0.912244
O O12 0.636465 0.441471 0.546077
O O13 0.500000 0.500000 0.000000
O O14 0.106066 0.354436 0.757417
O O15 0.000000 0.500000 0.500000
O O16 0.058535 0.693379 0.464433
O O17 0.000000 0.000000 0.500000
O O18 0.000000 0.000000 0.000000
#
# Coordination Sequence:
#
# PCOD9051263 Si02
#       8
#     2   2   2   2   2   2   2   2
#     4  11  23  43  72 105 149 197 252 316 390 471
#     4  10  25  45  74 105 151 208 260 318 401 472
#     4  12  27  47  78 114 153 205 265 333 400 485
#     4  12  26  43  76 112 155 197 258 328 405 473
#     4  11  25  43  73 108 146 198 251 325 394 468
#     4  11  25  47  73 107 154 199 263 323 401 479
#     4  12  32  51  80 115 161 215 269 335 410 485
#     4  11  25  47  73 110 154 202 264 328 391 481
#
# _framework density 24.708358
#
# number of rings (size 3 to 8) (size 9 to 14) (size 15 to 20)
#    0.000    0.750    2.500    3.000   12.250    3.000 
#    0.000    3.125    0.000    0.000    0.000    0.000 
#    0.000    0.000    0.000    0.000    0.000    0.000 
#
# Total GULP energy -89417.079085 kJ/mol
# GULP energy per Si atom -5588.567443 kJ/mol
# Density = 2.465212 g / cm^3
# Si number density = 24.708358 Si / 1000 Ang^3
#
#
#
# Elastic Constant Matrix: (Units=GPa)
#
#
# Indices 1 2 3 4 5 6 
#
# 1 115.9195 21.6350 14.3349 -17.7995 -5.6548 -1.2806
# 2 21.6350 108.8974 23.3815 -16.6012 -5.9766 -3.7889
# 3 14.3349 23.3815 77.6404 -1.4221 -2.6681 -12.0304
# 4 -17.7995 -16.6012 -1.4221 35.9145 -7.3582 -1.7666
# 5 -5.6548 -5.9766 -2.6681 -7.3582 29.2662 -3.5597
# 6 -1.2806 -3.7889 -12.0304 -1.7666 -3.5597 39.4688
#
#
#
# Elastic Compliance Matrix: (Units=1/GPa)
#
#
# Indices 1 2 3 4 5 6 
#
# 1 0.009864 -0.000711 -0.001359 0.005130 0.002967 0.000335
# 2 -0.000711 0.010946 -0.002849 0.005295 0.003253 0.000690
# 3 -0.001359 -0.002849 0.014640 -0.001056 0.000731 0.004163
# 4 0.005130 0.005295 -0.001056 0.035230 0.011191 0.002939
# 5 0.002967 0.003253 0.000731 0.011191 0.038851 0.004636
# 6 0.000335 0.000690 0.004163 0.002939 0.004636 0.027232
#
#
# Mechanical properties :
#
#
# Convention : Reuss Voigt Hill
#
# Bulk Modulus (GPa) = 39.04759 46.79556 42.92158
# Shear Modulus (GPa) = 32.22927 37.13695 34.68311
#
# Velocity S-wave (km/s) = 3.61555 3.88108 3.75066
# Velocity P-wave (km/s) = 5.76778 6.25012 6.01379
#
# Compressibility (1/GPa) = 0.02560977
#
# Stress axis : x y z
#
# Youngs Moduli (GPa) = 101.38163 91.35953 68.30689
#
# Poissons Ratio (x) = 0.06498 0.09284
# Poissons Ratio (y) = 0.07210 0.19463
# Poissons Ratio (z) = 0.13780 0.26032
#
# Static dielectric constant tensor:
#      x y z
#    x 2.197590 -0.090000 0.053170 
#    y -0.090000 2.148670 0.022800 
#    z 0.053170 0.022800 1.980310 
# 
# From -- ./inp_files/126802.got.cif
#   From: 2010.05.17/outbox.cif.g08.bks.cpg/sg2_64_cif.got.tgz:126802.got - 2010.06.03 11:33:40.
