data_PCOD9051044
_publ_section_title
;
Structure prediction by ZEFSAII (Michael W. Deem and Ramdas Pophale) SiO2 
 PCOD9051044
Probable space group: P -1
;
_chemical_formula_sum "Si O2"
_cell_formula_units_Z 14
_cell_length_a 10.200803
_cell_length_b 8.967310
_cell_length_c 6.538866
_cell_angle_alpha 80.817037
_cell_angle_beta 94.612697
_cell_angle_gamma 74.330137
_cell_volume 563.702145
_symmetry_space_group_name_H-M "P -1"
_symmetry_group_IT_number 2
_symmetry_cell_setting 'triclinic'
loop_
_space_group_symop_operation_xyz
x,y,z
-x,-y,-z
loop_
_atom_site_type_symbol
_atom_site_label
_atom_site_fract_x
_atom_site_fract_y
_atom_site_fract_z
Si Si1 0.254352 0.209710 0.496090
Si Si2 0.456095 0.677568 0.880800
Si Si3 0.378749 0.871261 0.417456
Si Si4 0.866897 0.441240 0.546982
Si Si5 0.816956 0.202137 0.907874
Si Si6 0.599201 0.835913 0.118841
Si Si7 0.024199 0.838345 0.665177
O O1 0.250982 0.393615 0.470536
O O2 0.261336 0.164688 0.752061
O O3 0.115636 0.209141 0.364436
O O4 0.358323 0.051484 0.447481
O O5 0.410479 0.750366 0.637342
O O6 0.500000 0.500000 0.000000
O O7 0.321223 0.750575 0.983846
O O8 0.592710 0.727086 0.952964
O O9 0.240767 0.879070 0.270002
O O10 0.508457 0.801402 0.301770
O O11 0.865075 0.340525 0.772685
O O12 0.866654 0.316380 0.391262
O O13 0.000000 0.500000 0.500000
O O14 0.930955 0.131400 0.108605
O O15 0.500000 0.000000 0.000000
O O16 0.000000 0.000000 0.500000
#
# Coordination Sequence:
#
# PCOD9051044 Si02
#       7
#     2   2   2   2   2   2   2
#     4  11  24  44  69  99 143 180 227 294 345 411
#     4  11  26  43  72 103 140 190 232 286 352 413
#     4  11  25  46  68 105 141 182 240 283 348 423
#     4  10  25  45  68 103 140 177 234 288 348 409
#     4  11  25  45  72 101 138 185 235 286 349 419
#     4  11  25  43  70 105 140 184 234 285 356 411
#     4  11  25  47  72 100 140 183 235 285 347 422
#
# _framework density 24.835811
#
# number of rings (size 3 to 8) (size 9 to 14) (size 15 to 20)
#    0.000    1.143    1.429    3.000    8.000    5.714 
#    2.571    0.000    0.000    0.000    0.000    0.000 
#    0.000    0.000    0.000    0.000    0.000    0.000 
#
# Total GULP energy -78008.786116 kJ/mol
# GULP energy per Si atom -5572.056151 kJ/mol
# Density = 2.477928 g / cm^3
# Si number density = 24.835811 Si / 1000 Ang^3
#
#
#
# Elastic Constant Matrix: (Units=GPa)
#
#
# Indices 1 2 3 4 5 6 
#
# 1 78.7926 15.6466 47.8352 5.3304 15.6417 -4.9898
# 2 15.6466 162.7936 78.0407 -13.6852 22.7702 -3.4438
# 3 47.8352 78.0407 210.4754 -12.2993 28.7035 4.9580
# 4 5.3304 -13.6852 -12.2993 34.3963 13.2266 0.7703
# 5 15.6417 22.7702 28.7035 13.2266 58.5291 0.5573
# 6 -4.9898 -3.4438 4.9580 0.7703 0.5573 32.1195
#
#
#
# Elastic Compliance Matrix: (Units=1/GPa)
#
#
# Indices 1 2 3 4 5 6 
#
# 1 0.015619 0.000336 -0.003665 -0.002948 -0.001871 0.003131
# 2 0.000336 0.007993 -0.002510 0.003246 -0.002714 0.001266
# 3 -0.003665 -0.002510 0.007024 0.002946 -0.002136 -0.001956
# 4 -0.002948 0.003246 0.002946 0.035742 -0.009985 -0.001249
# 5 -0.001871 -0.002714 -0.002136 -0.009985 0.021949 -0.000393
# 6 0.003131 0.001266 -0.001956 -0.001249 -0.000393 0.032095
#
#
# Mechanical properties :
#
#
# Convention : Reuss Voigt Hill
#
# Bulk Modulus (GPa) = 52.74848 81.67852 67.21350
# Shear Modulus (GPa) = 36.12178 45.71158 40.91668
#
# Velocity S-wave (km/s) = 3.81783 4.29482 4.06333
# Velocity P-wave (km/s) = 6.38118 7.58635 7.00971
#
# Compressibility (1/GPa) = 0.01895789
#
# Stress axis : x y z
#
# Youngs Moduli (GPa) = 64.02377 125.10977 142.36095
#
# Poissons Ratio (x) = -0.04203 0.52179
# Poissons Ratio (y) = -0.02151 0.35733
# Poissons Ratio (z) = 0.23466 0.31403
#
# Static dielectric constant tensor:
#      x y z
#    x 2.130760 0.010750 0.033940 
#    y 0.010750 2.002750 0.066220 
#    z 0.033940 0.066220 1.986220 
# 
# From -- ./inp_files/60462.got.cif
#   From: 2010.05.17/outbox.cif.g08.bks.cpg/sg2_31_cif.got.tgz:60462.got - 2010.06.03 11:33:40.
