data_PCOD9051242
_publ_section_title
;
Structure prediction by ZEFSAII (Michael W. Deem and Ramdas Pophale) SiO2 
 PCOD9051242
Probable space group: P -1
;
_chemical_formula_sum "Si O2"
_cell_formula_units_Z 14
_cell_length_a 9.358674
_cell_length_b 9.596649
_cell_length_c 12.209268
_cell_angle_alpha 127.498355
_cell_angle_beta 42.238555
_cell_angle_gamma 129.912638
_cell_volume 546.040340
_symmetry_space_group_name_H-M "P -1"
_symmetry_group_IT_number 2
_symmetry_cell_setting 'triclinic'
loop_
_space_group_symop_operation_xyz
x,y,z
-x,-y,-z
loop_
_atom_site_type_symbol
_atom_site_label
_atom_site_fract_x
_atom_site_fract_y
_atom_site_fract_z
Si Si1 0.642392 0.129992 0.143957
Si Si2 0.578717 0.911801 0.271952
Si Si3 0.068055 0.528289 0.700598
Si Si4 0.806427 0.949067 0.370897
Si Si5 0.263992 0.265034 0.340810
Si Si6 0.945443 0.312476 0.869865
Si Si7 0.645457 0.516704 0.815944
O O1 0.800206 0.297943 0.213199
O O2 0.407949 0.164026 0.275900
O O3 0.625615 0.945833 0.133177
O O4 0.757660 0.153087 0.970298
O O5 0.427616 0.036552 0.447619
O O6 0.432970 0.698347 0.282425
O O7 0.796330 0.965008 0.252503
O O8 0.231147 0.436432 0.507043
O O9 0.902931 0.366049 0.797435
O O10 0.909885 0.580087 0.728686
O O11 0.014322 0.116104 0.385579
O O12 0.841449 0.756371 0.287954
O O13 0.387107 0.353967 0.200175
O O14 0.000000 0.500000 0.000000
O O15 0.500000 0.500000 0.000000
#
# Coordination Sequence:
#
# PCOD9051242 Si02
#       7
#     2   2   2   2   2   2   2
#     4  11  26  44  72 103 141 185 237 289 358 405
#     4  11  27  46  72 106 140 189 231 295 349 420
#     4  11  24  46  72 101 141 185 238 284 352 417
#     4  11  26  46  73  99 149 180 243 282 355 418
#     4  12  26  46  72 103 141 192 233 290 345 429
#     4  10  25  45  73 106 141 185 232 295 351 415
#     4  12  28  45  73 106 144 181 240 291 355 413
#
# _framework density 25.639132
#
# number of rings (size 3 to 8) (size 9 to 14) (size 15 to 20)
#    0.000    0.857    1.429    3.429   16.000    2.286 
#    0.000    0.000    0.000    0.000    0.000    0.000 
#    0.000    0.000    0.000    0.000    0.000    0.000 
#
# Total GULP energy -78503.871000 kJ/mol
# GULP energy per Si atom -5607.419357 kJ/mol
# Density = 2.558078 g / cm^3
# Si number density = 25.639132 Si / 1000 Ang^3
#
#
#
# Elastic Constant Matrix: (Units=GPa)
#
#
# Indices 1 2 3 4 5 6 
#
# 1 113.9292 28.7538 -23.6671 -1.3084 -0.1068 -3.3046
# 2 28.7538 86.4660 -6.2699 -1.8251 16.2712 -11.3426
# 3 -23.6671 -6.2699 60.7013 8.0524 11.3384 4.4744
# 4 -1.3084 -1.8251 8.0524 47.0342 -10.1910 9.8612
# 5 -0.1068 16.2712 11.3384 -10.1910 33.2689 -6.8200
# 6 -3.3046 -11.3426 4.4744 9.8612 -6.8200 44.1245
#
#
#
# Elastic Compliance Matrix: (Units=1/GPa)
#
#
# Indices 1 2 3 4 5 6 
#
# 1 0.010364 -0.003258 0.003747 -0.000374 0.000167 -0.000332
# 2 -0.003258 0.014546 0.001782 -0.002068 -0.007839 0.002565
# 3 0.003747 0.001782 0.020777 -0.005159 -0.009878 -0.001742
# 4 -0.000374 -0.002068 -0.005159 0.024997 0.009576 -0.004143
# 5 0.000167 -0.007839 -0.009878 0.009576 0.040843 0.003172
# 6 -0.000332 0.002565 -0.001742 -0.004143 0.003172 0.024890
#
#
# Mechanical properties :
#
#
# Convention : Reuss Voigt Hill
#
# Bulk Modulus (GPa) = 19.90835 28.74779 24.32807
# Shear Modulus (GPa) = 33.64342 42.37084 38.00713
#
# Velocity S-wave (km/s) = 3.62635 4.06961 3.85436
# Velocity P-wave (km/s) = 5.03146 5.77227 5.41455
#
# Compressibility (1/GPa) = 0.05023019
#
# Stress axis : x y z
#
# Youngs Moduli (GPa) = 96.48543 68.74851 48.13005
#
# Poissons Ratio (x) = 0.22396 -0.18036
# Poissons Ratio (y) = 0.31432 -0.08576
# Poissons Ratio (z) = -0.36157 -0.12250
#
# Static dielectric constant tensor:
#      x y z
#    x 1.974710 0.009390 0.031740 
#    y 0.009390 2.043550 -0.039260 
#    z 0.031740 -0.039260 2.033980 
# 
# From -- ./inp_files/154407.got.cif
#   From: 2010.05.17/outbox.cif.g08.bks.cpg/sg2_78_cif.got.tgz:154407.got - 2010.06.03 11:33:40.
