data_PCOD9051502
_publ_section_title
;
Structure prediction by ZEFSAII (Michael W. Deem and Ramdas Pophale) SiO2 
 PCOD9051502
Probable space group: P -1
;
_chemical_formula_sum "Si O2"
_cell_formula_units_Z 16
_cell_length_a 16.534863
_cell_length_b 5.231333
_cell_length_c 13.219770
_cell_angle_alpha 103.102832
_cell_angle_beta 134.646879
_cell_angle_gamma 91.553381
_cell_volume 763.152118
_symmetry_space_group_name_H-M "P -1"
_symmetry_group_IT_number 2
_symmetry_cell_setting 'triclinic'
loop_
_space_group_symop_operation_xyz
x,y,z
-x,-y,-z
loop_
_atom_site_type_symbol
_atom_site_label
_atom_site_fract_x
_atom_site_fract_y
_atom_site_fract_z
Si Si1 0.560219 0.105677 0.453048
Si Si2 0.145673 0.113455 0.640996
Si Si3 0.170770 0.714350 0.792280
Si Si4 0.708351 0.570322 0.735861
Si Si5 0.067594 0.344283 0.327713
Si Si6 0.686390 0.129566 0.857916
Si Si7 0.963444 0.692975 0.908994
Si Si8 0.211541 0.951366 0.469365
O O1 0.607664 0.424234 0.554026
O O2 0.500000 0.000000 0.500000
O O3 0.455741 0.997466 0.271482
O O4 0.673347 0.021707 0.497649
O O5 0.177069 0.418977 0.737243
O O6 0.207570 0.109886 0.585848
O O7 0.201659 0.935493 0.750458
O O8 0.000000 0.000000 0.500000
O O9 0.029697 0.684879 0.675808
O O10 0.248256 0.802027 0.970736
O O11 0.706681 0.380854 0.817477
O O12 0.824071 0.585983 0.774952
O O13 0.718275 0.874745 0.808088
O O14 0.986740 0.342566 0.158406
O O15 0.119941 0.083864 0.340690
O O16 0.161499 0.637158 0.433089
O O17 0.000000 0.500000 0.000000
O O18 0.000000 0.000000 0.000000
#
# Coordination Sequence:
#
# PCOD9051502 Si02
#       8
#     2   2   2   2   2   2   2   2
#     4  10  25  46  72  94 136 184 233 273 324 390
#     4  12  23  43  70  98 136 172 220 276 348 405
#     4  12  23  43  67 100 135 175 214 281 346 401
#     4  11  22  42  65  94 132 179 230 263 328 398
#     4  12  23  38  65  94 138 166 217 273 339 396
#     4  11  25  43  67  97 132 182 225 275 327 398
#     4  12  24  36  57  94 139 173 208 269 333 403
#     4  12  25  42  67 101 126 171 230 276 322 400
#
# _framework density 20.965674
#
# number of rings (size 3 to 8) (size 9 to 14) (size 15 to 20)
#    0.000    0.500    3.750    5.250    3.500    2.000 
#    0.000    1.250    0.000    0.000    0.000    0.000 
#    0.000    0.000    0.000    0.000    0.000    0.000 
#
# Total GULP energy -89161.041304 kJ/mol
# GULP energy per Si atom -5572.565082 kJ/mol
# Density = 2.091796 g / cm^3
# Si number density = 20.965674 Si / 1000 Ang^3
#
#
#
# Elastic Constant Matrix: (Units=GPa)
#
#
# Indices 1 2 3 4 5 6 
#
# 1 105.1896 12.6134 43.3640 3.1594 -1.7090 -9.4498
# 2 12.6134 99.1391 33.7018 -2.8050 -4.3410 -4.7688
# 3 43.3640 33.7018 111.6385 8.0057 -6.8277 -3.9498
# 4 3.1594 -2.8050 8.0057 32.6649 2.2209 -10.9307
# 5 -1.7090 -4.3410 -6.8277 2.2209 33.6504 -0.5295
# 6 -9.4498 -4.7688 -3.9498 -10.9307 -0.5295 31.6877
#
#
#
# Elastic Compliance Matrix: (Units=1/GPa)
#
#
# Indices 1 2 3 4 5 6 
#
# 1 0.011621 0.000255 -0.004577 0.001155 -0.000329 0.003327
# 2 0.000255 0.011499 -0.003637 0.002564 0.000625 0.002248
# 3 -0.004577 -0.003637 0.012149 -0.003508 0.001970 -0.001575
# 4 0.001155 0.002564 -0.003508 0.035991 -0.002498 0.012666
# 5 -0.000329 0.000625 0.001970 -0.002498 0.030344 -0.000113
# 6 0.003327 0.002248 -0.001575 0.012666 -0.000113 0.037059
#
#
# Mechanical properties :
#
#
# Convention : Reuss Voigt Hill
#
# Bulk Modulus (GPa) = 51.66867 55.03620 53.35244
# Shear Modulus (GPa) = 31.05006 34.68646 32.86826
#
# Velocity S-wave (km/s) = 3.85255 4.07189 3.96374
# Velocity P-wave (km/s) = 6.66989 6.95807 6.81550
#
# Compressibility (1/GPa) = 0.01935409
#
# Stress axis : x y z
#
# Youngs Moduli (GPa) = 86.04751 86.96709 82.30890
#
# Poissons Ratio (x) = -0.02222 0.37669
# Poissons Ratio (y) = -0.02198 0.29932
# Poissons Ratio (z) = 0.39380 0.31626
#
# Static dielectric constant tensor:
#      x y z
#    x 1.801770 0.014770 0.001530 
#    y 0.014770 1.842720 -0.126910 
#    z 0.001530 -0.126910 2.034760 
# 
# From -- ./inp_files/442196.got.cif
#   From: 2010.05.17/outbox.cif.g08.bks.cpg/sg2_222_cif.got.tgz:442196.got - 2010.06.03 11:33:40.
