data_PCOD9051666
_publ_section_title
;
Structure prediction by ZEFSAII (Michael W. Deem and Ramdas Pophale) SiO2 
 PCOD9051666
Probable space group: P -1
;
_chemical_formula_sum "Si O2"
_cell_formula_units_Z 11
_cell_length_a 11.490067
_cell_length_b 11.842585
_cell_length_c 5.811023
_cell_angle_alpha 90.249753
_cell_angle_beta 97.781941
_cell_angle_gamma 32.321114
_cell_volume 409.733808
_symmetry_space_group_name_H-M "P -1"
_symmetry_group_IT_number 2
_symmetry_cell_setting 'triclinic'
loop_
_space_group_symop_operation_xyz
x,y,z
-x,-y,-z
loop_
_atom_site_type_symbol
_atom_site_label
_atom_site_fract_x
_atom_site_fract_y
_atom_site_fract_z
Si Si1 0.991010 0.387543 0.868132
Si Si2 0.605824 0.717570 0.392691
Si Si3 0.241226 0.943091 0.609049
Si Si4 0.371143 0.465077 0.980212
Si Si5 0.500000 0.000000 0.000000
Si Si6 0.848674 0.184937 0.769860
O O1 0.826853 0.543727 0.608273
O O2 0.856894 0.412163 0.998580
O O3 0.000000 0.500000 0.000000
O O4 0.250078 0.142759 0.905746
O O5 0.382035 0.915169 0.491991
O O6 0.587745 0.827595 0.196521
O O7 0.612820 0.586809 0.279561
O O8 0.414366 0.767894 0.850729
O O9 0.216360 0.854922 0.433937
O O10 0.998431 0.152478 0.664394
O O11 0.341832 0.604044 0.119865
O O12 0.000000 0.000000 0.000000
#
# Coordination Sequence:
#
# PCOD9051666 Si02
#       6
#     2   2   2   2   1   2
#     4  11  26  48  72 112 149 198 253 311 374 447
#     4  11  26  50  77 112 155 194 256 311 373 448
#     4  10  25  47  71 108 149 196 245 306 374 444
#     4  11  25  47  71 107 152 192 244 316 370 437
#     4  12  26  48  78 106 152 204 246 308 382 442
#     4  11  25  45  76 109 145 198 250 299 378 451
#
# _framework density 26.846699999999998
#
# number of rings (size 3 to 8) (size 9 to 14) (size 15 to 20)
#    0.000    1.091    1.818    2.182    5.091    9.455 
#    0.000    0.000    0.000    0.000    0.000    0.000 
#    0.000    0.000    0.000    0.000    0.000    0.000 
#
# Total GULP energy -61320.649556 kJ/mol
# GULP energy per Si atom -5574.604505 kJ/mol
# Density = 2.678560 g / cm^3
# Si number density = 26.846700 Si / 1000 Ang^3
#
#
#
# Elastic Constant Matrix: (Units=GPa)
#
#
# Indices 1 2 3 4 5 6 
#
# 1 51.1152 20.8379 32.0082 -8.6315 9.1101 -31.7569
# 2 20.8379 136.6241 56.6649 25.5786 -15.3844 -23.1997
# 3 32.0082 56.6649 154.7071 0.1148 33.7674 -8.5286
# 4 -8.6315 25.5786 0.1148 55.0379 2.5339 2.6253
# 5 9.1101 -15.3844 33.7674 2.5339 55.5608 6.8152
# 6 -31.7569 -23.1997 -8.5286 2.6253 6.8152 59.7184
#
#
#
# Elastic Compliance Matrix: (Units=1/GPa)
#
#
# Indices 1 2 3 4 5 6 
#
# 1 0.037210 -0.002822 -0.004126 0.006588 -0.006958 0.018606
# 2 -0.002822 0.012394 -0.005422 -0.006621 0.007246 0.002004
# 3 -0.004126 -0.005422 0.010765 0.002280 -0.007222 -0.002039
# 4 0.006588 -0.006621 0.002280 0.022482 -0.005434 0.000889
# 5 -0.006958 0.007246 -0.007222 -0.005434 0.026357 -0.004685
# 6 0.018606 0.002004 -0.002039 0.000889 -0.004685 0.027623
#
#
# Mechanical properties :
#
#
# Convention : Reuss Voigt Hill
#
# Bulk Modulus (GPa) = 28.06540 62.38538 45.22539
# Shear Modulus (GPa) = 28.82728 49.59244 39.20986
#
# Velocity S-wave (km/s) = 3.28040 4.30262 3.82581
# Velocity P-wave (km/s) = 4.98244 6.92615 6.03308
#
# Compressibility (1/GPa) = 0.03563106
#
# Stress axis : x y z
#
# Youngs Moduli (GPa) = 26.87474 80.68267 92.88977
#
# Poissons Ratio (x) = 0.22765 0.38322
# Poissons Ratio (y) = 0.07583 0.50365
# Poissons Ratio (z) = 0.11087 0.43746
#
# Static dielectric constant tensor:
#      x y z
#    x 2.230330 0.049020 0.014150 
#    y 0.049020 2.129080 0.108230 
#    z 0.014150 0.108230 2.024340 
# 
# From -- ./inp_files/70615.got.cif
#   From: 2010.05.17/outbox.cif.g08.bks.cpg/sg2_36_cif.got.tgz:70615.got - 2010.06.03 11:33:40.
