data_PCOD9051461
_publ_section_title
;
Structure prediction by ZEFSAII (Michael W. Deem and Ramdas Pophale) SiO2 
 PCOD9051461
Probable space group: P -1
;
_chemical_formula_sum "Si O2"
_cell_formula_units_Z 16
_cell_length_a 11.785800
_cell_length_b 9.175914
_cell_length_c 14.868895
_cell_angle_alpha 85.785575
_cell_angle_beta 29.906165
_cell_angle_gamma 91.683057
_cell_volume 785.420082
_symmetry_space_group_name_H-M "P -1"
_symmetry_group_IT_number 2
_symmetry_cell_setting 'triclinic'
loop_
_space_group_symop_operation_xyz
x,y,z
-x,-y,-z
loop_
_atom_site_type_symbol
_atom_site_label
_atom_site_fract_x
_atom_site_fract_y
_atom_site_fract_z
Si Si1 0.517879 0.953829 0.132555
Si Si2 0.214211 0.392121 0.959047
Si Si3 0.648593 0.261538 0.600273
Si Si4 0.248224 0.703386 0.822916
Si Si5 0.849914 0.559727 0.788065
Si Si6 0.072023 0.928052 0.045087
Si Si7 0.468744 0.748844 0.999513
Si Si8 0.556510 0.836771 0.449935
O O1 0.352386 0.885823 0.331859
O O2 0.504257 0.117994 0.097769
O O3 0.472098 0.837604 0.087163
O O4 0.780959 0.965247 0.988321
O O5 0.447632 0.333169 0.781060
O O6 0.241077 0.549916 0.884210
O O7 0.167813 0.409572 0.094825
O O8 0.987626 0.298060 0.071474
O O9 0.563096 0.218685 0.559669
O O10 0.891402 0.374369 0.425221
O O11 0.450972 0.736844 0.610106
O O12 0.247139 0.825765 0.894337
O O13 0.677167 0.656326 0.856243
O O14 0.756909 0.383261 0.845899
O O15 0.830638 0.843812 0.254236
O O16 0.000000 0.000000 0.000000
O O17 0.500000 0.000000 0.500000
#
# Coordination Sequence:
#
# PCOD9051461 Si02
#       8
#     2   2   2   2   2   2   2   2
#     4  11  23  45  70 100 134 174 231 279 337 388
#     4  11  23  41  65  94 139 173 219 270 334 401
#     4  12  24  41  73  99 135 177 225 281 333 406
#     4  11  23  39  61  99 137 179 212 268 330 405
#     4  11  24  46  72  95 133 181 225 279 347 387
#     4  12  22  40  69  96 138 176 214 271 339 403
#     4  10  25  46  71  96 131 181 228 286 330 397
#     4  12  24  37  64 103 133 176 221 265 338 407
#
# _framework density 20.371262999999999
#
# number of rings (size 3 to 8) (size 9 to 14) (size 15 to 20)
#    0.000    0.750    6.250    0.750    1.750    3.500 
#    0.000    0.000    0.000    0.000    0.000    0.000 
#    0.000    0.000    0.000    0.000    0.000    0.000 
#
# Total GULP energy -89404.216019 kJ/mol
# GULP energy per Si atom -5587.763501 kJ/mol
# Density = 2.032490 g / cm^3
# Si number density = 20.371263 Si / 1000 Ang^3
#
#
#
# Elastic Constant Matrix: (Units=GPa)
#
#
# Indices 1 2 3 4 5 6 
#
# 1 92.6058 41.6916 49.0904 -10.9244 3.0216 3.7608
# 2 41.6916 101.8768 38.8259 -19.0684 0.2378 4.0244
# 3 49.0904 38.8259 168.4159 -24.8490 4.3394 2.0564
# 4 -10.9244 -19.0684 -24.8490 25.9323 6.5239 0.0934
# 5 3.0216 0.2378 4.3394 6.5239 26.4343 -7.9239
# 6 3.7608 4.0244 2.0564 0.0934 -7.9239 35.1936
#
#
#
# Elastic Compliance Matrix: (Units=1/GPa)
#
#
# Indices 1 2 3 4 5 6 
#
# 1 0.014704 -0.004762 -0.003123 0.000082 -0.001500 -0.001182
# 2 -0.004762 0.013496 -0.000487 0.007933 -0.001890 -0.001453
# 3 -0.003123 -0.000487 0.008038 0.006747 -0.002845 -0.000739
# 4 0.000082 0.007933 0.006747 0.055014 -0.016302 -0.005127
# 5 -0.001500 -0.001890 -0.002845 -0.016302 0.045774 0.010892
# 6 -0.001182 -0.001453 -0.000739 -0.005127 0.010892 0.031216
#
#
# Mechanical properties :
#
#
# Convention : Reuss Voigt Hill
#
# Bulk Modulus (GPa) = 51.29266 69.12380 60.20823
# Shear Modulus (GPa) = 26.11179 33.06475 29.58827
#
# Velocity S-wave (km/s) = 3.58410 4.03315 3.81524
# Velocity P-wave (km/s) = 6.50856 7.46285 7.00198
#
# Compressibility (1/GPa) = 0.01949597
#
# Stress axis : x y z
#
# Youngs Moduli (GPa) = 68.00658 74.09335 124.40875
#
# Poissons Ratio (x) = 0.35282 0.38855
# Poissons Ratio (y) = 0.32383 0.06053
# Poissons Ratio (z) = 0.21240 0.03605
#
# Static dielectric constant tensor:
#      x y z
#    x 1.733960 -0.000510 -0.008270 
#    y -0.000510 1.754580 -0.032150 
#    z -0.008270 -0.032150 1.689880 
# 
# From -- ./inp_files/315886.got.cif
#   From: 2010.05.17/outbox.cif.g08.bks.cpg/sg2_158_cif.got.tgz:315886.got - 2010.06.03 11:33:40.
