data_PCOD9051218
_publ_section_title
;
Structure prediction by ZEFSAII (Michael W. Deem and Ramdas Pophale) SiO2 
 PCOD9051218
Probable space group: P -1
;
_chemical_formula_sum "Si O2"
_cell_formula_units_Z 14
_cell_length_a 11.832528
_cell_length_b 11.523382
_cell_length_c 12.387232
_cell_angle_alpha 143.868865
_cell_angle_beta 37.617851
_cell_angle_gamma 139.015237
_cell_volume 575.948086
_symmetry_space_group_name_H-M "P -1"
_symmetry_group_IT_number 2
_symmetry_cell_setting 'triclinic'
loop_
_space_group_symop_operation_xyz
x,y,z
-x,-y,-z
loop_
_atom_site_type_symbol
_atom_site_label
_atom_site_fract_x
_atom_site_fract_y
_atom_site_fract_z
Si Si1 0.960997 0.990411 0.390510
Si Si2 0.561168 0.945515 0.701076
Si Si3 0.032717 0.279371 0.348596
Si Si4 0.803856 0.414565 0.938764
Si Si5 0.192184 0.690497 0.906589
Si Si6 0.550326 0.511635 0.844374
Si Si7 0.336971 0.872977 0.608534
O O1 0.987497 0.190352 0.439409
O O2 0.730314 0.866156 0.465021
O O3 0.000000 0.000000 0.500000
O O4 0.098325 0.869461 0.144425
O O5 0.410386 0.959976 0.734504
O O6 0.415163 0.794026 0.780261
O O7 0.694730 0.170230 0.812214
O O8 0.870754 0.127065 0.278545
O O9 0.000000 0.500000 0.500000
O O10 0.254246 0.291998 0.168967
O O11 0.657126 0.510946 0.066292
O O12 0.033172 0.533814 0.829558
O O13 0.799571 0.432583 0.083753
O O14 0.632145 0.349802 0.597021
O O15 0.500000 0.500000 0.000000
O O16 0.500000 0.000000 0.500000
#
# Coordination Sequence:
#
# PCOD9051218 Si02
#       7
#     2   2   2   2   2   2   2
#     4  12  25  46  79 112 148 199 255 314 383 458
#     4  12  25  46  78 101 153 199 249 318 382 450
#     4  10  25  45  72 107 148 193 254 310 377 454
#     4  11  25  47  69 109 148 192 258 310 382 454
#     4  11  27  48  74 108 151 199 254 317 378 461
#     4  11  25  43  73 105 146 195 248 315 379 453
#     4  11  23  45  68 104 143 190 251 306 378 449
#
# _framework density 24.307745000000001
#
# number of rings (size 3 to 8) (size 9 to 14) (size 15 to 20)
#    0.000    0.857    2.857    3.000    6.000    1.143 
#    0.000    7.143    0.000    0.000    0.000    0.000 
#    0.000    0.000    0.000    0.000    0.000    0.000 
#
# Total GULP energy -78001.183998 kJ/mol
# GULP energy per Si atom -5571.513143 kJ/mol
# Density = 2.425242 g / cm^3
# Si number density = 24.307745 Si / 1000 Ang^3
#
#
#
# Elastic Constant Matrix: (Units=GPa)
#
#
# Indices 1 2 3 4 5 6 
#
# 1 166.3625 43.0729 38.1575 10.7163 16.8669 13.6697
# 2 43.0729 120.4997 44.1666 -24.1134 4.5934 14.1904
# 3 38.1575 44.1666 71.4438 -9.3248 -7.1598 2.7273
# 4 10.7163 -24.1134 -9.3248 43.7710 -2.3329 -1.3721
# 5 16.8669 4.5934 -7.1598 -2.3329 23.0258 -0.5048
# 6 13.6697 14.1904 2.7273 -1.3721 -0.5048 54.0405
#
#
#
# Elastic Compliance Matrix: (Units=1/GPa)
#
#
# Indices 1 2 3 4 5 6 
#
# 1 0.008908 -0.001760 -0.005048 -0.004720 -0.008260 -0.001734
# 2 -0.001760 0.012862 -0.006416 0.005926 -0.002726 -0.002483
# 3 -0.005048 -0.006416 0.022221 0.003152 0.012251 0.002035
# 4 -0.004720 0.005926 0.003152 0.028273 0.006126 0.000254
# 5 -0.008260 -0.002726 0.012251 0.006126 0.054517 0.002852
# 6 -0.001734 -0.002483 0.002035 0.000254 0.002852 0.019526
#
#
# Mechanical properties :
#
#
# Convention : Reuss Voigt Hill
#
# Bulk Modulus (GPa) = 57.00043 67.67778 62.33911
# Shear Modulus (GPa) = 27.99531 39.69472 33.84502
#
# Velocity S-wave (km/s) = 3.39736 4.04543 3.73548
# Velocity P-wave (km/s) = 6.23617 7.05147 6.65631
#
# Compressibility (1/GPa) = 0.01754373
#
# Stress axis : x y z
#
# Youngs Moduli (GPa) = 112.25427 77.74953 45.00264
#
# Poissons Ratio (x) = 0.13682 0.22716
# Poissons Ratio (y) = 0.19754 0.28875
# Poissons Ratio (z) = 0.56663 0.49886
#
# Static dielectric constant tensor:
#      x y z
#    x 1.937000 0.044920 -0.033270 
#    y 0.044920 1.428200 0.198420 
#    z -0.033270 0.198420 1.987090 
# 
# From -- ./inp_files/429014.got.cif
#   From: 2010.05.17/outbox.cif.g08.bks.cpg/sg2_215_cif.got.tgz:429014.got - 2010.06.03 11:33:40.
