data_PCOD9051691
_publ_section_title
;
Structure prediction by ZEFSAII (Michael W. Deem and Ramdas Pophale) SiO2 
 PCOD9051691
Probable space group: P -1
;
_chemical_formula_sum "Si O2"
_cell_formula_units_Z 14
_cell_length_a 18.383391
_cell_length_b 8.120977
_cell_length_c 11.829898
_cell_angle_alpha 107.305050
_cell_angle_beta 151.057969
_cell_angle_gamma 53.973626
_cell_volume 574.938835
_symmetry_space_group_name_H-M "P -1"
_symmetry_group_IT_number 2
_symmetry_cell_setting 'triclinic'
loop_
_space_group_symop_operation_xyz
x,y,z
-x,-y,-z
loop_
_atom_site_type_symbol
_atom_site_label
_atom_site_fract_x
_atom_site_fract_y
_atom_site_fract_z
Si Si1 0.891244 0.463827 0.602870
Si Si2 0.916139 0.880282 0.400597
Si Si3 0.804347 0.770307 0.838498
Si Si4 0.465394 0.302928 0.454121
Si Si5 0.688788 0.943492 0.318655
Si Si6 0.529732 0.365820 0.898317
Si Si7 0.457053 0.427029 0.242755
O O1 0.793615 0.731620 0.509832
O O2 0.711157 0.494787 0.424730
O O3 0.935096 0.371772 0.514919
O O4 0.106713 0.260363 0.922535
O O5 0.871034 0.865802 0.464983
O O6 0.000000 0.000000 0.500000
O O7 0.674351 0.084580 0.065054
O O8 0.629404 0.763751 0.607213
O O9 0.704106 0.027521 0.703367
O O10 0.000000 0.500000 0.000000
O O11 0.350798 0.408074 0.197376
O O12 0.441477 0.502787 0.528093
O O13 0.593639 0.181911 0.306076
O O14 0.500000 0.000000 0.000000
O O15 0.642391 0.380505 0.954416
O O16 0.500000 0.500000 0.000000
#
# Coordination Sequence:
#
# PCOD9051691 Si02
#       7
#     2   2   2   2   2   2   2
#     4  12  25  42  70 101 135 190 238 293 359 432
#     4  12  25  42  68 100 139 188 238 283 356 428
#     4  11  24  46  73 102 135 182 244 297 363 424
#     4  10  25  47  72 104 139 185 238 306 357 420
#     4  12  25  44  70 103 148 190 235 300 357 427
#     4  12  22  45  67  99 144 184 232 297 353 423
#     4  11  23  44  73  98 141 191 230 291 369 416
#
# _framework density 24.350415999999999
#
# number of rings (size 3 to 8) (size 9 to 14) (size 15 to 20)
#    0.000    0.571    4.286    3.000    2.000    3.429 
#    0.000   14.286    0.000    0.000    0.000    0.000 
#    0.000    0.000    0.000    0.000    0.000    0.000 
#
# Total GULP energy -78073.773105 kJ/mol
# GULP energy per Si atom -5576.698079 kJ/mol
# Density = 2.429499 g / cm^3
# Si number density = 24.350416 Si / 1000 Ang^3
#
#
#
# Elastic Constant Matrix: (Units=GPa)
#
#
# Indices 1 2 3 4 5 6 
#
# 1 106.7376 32.2814 2.6966 6.2388 -14.0752 -7.3405
# 2 32.2814 120.0486 15.7065 -5.6625 6.4517 -4.1951
# 3 2.6966 15.7065 48.6173 0.0975 -5.5279 1.3111
# 4 6.2388 -5.6625 0.0975 30.1710 4.9818 -6.5104
# 5 -14.0752 6.4517 -5.5279 4.9818 42.3908 -6.1848
# 6 -7.3405 -4.1951 1.3111 -6.5104 -6.1848 44.1119
#
#
#
# Elastic Compliance Matrix: (Units=1/GPa)
#
#
# Indices 1 2 3 4 5 6 
#
# 1 0.011434 -0.003597 0.001074 -0.003520 0.005150 0.001731
# 2 -0.003597 0.010116 -0.003487 0.003334 -0.003513 0.000467
# 3 0.001074 -0.003487 0.022096 -0.001702 0.003894 -0.000515
# 4 -0.003520 0.003334 -0.001702 0.036361 -0.005533 0.004373
# 5 0.005150 -0.003513 0.003894 -0.005533 0.027495 0.003446
# 6 0.001731 0.000467 -0.000515 0.004373 0.003446 0.024146
#
#
# Mechanical properties :
#
#
# Convention : Reuss Voigt Hill
#
# Bulk Modulus (GPa) = 31.62145 41.86361 36.74253
# Shear Modulus (GPa) = 32.42336 38.31599 35.36968
#
# Velocity S-wave (km/s) = 3.65298 3.97107 3.81534
# Velocity P-wave (km/s) = 5.55036 6.18509 5.87630
#
# Compressibility (1/GPa) = 0.03162410
#
# Stress axis : x y z
#
# Youngs Moduli (GPa) = 87.46223 98.85425 45.25733
#
# Poissons Ratio (x) = 0.35561 -0.04860
# Poissons Ratio (y) = 0.31463 0.15782
# Poissons Ratio (z) = -0.09393 0.34473
#
# Static dielectric constant tensor:
#      x y z
#    x 2.041120 -0.017180 -0.062190 
#    y -0.017180 2.017170 0.012580 
#    z -0.062190 0.012580 2.106780 
# 
# From -- ./inp_files/402875.got.cif
#   From: 2010.05.17/outbox.cif.g08.bks.cpg/sg2_202_cif.got.tgz:402875.got - 2010.06.03 11:33:40.
