data_PCOD9051438
_publ_section_title
;
Structure prediction by ZEFSAII (Michael W. Deem and Ramdas Pophale) SiO2 
 PCOD9051438
Probable space group: P -1
;
_chemical_formula_sum "Si O2"
_cell_formula_units_Z 13
_cell_length_a 7.783130
_cell_length_b 11.454171
_cell_length_c 10.179792
_cell_angle_alpha 101.096107
_cell_angle_beta 65.212850
_cell_angle_gamma 50.729678
_cell_volume 483.958310
_symmetry_space_group_name_H-M "P -1"
_symmetry_group_IT_number 2
_symmetry_cell_setting 'triclinic'
loop_
_space_group_symop_operation_xyz
x,y,z
-x,-y,-z
loop_
_atom_site_type_symbol
_atom_site_label
_atom_site_fract_x
_atom_site_fract_y
_atom_site_fract_z
Si Si1 0.380024 0.530691 0.763618
Si Si2 0.576012 0.788564 0.655423
Si Si3 0.216634 0.498792 0.223308
Si Si4 0.175091 0.786770 0.648200
Si Si5 0.242477 0.162888 0.727725
Si Si6 0.000000 0.500000 0.000000
Si Si7 0.478082 0.152893 0.014065
O O1 0.474197 0.597417 0.833107
O O2 0.198689 0.665428 0.718181
O O3 0.705543 0.315071 0.552788
O O4 0.168089 0.544607 0.908839
O O5 0.414901 0.763170 0.623319
O O6 0.601600 0.753650 0.795320
O O7 0.919439 0.636553 0.449930
O O8 0.331346 0.021326 0.777110
O O9 0.239380 0.375791 0.078322
O O10 0.083530 0.673216 0.211210
O O11 0.818812 0.011101 0.817525
O O12 0.291394 0.270707 0.786614
O O13 0.500000 0.000000 0.500000
O O14 0.500000 0.000000 0.000000
#
# Coordination Sequence:
#
# PCOD9051438 Si02
#       7
#     2   2   2   2   2   1   2
#     4  11  25  46  74 107 145 196 248 304 372 444
#     4  11  23  47  73 104 148 195 241 308 377 438
#     4  11  25  46  71 109 147 193 247 311 364 446
#     4  11  25  45  75 108 147 188 247 310 377 436
#     4  10  25  46  71 101 147 196 240 301 373 436
#     4  12  26  48  74 104 148 206 244 298 376 454
#     4  12  26  40  71 112 146 187 249 311 367 439
#
# _framework density 26.861819000000001
#
# number of rings (size 3 to 8) (size 9 to 14) (size 15 to 20)
#    0.000    0.923    1.538    4.615   10.769    0.615 
#    0.000    3.846    0.000    0.000    0.000    0.000 
#    0.000    0.000    0.000    0.000    0.000    0.000 
#
# Total GULP energy -72534.771808 kJ/mol
# GULP energy per Si atom -5579.597831 kJ/mol
# Density = 2.680068 g / cm^3
# Si number density = 26.861819 Si / 1000 Ang^3
#
#
#
# Elastic Constant Matrix: (Units=GPa)
#
#
# Indices 1 2 3 4 5 6 
#
# 1 135.9882 33.0166 51.4278 1.2357 3.3396 30.5645
# 2 33.0166 56.0414 30.7934 9.4897 -10.8820 39.2144
# 3 51.4278 30.7934 157.3806 10.3961 -1.8369 9.3229
# 4 1.2357 9.4897 10.3961 62.1977 7.7585 8.6246
# 5 3.3396 -10.8820 -1.8369 7.7585 52.2649 1.5477
# 6 30.5645 39.2144 9.3229 8.6246 1.5477 45.4540
#
#
#
# Elastic Compliance Matrix: (Units=1/GPa)
#
#
# Indices 1 2 3 4 5 6 
#
# 1 0.009888 -0.000632 -0.002863 0.001283 -0.000885 -0.005730
# 2 -0.000632 0.062311 -0.008580 -0.002739 0.014646 -0.051551
# 3 -0.002863 -0.008580 0.008554 -0.000973 -0.001389 0.007804
# 4 0.001283 -0.002739 -0.000973 0.017235 -0.003202 -0.001462
# 5 -0.000885 0.014646 -0.001389 -0.003202 0.023019 -0.011931
# 6 -0.005730 -0.051551 0.007804 -0.001462 -0.011931 0.069411
#
#
# Mechanical properties :
#
#
# Convention : Reuss Voigt Hill
#
# Bulk Modulus (GPa) = 17.66692 64.43177 41.04935
# Shear Modulus (GPa) = 21.41936 47.59482 34.50709
#
# Velocity S-wave (km/s) = 2.82687 4.21389 3.58804
# Velocity P-wave (km/s) = 4.15285 6.90755 5.69914
#
# Compressibility (1/GPa) = 0.05660297
#
# Stress axis : x y z
#
# Youngs Moduli (GPa) = 101.13674 16.04860 116.90416
#
# Poissons Ratio (x) = 0.01014 0.33470
# Poissons Ratio (y) = 0.06392 1.00300
# Poissons Ratio (z) = 0.28956 0.13769
#
# Static dielectric constant tensor:
#      x y z
#    x 2.054480 0.277870 0.217930 
#    y 0.277870 2.585370 0.345230 
#    z 0.217930 0.345230 2.356850 
# 
# From -- ./inp_files/376283.got.cif
#   From: 2010.05.17/outbox.cif.g08.bks.cpg/sg2_189_cif.got.tgz:376283.got - 2010.06.03 11:33:40.
