data_PCOD9051003
_publ_section_title
;
Structure prediction by ZEFSAII (Michael W. Deem and Ramdas Pophale) SiO2 
 PCOD9051003
Probable space group: P -1
;
_chemical_formula_sum "Si O2"
_cell_formula_units_Z 16
_cell_length_a 8.681431
_cell_length_b 11.421690
_cell_length_c 15.471584
_cell_angle_alpha 32.154213
_cell_angle_beta 109.063419
_cell_angle_gamma 92.588236
_cell_volume 685.206990
_symmetry_space_group_name_H-M "P -1"
_symmetry_group_IT_number 2
_symmetry_cell_setting 'triclinic'
loop_
_space_group_symop_operation_xyz
x,y,z
-x,-y,-z
loop_
_atom_site_type_symbol
_atom_site_label
_atom_site_fract_x
_atom_site_fract_y
_atom_site_fract_z
Si Si1 0.243157 0.556899 0.466531
Si Si2 0.367115 0.739482 0.205968
Si Si3 0.872819 0.413350 0.858352
Si Si4 0.299174 0.046113 0.460922
Si Si5 0.950762 0.220645 0.185077
Si Si6 0.663486 0.441112 0.133258
Si Si7 0.221791 0.283546 0.891121
Si Si8 0.953819 0.738105 0.439585
O O1 0.283540 0.686765 0.311817
O O2 0.417510 0.445469 0.631259
O O3 0.058792 0.735665 0.371605
O O4 0.207020 0.332971 0.565066
O O5 0.268747 0.675758 0.149983
O O6 0.323163 0.024752 0.022206
O O7 0.787409 0.710396 0.646554
O O8 0.063895 0.278434 0.926951
O O9 0.898056 0.358601 0.998786
O O10 0.165182 0.107062 0.315949
O O11 0.500000 0.000000 0.500000
O O12 0.303440 0.806309 0.655726
O O13 0.839659 0.389098 0.139407
O O14 0.897664 0.997044 0.312277
O O15 0.644230 0.649882 0.067750
O O16 0.500000 0.500000 0.000000
O O17 0.105589 0.513085 0.663426
#
# Coordination Sequence:
#
# PCOD9051003 Si02
#       8
#     2   2   2   2   2   2   2   2
#     4  10  25  45  66 103 136 186 229 284 348 412
#     4  11  26  45  71 102 139 181 233 288 345 411
#     4  12  26  45  73 104 142 186 235 285 352 411
#     4  12  27  48  72 104 142 184 236 289 350 419
#     4  12  26  47  73 103 141 189 233 289 351 413
#     4  12  28  47  73 107 141 185 234 289 351 416
#     4  12  25  46  70 101 143 182 233 287 345 417
#     4  11  24  44  70  98 141 183 232 283 349 412
#
# _framework density 23.350608999999999
#
# number of rings (size 3 to 8) (size 9 to 14) (size 15 to 20)
#    0.000    0.500    3.750    3.375    8.750    2.500 
#    0.000    0.000    0.000    0.000    0.000    0.000 
#    0.000    0.000    0.000    0.000    0.000    0.000 
#
# Total GULP energy -89693.523408 kJ/mol
# GULP energy per Si atom -5605.845213 kJ/mol
# Density = 2.329746 g / cm^3
# Si number density = 23.350609 Si / 1000 Ang^3
#
#
#
# Elastic Constant Matrix: (Units=GPa)
#
#
# Indices 1 2 3 4 5 6 
#
# 1 82.5197 10.8219 19.0329 13.2304 -0.7070 17.9586
# 2 10.8219 115.3923 32.0960 -7.0017 6.1377 39.4830
# 3 19.0329 32.0960 99.2978 6.7017 -6.5386 16.6269
# 4 13.2304 -7.0017 6.7017 46.4674 3.7352 4.9866
# 5 -0.7070 6.1377 -6.5386 3.7352 29.9556 10.9850
# 6 17.9586 39.4830 16.6269 4.9866 10.9850 43.8728
#
#
#
# Elastic Compliance Matrix: (Units=1/GPa)
#
#
# Indices 1 2 3 4 5 6 
#
# 1 0.014284 0.000954 -0.001597 -0.003213 0.002529 -0.006369
# 2 0.000954 0.013704 -0.002751 0.003450 0.000673 -0.012241
# 3 -0.001597 -0.002751 0.012048 -0.001791 0.004219 -0.002289
# 4 -0.003213 0.003450 -0.001791 0.023784 -0.003018 -0.003058
# 5 0.002529 0.000673 0.004219 -0.003018 0.039270 -0.012729
# 6 -0.006369 -0.012241 -0.002289 -0.003058 -0.012729 0.040819
#
#
# Mechanical properties :
#
#
# Convention : Reuss Voigt Hill
#
# Bulk Modulus (GPa) = 30.07621 46.79016 38.43319
# Shear Modulus (GPa) = 30.90644 39.74309 35.32476
#
# Velocity S-wave (km/s) = 3.64205 4.13002 3.89369
# Velocity P-wave (km/s) = 5.53121 6.54403 6.05882
#
# Compressibility (1/GPa) = 0.03324887
#
# Stress axis : x y z
#
# Youngs Moduli (GPa) = 70.00726 72.97242 83.00152
#
# Poissons Ratio (x) = -0.06962 0.13251
# Poissons Ratio (y) = -0.06679 0.22835
# Poissons Ratio (z) = 0.11177 0.20076
#
# Static dielectric constant tensor:
#      x y z
#    x 1.880060 -0.002330 -0.016320 
#    y -0.002330 1.889930 -0.010550 
#    z -0.016320 -0.010550 1.862590 
# 
# From -- ./inp_files/179908.got.cif
#   From: 2010.05.17/outbox.cif.g08.bks.cpg/sg2_90_cif.got.tgz:179908.got - 2010.06.03 11:33:40.
