data_PCOD9051506
_publ_section_title
;
Structure prediction by ZEFSAII (Michael W. Deem and Ramdas Pophale) SiO2 
 PCOD9051506
Probable space group: P -1
;
_chemical_formula_sum "Si O2"
_cell_formula_units_Z 16
_cell_length_a 16.688510
_cell_length_b 11.110785
_cell_length_c 5.932651
_cell_angle_alpha 130.097951
_cell_angle_beta 107.616132
_cell_angle_gamma 51.833764
_cell_volume 653.212556
_symmetry_space_group_name_H-M "P -1"
_symmetry_group_IT_number 2
_symmetry_cell_setting 'triclinic'
loop_
_space_group_symop_operation_xyz
x,y,z
-x,-y,-z
loop_
_atom_site_type_symbol
_atom_site_label
_atom_site_fract_x
_atom_site_fract_y
_atom_site_fract_z
Si Si1 0.433542 0.482643 0.739258
Si Si2 0.593168 0.817799 0.226451
Si Si3 0.137441 0.152565 0.511726
Si Si4 0.812249 0.583205 0.375299
Si Si5 0.554873 0.236081 0.182424
Si Si6 0.199267 0.734390 0.892605
Si Si7 0.967715 0.108728 0.360239
Si Si8 0.719740 0.845765 0.999035
O O1 0.509936 0.273901 0.442031
O O2 0.411787 0.627040 0.690150
O O3 0.319566 0.563193 0.809807
O O4 0.500000 0.500000 0.000000
O O5 0.699625 0.704721 0.312815
O O6 0.630395 0.855547 0.072022
O O7 0.500000 0.000000 0.500000
O O8 0.540363 0.711589 0.989974
O O9 0.134073 0.317176 0.559374
O O10 0.021533 0.220627 0.546901
O O11 0.209840 0.121912 0.744728
O O12 0.184237 0.933366 0.196267
O O13 0.852438 0.359209 0.127023
O O14 0.792504 0.644274 0.692924
O O15 0.655673 0.020710 0.980080
O O16 0.154139 0.768310 0.641118
O O17 0.000000 0.000000 0.500000
O O18 0.000000 0.000000 0.000000
#
# Coordination Sequence:
#
# PCOD9051506 Si02
#       8
#     2   2   2   2   2   2   2   2
#     4  11  24  39  61  99 141 179 240 293 351 431
#     4  11  23  37  59  91 140 188 236 291 347 431
#     4  10  25  46  73 101 144 184 241 303 375 443
#     4  11  24  44  69 105 143 187 248 296 368 434
#     4  11  23  36  60  90 134 191 230 283 358 423
#     4  11  24  46  74 103 142 189 242 308 368 441
#     4  10  25  50  80 112 145 195 246 311 383 452
#     4  11  23  39  66  97 136 191 238 296 361 434
#
# _framework density 24.494326000000001
#
# number of rings (size 3 to 8) (size 9 to 14) (size 15 to 20)
#    0.000    1.250    1.250    3.375   10.500    1.500 
#   13.500    0.625    0.000    0.000    0.000    0.000 
#    0.000    0.000    0.000    0.000    0.000    0.000 
#
# Total GULP energy -89154.004365 kJ/mol
# GULP energy per Si atom -5572.125273 kJ/mol
# Density = 2.443858 g / cm^3
# Si number density = 24.494326 Si / 1000 Ang^3
#
#
#
# Elastic Constant Matrix: (Units=GPa)
#
#
# Indices 1 2 3 4 5 6 
#
# 1 113.1764 30.5680 41.2623 -6.1621 30.8458 15.5605
# 2 30.5680 97.9207 29.2878 -0.4776 10.2980 16.0543
# 3 41.2623 29.2878 104.8837 -2.6524 24.5714 10.5146
# 4 -6.1621 -0.4776 -2.6524 32.9620 -4.2841 12.5139
# 5 30.8458 10.2980 24.5714 -4.2841 37.5502 0.3978
# 6 15.5605 16.0543 10.5146 12.5139 0.3978 39.7908
#
#
#
# Elastic Compliance Matrix: (Units=1/GPa)
#
#
# Indices 1 2 3 4 5 6 
#
# 1 0.013264 -0.001802 -0.002149 0.002960 -0.008608 -0.004737
# 2 -0.001802 0.012109 -0.002192 0.001134 -0.000235 -0.003956
# 3 -0.002149 -0.002192 0.012519 0.000460 -0.005756 -0.001671
# 4 0.002960 0.001134 0.000460 0.036073 0.001211 -0.013093
# 5 -0.008608 -0.000235 -0.005756 0.001211 0.037626 0.004225
# 6 -0.004737 -0.003956 -0.001671 -0.013093 0.004225 0.033097
#
#
# Mechanical properties :
#
#
# Convention : Reuss Voigt Hill
#
# Bulk Modulus (GPa) = 39.05094 57.57969 48.31531
# Shear Modulus (GPa) = 30.20949 36.38477 33.29713
#
# Velocity S-wave (km/s) = 3.51568 3.85832 3.69098
# Velocity P-wave (km/s) = 5.69715 6.58841 6.15893
#
# Compressibility (1/GPa) = 0.02560758
#
# Stress axis : x y z
#
# Youngs Moduli (GPa) = 75.38988 82.58093 79.87585
#
# Poissons Ratio (x) = 0.14878 0.17164
# Poissons Ratio (y) = 0.13583 0.17511
# Poissons Ratio (z) = 0.16200 0.18104
#
# Static dielectric constant tensor:
#      x y z
#    x 2.073850 0.012440 -0.123820 
#    y 0.012440 2.057560 -0.021410 
#    z -0.123820 -0.021410 2.047050 
# 
# From -- ./inp_files/109949.got.cif
#   From: 2010.05.17/outbox.cif.g08.bks.cpg/sg2_55_cif.got.tgz:109949.got - 2010.06.03 11:33:40.
