data_PCOD9051920
_publ_section_title
;
Structure prediction by ZEFSAII (Michael W. Deem and Ramdas Pophale) SiO2 
 PCOD9051920
Probable space group: P -1
;
_chemical_formula_sum "Si O2"
_cell_formula_units_Z 14
_cell_length_a 10.844275
_cell_length_b 9.961144
_cell_length_c 7.338997
_cell_angle_alpha 125.539805
_cell_angle_beta 121.516186
_cell_angle_gamma 68.383381
_cell_volume 547.544812
_symmetry_space_group_name_H-M "P -1"
_symmetry_group_IT_number 2
_symmetry_cell_setting 'triclinic'
loop_
_space_group_symop_operation_xyz
x,y,z
-x,-y,-z
loop_
_atom_site_type_symbol
_atom_site_label
_atom_site_fract_x
_atom_site_fract_y
_atom_site_fract_z
Si Si1 0.141861 0.594598 0.720986
Si Si2 0.598486 0.863249 0.578603
Si Si3 0.680135 0.664091 0.145112
Si Si4 0.559900 0.249854 0.277763
Si Si5 0.082967 0.229586 0.811724
Si Si6 0.181372 0.946140 0.910325
Si Si7 0.794345 0.453177 0.664156
O O1 0.230676 0.545270 0.569280
O O2 0.000000 0.500000 0.500000
O O3 0.227133 0.515110 0.898402
O O4 0.119179 0.792869 0.845982
O O5 0.616565 0.714862 0.332105
O O6 0.526245 0.830391 0.690543
O O7 0.749902 0.935263 0.799109
O O8 0.500000 0.000000 0.500000
O O9 0.553406 0.688477 0.918660
O O10 0.803040 0.785896 0.279060
O O11 0.645198 0.386668 0.556130
O O12 0.684980 0.129537 0.176866
O O13 0.077839 0.063914 0.792816
O O14 0.156419 0.371701 0.097671
O O15 0.927885 0.315906 0.700796
#
# Coordination Sequence:
#
# PCOD9051920 Si02
#       7
#     2   2   2   2   2   2   2
#     4  11  25  48  73 110 149 195 254 308 370 448
#     4  12  24  46  74 114 151 192 249 309 371 440
#     4  12  25  47  79 103 155 197 247 307 371 444
#     4  11  25  48  74 110 154 196 250 306 371 448
#     4  11  23  49  77 106 148 200 249 310 372 443
#     4  11  24  47  75 110 149 195 249 309 374 436
#     4  10  25  48  76 107 152 197 251 305 381 441
#
# _framework density 25.568683
#
# number of rings (size 3 to 8) (size 9 to 14) (size 15 to 20)
#    0.000    0.857    4.286    2.143    0.000    6.286 
#    7.714    1.429    0.000    0.000    0.000    0.000 
#    0.000    0.000    0.000    0.000    0.000    0.000 
#
# Total GULP energy -78381.194163 kJ/mol
# GULP energy per Si atom -5598.656726 kJ/mol
# Density = 2.551049 g / cm^3
# Si number density = 25.568683 Si / 1000 Ang^3
#
#
#
# Elastic Constant Matrix: (Units=GPa)
#
#
# Indices 1 2 3 4 5 6 
#
# 1 72.4354 41.2325 29.3305 5.0552 13.2190 -10.2016
# 2 41.2325 242.3038 60.6477 -5.5917 25.9936 -20.7761
# 3 29.3305 60.6477 111.7830 -16.6067 18.6182 3.1818
# 4 5.0552 -5.5917 -16.6067 37.9559 5.9251 9.9553
# 5 13.2190 25.9936 18.6182 5.9251 46.7379 0.1683
# 6 -10.2016 -20.7761 3.1818 9.9553 0.1683 44.0616
#
#
#
# Elastic Compliance Matrix: (Units=1/GPa)
#
#
# Indices 1 2 3 4 5 6 
#
# 1 0.017916 -0.001391 -0.004649 -0.005697 -0.001738 0.005122
# 2 -0.001391 0.005337 -0.002415 -0.000494 -0.001559 0.002487
# 3 -0.004649 -0.002415 0.013423 0.008019 -0.003688 -0.004982
# 4 -0.005697 -0.000494 0.008019 0.033979 -0.005581 -0.009787
# 5 -0.001738 -0.001559 -0.003688 -0.005581 0.024930 0.000294
# 6 0.005122 0.002487 -0.004982 -0.009787 0.000294 0.027624
#
#
# Mechanical properties :
#
#
# Convention : Reuss Voigt Hill
#
# Bulk Modulus (GPa) = 50.59137 76.54928 63.57032
# Shear Modulus (GPa) = 34.08123 45.43854 39.75989
#
# Velocity S-wave (km/s) = 3.65489 4.22016 3.94766
# Velocity P-wave (km/s) = 6.13518 7.33144 6.75982
#
# Compressibility (1/GPa) = 0.01976622
#
# Stress axis : x y z
#
# Youngs Moduli (GPa) = 55.81705 187.35846 74.49635
#
# Poissons Ratio (x) = 0.26061 0.34633
# Poissons Ratio (y) = 0.07764 0.17993
# Poissons Ratio (z) = 0.25949 0.45252
#
# Static dielectric constant tensor:
#      x y z
#    x 2.168960 0.166100 0.118120 
#    y 0.166100 2.256320 0.315660 
#    z 0.118120 0.315660 2.349910 
# 
# From -- ./inp_files/293575.got.cif
#   From: 2010.05.17/outbox.cif.g08.bks.cpg/sg2_147_cif.got.tgz:293575.got - 2010.06.03 11:33:40.
