data_PCOD9051989
_publ_section_title
;
Structure prediction by ZEFSAII (Michael W. Deem and Ramdas Pophale) SiO2 
 PCOD9051989
Probable space group: P -1
;
_chemical_formula_sum "Si O2"
_cell_formula_units_Z 16
_cell_length_a 9.754035
_cell_length_b 15.974737
_cell_length_c 5.899901
_cell_angle_alpha 119.466043
_cell_angle_beta 75.195373
_cell_angle_gamma 120.364106
_cell_volume 690.577455
_symmetry_space_group_name_H-M "P -1"
_symmetry_group_IT_number 2
_symmetry_cell_setting 'triclinic'
loop_
_space_group_symop_operation_xyz
x,y,z
-x,-y,-z
loop_
_atom_site_type_symbol
_atom_site_label
_atom_site_fract_x
_atom_site_fract_y
_atom_site_fract_z
Si Si1 0.518398 0.429963 0.701177
Si Si2 0.877262 0.875289 0.630563
Si Si3 0.339276 0.705392 0.116907
Si Si4 0.533655 0.812147 0.547549
Si Si5 0.770078 0.194697 0.096142
Si Si6 0.975471 0.878816 0.097877
Si Si7 0.281932 0.487154 0.646885
Si Si8 0.051988 0.597046 0.428637
O O1 0.502319 0.312738 0.579889
O O2 0.373907 0.421233 0.594541
O O3 0.690280 0.502203 0.618581
O O4 0.500000 0.500000 0.000000
O O5 0.704945 0.871848 0.665169
O O6 0.899017 0.827876 0.311023
O O7 0.008666 0.000447 0.743251
O O8 0.896611 0.833479 0.819919
O O9 0.496175 0.804628 0.284365
O O10 0.209443 0.633783 0.262843
O O11 0.255565 0.759035 0.068213
O O12 0.367547 0.612599 0.856026
O O13 0.398881 0.838064 0.751781
O O14 0.905174 0.296632 0.303709
O O15 0.848756 0.114842 0.955843
O O16 0.098783 0.434029 0.710829
O O17 0.000000 0.500000 0.500000
#
# Coordination Sequence:
#
# PCOD9051989 Si02
#       8
#     2   2   2   2   2   2   2   2
#     4  11  23  37  55  84 125 171 216 269 320 386
#     4  10  25  49  75 101 138 174 221 280 343 413
#     4  11  22  40  60  92 132 170 223 280 330 390
#     4  11  24  41  66  96 131 174 223 279 335 401
#     4  11  25  41  66  96 136 172 225 279 338 405
#     4  10  25  49  73 105 136 173 222 280 342 413
#     4  11  22  36  55  82 124 171 222 266 319 382
#     4  11  23  37  59  90 126 177 220 272 330 388
#
# _framework density 23.169017
#
# number of rings (size 3 to 8) (size 9 to 14) (size 15 to 20)
#    0.000    1.250    3.750    1.125    7.000    1.500 
#    0.000    0.625    0.000    0.000    0.000    0.000 
#    0.000    0.000    0.000    0.000    0.000    0.000 
#
# Total GULP energy -89076.309709 kJ/mol
# GULP energy per Si atom -5567.269357 kJ/mol
# Density = 2.311628 g / cm^3
# Si number density = 23.169017 Si / 1000 Ang^3
#
#
#
# Elastic Constant Matrix: (Units=GPa)
#
#
# Indices 1 2 3 4 5 6 
#
# 1 142.8967 13.1432 39.8106 -0.3362 7.1492 0.3983
# 2 13.1432 15.4684 19.5781 -1.1336 -0.0072 0.4220
# 3 39.8106 19.5781 101.1987 -21.7856 5.7589 -6.5762
# 4 -0.3362 -1.1336 -21.7856 17.6073 -1.2071 -0.8978
# 5 7.1492 -0.0072 5.7589 -1.2071 40.8053 1.4156
# 6 0.3983 0.4220 -6.5762 -0.8978 1.4156 30.7667
#
#
#
# Elastic Compliance Matrix: (Units=1/GPa)
#
#
# Indices 1 2 3 4 5 6 
#
# 1 0.008348 -0.002555 -0.003847 -0.004887 -0.001030 -0.000991
# 2 -0.002555 0.093911 -0.022531 -0.022008 0.003231 -0.006862
# 3 -0.003847 -0.022531 0.021737 0.025542 -0.001844 0.005835
# 4 -0.004887 -0.022008 0.025542 0.087284 -0.000462 0.008393
# 5 -0.001030 0.003231 -0.001844 -0.000462 0.024989 -0.001588
# 6 -0.000991 -0.006862 0.005835 0.008393 -0.001588 0.034175
#
#
# Mechanical properties :
#
#
# Convention : Reuss Voigt Hill
#
# Bulk Modulus (GPa) = 15.12187 44.95864 30.04026
# Shear Modulus (GPa) = 14.27132 30.30465 22.28798
#
# Velocity S-wave (km/s) = 2.48456 3.62053 3.10493
# Velocity P-wave (km/s) = 3.84339 6.07654 5.08409
#
# Compressibility (1/GPa) = 0.06612938
#
# Stress axis : x y z
#
# Youngs Moduli (GPa) = 119.79319 10.64835 46.00534
#
# Poissons Ratio (x) = 0.02721 0.17700
# Poissons Ratio (y) = 0.30606 1.03654
# Poissons Ratio (z) = 0.46088 0.23992
#
# Static dielectric constant tensor:
#      x y z
#    x 2.361860 -0.120670 0.122390 
#    y -0.120670 1.924770 -0.047300 
#    z 0.122390 -0.047300 2.032460 
# 
# From -- ./inp_files/48898.got.cif
#   From: 2010.05.17/outbox.cif.g08.bks.cpg/sg2_25_cif.got.tgz:48898.got - 2010.06.03 11:33:40.
