data_PCOD9051119
_publ_section_title
;
Structure prediction by ZEFSAII (Michael W. Deem and Ramdas Pophale) SiO2 
 PCOD9051119
Probable space group: P -1
;
_chemical_formula_sum "Si O2"
_cell_formula_units_Z 12
_cell_length_a 14.641399
_cell_length_b 4.834556
_cell_length_c 8.852306
_cell_angle_alpha 98.547837
_cell_angle_beta 53.697155
_cell_angle_gamma 75.493230
_cell_volume 452.090350
_symmetry_space_group_name_H-M "P -1"
_symmetry_group_IT_number 2
_symmetry_cell_setting 'triclinic'
loop_
_space_group_symop_operation_xyz
x,y,z
-x,-y,-z
loop_
_atom_site_type_symbol
_atom_site_label
_atom_site_fract_x
_atom_site_fract_y
_atom_site_fract_z
Si Si1 0.453735 0.103268 0.384045
Si Si2 0.200967 0.934733 0.030421
Si Si3 0.389546 0.428703 0.032489
Si Si4 0.956118 0.339503 0.700418
Si Si5 0.292905 0.791034 0.589495
Si Si6 0.829612 0.479800 0.530984
O O1 0.551965 0.876366 0.152284
O O2 0.329275 0.040196 0.492203
O O3 0.500000 0.000000 0.500000
O O4 0.305801 0.379042 0.242888
O O5 0.088830 0.828029 0.143363
O O6 0.139181 0.295719 0.156591
O O7 0.300733 0.715105 0.037432
O O8 0.259615 0.876766 0.802516
O O9 0.415966 0.463652 0.434050
O O10 0.500000 0.500000 0.000000
O O11 0.918449 0.277475 0.563988
O O12 0.094672 0.321267 0.570436
O O13 0.188215 0.717676 0.603245
#
# Coordination Sequence:
#
# PCOD9051119 Si02
#       6
#     2   2   2   2   2   2
#     4  12  26  44  67 102 142 180 220 276 340 406
#     4  11  25  45  71 100 134 182 226 279 336 399
#     4  11  24  44  70 104 137 179 224 278 340 406
#     4  10  25  47  71  97 137 179 228 281 334 398
#     4  12  26  43  70 102 136 178 228 279 337 400
#     4  10  25  45  70 102 136 179 227 281 338 399
#
# _framework density 26.543368000000001
#
# number of rings (size 3 to 8) (size 9 to 14) (size 15 to 20)
#    0.000    1.000    3.333    1.500    4.667    9.333 
#    0.000    0.000    0.000    0.000    0.000    0.000 
#    0.000    0.000    0.000    0.000    0.000    0.000 
#
# Total GULP energy -67372.332152 kJ/mol
# GULP energy per Si atom -5614.361013 kJ/mol
# Density = 2.648295 g / cm^3
# Si number density = 26.543368 Si / 1000 Ang^3
#
#
#
# Elastic Constant Matrix: (Units=GPa)
#
#
# Indices 1 2 3 4 5 6 
#
# 1 177.1368 12.0953 41.6539 -2.0401 -10.5175 5.2056
# 2 12.0953 111.5694 27.1714 1.3882 -5.9360 4.5696
# 3 41.6539 27.1714 163.5793 -9.2642 -8.3447 -5.4159
# 4 -2.0401 1.3882 -9.2642 36.6355 10.2930 -16.8972
# 5 -10.5175 -5.9360 -8.3447 10.2930 51.3426 -6.5220
# 6 5.2056 4.5696 -5.4159 -16.8972 -6.5220 45.0537
#
#
#
# Elastic Compliance Matrix: (Units=1/GPa)
#
#
# Indices 1 2 3 4 5 6 
#
# 1 0.006103 -0.000178 -0.001553 -0.000804 0.001008 -0.001030
# 2 -0.000178 0.009527 -0.001649 -0.001837 0.000950 -0.001695
# 3 -0.001553 -0.001649 0.007029 0.002686 0.000382 0.002254
# 4 -0.000804 -0.001837 0.002686 0.035591 -0.005403 0.013168
# 5 0.001008 0.000950 0.000382 -0.005403 0.021047 0.000853
# 6 -0.001030 -0.001695 0.002254 0.013168 0.000853 0.027820
#
#
# Mechanical properties :
#
#
# Convention : Reuss Voigt Hill
#
# Bulk Modulus (GPa) = 62.89304 68.23629 65.56466
# Shear Modulus (GPa) = 41.95473 51.36401 46.65937
#
# Velocity S-wave (km/s) = 3.98000 4.40375 4.19723
# Velocity P-wave (km/s) = 6.69824 7.18475 6.94576
#
# Compressibility (1/GPa) = 0.01590001
#
# Stress axis : x y z
#
# Youngs Moduli (GPa) = 163.84088 104.96829 142.27246
#
# Poissons Ratio (x) = 0.01865 0.22093
# Poissons Ratio (y) = 0.02912 0.23459
# Poissons Ratio (z) = 0.25443 0.17308
#
# Static dielectric constant tensor:
#      x y z
#    x 2.142270 -0.037440 -0.029050 
#    y -0.037440 2.063380 0.038510 
#    z -0.029050 0.038510 2.020470 
# 
# From -- ./inp_files/138326.got.cif
#   From: 2010.05.17/outbox.cif.g08.bks.cpg/sg2_70_cif.got.tgz:138326.got - 2010.06.03 11:33:40.
