data_PCOD9051782
_publ_section_title
;
Structure prediction by ZEFSAII (Michael W. Deem and Ramdas Pophale) SiO2 
 PCOD9051782
Probable space group: P -1
;
_chemical_formula_sum "Si O2"
_cell_formula_units_Z 12
_cell_length_a 5.177208
_cell_length_b 8.142128
_cell_length_c 14.362888
_cell_angle_alpha 50.412697
_cell_angle_beta 90.921777
_cell_angle_gamma 91.702438
_cell_volume 466.380429
_symmetry_space_group_name_H-M "P -1"
_symmetry_group_IT_number 2
_symmetry_cell_setting 'triclinic'
loop_
_space_group_symop_operation_xyz
x,y,z
-x,-y,-z
loop_
_atom_site_type_symbol
_atom_site_label
_atom_site_fract_x
_atom_site_fract_y
_atom_site_fract_z
Si Si1 0.945024 0.363722 0.285696
Si Si2 0.180822 0.376811 0.473824
Si Si3 0.839318 0.817610 0.824234
Si Si4 0.521184 0.788502 0.303819
Si Si5 0.806785 0.058044 0.060560
Si Si6 0.568645 0.447844 0.863607
O O1 0.670774 0.458509 0.226139
O O2 0.008580 0.297112 0.414974
O O3 0.008133 0.190069 0.269999
O O4 0.168025 0.540510 0.199535
O O5 0.395752 0.553497 0.379117
O O6 0.329175 0.209120 0.597962
O O7 0.000000 0.500000 0.500000
O O8 0.635869 0.621296 0.881705
O O9 0.698891 0.038183 0.756070
O O10 0.029204 0.791688 0.920878
O O11 0.708873 0.860400 0.194960
O O12 0.560560 0.201107 0.980844
O O13 0.000000 0.000000 0.000000
#
# Coordination Sequence:
#
# PCOD9051782 Si02
#       6
#     2   2   2   2   2   2
#     4  10  26  49  78 112 152 207 252 319 386 452
#     4  11  27  49  78 107 160 199 266 322 378 459
#     4  10  25  47  76 115 152 204 257 313 391 463
#     4  11  27  48  76 115 150 208 258 320 390 453
#     4  12  28  48  78 118 157 201 256 320 388 470
#     4  10  26  48  78 111 156 200 253 314 388 461
#
# _framework density 25.730069
#
# number of rings (size 3 to 8) (size 9 to 14) (size 15 to 20)
#    1.000    0.333    0.000    2.500   11.667    2.667 
#    0.000    5.000    0.000    0.000    0.000    0.000 
#    0.000    0.000    0.000    0.000    0.000    0.000 
#
# Total GULP energy -67208.114459 kJ/mol
# GULP energy per Si atom -5600.676205 kJ/mol
# Density = 2.567151 g / cm^3
# Si number density = 25.730069 Si / 1000 Ang^3
#
#
#
# Elastic Constant Matrix: (Units=GPa)
#
#
# Indices 1 2 3 4 5 6 
#
# 1 137.1812 30.3480 57.5298 6.5274 4.7386 -4.3291
# 2 30.3480 99.5247 46.2883 31.9447 -0.3169 -4.0904
# 3 57.5298 46.2883 142.7298 18.8278 8.2168 0.2737
# 4 6.5274 31.9447 18.8278 54.9806 5.5728 0.5719
# 5 4.7386 -0.3169 8.2168 5.5728 55.4616 -1.9030
# 6 -4.3291 -4.0904 0.2737 0.5719 -1.9030 43.7905
#
#
#
# Elastic Compliance Matrix: (Units=1/GPa)
#
#
# Indices 1 2 3 4 5 6 
#
# 1 0.008969 -0.001507 -0.003232 0.000947 -0.000366 0.000738
# 2 -0.001507 0.014375 -0.003186 -0.007244 0.001458 0.001372
# 3 -0.003232 -0.003186 0.009526 -0.000910 -0.001086 -0.000712
# 4 0.000947 -0.007244 -0.000910 0.022842 -0.002316 -0.000976
# 5 -0.000366 0.001458 -0.001086 -0.002316 0.018496 0.000941
# 6 0.000738 0.001372 -0.000712 -0.000976 0.000941 0.023095
#
#
# Mechanical properties :
#
#
# Convention : Reuss Voigt Hill
#
# Bulk Modulus (GPa) = 58.74687 71.97424 65.36056
# Shear Modulus (GPa) = 42.07876 47.19785 44.63831
#
# Velocity S-wave (km/s) = 4.04839 4.28757 4.16969
# Velocity P-wave (km/s) = 6.68836 7.24876 6.97419
#
# Compressibility (1/GPa) = 0.01702218
#
# Stress axis : x y z
#
# Youngs Moduli (GPa) = 111.49361 69.56508 104.97643
#
# Poissons Ratio (x) = 0.10480 0.33926
# Poissons Ratio (y) = 0.16797 0.33441
# Poissons Ratio (z) = 0.36033 0.22161
#
# Static dielectric constant tensor:
#      x y z
#    x 2.062810 0.039980 -0.029390 
#    y 0.039980 2.033730 0.029260 
#    z -0.029390 0.029260 2.071690 
# 
# From -- ./inp_files/26952.got.cif
#   From: 2010.05.17/outbox.cif.g08.bks.cpg/sg2_14_cif.got.tgz:26952.got - 2010.06.03 11:33:40.
