data_PCOD9051156
_publ_section_title
;
Structure prediction by ZEFSAII (Michael W. Deem and Ramdas Pophale) SiO2 
 PCOD9051156
Probable space group: P -1
;
_chemical_formula_sum "Si O2"
_cell_formula_units_Z 12
_cell_length_a 8.886839
_cell_length_b 5.647979
_cell_length_c 11.457593
_cell_angle_alpha 62.512730
_cell_angle_beta 77.934144
_cell_angle_gamma 70.323436
_cell_volume 479.387138
_symmetry_space_group_name_H-M "P -1"
_symmetry_group_IT_number 2
_symmetry_cell_setting 'triclinic'
loop_
_space_group_symop_operation_xyz
x,y,z
-x,-y,-z
loop_
_atom_site_type_symbol
_atom_site_label
_atom_site_fract_x
_atom_site_fract_y
_atom_site_fract_z
Si Si1 0.617005 0.198515 0.927183
Si Si2 0.548168 0.299752 0.299085
Si Si3 0.701334 0.668602 0.482095
Si Si4 0.805271 0.288444 0.098156
Si Si5 0.874019 0.817266 0.851151
Si Si6 0.989395 0.696784 0.603747
O O1 0.548549 0.525565 0.834406
O O2 0.724088 0.079618 0.824242
O O3 0.714763 0.174866 0.036754
O O4 0.500000 0.000000 0.000000
O O5 0.443121 0.410810 0.405945
O O6 0.717774 0.342636 0.224762
O O7 0.602294 0.965483 0.376288
O O8 0.830943 0.497023 0.407278
O O9 0.836152 0.669155 0.559471
O O10 0.980725 0.089987 0.135682
O O11 0.829018 0.578857 0.986184
O O12 0.933052 0.694986 0.745131
O O13 0.000000 0.000000 0.500000
#
# Coordination Sequence:
#
# PCOD9051156 Si02
#       6
#     2   2   2   2   2   2
#     4  12  25  44  74 107 144 190 236 303 364 423
#     4  11  23  46  70 103 146 184 239 297 362 421
#     4  10  25  45  71 104 141 191 235 304 354 426
#     4  11  25  45  69 106 147 188 240 298 361 432
#     4  11  25  45  74 106 141 194 242 294 365 430
#     4  11  23  46  73 101 140 188 244 291 362 434
#
# _framework density 25.031962
#
# number of rings (size 3 to 8) (size 9 to 14) (size 15 to 20)
#    0.000    1.000    1.667    4.000    2.333    6.667 
#    3.000    5.000    0.000    0.000    0.000    0.000 
#    0.000    0.000    0.000    0.000    0.000    0.000 
#
# Total GULP energy -66939.012595 kJ/mol
# GULP energy per Si atom -5578.251050 kJ/mol
# Density = 2.497499 g / cm^3
# Si number density = 25.031962 Si / 1000 Ang^3
#
#
#
# Elastic Constant Matrix: (Units=GPa)
#
#
# Indices 1 2 3 4 5 6 
#
# 1 109.1156 57.8189 57.8302 14.4022 -13.1772 -2.3369
# 2 57.8189 114.1615 56.8787 20.2396 -6.0734 -37.8113
# 3 57.8302 56.8787 165.1423 10.7735 -28.6221 -9.5531
# 4 14.4022 20.2396 10.7735 41.9274 -14.0061 4.2042
# 5 -13.1772 -6.0734 -28.6221 -14.0061 44.7571 14.2336
# 6 -2.3369 -37.8113 -9.5531 4.2042 14.2336 51.0469
#
#
#
# Elastic Compliance Matrix: (Units=1/GPa)
#
#
# Indices 1 2 3 4 5 6 
#
# 1 0.015653 -0.010408 -0.001576 0.003002 0.006062 -0.009225
# 2 -0.010408 0.026803 -0.005907 -0.015471 -0.015650 0.023909
# 3 -0.001576 -0.005907 0.009406 0.004050 0.007657 -0.005156
# 4 0.003002 -0.015471 0.004050 0.037557 0.019171 -0.019003
# 5 0.006062 -0.015650 0.007657 0.019171 0.040100 -0.022642
# 6 -0.009225 0.023909 -0.005156 -0.019003 -0.022642 0.043791
#
#
# Mechanical properties :
#
#
# Convention : Reuss Voigt Hill
#
# Bulk Modulus (GPa) = 62.18341 81.49724 71.84033
# Shear Modulus (GPa) = 23.31544 41.93907 32.62725
#
# Velocity S-wave (km/s) = 3.05524 4.09763 3.61421
# Velocity P-wave (km/s) = 6.11077 7.41724 6.79547
#
# Compressibility (1/GPa) = 0.01608146
#
# Stress axis : x y z
#
# Youngs Moduli (GPa) = 63.88638 37.30949 106.31320
#
# Poissons Ratio (x) = 0.38831 0.16751
# Poissons Ratio (y) = 0.66491 0.62797
# Poissons Ratio (z) = 0.10066 0.22038
#
# Static dielectric constant tensor:
#      x y z
#    x 2.064140 -0.041250 -0.024810 
#    y -0.041250 2.017260 0.043900 
#    z -0.024810 0.043900 1.879740 
# 
# From -- ./inp_files/229958.got.cif
#   From: 2010.05.17/outbox.cif.g08.bks.cpg/sg2_115_cif.got.tgz:229958.got - 2010.06.03 11:33:40.
