data_PCOD9051002
_publ_section_title
;
Structure prediction by ZEFSAII (Michael W. Deem and Ramdas Pophale) SiO2 
 PCOD9051002
Probable space group: P -1
;
_chemical_formula_sum "Si O2"
_cell_formula_units_Z 14
_cell_length_a 5.487888
_cell_length_b 12.198590
_cell_length_c 8.760376
_cell_angle_alpha 104.947406
_cell_angle_beta 100.005066
_cell_angle_gamma 95.090078
_cell_volume 552.475416
_symmetry_space_group_name_H-M "P -1"
_symmetry_group_IT_number 2
_symmetry_cell_setting 'triclinic'
loop_
_space_group_symop_operation_xyz
x,y,z
-x,-y,-z
loop_
_atom_site_type_symbol
_atom_site_label
_atom_site_fract_x
_atom_site_fract_y
_atom_site_fract_z
Si Si1 0.847980 0.993653 0.137387
Si Si2 0.210201 0.593847 0.981400
Si Si3 0.575390 0.126666 0.617765
Si Si4 0.841864 0.596995 0.580615
Si Si5 0.461572 0.533265 0.258669
Si Si6 0.038401 0.167710 0.467727
Si Si7 0.610804 0.158530 0.978014
O O1 0.977185 0.048154 0.323828
O O2 0.692595 0.866175 0.078132
O O3 0.661503 0.086344 0.106834
O O4 0.000000 0.000000 0.000000
O O5 0.368343 0.623080 0.165971
O O6 0.224992 0.717887 0.952638
O O7 0.353764 0.527175 0.848691
O O8 0.000000 0.500000 0.000000
O O9 0.311123 0.175051 0.578569
O O10 0.664490 0.116076 0.798276
O O11 0.814757 0.180721 0.564998
O O12 0.500000 0.000000 0.500000
O O13 0.599799 0.586225 0.441136
O O14 0.756729 0.560738 0.729273
O O15 0.959759 0.726507 0.611776
O O16 0.000000 0.500000 0.500000
#
# Coordination Sequence:
#
# PCOD9051002 Si02
#       7
#     2   2   2   2   2   2   2
#     4  11  27  47  70 108 142 199 239 311 372 446
#     4  11  25  44  70 102 140 190 240 299 368 440
#     4  12  26  51  74 112 144 197 245 312 365 450
#     4  11  26  45  71 103 145 191 244 306 364 445
#     4  10  25  45  66 102 141 186 244 297 367 429
#     4  12  29  46  81 106 151 195 253 301 382 440
#     4  11  27  45  72 101 151 187 249 303 372 446
#
# _framework density 25.340492999999999
#
# number of rings (size 3 to 8) (size 9 to 14) (size 15 to 20)
#    0.000    0.857    1.429    3.000   18.000    1.143 
#    0.000    0.000    0.000    0.000    0.000    0.000 
#    0.000    0.000    0.000    0.000    0.000    0.000 
#
# Total GULP energy -78141.825564 kJ/mol
# GULP energy per Si atom -5581.558969 kJ/mol
# Density = 2.528282 g / cm^3
# Si number density = 25.340493 Si / 1000 Ang^3
#
#
#
# Elastic Constant Matrix: (Units=GPa)
#
#
# Indices 1 2 3 4 5 6 
#
# 1 121.9137 31.5216 26.6105 -5.3696 -22.6761 32.8362
# 2 31.5216 107.7325 2.5450 -11.0234 5.2388 29.9956
# 3 26.6105 2.5450 106.5311 -24.3627 6.7845 16.3380
# 4 -5.3696 -11.0234 -24.3627 47.2598 8.3285 3.1326
# 5 -22.6761 5.2388 6.7845 8.3285 55.0737 -13.3593
# 6 32.8362 29.9956 16.3380 3.1326 -13.3593 43.6718
#
#
#
# Elastic Compliance Matrix: (Units=1/GPa)
#
#
# Indices 1 2 3 4 5 6 
#
# 1 0.011343 -0.002274 -0.002566 -0.001002 0.004228 -0.004642
# 2 -0.002274 0.014394 0.004250 0.007338 -0.006951 -0.012419
# 3 -0.002566 0.004250 0.013958 0.009695 -0.006828 -0.008996
# 4 -0.001002 0.007338 0.009695 0.030409 -0.010102 -0.013185
# 5 0.004228 -0.006951 -0.006828 -0.010102 0.026043 0.012841
# 6 -0.004642 -0.012419 -0.008996 -0.013185 0.012841 0.043157
#
#
# Mechanical properties :
#
#
# Convention : Reuss Voigt Hill
#
# Bulk Modulus (GPa) = 25.96404 50.83684 38.40044
# Shear Modulus (GPa) = 32.61095 47.56772 40.08934
#
# Velocity S-wave (km/s) = 3.59125 4.33730 3.98178
# Velocity P-wave (km/s) = 5.24065 6.72220 6.02712
#
# Compressibility (1/GPa) = 0.03851480
#
# Stress axis : x y z
#
# Youngs Moduli (GPa) = 88.16003 69.47398 71.64446
#
# Poissons Ratio (x) = 0.15798 0.18381
# Poissons Ratio (y) = 0.20048 -0.30446
# Poissons Ratio (z) = 0.22618 -0.29524
#
# Static dielectric constant tensor:
#      x y z
#    x 2.288290 -0.029120 0.115460 
#    y -0.029120 2.058350 0.002470 
#    z 0.115460 0.002470 2.002300 
# 
# From -- ./inp_files/107286.got.cif
#   From: 2010.05.17/outbox.cif.g08.bks.cpg/sg2_54_cif.got.tgz:107286.got - 2010.06.03 11:33:40.
