data_PCOD9051929
_publ_section_title
;
Structure prediction by ZEFSAII (Michael W. Deem and Ramdas Pophale) SiO2 
 PCOD9051929
Probable space group: P -1
;
_chemical_formula_sum "Si O2"
_cell_formula_units_Z 10
_cell_length_a 15.652817
_cell_length_b 5.123903
_cell_length_c 15.022572
_cell_angle_alpha 78.293694
_cell_angle_beta 161.226960
_cell_angle_gamma 101.673040
_cell_volume 379.484377
_symmetry_space_group_name_H-M "P -1"
_symmetry_group_IT_number 2
_symmetry_cell_setting 'triclinic'
loop_
_space_group_symop_operation_xyz
x,y,z
-x,-y,-z
loop_
_atom_site_type_symbol
_atom_site_label
_atom_site_fract_x
_atom_site_fract_y
_atom_site_fract_z
Si Si1 0.519952 0.960824 0.686805
Si Si2 0.814524 0.742097 0.324575
Si Si3 0.465614 0.388478 0.117616
Si Si4 0.142233 0.518201 0.948663
Si Si5 0.241754 0.380553 0.300781
O O1 0.405022 0.816458 0.671871
O O2 0.700072 0.216477 0.879097
O O3 0.305280 0.070466 0.399273
O O4 0.155866 0.461977 0.311355
O O5 0.645090 0.642047 0.248884
O O6 0.000000 0.500000 0.500000
O O7 0.618235 0.760188 0.045301
O O8 0.000000 0.000000 0.500000
O O9 0.208940 0.486211 0.912580
O O10 0.281266 0.253723 0.141476
O O11 0.500000 0.500000 0.500000
O O12 0.000000 0.500000 0.000000
#
# Coordination Sequence:
#
# PCOD9051929 Si02
#       5
#     2   2   2   2   2
#     4  10  25  48  77 112 155 217 266 323 410 476
#     4  11  26  43  78 117 155 210 263 334 401 479
#     4   9  26  50  74 110 170 202 274 328 402 485
#     4  10  25  48  77 112 155 217 266 323 410 476
#     4  12  26  52  80 119 160 209 270 340 404 480
#
# _framework density 26.351547
#
# number of rings (size 3 to 8) (size 9 to 14) (size 15 to 20)
#    1.200    0.400    2.000    0.000    5.600    8.000 
#    0.000    0.000    0.000    0.000    0.000    0.000 
#    0.000    0.000    0.000    0.000    0.000    0.000 
#
# Total GULP energy -55965.226425 kJ/mol
# GULP energy per Si atom -5596.522643 kJ/mol
# Density = 2.629157 g / cm^3
# Si number density = 26.351547 Si / 1000 Ang^3
#
#
#
# Elastic Constant Matrix: (Units=GPa)
#
#
# Indices 1 2 3 4 5 6 
#
# 1 189.0362 70.3606 46.3940 -2.2190 43.3408 28.6201
# 2 70.3606 195.6862 68.9035 15.5576 14.2254 8.9751
# 3 46.3940 68.9035 112.8574 10.0438 18.2405 24.1225
# 4 -2.2190 15.5576 10.0438 48.4681 -4.6920 3.4623
# 5 43.3408 14.2254 18.2405 -4.6920 49.5398 -5.6631
# 6 28.6201 8.9751 24.1225 3.4623 -5.6631 54.4748
#
#
#
# Elastic Compliance Matrix: (Units=1/GPa)
#
#
# Indices 1 2 3 4 5 6 
#
# 1 0.008631 -0.002449 0.000144 0.000793 -0.007399 -0.005015
# 2 -0.002449 0.007327 -0.004041 -0.001623 0.001618 0.002141
# 3 0.000144 -0.004041 0.013387 -0.001515 -0.004693 -0.005730
# 4 0.000793 -0.001623 -0.001515 0.021772 0.002321 -0.000621
# 5 -0.007399 0.001618 -0.004693 0.002321 0.029123 0.008579
# 6 -0.005015 0.002141 -0.005730 -0.000621 0.008579 0.024108
#
#
# Mechanical properties :
#
#
# Convention : Reuss Voigt Hill
#
# Bulk Modulus (GPa) = 60.05021 96.54401 78.29711
# Shear Modulus (GPa) = 40.78594 51.29133 46.03864
#
# Velocity S-wave (km/s) = 3.93843 4.41662 4.18436
# Velocity P-wave (km/s) = 6.59691 7.91992 7.28850
#
# Compressibility (1/GPa) = 0.01665273
#
# Stress axis : x y z
#
# Youngs Moduli (GPa) = 115.85879 136.47935 74.70105
#
# Poissons Ratio (x) = 0.33430 -0.01079
# Poissons Ratio (y) = 0.28379 0.30187
# Poissons Ratio (z) = -0.01674 0.55153
#
# Static dielectric constant tensor:
#      x y z
#    x 2.040540 0.034310 -0.072620 
#    y 0.034310 2.022670 -0.003050 
#    z -0.072620 -0.003050 2.144160 
# 
# From -- ./inp_files/2796.got.cif
#   From: 2010.05.17/outbox.cif.g08.bks.cpg/sg2_2_cif.got.tgz:2796.got - 2010.06.03 11:33:40.
