data_PCOD9051858
_publ_section_title
;
Structure prediction by ZEFSAII (Michael W. Deem and Ramdas Pophale) SiO2 
 PCOD9051858
Probable space group: P -1
;
_chemical_formula_sum "Si O2"
_cell_formula_units_Z 14
_cell_length_a 8.762316
_cell_length_b 11.136528
_cell_length_c 19.831106
_cell_angle_alpha 30.716744
_cell_angle_beta 43.890152
_cell_angle_gamma 65.104194
_cell_volume 567.378129
_symmetry_space_group_name_H-M "P -1"
_symmetry_group_IT_number 2
_symmetry_cell_setting 'triclinic'
loop_
_space_group_symop_operation_xyz
x,y,z
-x,-y,-z
loop_
_atom_site_type_symbol
_atom_site_label
_atom_site_fract_x
_atom_site_fract_y
_atom_site_fract_z
Si Si1 0.825338 0.680878 0.418966
Si Si2 0.209455 0.825993 0.856414
Si Si3 0.977115 0.814552 0.453626
Si Si4 0.235513 0.952287 0.437941
Si Si5 0.709762 0.937124 0.134609
Si Si6 0.206710 0.774876 0.674369
Si Si7 0.725651 0.248282 0.852850
O O1 0.802263 0.949736 0.293705
O O2 0.977269 0.727532 0.418986
O O3 0.535428 0.385217 0.649417
O O4 0.004239 0.697121 0.292104
O O5 0.454324 0.801735 0.770705
O O6 0.282034 0.978353 0.832117
O O7 0.061428 0.478227 0.902068
O O8 0.951120 0.076898 0.335786
O O9 0.726602 0.527469 0.705012
O O10 0.197941 0.871704 0.409902
O O11 0.197356 0.738587 0.613109
O O12 0.000000 0.000000 0.500000
O O13 0.688975 0.146199 0.989881
O O14 0.000000 0.000000 0.000000
O O15 0.500000 0.000000 0.500000
O O16 0.500000 0.000000 0.000000
#
# Coordination Sequence:
#
# PCOD9051858 Si02
#       7
#     2   2   2   2   2   2   2
#     4  12  27  46  73 115 149 194 249 300 372 449
#     4  12  27  46  78 108 149 195 250 305 370 442
#     4  11  25  46  72 103 152 187 247 302 364 441
#     4  10  25  48  72 105 145 191 245 303 366 429
#     4  12  27  47  77 111 151 195 246 305 377 439
#     4  11  27  49  76 106 147 197 250 305 369 440
#     4  12  26  45  72 110 150 194 242 304 374 432
#
# _framework density 24.674900000000001
#
# number of rings (size 3 to 8) (size 9 to 14) (size 15 to 20)
#    0.000    0.571    2.857    3.429   10.000    4.571 
#    2.571    0.000    0.000    0.000    0.000    0.000 
#    0.000    0.000    0.000    0.000    0.000    0.000 
#
# Total GULP energy -78273.165820 kJ/mol
# GULP energy per Si atom -5590.940416 kJ/mol
# Density = 2.461874 g / cm^3
# Si number density = 24.674900 Si / 1000 Ang^3
#
#
#
# Elastic Constant Matrix: (Units=GPa)
#
#
# Indices 1 2 3 4 5 6 
#
# 1 99.5183 45.6879 53.6563 6.9947 7.3545 26.6440
# 2 45.6879 68.1374 26.4423 -8.4505 -2.2549 2.2643
# 3 53.6563 26.4423 143.0335 -20.3607 -12.3717 -0.8093
# 4 6.9947 -8.4505 -20.3607 41.5419 -0.0688 -0.1055
# 5 7.3545 -2.2549 -12.3717 -0.0688 60.1791 9.0812
# 6 26.6440 2.2643 -0.8093 -0.1055 9.0812 45.6847
#
#
#
# Elastic Compliance Matrix: (Units=1/GPa)
#
#
# Indices 1 2 3 4 5 6 
#
# 1 0.027826 -0.016111 -0.009685 -0.012753 -0.003764 -0.014883
# 2 -0.016111 0.025316 0.002940 0.009327 0.002364 0.007745
# 3 -0.009685 0.002940 0.011481 0.007874 0.002886 0.005151
# 4 -0.012753 0.009327 0.007874 0.031997 0.002555 0.006681
# 5 -0.003764 0.002364 0.002886 0.002555 0.017979 -0.001439
# 6 -0.014883 0.007745 0.005151 0.006681 -0.001439 0.030578
#
#
# Mechanical properties :
#
#
# Convention : Reuss Voigt Hill
#
# Bulk Modulus (GPa) = 52.88443 62.47359 57.67901
# Shear Modulus (GPa) = 25.35601 41.80800 33.58201
#
# Velocity S-wave (km/s) = 3.20910 4.12072 3.69315
# Velocity P-wave (km/s) = 5.93381 6.92922 6.45074
#
# Compressibility (1/GPa) = 0.01890916
#
# Stress axis : x y z
#
# Youngs Moduli (GPa) = 35.93798 39.50090 87.10311
#
# Poissons Ratio (x) = 0.63640 0.84360
# Poissons Ratio (y) = 0.57900 -0.25605
# Poissons Ratio (z) = 0.34806 -0.11612
#
# Static dielectric constant tensor:
#      x y z
#    x 1.993460 0.001650 0.007920 
#    y 0.001650 2.025470 0.019580 
#    z 0.007920 0.019580 1.984450 
# 
# From -- ./inp_files/260955.got.cif
#   From: 2010.05.17/outbox.cif.g08.bks.cpg/sg2_131_cif.got.tgz:260955.got - 2010.06.03 11:33:40.
