data_PCOD9051891
_publ_section_title
;
Structure prediction by ZEFSAII (Michael W. Deem and Ramdas Pophale) SiO2 
 PCOD9051891
Probable space group: P -1
;
_chemical_formula_sum "Si O2"
_cell_formula_units_Z 12
_cell_length_a 10.869267
_cell_length_b 8.366185
_cell_length_c 10.053118
_cell_angle_alpha 124.814700
_cell_angle_beta 66.093451
_cell_angle_gamma 70.503544
_cell_volume 451.566142
_symmetry_space_group_name_H-M "P -1"
_symmetry_group_IT_number 2
_symmetry_cell_setting 'triclinic'
loop_
_space_group_symop_operation_xyz
x,y,z
-x,-y,-z
loop_
_atom_site_type_symbol
_atom_site_label
_atom_site_fract_x
_atom_site_fract_y
_atom_site_fract_z
Si Si1 0.809733 0.855814 0.271161
Si Si2 0.533953 0.694168 0.567421
Si Si3 0.919525 0.103600 0.795327
Si Si4 0.369888 0.911671 0.027013
Si Si5 0.792996 0.480389 0.788702
Si Si6 0.851568 0.649027 0.430744
O O1 0.764436 0.884830 0.463103
O O2 0.909472 0.954541 0.236090
O O3 0.605172 0.063825 0.373885
O O4 0.000000 0.500000 0.000000
O O5 0.500000 0.500000 0.500000
O O6 0.455216 0.865522 0.823148
O O7 0.763875 0.531399 0.379244
O O8 0.798326 0.386185 0.888868
O O9 0.756168 0.150888 0.963791
O O10 0.047267 0.819774 0.510501
O O11 0.574667 0.678315 0.915252
O O12 0.227461 0.204667 0.319455
O O13 0.908093 0.564619 0.781056
#
# Coordination Sequence:
#
# PCOD9051891 Si02
#       6
#     2   2   2   2   2   2
#     4  11  26  49  74 102 147 198 243 286 362 439
#     4  12  28  47  71 112 150 185 237 305 369 419
#     4   9  20  39  66 106 136 186 238 293 343 435
#     4  11  23  43  75 104 145 183 237 303 364 415
#     4   9  19  40  70 105 137 182 245 291 352 420
#     4  10  25  48  74 103 142 196 246 289 349 447
#
# _framework density 26.574179000000001
#
# number of rings (size 3 to 8) (size 9 to 14) (size 15 to 20)
#    0.000    1.667    0.000    3.500    7.000    2.667 
#    6.000    0.000    0.000    0.000    0.000    0.000 
#    0.000    0.000    0.000    0.000    0.000    0.000 
#
# Total GULP energy -67148.183731 kJ/mol
# GULP energy per Si atom -5595.681978 kJ/mol
# Density = 2.651370 g / cm^3
# Si number density = 26.574179 Si / 1000 Ang^3
#
#
#
# Elastic Constant Matrix: (Units=GPa)
#
#
# Indices 1 2 3 4 5 6 
#
# 1 141.6717 10.5759 3.8828 0.9031 -21.9673 45.7130
# 2 10.5759 68.6087 11.2508 -9.5382 0.8323 0.4049
# 3 3.8828 11.2508 46.3328 -2.6223 -3.2550 5.7351
# 4 0.9031 -9.5382 -2.6223 41.7564 -1.4201 -7.6980
# 5 -21.9673 0.8323 -3.2550 -1.4201 35.2182 -16.3376
# 6 45.7130 0.4049 5.7351 -7.6980 -16.3376 63.9994
#
#
#
# Elastic Compliance Matrix: (Units=1/GPa)
#
#
# Indices 1 2 3 4 5 6 
#
# 1 0.009740 -0.001822 0.000544 -0.001665 0.003135 -0.006394
# 2 -0.001822 0.016002 -0.003802 0.003750 -0.000897 0.001763
# 3 0.000544 -0.003802 0.022833 0.000248 0.001639 -0.001962
# 4 -0.001665 0.003750 0.000248 0.025815 0.002164 0.004801
# 5 0.003135 -0.000897 0.001639 0.002164 0.033606 0.006459
# 6 -0.006394 0.001763 -0.001962 0.004801 0.006459 0.022583
#
#
# Mechanical properties :
#
#
# Convention : Reuss Voigt Hill
#
# Bulk Modulus (GPa) = 26.03284 34.22579 30.12931
# Shear Modulus (GPa) = 32.56413 43.58836 38.07625
#
# Velocity S-wave (km/s) = 3.50438 4.05440 3.78938
# Velocity P-wave (km/s) = 5.11779 5.90126 5.52343
#
# Compressibility (1/GPa) = 0.03841302
#
# Stress axis : x y z
#
# Youngs Moduli (GPa) = 102.67453 62.49362 43.79688
#
# Poissons Ratio (x) = 0.11388 -0.02381
# Poissons Ratio (y) = 0.18710 0.16651
# Poissons Ratio (z) = -0.05583 0.23760
#
# Static dielectric constant tensor:
#      x y z
#    x 2.108180 0.051390 0.050040 
#    y 0.051390 2.110960 0.021390 
#    z 0.050040 0.021390 2.026030 
# 
# From -- ./inp_files/413378.got.cif
#   From: 2010.05.17/outbox.cif.g08.bks.cpg/sg2_207_cif.got.tgz:413378.got - 2010.06.03 11:33:40.
