data_PCOD9051451
_publ_section_title
;
Structure prediction by ZEFSAII (Michael W. Deem and Ramdas Pophale) SiO2 
 PCOD9051451
Probable space group: P -1
;
_chemical_formula_sum "Si O2"
_cell_formula_units_Z 13
_cell_length_a 7.632274
_cell_length_b 9.821559
_cell_length_c 9.298696
_cell_angle_alpha 91.446230
_cell_angle_beta 131.741179
_cell_angle_gamma 83.205886
_cell_volume 515.100167
_symmetry_space_group_name_H-M "P -1"
_symmetry_group_IT_number 2
_symmetry_cell_setting 'triclinic'
loop_
_space_group_symop_operation_xyz
x,y,z
-x,-y,-z
loop_
_atom_site_type_symbol
_atom_site_label
_atom_site_fract_x
_atom_site_fract_y
_atom_site_fract_z
Si Si1 0.442365 0.832606 0.249663
Si Si2 0.410557 0.921895 0.811123
Si Si3 0.280661 0.456727 0.647607
Si Si4 0.328275 0.377450 0.075435
Si Si5 0.974731 0.161010 0.206828
Si Si6 0.500000 0.000000 0.500000
Si Si7 0.118532 0.460504 0.270896
O O1 0.614352 0.703232 0.279504
O O2 0.425832 0.840470 0.411213
O O3 0.565675 0.976026 0.308058
O O4 0.205920 0.845705 0.026683
O O5 0.586323 0.783427 0.879222
O O6 0.158105 0.885107 0.723919
O O7 0.500000 0.000000 0.000000
O O8 0.440882 0.549251 0.823978
O O9 0.307373 0.484215 0.493451
O O10 0.000000 0.500000 0.500000
O O11 0.227063 0.438431 0.172428
O O12 0.107582 0.420456 0.851003
O O13 0.018838 0.317850 0.247921
O O14 0.221819 0.068353 0.315278
#
# Coordination Sequence:
#
# PCOD9051451 Si02
#       7
#     2   2   2   2   2   1   2
#     4  11  25  47  69 105 142 184 232 287 356 413
#     4  10  25  46  71 105 138 189 230 288 353 415
#     4  12  26  45  74 106 140 185 236 288 345 426
#     4  11  25  47  74 100 144 181 238 293 346 418
#     4  11  23  46  70 101 140 185 234 285 351 414
#     4  12  24  42  70 100 142 182 226 292 346 422
#     4  11  24  46  74 105 136 187 234 290 353 411
#
# _framework density 25.237807
#
# number of rings (size 3 to 8) (size 9 to 14) (size 15 to 20)
#    0.000    0.923    3.077    2.769    4.308    3.077 
#    2.769    0.000    0.000    0.000    0.000    0.000 
#    0.000    0.000    0.000    0.000    0.000    0.000 
#
# Total GULP energy -72555.799551 kJ/mol
# GULP energy per Si atom -5581.215350 kJ/mol
# Density = 2.518037 g / cm^3
# Si number density = 25.237807 Si / 1000 Ang^3
#
#
#
# Elastic Constant Matrix: (Units=GPa)
#
#
# Indices 1 2 3 4 5 6 
#
# 1 79.1625 -7.7166 35.1636 -26.0878 33.1053 -6.9097
# 2 -7.7166 116.4224 59.3554 -34.9042 30.6422 -24.4586
# 3 35.1636 59.3554 179.7613 -13.4353 19.5817 -8.7952
# 4 -26.0878 -34.9042 -13.4353 43.5609 -16.5397 7.9789
# 5 33.1053 30.6422 19.5817 -16.5397 37.3026 -5.1893
# 6 -6.9097 -24.4586 -8.7952 7.9789 -5.1893 43.2391
#
#
#
# Elastic Compliance Matrix: (Units=1/GPa)
#
#
# Indices 1 2 3 4 5 6 
#
# 1 0.084790 0.061129 -0.022106 0.056173 -0.085757 0.022974
# 2 0.061129 0.059905 -0.019545 0.048409 -0.068604 0.022513
# 3 -0.022106 -0.019545 0.012532 -0.015787 0.021180 -0.006584
# 4 0.056173 0.048409 -0.015787 0.069434 -0.048526 0.014512
# 5 -0.085757 -0.068604 0.021180 -0.048526 0.123233 -0.024458
# 6 0.022974 0.022513 -0.006584 0.014512 -0.024458 0.032580
#
#
# Mechanical properties :
#
#
# Convention : Reuss Voigt Hill
#
# Bulk Modulus (GPa) = 5.09729 60.99455 33.04592
# Shear Modulus (GPa) = 12.22752 44.05678 28.14215
#
# Velocity S-wave (km/s) = 2.20351 4.18265 3.34290
# Velocity P-wave (km/s) = 2.91513 6.89539 5.29360
#
# Compressibility (1/GPa) = 0.19618256
#
# Stress axis : x y z
#
# Youngs Moduli (GPa) = 11.79379 16.69308 79.79880
#
# Poissons Ratio (x) = -1.02043 1.76405
# Poissons Ratio (y) = -0.72094 1.55967
# Poissons Ratio (z) = 0.26072 0.32627
#
# Static dielectric constant tensor:
#      x y z
#    x 1.527840 0.140030 0.235150 
#    y 0.140030 1.959970 -0.041390 
#    z 0.235150 -0.041390 1.773410 
# 
# From -- ./inp_files/231168.got.cif
#   From: 2010.05.17/outbox.cif.g08.bks.cpg/sg2_116_cif.got.tgz:231168.got - 2010.06.03 11:33:40.
