data_PCOD9051524
_publ_section_title
;
Structure prediction by ZEFSAII (Michael W. Deem and Ramdas Pophale) SiO2 
 PCOD9051524
Probable space group: P -1
;
_chemical_formula_sum "Si O2"
_cell_formula_units_Z 16
_cell_length_a 11.382470
_cell_length_b 14.266379
_cell_length_c 8.951087
_cell_angle_alpha 86.867570
_cell_angle_beta 99.398708
_cell_angle_gamma 30.068686
_cell_volume 659.623094
_symmetry_space_group_name_H-M "P -1"
_symmetry_group_IT_number 2
_symmetry_cell_setting 'triclinic'
loop_
_space_group_symop_operation_xyz
x,y,z
-x,-y,-z
loop_
_atom_site_type_symbol
_atom_site_label
_atom_site_fract_x
_atom_site_fract_y
_atom_site_fract_z
Si Si1 0.310962 0.759266 0.763768
Si Si2 0.340076 0.184138 0.160433
Si Si3 0.515246 0.127549 0.725049
Si Si4 0.064908 0.192880 0.686376
Si Si5 0.190676 0.992488 0.462733
Si Si6 0.016150 0.428737 0.766630
Si Si7 0.288699 0.838474 0.075094
Si Si8 0.626965 0.387885 0.695557
O O1 0.512584 0.539227 0.778030
O O2 0.028122 0.907545 0.688256
O O3 0.292570 0.848866 0.620835
O O4 0.392138 0.743906 0.940157
O O5 0.200394 0.348730 0.237322
O O6 0.373690 0.054997 0.236595
O O7 0.630968 0.013554 0.202438
O O8 0.182081 0.293352 0.963991
O O9 0.218017 0.331517 0.698053
O O10 0.667771 0.085504 0.877903
O O11 0.583795 0.125531 0.581913
O O12 0.051845 0.172864 0.511278
O O13 0.940897 0.379247 0.689754
O O14 0.924238 0.207792 0.744262
O O15 0.419061 0.683041 0.244893
O O16 0.000000 0.000000 0.000000
O O17 0.500000 0.500000 0.500000
#
# Coordination Sequence:
#
# PCOD9051524 Si02
#       8
#     2   2   2   2   2   2   2   2
#     4  11  25  44  68 112 149 201 247 294 372 449
#     4  10  25  47  74 106 145 191 251 315 371 438
#     4  11  24  46  72 105 148 191 241 311 371 438
#     4  11  24  44  75 102 146 198 237 303 377 436
#     4  11  24  44  72 104 158 193 240 310 370 440
#     4  10  25  46  73 110 141 191 256 312 368 438
#     4  12  26  44  76 109 146 200 247 303 375 444
#     4  12  26  46  74 113 154 194 248 304 372 450
#
# _framework density 24.256276
#
# number of rings (size 3 to 8) (size 9 to 14) (size 15 to 20)
#    0.000    1.000    2.500    3.375    8.750    4.000 
#    2.250    1.250    0.000    0.000    0.000    0.000 
#    0.000    0.000    0.000    0.000    0.000    0.000 
#
# Total GULP energy -89666.310286 kJ/mol
# GULP energy per Si atom -5604.144393 kJ/mol
# Density = 2.420107 g / cm^3
# Si number density = 24.256276 Si / 1000 Ang^3
#
#
#
# Elastic Constant Matrix: (Units=GPa)
#
#
# Indices 1 2 3 4 5 6 
#
# 1 127.8489 46.2641 39.4849 8.2479 -11.0830 11.1546
# 2 46.2641 147.8191 27.4151 20.8270 -13.3154 20.8271
# 3 39.4849 27.4151 99.8134 13.0954 -4.3534 4.5706
# 4 8.2479 20.8270 13.0954 38.7259 -1.7957 4.2751
# 5 -11.0830 -13.3154 -4.3534 -1.7957 40.4998 17.7752
# 6 11.1546 20.8271 4.5706 4.2751 17.7752 38.8160
#
#
#
# Elastic Compliance Matrix: (Units=1/GPa)
#
#
# Indices 1 2 3 4 5 6 
#
# 1 0.009999 -0.001907 -0.003223 0.000451 0.003066 -0.002925
# 2 -0.001907 0.009348 -0.000856 -0.003398 0.005083 -0.006320
# 3 -0.003223 -0.000856 0.011886 -0.002925 -0.000189 0.000395
# 4 0.000451 -0.003398 -0.002925 0.028723 0.000575 -0.001388
# 5 0.003066 0.005083 -0.000189 0.000575 0.036055 -0.020160
# 6 -0.002925 -0.006320 0.000395 -0.001388 -0.020160 0.039333
#
#
# Mechanical properties :
#
#
# Convention : Reuss Voigt Hill
#
# Bulk Modulus (GPa) = 51.91980 66.86771 59.39376
# Shear Modulus (GPa) = 32.52306 41.09617 36.80962
#
# Velocity S-wave (km/s) = 3.66568 4.12059 3.89977
# Velocity P-wave (km/s) = 6.27435 7.08986 6.69453
#
# Compressibility (1/GPa) = 0.01926047
#
# Stress axis : x y z
#
# Youngs Moduli (GPa) = 100.00819 106.97765 84.12998
#
# Poissons Ratio (x) = 0.20400 0.27117
# Poissons Ratio (y) = 0.19071 0.07203
# Poissons Ratio (z) = 0.32235 0.09159
#
# Static dielectric constant tensor:
#      x y z
#    x 1.914920 -0.005350 0.016380 
#    y -0.005350 1.957670 -0.032690 
#    z 0.016380 -0.032690 1.976580 
# 
# From -- ./inp_files/272893.got.cif
#   From: 2010.05.17/outbox.cif.g08.bks.cpg/sg2_137_cif.got.tgz:272893.got - 2010.06.03 11:33:40.
