data_PCOD9051202
_publ_section_title
;
Structure prediction by ZEFSAII (Michael W. Deem and Ramdas Pophale) SiO2 
 PCOD9051202
Probable space group: P -1
;
_chemical_formula_sum "Si O2"
_cell_formula_units_Z 14
_cell_length_a 15.394281
_cell_length_b 27.275070
_cell_length_c 14.428689
_cell_angle_alpha 19.493513
_cell_angle_beta 26.596437
_cell_angle_gamma 17.878822
_cell_volume 620.398599
_symmetry_space_group_name_H-M "P -1"
_symmetry_group_IT_number 2
_symmetry_cell_setting 'triclinic'
loop_
_space_group_symop_operation_xyz
x,y,z
-x,-y,-z
loop_
_atom_site_type_symbol
_atom_site_label
_atom_site_fract_x
_atom_site_fract_y
_atom_site_fract_z
Si Si1 0.016442 0.656781 0.163513
Si Si2 0.813610 0.080441 0.168907
Si Si3 0.788652 0.894373 0.774976
Si Si4 0.868100 0.019825 0.772154
Si Si5 0.675444 0.698241 0.615551
Si Si6 0.798333 0.587479 0.260478
Si Si7 0.781601 0.340336 0.577291
O O1 0.290192 0.478403 0.153482
O O2 0.000000 0.500000 0.500000
O O3 0.794833 0.824718 0.995573
O O4 0.000735 0.799169 0.995135
O O5 0.532637 0.197724 0.284568
O O6 0.032691 0.018996 0.146884
O O7 0.752814 0.236327 0.872207
O O8 0.956892 0.861430 0.373760
O O9 0.480955 0.111335 0.647430
O O10 0.884804 0.709564 0.945264
O O11 0.989832 0.922909 0.520637
O O12 0.528020 0.224776 0.729086
O O13 0.977426 0.585393 0.566984
O O14 0.824177 0.471443 0.353867
O O15 0.500000 0.500000 0.500000
#
# Coordination Sequence:
#
# PCOD9051202 Si02
#       7
#     2   2   2   2   2   2   2
#     4  11  25  44  73 108 146 193 240 288 355 420
#     4  10  25  45  72 103 141 182 247 288 357 429
#     4  10  25  46  67 109 143 187 243 289 348 427
#     4  11  24  48  73 102 150 192 240 293 347 429
#     4  10  25  46  67 106 144 185 236 293 350 421
#     4  11  25  41  76 101 142 188 237 293 355 419
#     4  11  24  45  74 106 136 188 236 296 363 422
#
# _framework density 22.566136
#
# number of rings (size 3 to 8) (size 9 to 14) (size 15 to 20)
#    0.000    1.429    1.429    1.286   10.000    8.000 
#    0.000    5.000    0.000    0.000    0.000    1.000 
#    0.000    0.000    0.000    0.000    0.000    0.000 
#
# Total GULP energy -78205.904474 kJ/mol
# GULP energy per Si atom -5586.136034 kJ/mol
# Density = 2.251477 g / cm^3
# Si number density = 22.566136 Si / 1000 Ang^3
#
#
#
# Elastic Constant Matrix: (Units=GPa)
#
#
# Indices 1 2 3 4 5 6 
#
# 1 156.0325 63.8831 79.8332 -23.7559 -7.0336 6.0315
# 2 63.8831 124.6619 69.7948 -16.7528 -1.5859 4.1867
# 3 79.8332 69.7948 156.1545 -19.6704 -14.0737 13.1746
# 4 -23.7559 -16.7528 -19.6704 36.8453 3.1920 -4.3851
# 5 -7.0336 -1.5859 -14.0737 3.1920 62.9885 -22.6305
# 6 6.0315 4.1867 13.1746 -4.3851 -22.6305 47.5358
#
#
#
# Elastic Compliance Matrix: (Units=1/GPa)
#
#
# Indices 1 2 3 4 5 6 
#
# 1 0.009721 -0.002659 -0.003378 0.003277 0.000222 0.000345
# 2 -0.002659 0.011692 -0.003740 0.001691 -0.000898 0.000073
# 3 -0.003378 -0.003740 0.010193 0.001293 0.001255 -0.001350
# 4 0.003277 0.001691 0.001293 0.030949 -0.000213 0.001830
# 5 0.000222 -0.000898 0.001255 -0.000213 0.019368 0.008904
# 6 0.000345 0.000073 -0.001350 0.001830 0.008904 0.025769
#
#
# Mechanical properties :
#
#
# Convention : Reuss Voigt Hill
#
# Bulk Modulus (GPa) = 82.97739 95.98568 89.48153
# Shear Modulus (GPa) = 38.09115 44.36310 41.22713
#
# Velocity S-wave (km/s) = 4.11296 4.43867 4.27892
# Velocity P-wave (km/s) = 7.70752 8.30040 8.00945
#
# Compressibility (1/GPa) = 0.01205148
#
# Stress axis : x y z
#
# Youngs Moduli (GPa) = 102.86513 85.52963 98.10988
#
# Poissons Ratio (x) = 0.22742 0.33140
# Poissons Ratio (y) = 0.27351 0.36698
# Poissons Ratio (z) = 0.34747 0.31992
#
# Static dielectric constant tensor:
#      x y z
#    x 1.855930 0.019540 0.005460 
#    y 0.019540 1.909000 -0.000330 
#    z 0.005460 -0.000330 1.871960 
# 
# From -- ./inp_files/535597.got.cif
#   From: 2010.05.17/outbox.cif.g08.bks.cpg/sg2_268_cif.got.tgz:535597.got - 2010.06.03 11:33:40.
