data_PCOD9051395
_publ_section_title
;
Structure prediction by ZEFSAII (Michael W. Deem and Ramdas Pophale) SiO2 
 PCOD9051395
Probable space group: P -1
;
_chemical_formula_sum "Si O2"
_cell_formula_units_Z 16
_cell_length_a 17.371365
_cell_length_b 7.668307
_cell_length_c 4.863273
_cell_angle_alpha 68.302620
_cell_angle_beta 99.422128
_cell_angle_gamma 104.889657
_cell_volume 580.015503
_symmetry_space_group_name_H-M "P -1"
_symmetry_group_IT_number 2
_symmetry_cell_setting 'triclinic'
loop_
_space_group_symop_operation_xyz
x,y,z
-x,-y,-z
loop_
_atom_site_type_symbol
_atom_site_label
_atom_site_fract_x
_atom_site_fract_y
_atom_site_fract_z
Si Si1 0.985302 0.319939 0.804432
Si Si2 0.626839 0.096294 0.378134
Si Si3 0.128759 0.457913 0.146168
Si Si4 0.374515 0.306854 0.478006
Si Si5 0.795820 0.791548 0.293470
Si Si6 0.274024 0.746050 0.175553
Si Si7 0.526862 0.341948 0.921987
Si Si8 0.157921 0.961235 0.316785
O O1 0.923438 0.380244 0.949050
O O2 0.000000 0.500000 0.500000
O O3 0.066432 0.310212 0.011135
O O4 0.934444 0.133373 0.735387
O O5 0.660222 0.246341 0.550487
O O6 0.632333 0.882830 0.606901
O O7 0.679680 0.121313 0.115716
O O8 0.546593 0.159257 0.193271
O O9 0.147977 0.350423 0.495347
O O10 0.218563 0.572357 0.071755
O O11 0.295665 0.287837 0.627652
O O12 0.454949 0.289472 0.697340
O O13 0.393032 0.518364 0.232847
O O14 0.806564 0.848571 0.951612
O O15 0.826430 0.979066 0.394137
O O16 0.209440 0.818998 0.295871
O O17 0.500000 0.500000 0.000000
#
# Coordination Sequence:
#
# PCOD9051395 Si02
#       8
#     2   2   2   2   2   2   2   2
#     4  10  25  46  69  98 143 193 229 285 352 429
#     4  12  26  47  76 102 146 192 236 296 359 417
#     4  10  26  42  71 100 141 184 236 291 352 416
#     4  11  26  49  70 108 142 189 237 298 359 428
#     4  12  26  45  73 107 136 182 235 301 350 412
#     4  11  24  46  72 106 133 191 240 285 347 430
#     4  11  29  46  73 106 147 187 241 294 358 437
#     4  11  25  45  71 102 144 177 238 289 350 424
#
# _framework density 27.585470999999998
#
# number of rings (size 3 to 8) (size 9 to 14) (size 15 to 20)
#    0.000    1.000    2.500    1.125   19.250    1.500 
#    0.000    0.000    0.000    0.000    0.000    0.000 
#    0.000    0.000    0.000    0.000    0.000    0.000 
#
# Total GULP energy -89473.719121 kJ/mol
# GULP energy per Si atom -5592.107445 kJ/mol
# Density = 2.752268 g / cm^3
# Si number density = 27.585471 Si / 1000 Ang^3
#
#
#
# Elastic Constant Matrix: (Units=GPa)
#
#
# Indices 1 2 3 4 5 6 
#
# 1 101.9031 36.1249 21.4216 10.1853 16.4295 9.7246
# 2 36.1249 111.8563 5.9141 4.4848 2.1714 8.3309
# 3 21.4216 5.9141 88.7957 -5.4281 14.8253 9.5146
# 4 10.1853 4.4848 -5.4281 36.6036 -1.7096 6.4657
# 5 16.4295 2.1714 14.8253 -1.7096 45.8409 4.2912
# 6 9.7246 8.3309 9.5146 6.4657 4.2912 53.3034
#
#
#
# Elastic Compliance Matrix: (Units=1/GPa)
#
#
# Indices 1 2 3 4 5 6 
#
# 1 0.012607 -0.003694 -0.002332 -0.003468 -0.003663 -0.000591
# 2 -0.003694 0.010182 0.000177 0.000029 0.000881 -0.001023
# 3 -0.002332 0.000177 0.012688 0.002714 -0.002991 -0.001955
# 4 -0.003468 0.000029 0.002714 0.029398 0.001794 -0.003567
# 5 -0.003663 0.000881 -0.002991 0.001794 0.024223 -0.001103
# 6 -0.000591 -0.001023 -0.001955 -0.003567 -0.001103 0.019899
#
#
# Mechanical properties :
#
#
# Convention : Reuss Voigt Hill
#
# Bulk Modulus (GPa) = 42.05604 47.71958 44.88781
# Shear Modulus (GPa) = 38.87438 43.08921 40.98180
#
# Velocity S-wave (km/s) = 3.75805 3.95653 3.85857
# Velocity P-wave (km/s) = 5.84032 6.18131 6.01323
#
# Compressibility (1/GPa) = 0.02377780
#
# Stress axis : x y z
#
# Youngs Moduli (GPa) = 79.32331 98.21617 78.81718
#
# Poissons Ratio (x) = 0.36280 0.18383
# Poissons Ratio (y) = 0.29302 -0.01398
# Poissons Ratio (z) = 0.18501 -0.01742
#
# Static dielectric constant tensor:
#      x y z
#    x 2.292920 -0.020070 -0.026750 
#    y -0.020070 2.366740 -0.019010 
#    z -0.026750 -0.019010 2.133050 
# 
# From -- ./inp_files/106357.got.cif
#   From: 2010.05.17/outbox.cif.g08.bks.cpg/sg2_54_cif.got.tgz:106357.got - 2010.06.03 11:33:40.
