data_PCOD9051473
_publ_section_title
;
Structure prediction by ZEFSAII (Michael W. Deem and Ramdas Pophale) SiO2 
 PCOD9051473
Probable space group: P -1
;
_chemical_formula_sum "Si O2"
_cell_formula_units_Z 16
_cell_length_a 8.226375
_cell_length_b 7.144401
_cell_length_c 13.146603
_cell_angle_alpha 58.819336
_cell_angle_beta 86.683927
_cell_angle_gamma 77.517672
_cell_volume 644.061750
_symmetry_space_group_name_H-M "P -1"
_symmetry_group_IT_number 2
_symmetry_cell_setting 'triclinic'
loop_
_space_group_symop_operation_xyz
x,y,z
-x,-y,-z
loop_
_atom_site_type_symbol
_atom_site_label
_atom_site_fract_x
_atom_site_fract_y
_atom_site_fract_z
Si Si1 0.899907 0.473568 0.113720
Si Si2 0.761144 0.103229 0.664717
Si Si3 0.667157 0.316822 0.032343
Si Si4 0.540941 0.474339 0.684617
Si Si5 0.088595 0.264543 0.620921
Si Si6 0.311970 0.193272 0.836139
Si Si7 0.775709 0.630738 0.780953
Si Si8 0.680896 0.060090 0.456429
O O1 0.775993 0.319168 0.129410
O O2 0.797203 0.707951 0.091099
O O3 0.028916 0.376218 0.224709
O O4 0.000000 0.500000 0.000000
O O5 0.618764 0.327411 0.625986
O O6 0.932371 0.152085 0.688015
O O7 0.705109 0.874827 0.765899
O O8 0.782397 0.049494 0.560058
O O9 0.645639 0.070841 0.086831
O O10 0.500000 0.500000 0.000000
O O11 0.755826 0.419544 0.908797
O O12 0.478840 0.288835 0.805529
O O13 0.685203 0.584138 0.695488
O O14 0.378745 0.674657 0.635328
O O15 0.203167 0.274852 0.713943
O O16 0.212628 0.101802 0.584459
O O17 0.000000 0.500000 0.500000
O O18 0.500000 0.000000 0.500000
#
# Coordination Sequence:
#
# PCOD9051473 Si02
#       8
#     2   2   2   2   2   2   2   2
#     4  10  25  46  72 103 145 191 249 300 370 434
#     4  12  25  46  72 105 152 196 246 308 369 439
#     4  11  25  46  73 105 147 192 249 304 367 434
#     4  12  26  44  74 110 147 198 250 303 375 438
#     4  12  28  48  78 113 148 198 248 304 380 445
#     4  12  27  45  77 107 151 192 250 309 368 438
#     4  11  25  43  73 102 148 193 247 295 372 432
#     4  12  25  46  75 105 152 190 247 309 371 438
#
# _framework density 24.842336
#
# number of rings (size 3 to 8) (size 9 to 14) (size 15 to 20)
#    0.000    0.500    1.250    6.000    7.000    6.000 
#    0.000    0.000    0.000    0.000    0.000    0.000 
#    0.000    0.000    0.000    0.000    0.000    0.000 
#
# Total GULP energy -89455.770191 kJ/mol
# GULP energy per Si atom -5590.985637 kJ/mol
# Density = 2.478579 g / cm^3
# Si number density = 24.842336 Si / 1000 Ang^3
#
#
#
# Elastic Constant Matrix: (Units=GPa)
#
#
# Indices 1 2 3 4 5 6 
#
# 1 66.6727 54.6261 4.4303 3.2044 -2.8693 1.2810
# 2 54.6261 196.7757 41.3011 -24.6808 -13.9927 -15.8359
# 3 4.4303 41.3011 64.1173 -12.4729 -1.7090 0.6960
# 4 3.2044 -24.6808 -12.4729 51.2880 2.1577 -8.8805
# 5 -2.8693 -13.9927 -1.7090 2.1577 27.5305 5.5779
# 6 1.2810 -15.8359 0.6960 -8.8805 5.5779 58.4743
#
#
#
# Elastic Compliance Matrix: (Units=1/GPa)
#
#
# Indices 1 2 3 4 5 6 
#
# 1 0.021000 -0.007175 0.002274 -0.004739 -0.000313 -0.003120
# 2 -0.007175 0.008943 -0.004434 0.004085 0.002593 0.003005
# 3 0.002274 -0.004434 0.018698 0.002119 -0.000804 -0.001075
# 4 -0.004739 0.004085 0.002119 0.023152 -0.001074 0.004803
# 5 -0.000313 0.002593 -0.000804 -0.001074 0.038270 -0.003095
# 6 -0.003120 0.003005 -0.001075 0.004803 -0.003095 0.019021
#
#
# Mechanical properties :
#
#
# Convention : Reuss Voigt Hill
#
# Bulk Modulus (GPa) = 33.36411 58.69787 46.03099
# Shear Modulus (GPa) = 31.69716 42.60578 37.15147
#
# Velocity S-wave (km/s) = 3.57590 4.14581 3.87135
# Velocity P-wave (km/s) = 5.52348 6.82616 6.20908
#
# Compressibility (1/GPa) = 0.02997233
#
# Stress axis : x y z
#
# Youngs Moduli (GPa) = 47.61861 111.82132 53.48255
#
# Poissons Ratio (x) = 0.80230 -0.12164
# Poissons Ratio (y) = 0.34166 0.23712
# Poissons Ratio (z) = -0.10830 0.49578
#
# Static dielectric constant tensor:
#      x y z
#    x 2.034160 0.004150 0.003260 
#    y 0.004150 1.948700 -0.040750 
#    z 0.003260 -0.040750 2.071350 
# 
# From -- ./inp_files/488200.got.cif
#   From: 2010.05.17/outbox.cif.g08.bks.cpg/sg2_245_cif.got.tgz:488200.got - 2010.06.03 11:33:40.
