data_PCOD9051348
_publ_section_title
;
Structure prediction by ZEFSAII (Michael W. Deem and Ramdas Pophale) SiO2 
 PCOD9051348
Probable space group: P -1
;
_chemical_formula_sum "Si O2"
_cell_formula_units_Z 16
_cell_length_a 14.883673
_cell_length_b 9.499806
_cell_length_c 11.625244
_cell_angle_alpha 90.737375
_cell_angle_beta 149.910614
_cell_angle_gamma 99.823514
_cell_volume 767.948135
_symmetry_space_group_name_H-M "P -1"
_symmetry_group_IT_number 2
_symmetry_cell_setting 'triclinic'
loop_
_space_group_symop_operation_xyz
x,y,z
-x,-y,-z
loop_
_atom_site_type_symbol
_atom_site_label
_atom_site_fract_x
_atom_site_fract_y
_atom_site_fract_z
Si Si1 0.473038 0.862780 0.884985
Si Si2 0.622198 0.257736 0.452685
Si Si3 0.114272 0.957549 0.728053
Si Si4 0.906906 0.389022 0.289601
Si Si5 0.212624 0.412761 0.439307
Si Si6 0.523176 0.380530 0.933589
Si Si7 0.041512 0.786429 0.046626
Si Si8 0.189578 0.075172 0.056725
O O1 0.343402 0.824542 0.627493
O O2 0.435867 0.730108 0.931363
O O3 0.500000 0.000000 0.000000
O O4 0.680365 0.910621 0.058673
O O5 0.636708 0.423314 0.428677
O O6 0.800246 0.277230 0.733271
O O7 0.415932 0.163908 0.280824
O O8 0.116721 0.787617 0.716851
O O9 0.000000 0.000000 0.500000
O O10 0.073172 0.985852 0.814650
O O11 0.000000 0.500000 0.500000
O O12 0.052111 0.436173 0.344276
O O13 0.703815 0.411167 0.048792
O O14 0.330281 0.331509 0.643901
O O15 0.103083 0.318791 0.208318
O O16 0.500000 0.500000 0.000000
O O17 0.160604 0.946542 0.119397
O O18 0.913537 0.816179 0.006831
#
# Coordination Sequence:
#
# PCOD9051348 Si02
#       8
#     2   2   2   2   2   2   2   2
#     4  11  23  40  66 101 134 181 231 279 356 407
#     4  11  25  45  67  97 143 176 236 293 342 417
#     4  11  24  41  69 103 139 178 232 288 349 420
#     4  12  24  42  68 101 145 187 227 284 359 415
#     4  12  26  44  69 104 137 188 235 282 356 419
#     4  12  24  44  67 100 150 183 226 292 352 425
#     4  11  25  46  73  98 136 186 239 283 344 420
#     4  10  25  46  68 101 135 183 233 287 354 406
#
# _framework density 20.834741000000001
#
# number of rings (size 3 to 8) (size 9 to 14) (size 15 to 20)
#    0.000    0.750    5.000    1.500    1.750    3.500 
#    0.000    0.000    0.000    0.000    0.000    0.000 
#    0.000    0.000    0.000    0.000    0.000    0.000 
#
# Total GULP energy -89206.187012 kJ/mol
# GULP energy per Si atom -5575.386688 kJ/mol
# Density = 2.078732 g / cm^3
# Si number density = 20.834741 Si / 1000 Ang^3
#
#
#
# Elastic Constant Matrix: (Units=GPa)
#
#
# Indices 1 2 3 4 5 6 
#
# 1 117.5212 26.5485 52.0489 -2.8145 -1.3995 -23.3686
# 2 26.5485 28.7845 5.6303 2.6553 6.3159 -13.5642
# 3 52.0489 5.6303 121.6745 -2.6090 -11.7410 -16.1475
# 4 -2.8145 2.6553 -2.6090 27.5359 -1.0071 -2.1420
# 5 -1.3995 6.3159 -11.7410 -1.0071 33.5971 6.5467
# 6 -23.3686 -13.5642 -16.1475 -2.1420 6.5467 36.3597
#
#
#
# Elastic Compliance Matrix: (Units=1/GPa)
#
#
# Indices 1 2 3 4 5 6 
#
# 1 0.013696 -0.010696 -0.004922 0.002188 0.000404 0.002683
# 2 -0.010696 0.055606 0.002883 -0.005331 -0.013413 0.017251
# 3 -0.004922 0.002883 0.010750 0.000507 0.002586 0.002250
# 4 0.002188 -0.005331 0.000507 0.037293 0.002104 0.001461
# 5 0.000404 -0.013413 0.002586 0.002104 0.035180 -0.009806
# 6 0.002683 0.017251 0.002250 0.001461 -0.009806 0.038514
#
#
# Mechanical properties :
#
#
# Convention : Reuss Voigt Hill
#
# Bulk Modulus (GPa) = 18.32076 48.49286 33.40681
# Shear Modulus (GPa) = 21.30366 31.74870 26.52618
#
# Velocity S-wave (km/s) = 3.20113 3.90787 3.57202
# Velocity P-wave (km/s) = 4.74083 6.60965 5.75165
#
# Compressibility (1/GPa) = 0.05458288
#
# Stress axis : x y z
#
# Youngs Moduli (GPa) = 73.01531 17.98368 93.02539
#
# Poissons Ratio (x) = 0.19234 0.45785
# Poissons Ratio (y) = 0.78094 -0.26819
# Poissons Ratio (z) = 0.35937 -0.05185
#
# Static dielectric constant tensor:
#      x y z
#    x 1.853780 0.020550 -0.030970 
#    y 0.020550 1.765930 0.029880 
#    z -0.030970 0.029880 1.812670 
# 
# From -- ./inp_files/273110.got.cif
#   From: 2010.05.17/outbox.cif.g08.bks.cpg/sg2_137_cif.got.tgz:273110.got - 2010.06.03 11:33:40.
