data_PCOD9051582
_publ_section_title
;
Structure prediction by ZEFSAII (Michael W. Deem and Ramdas Pophale) SiO2 
 PCOD9051582
Probable space group: P -1
;
_chemical_formula_sum "Si O2"
_cell_formula_units_Z 12
_cell_length_a 8.636284
_cell_length_b 15.146763
_cell_length_c 9.080793
_cell_angle_alpha 29.629529
_cell_angle_beta 63.743930
_cell_angle_gamma 55.113139
_cell_volume 477.314228
_symmetry_space_group_name_H-M "P -1"
_symmetry_group_IT_number 2
_symmetry_cell_setting 'triclinic'
loop_
_space_group_symop_operation_xyz
x,y,z
-x,-y,-z
loop_
_atom_site_type_symbol
_atom_site_label
_atom_site_fract_x
_atom_site_fract_y
_atom_site_fract_z
Si Si1 0.109684 0.970106 0.776930
Si Si2 0.486983 0.663624 0.604575
Si Si3 0.607253 0.000148 0.607129
Si Si4 0.923483 0.375264 0.812903
Si Si5 0.547045 0.266244 0.806010
Si Si6 0.103550 0.629434 0.826600
O O1 0.212615 0.974192 0.572191
O O2 0.002343 0.834702 0.991773
O O3 0.265024 0.869647 0.983294
O O4 0.969125 0.195912 0.517404
O O5 0.693044 0.488314 0.743109
O O6 0.431724 0.782055 0.304050
O O7 0.329236 0.576248 0.819764
O O8 0.488022 0.814091 0.512773
O O9 0.500000 0.000000 0.500000
O O10 0.612835 0.802987 0.967158
O O11 0.000000 0.500000 0.500000
O O12 0.962967 0.341856 0.017190
O O13 0.500000 0.500000 0.500000
O O14 0.000000 0.500000 0.000000
#
# Coordination Sequence:
#
# PCOD9051582 Si02
#       6
#     2   2   2   2   2   2
#     4  11  26  50  74 112 169 214 265 330 410 481
#     4  12  27  50  82 119 163 210 277 329 411 480
#     4  10  25  46  79 111 160 215 269 330 406 473
#     4  12  29  51  83 116 163 212 276 335 409 485
#     4  11  25  44  79 119 160 210 272 328 401 485
#     4  12  31  50  81 119 164 214 274 336 409 489
#
# _framework density 25.140671000000001
#
# number of rings (size 3 to 8) (size 9 to 14) (size 15 to 20)
#    0.000    0.667    3.333    1.500   11.667    2.000 
#    0.000    0.000    0.000    0.000    0.000    0.000 
#    0.000    0.000    0.000    0.000    0.000    0.000 
#
# Total GULP energy -67065.959882 kJ/mol
# GULP energy per Si atom -5588.829990 kJ/mol
# Density = 2.508345 g / cm^3
# Si number density = 25.140671 Si / 1000 Ang^3
#
#
#
# Elastic Constant Matrix: (Units=GPa)
#
#
# Indices 1 2 3 4 5 6 
#
# 1 130.3636 55.7925 81.2808 -10.4036 -9.2605 14.1482
# 2 55.7925 70.0929 37.7319 13.7528 9.2198 16.0356
# 3 81.2808 37.7319 208.9133 9.6634 -11.8710 6.3455
# 4 -10.4036 13.7528 9.6634 53.7673 4.9426 -0.1626
# 5 -9.2605 9.2198 -11.8710 4.9426 62.3030 5.8605
# 6 14.1482 16.0356 6.3455 -0.1626 5.8605 46.8934
#
#
#
# Elastic Compliance Matrix: (Units=1/GPa)
#
#
# Indices 1 2 3 4 5 6 
#
# 1 0.016488 -0.012435 -0.004303 0.006870 0.002972 -0.000488
# 2 -0.012435 0.027671 0.000151 -0.009094 -0.004706 -0.005174
# 3 -0.004303 0.000151 0.006565 -0.002118 0.000733 0.000259
# 4 0.006870 -0.009094 -0.002118 0.022635 0.000036 0.001398
# 5 0.002972 -0.004706 0.000733 0.000036 0.017473 -0.001570
# 6 -0.000488 -0.005174 0.000259 0.001398 -0.001570 0.023407
#
#
# Mechanical properties :
#
#
# Convention : Reuss Voigt Hill
#
# Bulk Modulus (GPa) = 56.98176 84.33112 70.65644
# Shear Modulus (GPa) = 32.62349 48.23039 40.42694
#
# Velocity S-wave (km/s) = 3.60618 4.38473 4.01437
# Velocity P-wave (km/s) = 6.32880 7.69747 7.04644
#
# Compressibility (1/GPa) = 0.01754948
#
# Stress axis : x y z
#
# Youngs Moduli (GPa) = 60.65074 36.13951 152.31531
#
# Poissons Ratio (x) = 0.44939 0.65542
# Poissons Ratio (y) = 0.75418 -0.02296
# Poissons Ratio (z) = 0.26098 -0.00545
#
# Static dielectric constant tensor:
#      x y z
#    x 2.181660 -0.141440 0.100260 
#    y -0.141440 2.096080 -0.092350 
#    z 0.100260 -0.092350 2.039820 
# 
# From -- ./inp_files/156566.got.cif
#   From: 2010.05.17/outbox.cif.g08.bks.cpg/sg2_79_cif.got.tgz:156566.got - 2010.06.03 11:33:40.
