data_PCOD9051086
_publ_section_title
;
Structure prediction by ZEFSAII (Michael W. Deem and Ramdas Pophale) SiO2 
 PCOD9051086
Probable space group: P -1
;
_chemical_formula_sum "Si O2"
_cell_formula_units_Z 14
_cell_length_a 17.377987
_cell_length_b 8.057768
_cell_length_c 5.608770
_cell_angle_alpha 71.224717
_cell_angle_beta 64.275156
_cell_angle_gamma 112.811874
_cell_volume 526.479765
_symmetry_space_group_name_H-M "P -1"
_symmetry_group_IT_number 2
_symmetry_cell_setting 'triclinic'
loop_
_space_group_symop_operation_xyz
x,y,z
-x,-y,-z
loop_
_atom_site_type_symbol
_atom_site_label
_atom_site_fract_x
_atom_site_fract_y
_atom_site_fract_z
Si Si1 0.921785 0.816934 0.888560
Si Si2 0.247285 0.144997 0.667154
Si Si3 0.568015 0.956620 0.757017
Si Si4 0.786008 0.351162 0.011202
Si Si5 0.382068 0.287543 0.833164
Si Si6 0.064205 0.724381 0.968013
Si Si7 0.351249 0.563969 0.048722
O O1 0.982025 0.783259 0.033386
O O2 0.850031 0.880464 0.059147
O O3 0.850305 0.582245 0.958741
O O4 0.000000 0.000000 0.500000
O O5 0.313897 0.119817 0.784628
O O6 0.330530 0.402595 0.363671
O O7 0.180967 0.962155 0.629131
O O8 0.677557 0.171840 0.396099
O O9 0.600990 0.828488 0.924560
O O10 0.475057 0.783142 0.773714
O O11 0.500000 0.000000 0.000000
O O12 0.878810 0.317687 0.875121
O O13 0.732296 0.381172 0.844820
O O14 0.500000 0.500000 0.500000
O O15 0.328080 0.401758 0.938060
O O16 0.000000 0.500000 0.000000
#
# Coordination Sequence:
#
# PCOD9051086 Si02
#       7
#     2   2   2   2   2   2   2
#     4  11  24  49  75 102 140 189 254 303 353 436
#     4  12  25  47  79 104 142 198 241 299 364 429
#     4  12  26  43  71 109 155 188 235 299 363 440
#     4  11  24  44  71 104 149 186 232 305 369 411
#     4  12  26  46  75 112 146 195 248 281 359 448
#     4  10  25  45  69 104 140 181 245 304 357 414
#     4  12  25  47  73 107 150 192 241 291 355 454
#
# _framework density 26.591714
#
# number of rings (size 3 to 8) (size 9 to 14) (size 15 to 20)
#    0.000    0.571    2.857    4.714    6.000    0.000 
#    0.000    3.571    0.000    0.000    0.000    0.000 
#    0.000    0.000    0.000    0.000    0.000    0.000 
#
# Total GULP energy -78201.988520 kJ/mol
# GULP energy per Si atom -5585.856323 kJ/mol
# Density = 2.653119 g / cm^3
# Si number density = 26.591714 Si / 1000 Ang^3
#
#
#
# Elastic Constant Matrix: (Units=GPa)
#
#
# Indices 1 2 3 4 5 6 
#
# 1 205.1678 34.8992 4.2157 -9.3053 -5.6502 -3.2280
# 2 34.8992 112.2868 38.6969 -34.8923 -13.2441 16.1321
# 3 4.2157 38.6969 85.6676 -27.6969 -17.3281 1.5034
# 4 -9.3053 -34.8923 -27.6969 44.4921 -0.6210 -17.0062
# 5 -5.6502 -13.2441 -17.3281 -0.6210 42.8372 -1.2390
# 6 -3.2280 16.1321 1.5034 -17.0062 -1.2390 61.5574
#
#
#
# Elastic Compliance Matrix: (Units=1/GPa)
#
#
# Indices 1 2 3 4 5 6 
#
# 1 0.005216 -0.001807 0.000813 0.000523 0.000491 0.000882
# 2 -0.001807 0.013428 -0.002805 0.007953 0.002857 -0.001291
# 3 0.000813 -0.002805 0.017462 0.010193 0.006547 0.003299
# 4 0.000523 0.007953 0.010193 0.038515 0.007455 0.008485
# 5 0.000491 0.002857 0.006547 0.007455 0.027098 0.001722
# 6 0.000882 -0.001291 0.003299 0.008485 0.001722 0.018928
#
#
# Mechanical properties :
#
#
# Convention : Reuss Voigt Hill
#
# Bulk Modulus (GPa) = 35.07956 62.08288 48.58122
# Shear Modulus (GPa) = 36.29845 51.46470 43.88157
#
# Velocity S-wave (km/s) = 3.69864 4.40405 4.06667
# Velocity P-wave (km/s) = 5.60896 7.01842 6.35290
#
# Compressibility (1/GPa) = 0.02850663
#
# Stress axis : x y z
#
# Youngs Moduli (GPa) = 191.72042 74.47226 57.26824
#
# Poissons Ratio (x) = 0.13460 -0.04655
# Poissons Ratio (y) = 0.34651 0.16063
# Poissons Ratio (z) = -0.15583 0.20888
#
# Static dielectric constant tensor:
#      x y z
#    x 2.115740 -0.080570 0.047450 
#    y -0.080570 2.181980 0.010640 
#    z 0.047450 0.010640 2.132530 
# 
# From -- ./inp_files/40365.got.cif
#   From: 2010.05.17/outbox.cif.g08.bks.cpg/sg2_21_cif.got.tgz:40365.got - 2010.06.03 11:33:40.
