data_PCOD9051159
_publ_section_title
;
Structure prediction by ZEFSAII (Michael W. Deem and Ramdas Pophale) SiO2 
 PCOD9051159
Probable space group: P -1
;
_chemical_formula_sum "Si O2"
_cell_formula_units_Z 16
_cell_length_a 9.729657
_cell_length_b 11.608790
_cell_length_c 15.229756
_cell_angle_alpha 126.239610
_cell_angle_beta 61.985185
_cell_angle_gamma 74.340524
_cell_volume 782.933246
_symmetry_space_group_name_H-M "P -1"
_symmetry_group_IT_number 2
_symmetry_cell_setting 'triclinic'
loop_
_space_group_symop_operation_xyz
x,y,z
-x,-y,-z
loop_
_atom_site_type_symbol
_atom_site_label
_atom_site_fract_x
_atom_site_fract_y
_atom_site_fract_z
Si Si1 0.407148 0.867162 0.689691
Si Si2 0.778223 0.062629 0.841342
Si Si3 0.891029 0.171523 0.188857
Si Si4 0.866963 0.697690 0.561715
Si Si5 0.505708 0.827763 0.437504
Si Si6 0.000550 0.649744 0.883137
Si Si7 0.986240 0.921353 0.379046
Si Si8 0.210464 0.487797 0.197767
O O1 0.355233 0.740467 0.675673
O O2 0.639224 0.774225 0.623939
O O3 0.436951 0.854272 0.571382
O O4 0.176323 0.125657 0.905721
O O5 0.893442 0.082203 0.740691
O O6 0.786302 0.896579 0.726115
O O7 0.495885 0.300251 0.048023
O O8 0.936594 0.957247 0.835290
O O9 0.892772 0.329120 0.219424
O O10 0.000000 0.000000 0.000000
O O11 0.000000 0.500000 0.500000
O O12 0.049980 0.610588 0.389332
O O13 0.772068 0.572311 0.230836
O O14 0.500000 0.000000 0.500000
O O15 0.297413 0.903817 0.476486
O O16 0.851705 0.621585 0.875764
O O17 0.119825 0.676621 0.245602
O O18 0.000000 0.000000 0.500000
#
# Coordination Sequence:
#
# PCOD9051159 Si02
#       8
#     2   2   2   2   2   2   2   2
#     4  11  24  47  68 105 143 179 235 290 351 421
#     4  12  26  47  73 104 144 191 231 294 361 419
#     4  10  25  45  71 105 140 179 236 289 351 425
#     4  12  26  42  73 107 143 190 236 289 359 422
#     4  12  25  46  72  99 141 184 238 287 350 414
#     4  11  24  44  73 103 137 185 226 294 350 420
#     4  12  26  49  72 106 143 186 242 297 350 421
#     4  12  25  46  71 103 145 186 238 292 353 425
#
# _framework density 20.435969
#
# number of rings (size 3 to 8) (size 9 to 14) (size 15 to 20)
#    0.000    0.500    6.250    1.125    3.500    5.000 
#    2.250    0.000    0.000    0.000    0.000    0.000 
#    0.000    0.000    0.000    0.000    0.000    0.000 
#
# Total GULP energy -89527.660606 kJ/mol
# GULP energy per Si atom -5595.478788 kJ/mol
# Density = 2.038946 g / cm^3
# Si number density = 20.435969 Si / 1000 Ang^3
#
#
#
# Elastic Constant Matrix: (Units=GPa)
#
#
# Indices 1 2 3 4 5 6 
#
# 1 142.6475 48.1733 31.2322 -3.0857 -10.4775 -12.1925
# 2 48.1733 116.2652 25.1738 16.1341 -6.9231 7.4095
# 3 31.2322 25.1738 97.8795 10.2576 -13.5087 -8.4856
# 4 -3.0857 16.1341 10.2576 24.3592 1.1324 2.3600
# 5 -10.4775 -6.9231 -13.5087 1.1324 40.5769 1.1361
# 6 -12.1925 7.4095 -8.4856 2.3600 1.1361 44.8473
#
#
#
# Elastic Compliance Matrix: (Units=1/GPa)
#
#
# Indices 1 2 3 4 5 6 
#
# 1 0.009215 -0.004114 -0.002017 0.004457 0.000810 0.002548
# 2 -0.004114 0.011837 -0.001053 -0.007680 0.000902 -0.002892
# 3 -0.002017 -0.001053 0.012335 -0.005122 0.003489 0.002141
# 4 0.004457 -0.007680 -0.005122 0.049105 -0.003207 -0.000991
# 5 0.000810 0.000902 0.003489 -0.003207 0.026252 0.000235
# 6 0.002548 -0.002892 0.002141 -0.000991 0.000235 0.023920
#
#
# Mechanical properties :
#
#
# Convention : Reuss Voigt Hill
#
# Bulk Modulus (GPa) = 52.57736 62.88343 57.73040
# Shear Modulus (GPa) = 32.60048 38.77088 35.68568
#
# Velocity S-wave (km/s) = 3.99839 4.36040 4.18331
# Velocity P-wave (km/s) = 6.86294 7.49590 7.18639
#
# Compressibility (1/GPa) = 0.01901959
#
# Stress axis : x y z
#
# Youngs Moduli (GPa) = 108.51962 84.47760 81.07121
#
# Poissons Ratio (x) = 0.34755 0.16348
# Poissons Ratio (y) = 0.44646 0.08538
# Poissons Ratio (z) = 0.21884 0.08897
#
# Static dielectric constant tensor:
#      x y z
#    x 1.689530 0.023660 0.017900 
#    y 0.023660 1.707270 0.010410 
#    z 0.017900 0.010410 1.727340 
# 
# From -- ./inp_files/308113.got.cif
#   From: 2010.05.17/outbox.cif.g08.bks.cpg/sg2_155_cif.got.tgz:308113.got - 2010.06.03 11:33:40.
