data_PCOD9051267
_publ_section_title
;
Structure prediction by ZEFSAII (Michael W. Deem and Ramdas Pophale) SiO2 
 PCOD9051267
Probable space group: P -1
;
_chemical_formula_sum "Si O2"
_cell_formula_units_Z 12
_cell_length_a 19.723250
_cell_length_b 8.797074
_cell_length_c 8.893015
_cell_angle_alpha 148.234878
_cell_angle_beta 36.624162
_cell_angle_gamma 140.625733
_cell_volume 463.951539
_symmetry_space_group_name_H-M "P -1"
_symmetry_group_IT_number 2
_symmetry_cell_setting 'triclinic'
loop_
_space_group_symop_operation_xyz
x,y,z
-x,-y,-z
loop_
_atom_site_type_symbol
_atom_site_label
_atom_site_fract_x
_atom_site_fract_y
_atom_site_fract_z
Si Si1 0.676636 0.245685 0.833771
Si Si2 0.039948 0.329707 0.646726
Si Si3 0.083500 0.215379 0.157501
Si Si4 0.407411 0.983941 0.783948
Si Si5 0.756095 0.166120 0.310015
Si Si6 0.565198 0.620906 0.661330
O O1 0.804426 0.493496 0.842543
O O2 0.668288 0.144731 0.587977
O O3 0.654343 0.924701 0.686999
O O4 0.567095 0.391363 0.173252
O O5 0.010332 0.323067 0.513532
O O6 0.180024 0.481796 0.521312
O O7 0.000000 0.000000 0.500000
O O8 0.000000 0.500000 0.000000
O O9 0.148631 0.992928 0.933889
O O10 0.000000 0.000000 0.000000
O O11 0.289649 0.943143 0.863214
O O12 0.401736 0.691037 0.650458
O O13 0.500000 0.000000 0.500000
O O14 0.435692 0.280858 0.081125
#
# Coordination Sequence:
#
# PCOD9051267 Si02
#       6
#     2   2   2   2   2   2
#     4  10  25  45  74 108 153 196 249 308 374 444
#     4  11  24  48  73 104 142 191 247 312 372 439
#     4  11  26  49  78 109 153 202 256 314 382 448
#     4  12  25  44  73 108 147 192 246 299 378 445
#     4  11  25  46  74 103 151 195 244 312 375 442
#     4  11  26  45  74 112 148 196 245 305 369 455
#
# _framework density 25.864771000000001
#
# number of rings (size 3 to 8) (size 9 to 14) (size 15 to 20)
#    0.000    1.000    3.333    1.500    7.000    5.333 
#    6.000    0.000    0.000    0.000    0.000    0.000 
#    0.000    0.000    0.000    0.000    0.000    0.000 
#
# Total GULP energy -67073.906155 kJ/mol
# GULP energy per Si atom -5589.492180 kJ/mol
# Density = 2.580590 g / cm^3
# Si number density = 25.864771 Si / 1000 Ang^3
#
#
#
# Elastic Constant Matrix: (Units=GPa)
#
#
# Indices 1 2 3 4 5 6 
#
# 1 178.6766 40.5537 37.8055 11.5472 11.1157 11.8956
# 2 40.5537 168.7193 28.0855 19.1301 3.5270 -8.9134
# 3 37.8055 28.0855 131.1618 20.6635 9.0367 -5.7861
# 4 11.5472 19.1301 20.6635 46.2817 -8.4012 12.4025
# 5 11.1157 3.5270 9.0367 -8.4012 52.5203 7.1496
# 6 11.8956 -8.9134 -5.7861 12.4025 7.1496 27.6511
#
#
#
# Elastic Compliance Matrix: (Units=1/GPa)
#
#
# Indices 1 2 3 4 5 6 
#
# 1 0.006578 -0.001580 -0.001855 0.000875 -0.000276 -0.004048
# 2 -0.001580 0.007100 -0.000072 -0.004181 -0.001509 0.005219
# 3 -0.001855 -0.000072 0.009617 -0.006048 -0.003082 0.006297
# 4 0.000875 -0.004181 -0.006048 0.032856 0.009126 -0.020087
# 5 -0.000276 -0.001509 -0.003082 0.009126 0.022684 -0.010971
# 6 -0.004048 0.005219 0.006297 -0.020087 -0.010971 0.052753
#
#
# Mechanical properties :
#
#
# Convention : Reuss Voigt Hill
#
# Bulk Modulus (GPa) = 61.41972 76.82747 69.12359
# Shear Modulus (GPa) = 34.71531 50.09814 42.40672
#
# Velocity S-wave (km/s) = 3.66756 4.40583 4.05354
# Velocity P-wave (km/s) = 6.46008 7.45988 6.97791
#
# Compressibility (1/GPa) = 0.01628142
#
# Stress axis : x y z
#
# Youngs Moduli (GPa) = 152.02484 140.84575 103.97961
#
# Poissons Ratio (x) = 0.22247 0.19290
# Poissons Ratio (y) = 0.24013 0.00751
# Poissons Ratio (z) = 0.28203 0.01017
#
# Static dielectric constant tensor:
#      x y z
#    x 2.327400 0.146130 0.024950 
#    y 0.146130 2.143590 -0.093530 
#    z 0.024950 -0.093530 2.137330 
# 
# From -- ./inp_files/343937.got.cif
#   From: 2010.05.17/outbox.cif.g08.bks.cpg/sg2_172_cif.got.tgz:343937.got - 2010.06.03 11:33:40.
