data_PCOD9051677
_publ_section_title
;
Structure prediction by ZEFSAII (Michael W. Deem and Ramdas Pophale) SiO2 
 PCOD9051677
Probable space group: P -1
;
_chemical_formula_sum "Si O2"
_cell_formula_units_Z 16
_cell_length_a 16.199231
_cell_length_b 5.765236
_cell_length_c 11.228488
_cell_angle_alpha 92.650921
_cell_angle_beta 121.324108
_cell_angle_gamma 58.788467
_cell_volume 729.533103
_symmetry_space_group_name_H-M "P -1"
_symmetry_group_IT_number 2
_symmetry_cell_setting 'triclinic'
loop_
_space_group_symop_operation_xyz
x,y,z
-x,-y,-z
loop_
_atom_site_type_symbol
_atom_site_label
_atom_site_fract_x
_atom_site_fract_y
_atom_site_fract_z
Si Si1 0.893902 0.719426 0.155895
Si Si2 0.572152 0.721151 0.630039
Si Si3 0.655246 0.030924 0.125669
Si Si4 0.377003 0.665152 0.561208
Si Si5 0.197587 0.337018 0.158339
Si Si6 0.584994 0.643893 0.187341
Si Si7 0.863296 0.822621 0.664744
Si Si8 0.980215 0.083230 0.849978
O O1 0.028136 0.496682 0.298249
O O2 0.901404 0.966512 0.113322
O O3 0.786638 0.833791 0.165782
O O4 0.871807 0.600595 0.015502
O O5 0.484840 0.698611 0.649334
O O6 0.622598 0.455939 0.571126
O O7 0.673947 0.733739 0.767432
O O8 0.500000 0.000000 0.500000
O O9 0.636360 0.321936 0.168588
O O10 0.636345 0.821487 0.185596
O O11 0.552493 0.157892 0.950901
O O12 0.395905 0.428727 0.660937
O O13 0.255455 0.978187 0.494232
O O14 0.182950 0.137116 0.230421
O O15 0.133031 0.596523 0.207932
O O16 0.937161 0.954686 0.723940
O O17 0.000000 0.000000 0.000000
#
# Coordination Sequence:
#
# PCOD9051677 Si02
#       8
#     2   2   2   2   2   2   2   2
#     4  11  24  36  66  95 128 174 221 277 323 383
#     4  11  24  37  61  99 133 168 219 261 323 420
#     4  10  25  47  71  99 124 166 239 281 331 392
#     4  11  25  41  65  93 134 178 210 269 344 399
#     4  11  21  35  59  94 132 169 212 264 323 395
#     4  10  25  48  72  94 129 173 217 290 342 384
#     4  11  21  39  57  95 134 172 210 260 332 407
#     4  11  19  35  57  88 135 171 207 257 329 390
#
# _framework density 21.931837000000002
#
# number of rings (size 3 to 8) (size 9 to 14) (size 15 to 20)
#    0.000    1.250    5.000    0.750    5.250    3.000 
#    0.000    1.250    0.000    0.000    0.000    0.000 
#    0.000    0.000    0.000    0.000    0.000    0.000 
#
# Total GULP energy -89075.088941 kJ/mol
# GULP energy per Si atom -5567.193059 kJ/mol
# Density = 2.188192 g / cm^3
# Si number density = 21.931837 Si / 1000 Ang^3
#
#
#
# Elastic Constant Matrix: (Units=GPa)
#
#
# Indices 1 2 3 4 5 6 
#
# 1 158.0172 33.4532 48.0883 -21.1617 18.1248 5.7712
# 2 33.4532 71.0596 8.4660 -17.3909 0.2254 -2.1766
# 3 48.0883 8.4660 60.3620 -23.8619 5.5782 -5.1689
# 4 -21.1617 -17.3909 -23.8619 34.5780 6.1567 5.7884
# 5 18.1248 0.2254 5.5782 6.1567 29.6276 -0.4277
# 6 5.7712 -2.1766 -5.1689 5.7884 -0.4277 25.0276
#
#
#
# Elastic Compliance Matrix: (Units=1/GPa)
#
#
# Indices 1 2 3 4 5 6 
#
# 1 0.010184 -0.003798 -0.007035 0.001140 -0.005178 -0.004484
# 2 -0.003798 0.017715 0.004497 0.009617 -0.000640 0.001110
# 3 -0.007035 0.004497 0.029772 0.018802 -0.005189 0.003725
# 4 0.001140 0.009617 0.018802 0.051406 -0.015104 -0.007691
# 5 -0.005178 -0.000640 -0.005189 -0.015104 0.041102 0.004262
# 6 -0.004484 0.001110 0.003725 -0.007691 0.004262 0.043707
#
#
# Mechanical properties :
#
#
# Convention : Reuss Voigt Hill
#
# Bulk Modulus (GPa) = 22.22334 52.16153 37.19243
# Shear Modulus (GPa) = 22.56755 31.14205 26.85480
#
# Velocity S-wave (km/s) = 3.21126 3.77231 3.50303
# Velocity P-wave (km/s) = 4.88922 6.54285 5.77552
#
# Compressibility (1/GPa) = 0.04499774
#
# Stress axis : x y z
#
# Youngs Moduli (GPa) = 98.19480 56.45075 33.58882
#
# Poissons Ratio (x) = 0.21440 0.23631
# Poissons Ratio (y) = 0.37295 -0.15105
# Poissons Ratio (z) = 0.69082 -0.25386
#
# Static dielectric constant tensor:
#      x y z
#    x 1.827810 -0.232090 0.207090 
#    y -0.232090 -0.379450 1.784570 
#    z 0.207090 1.784570 0.371810 
# 
# From -- ./inp_files/75789.got.cif
#   From: 2010.05.17/outbox.cif.g08.bks.cpg/sg2_38_cif.got.tgz:75789.got - 2010.06.03 11:33:40.
