data_PCOD9051843
_publ_section_title
;
Structure prediction by ZEFSAII (Michael W. Deem and Ramdas Pophale) SiO2 
 PCOD9051843
Probable space group: P -1
;
_chemical_formula_sum "Si O2"
_cell_formula_units_Z 11
_cell_length_a 12.502481
_cell_length_b 6.213266
_cell_length_c 12.521429
_cell_angle_alpha 106.674835
_cell_angle_beta 35.452386
_cell_angle_gamma 126.220366
_cell_volume 414.015775
_symmetry_space_group_name_H-M "P -1"
_symmetry_group_IT_number 2
_symmetry_cell_setting 'triclinic'
loop_
_space_group_symop_operation_xyz
x,y,z
-x,-y,-z
loop_
_atom_site_type_symbol
_atom_site_label
_atom_site_fract_x
_atom_site_fract_y
_atom_site_fract_z
Si Si1 0.354947 0.650697 0.364647
Si Si2 0.251339 0.225073 0.218548
Si Si3 0.314173 0.312897 0.720077
Si Si4 0.706426 0.164750 0.992615
Si Si5 0.000000 0.500000 0.000000
Si Si6 0.002507 0.746982 0.754726
O O1 0.234770 0.344157 0.359800
O O2 0.554224 0.709366 0.292216
O O3 0.179572 0.679439 0.574809
O O4 0.477552 0.899810 0.207726
O O5 0.039492 0.144489 0.301460
O O6 0.260588 0.966896 0.156900
O O7 0.500000 0.500000 0.000000
O O8 0.500000 0.500000 0.500000
O O9 0.117094 0.982770 0.789295
O O10 0.206110 0.472367 0.852353
O O11 0.745974 0.443876 0.955025
O O12 0.920828 0.305071 0.925419
#
# Coordination Sequence:
#
# PCOD9051843 Si02
#       6
#     2   2   2   2   1   2
#     4  11  26  48  76 114 154 202 251 316 382 449
#     4  10  25  48  71 117 153 197 257 304 376 470
#     4  12  27  50  78 118 153 197 270 313 379 470
#     4  11  25  46  74 113 147 199 255 303 376 457
#     4  12  24  44  76 104 148 208 236 320 382 424
#     4  12  25  50  78 107 160 197 251 319 378 449
#
# _framework density 26.569033000000001
#
# number of rings (size 3 to 8) (size 9 to 14) (size 15 to 20)
#    0.000    0.727    1.818    4.364    5.091    5.091 
#    3.273    0.000    0.000    0.000    0.000    0.000 
#    0.000    0.000    0.000    0.000    0.000    0.000 
#
# Total GULP energy -61428.916903 kJ/mol
# GULP energy per Si atom -5584.446991 kJ/mol
# Density = 2.650856 g / cm^3
# Si number density = 26.569033 Si / 1000 Ang^3
#
#
#
# Elastic Constant Matrix: (Units=GPa)
#
#
# Indices 1 2 3 4 5 6 
#
# 1 144.2673 34.6650 25.6689 29.7076 -6.1114 14.4510
# 2 34.6650 152.9245 56.3913 25.5797 2.6500 19.2169
# 3 25.6689 56.3913 125.7814 24.2613 4.9809 -28.1312
# 4 29.7076 25.5797 24.2613 61.1447 -14.8233 4.3841
# 5 -6.1114 2.6500 4.9809 -14.8233 39.1185 8.1905
# 6 14.4510 19.2169 -28.1312 4.3841 8.1905 54.3323
#
#
#
# Elastic Compliance Matrix: (Units=1/GPa)
#
#
# Indices 1 2 3 4 5 6 
#
# 1 0.008213 -0.000488 -0.001607 -0.002685 0.001088 -0.002791
# 2 -0.000488 0.009551 -0.005393 -0.000971 0.000871 -0.006093
# 3 -0.001607 -0.005393 0.014333 -0.004863 -0.005863 0.011032
# 4 -0.002685 -0.000971 -0.004863 0.022734 0.009882 -0.004785
# 5 0.001088 0.000871 -0.005863 0.009882 0.032106 -0.009271
# 6 -0.002791 -0.006093 0.011032 -0.004785 -0.009271 0.028798
#
#
# Mechanical properties :
#
#
# Convention : Reuss Voigt Hill
#
# Bulk Modulus (GPa) = 58.40083 72.93595 65.66839
# Shear Modulus (GPa) = 36.65170 51.33563 43.99367
#
# Velocity S-wave (km/s) = 3.71818 4.40040 4.07360
# Velocity P-wave (km/s) = 6.36095 7.30268 6.84802
#
# Compressibility (1/GPa) = 0.01712305
#
# Stress axis : x y z
#
# Youngs Moduli (GPa) = 121.75375 104.69681 69.76708
#
# Poissons Ratio (x) = 0.05113 0.11209
# Poissons Ratio (y) = 0.05946 0.37622
# Poissons Ratio (z) = 0.19561 0.56458
#
# Static dielectric constant tensor:
#      x y z
#    x 2.031500 0.031830 0.037030 
#    y 0.031830 2.118830 -0.073350 
#    z 0.037030 -0.073350 2.095430 
# 
# From -- ./inp_files/372708.got.cif
#   From: 2010.05.17/outbox.cif.g08.bks.cpg/sg2_187_cif.got.tgz:372708.got - 2010.06.03 11:33:40.
