data_PCOD9051529
_publ_section_title
;
Structure prediction by ZEFSAII (Michael W. Deem and Ramdas Pophale) SiO2 
 PCOD9051529
Probable space group: P -1
;
_chemical_formula_sum "Si O2"
_cell_formula_units_Z 12
_cell_length_a 11.582938
_cell_length_b 11.802878
_cell_length_c 10.991183
_cell_angle_alpha 143.254419
_cell_angle_beta 36.156002
_cell_angle_gamma 144.129927
_cell_volume 470.148129
_symmetry_space_group_name_H-M "P -1"
_symmetry_group_IT_number 2
_symmetry_cell_setting 'triclinic'
loop_
_space_group_symop_operation_xyz
x,y,z
-x,-y,-z
loop_
_atom_site_type_symbol
_atom_site_label
_atom_site_fract_x
_atom_site_fract_y
_atom_site_fract_z
Si Si1 0.986403 0.715854 0.168983
Si Si2 0.704909 0.548115 0.780324
Si Si3 0.813358 0.151248 0.329129
Si Si4 0.568985 0.023663 0.668797
Si Si5 0.661742 0.844519 0.679476
Si Si6 0.610911 0.427461 0.109894
O O1 0.845579 0.766172 0.433206
O O2 0.831225 0.649994 0.125160
O O3 0.216176 0.931015 0.157984
O O4 0.000000 0.500000 0.000000
O O5 0.763853 0.354289 0.559533
O O6 0.604029 0.565370 0.752833
O O7 0.925044 0.755333 0.812009
O O8 0.500000 0.500000 0.000000
O O9 0.705682 0.018402 0.429445
O O10 0.673864 0.038749 0.231257
O O11 0.584984 0.887885 0.650962
O O12 0.661902 0.263761 0.847213
O O13 0.466491 0.674717 0.779391
#
# Coordination Sequence:
#
# PCOD9051529 Si02
#       6
#     2   2   2   2   2   2
#     4  11  25  44  71 104 150 195 242 296 377 442
#     4  11  24  47  69 105 142 194 254 300 371 439
#     4  10  25  46  74 100 147 199 240 317 361 439
#     4  11  23  47  71 107 146 190 253 299 379 440
#     4  11  26  47  71 112 148 191 243 312 370 446
#     4  12  25  45  73 107 149 191 248 308 374 445
#
# _framework density 25.523869999999999
#
# number of rings (size 3 to 8) (size 9 to 14) (size 15 to 20)
#    0.000    1.000    3.333    2.000    4.667    2.000 
#    3.000    0.000    0.000    0.000    0.000    0.000 
#    0.000    0.000    0.000    0.000    0.000    0.000 
#
# Total GULP energy -67233.569084 kJ/mol
# GULP energy per Si atom -5602.797424 kJ/mol
# Density = 2.546578 g / cm^3
# Si number density = 25.523870 Si / 1000 Ang^3
#
#
#
# Elastic Constant Matrix: (Units=GPa)
#
#
# Indices 1 2 3 4 5 6 
#
# 1 176.8653 85.4726 25.4837 -13.2639 -1.3215 7.5875
# 2 85.4726 108.4638 17.1406 -7.3694 1.6289 23.7263
# 3 25.4837 17.1406 83.5197 5.0476 -13.9443 -0.8811
# 4 -13.2639 -7.3694 5.0476 42.4842 8.2102 -4.1893
# 5 -1.3215 1.6289 -13.9443 8.2102 43.8168 6.2475
# 6 7.5875 23.7263 -0.8811 -4.1893 6.2475 58.4457
#
#
#
# Elastic Compliance Matrix: (Units=1/GPa)
#
#
# Indices 1 2 3 4 5 6 
#
# 1 0.009649 -0.007641 -0.001594 0.002202 -0.000637 0.002051
# 2 -0.007641 0.016716 -0.001248 0.000185 -0.000464 -0.005750
# 3 -0.001594 -0.001248 0.013746 -0.003292 0.004968 0.000154
# 4 0.002202 0.000185 -0.003292 0.026050 -0.006171 0.002116
# 5 -0.000637 -0.000464 0.004968 -0.006171 0.025967 -0.002872
# 6 0.002051 -0.005750 0.000154 0.002116 -0.002872 0.019639
#
#
# Mechanical properties :
#
#
# Convention : Reuss Voigt Hill
#
# Bulk Modulus (GPa) = 52.23637 69.44920 60.84278
# Shear Modulus (GPa) = 35.94188 44.99946 40.47067
#
# Velocity S-wave (km/s) = 3.75663 4.20341 3.98628
# Velocity P-wave (km/s) = 6.27108 7.12929 6.71391
#
# Compressibility (1/GPa) = 0.01914375
#
# Stress axis : x y z
#
# Youngs Moduli (GPa) = 103.64103 59.82399 72.75028
#
# Poissons Ratio (x) = 0.45712 0.11594
# Poissons Ratio (y) = 0.79194 0.09082
# Poissons Ratio (z) = 0.16517 0.07468
#
# Static dielectric constant tensor:
#      x y z
#    x 2.172370 0.010480 0.002400 
#    y 0.010480 2.002410 0.046800 
#    z 0.002400 0.046800 2.028290 
# 
# From -- ./inp_files/424375.got.cif
#   From: 2010.05.17/outbox.cif.g08.bks.cpg/sg2_213_cif.got.tgz:424375.got - 2010.06.03 11:33:40.
