data_PCOD9051259
_publ_section_title
;
Structure prediction by ZEFSAII (Michael W. Deem and Ramdas Pophale) SiO2 
 PCOD9051259
Probable space group: P -1
;
_chemical_formula_sum "Si O2"
_cell_formula_units_Z 14
_cell_length_a 5.246912
_cell_length_b 7.636838
_cell_length_c 18.244936
_cell_angle_alpha 66.448469
_cell_angle_beta 116.675758
_cell_angle_gamma 90.536883
_cell_volume 585.800608
_symmetry_space_group_name_H-M "P -1"
_symmetry_group_IT_number 2
_symmetry_cell_setting 'triclinic'
loop_
_space_group_symop_operation_xyz
x,y,z
-x,-y,-z
loop_
_atom_site_type_symbol
_atom_site_label
_atom_site_fract_x
_atom_site_fract_y
_atom_site_fract_z
Si Si1 0.839339 0.706465 0.771820
Si Si2 0.018608 0.908639 0.214040
Si Si3 0.059367 0.709170 0.092442
Si Si4 0.832381 0.243979 0.345352
Si Si5 0.750453 0.313327 0.581387
Si Si6 0.809783 0.807726 0.462910
Si Si7 0.577007 0.025805 0.921989
O O1 0.975620 0.510190 0.867388
O O2 0.513925 0.677889 0.715356
O O3 0.018814 0.724026 0.717639
O O4 0.835144 0.906363 0.783046
O O5 0.034799 0.815684 0.151215
O O6 0.143347 0.735458 0.314632
O O7 0.672165 0.989191 0.165091
O O8 0.374954 0.752239 0.107924
O O9 0.853898 0.844325 0.983654
O O10 0.013713 0.303304 0.426798
O O11 0.860867 0.018631 0.409924
O O12 0.500000 0.500000 0.500000
O O13 0.534383 0.158880 0.568542
O O14 0.032621 0.303173 0.569499
O O15 0.500000 0.000000 0.000000
#
# Coordination Sequence:
#
# PCOD9051259 Si02
#       7
#     2   2   2   2   2   2   2
#     4  12  26  44  74 107 140 184 243 282 358 415
#     4  11  25  44  72 100 145 181 231 300 343 418
#     4  10  25  45  74 103 138 185 232 290 358 425
#     4  11  24  43  66  99 141 191 237 292 340 416
#     4  12  26  41  64 103 139 186 237 288 349 410
#     4  11  23  45  64  91 144 188 240 287 343 406
#     4   9  22  48  71 103 139 180 230 289 360 425
#
# _framework density 23.898917000000001
#
# number of rings (size 3 to 8) (size 9 to 14) (size 15 to 20)
#    0.000    1.143    2.857    1.286   12.000    2.857 
#    0.000    6.429    0.000    0.000    0.000    0.000 
#    0.000    0.000    0.000    0.000    0.000    0.000 
#
# Total GULP energy -78005.797359 kJ/mol
# GULP energy per Si atom -5571.842669 kJ/mol
# Density = 2.384452 g / cm^3
# Si number density = 23.898917 Si / 1000 Ang^3
#
#
#
# Elastic Constant Matrix: (Units=GPa)
#
#
# Indices 1 2 3 4 5 6 
#
# 1 72.5720 -19.3594 8.0426 2.8104 -6.2619 16.4825
# 2 -19.3594 50.8021 23.4421 -22.7420 -9.7098 1.9103
# 3 8.0426 23.4421 131.0140 -20.1243 11.2011 9.1072
# 4 2.8104 -22.7420 -20.1243 41.7236 12.7303 0.0559
# 5 -6.2619 -9.7098 11.2011 12.7303 44.2836 2.3633
# 6 16.4825 1.9103 9.1072 0.0559 2.3633 26.0787
#
#
#
# Elastic Compliance Matrix: (Units=1/GPa)
#
#
# Indices 1 2 3 4 5 6 
#
# 1 0.020773 0.011671 -0.002700 0.001722 0.006412 -0.013626
# 2 0.011671 0.033934 -0.004715 0.013335 0.006923 -0.008871
# 3 -0.002700 -0.004715 0.009708 0.003795 -0.004914 -0.000901
# 4 0.001722 0.013335 0.003795 0.035335 -0.007803 -0.002759
# 5 0.006412 0.006923 -0.004914 -0.007803 0.028782 -0.005435
# 6 -0.013626 -0.008871 -0.000901 -0.002759 -0.005435 0.048421
#
#
# Mechanical properties :
#
#
# Convention : Reuss Voigt Hill
#
# Bulk Modulus (GPa) = 13.71254 30.95987 22.33620
# Shear Modulus (GPa) = 25.94038 38.56803 32.25421
#
# Velocity S-wave (km/s) = 3.29815 4.02157 3.67769
# Velocity P-wave (km/s) = 4.50043 5.87764 5.23453
#
# Compressibility (1/GPa) = 0.07292597
#
# Stress axis : x y z
#
# Youngs Moduli (GPa) = 48.13907 29.46914 103.01000
#
# Poissons Ratio (x) = -0.34392 0.27812
# Poissons Ratio (y) = -0.56181 0.48570
# Poissons Ratio (z) = 0.12997 0.13895
#
# Static dielectric constant tensor:
#      x y z
#    x 2.197160 0.052790 0.020140 
#    y 0.052790 2.137300 -0.018360 
#    z 0.020140 -0.018360 1.885860 
# 
# From -- ./inp_files/137925.got.cif
#   From: 2010.05.17/outbox.cif.g08.bks.cpg/sg2_69_cif.got.tgz:137925.got - 2010.06.03 11:33:40.
