data_PCOD9051683
_publ_section_title
;
Structure prediction by ZEFSAII (Michael W. Deem and Ramdas Pophale) SiO2 
 PCOD9051683
Probable space group: P -1
;
_chemical_formula_sum "Si O2"
_cell_formula_units_Z 16
_cell_length_a 23.445181
_cell_length_b 5.103407
_cell_length_c 14.463643
_cell_angle_alpha 58.421742
_cell_angle_beta 150.889962
_cell_angle_gamma 114.899859
_cell_volume 714.457684
_symmetry_space_group_name_H-M "P -1"
_symmetry_group_IT_number 2
_symmetry_cell_setting 'triclinic'
loop_
_space_group_symop_operation_xyz
x,y,z
-x,-y,-z
loop_
_atom_site_type_symbol
_atom_site_label
_atom_site_fract_x
_atom_site_fract_y
_atom_site_fract_z
Si Si1 0.246497 0.259599 0.542452
Si Si2 0.721992 0.476764 0.271240
Si Si3 0.629492 0.069765 0.702113
Si Si4 0.979670 0.644946 0.545120
Si Si5 0.553395 0.784400 0.820643
Si Si6 0.133937 0.212213 0.979105
Si Si7 0.020083 0.578157 0.908101
Si Si8 0.602016 0.640086 0.437248
O O1 0.306308 0.422218 0.682263
O O2 0.297009 0.344675 0.498869
O O3 0.108336 0.366758 0.329624
O O4 0.267134 0.892385 0.652124
O O5 0.848641 0.591915 0.403218
O O6 0.626659 0.632062 0.036966
O O7 0.640989 0.415958 0.619092
O O8 0.500000 0.000000 0.500000
O O9 0.633029 0.987725 0.830490
O O10 0.728263 0.849773 0.831309
O O11 0.000000 0.500000 0.500000
O O12 0.073393 0.479276 0.779283
O O13 0.000000 0.000000 0.500000
O O14 0.502074 0.520075 0.734245
O O15 0.446932 0.024088 0.659775
O O16 0.096289 0.308917 0.011368
O O17 0.080760 0.896273 0.932393
O O18 0.000000 0.500000 0.000000
#
# Coordination Sequence:
#
# PCOD9051683 Si02
#       8
#     2   2   2   2   2   2   2   2
#     4  12  24  45  69 102 145 183 230 292 342 424
#     4  12  25  44  70 100 148 178 233 289 348 419
#     4  10  25  47  72 101 141 176 239 297 346 415
#     4  12  24  42  68  98 137 181 229 282 340 415
#     4  11  25  45  69 103 137 187 234 291 351 412
#     4  12  25  45  68 104 135 181 231 274 363 410
#     4  12  25  44  70 101 141 182 232 286 343 419
#     4  11  25  44  71 101 137 187 237 286 355 408
#
# _framework density 22.394607000000001
#
# number of rings (size 3 to 8) (size 9 to 14) (size 15 to 20)
#    0.000    0.500    2.500    5.250    0.000   12.000 
#    0.000    0.000    0.000    0.000    0.000    0.000 
#    0.000    0.000    0.000    0.000    0.000    0.000 
#
# Total GULP energy -89673.278173 kJ/mol
# GULP energy per Si atom -5604.579886 kJ/mol
# Density = 2.234364 g / cm^3
# Si number density = 22.394607 Si / 1000 Ang^3
#
#
#
# Elastic Constant Matrix: (Units=GPa)
#
#
# Indices 1 2 3 4 5 6 
#
# 1 96.3813 -5.3962 -3.2244 15.0555 11.0927 2.6046
# 2 -5.3962 59.7143 8.0585 -3.1591 2.2751 1.9780
# 3 -3.2244 8.0585 73.5531 5.0363 6.2223 9.7667
# 4 15.0555 -3.1591 5.0363 16.4119 -5.9168 -5.9471
# 5 11.0927 2.2751 6.2223 -5.9168 38.4184 3.7514
# 6 2.6046 1.9780 9.7667 -5.9471 3.7514 38.3080
#
#
#
# Elastic Compliance Matrix: (Units=1/GPa)
#
#
# Indices 1 2 3 4 5 6 
#
# 1 0.014149 0.000345 0.002879 -0.017661 -0.006923 -0.003778
# 2 0.000345 0.017261 -0.002136 0.003657 -0.000234 0.000221
# 3 0.002879 -0.002136 0.015854 -0.011529 -0.004513 -0.005475
# 4 -0.017661 0.003657 -0.011529 0.094519 0.019676 0.016698
# 5 -0.006923 -0.000234 -0.004513 0.019676 0.031648 0.001589
# 6 -0.003778 0.000221 -0.005475 0.016698 0.001589 0.030182
#
#
# Mechanical properties :
#
#
# Convention : Reuss Voigt Hill
#
# Bulk Modulus (GPa) = 20.22685 25.39161 22.80923
# Shear Modulus (GPa) = 22.94443 33.97504 28.45974
#
# Velocity S-wave (km/s) = 3.20433 3.89923 3.56874
# Velocity P-wave (km/s) = 4.76885 5.62449 5.21425
#
# Compressibility (1/GPa) = 0.04943924
#
# Stress axis : x y z
#
# Youngs Moduli (GPa) = 70.67737 57.93443 63.07527
#
# Poissons Ratio (x) = -0.01996 -0.18160
# Poissons Ratio (y) = -0.02435 0.13472
# Poissons Ratio (z) = -0.20349 0.12374
#
# Static dielectric constant tensor:
#      x y z
#    x 1.827810 0.018790 -0.010940 
#    y 0.018790 1.796710 0.021830 
#    z -0.010940 0.021830 1.796000 
# 
# From -- ./inp_files/542008.got.cif
#   From: 2010.05.17/outbox.cif.g08.bks.cpg/sg2_272_cif.got.tgz:542008.got - 2010.06.03 11:33:40.
