data_PCOD9051199
_publ_section_title
;
Structure prediction by ZEFSAII (Michael W. Deem and Ramdas Pophale) SiO2 
 PCOD9051199
Probable space group: P -1
;
_chemical_formula_sum "Si O2"
_cell_formula_units_Z 16
_cell_length_a 16.384093
_cell_length_b 11.366543
_cell_length_c 9.312414
_cell_angle_alpha 50.967238
_cell_angle_beta 117.119164
_cell_angle_gamma 72.791124
_cell_volume 644.733272
_symmetry_space_group_name_H-M "P -1"
_symmetry_group_IT_number 2
_symmetry_cell_setting 'triclinic'
loop_
_space_group_symop_operation_xyz
x,y,z
-x,-y,-z
loop_
_atom_site_type_symbol
_atom_site_label
_atom_site_fract_x
_atom_site_fract_y
_atom_site_fract_z
Si Si1 0.339299 0.840308 0.115067
Si Si2 0.258915 0.451416 0.713733
Si Si3 0.871231 0.354485 0.840706
Si Si4 0.584872 0.532027 0.966837
Si Si5 0.874866 0.774237 0.783610
Si Si6 0.262641 0.125478 0.116592
Si Si7 0.618876 0.981694 0.222855
Si Si8 0.171203 0.836107 0.825386
O O1 0.500000 0.500000 0.500000
O O2 0.276596 0.982694 0.110482
O O3 0.181114 0.988375 0.785670
O O4 0.397734 0.905830 0.024449
O O5 0.127740 0.661509 0.317538
O O6 0.287404 0.557079 0.755921
O O7 0.230116 0.337259 0.865654
O O8 0.439771 0.179236 0.987869
O O9 0.745506 0.666555 0.543412
O O10 0.800072 0.308901 0.900238
O O11 0.053002 0.157326 0.200213
O O12 0.440219 0.854395 0.553014
O O13 0.500000 0.500000 0.000000
O O14 0.683109 0.367496 0.022171
O O15 0.873251 0.721432 0.986802
O O16 0.698246 0.988153 0.397457
O O17 0.000000 0.500000 0.000000
O O18 0.000000 0.000000 0.500000
#
# Coordination Sequence:
#
# PCOD9051199 Si02
#       8
#     2   2   2   2   2   2   2   2
#     4  12  25  45  73 108 151 194 244 306 373 449
#     4  12  25  44  75 110 139 184 253 312 354 444
#     4  11  25  45  71 106 143 188 247 304 374 433
#     4  12  28  47  74 107 150 197 249 304 375 445
#     4  10  25  45  72 101 149 190 239 304 377 434
#     4  12  26  46  75 109 144 194 254 302 373 441
#     4  11  22  45  71 103 145 189 241 302 372 437
#     4  12  28  48  75 108 151 198 248 302 380 448
#
# _framework density 24.816465000000001
#
# number of rings (size 3 to 8) (size 9 to 14) (size 15 to 20)
#    0.000    0.500    3.750    3.750    7.000    1.500 
#    0.000    1.250    0.000    0.000    0.000    0.000 
#    0.000    0.000    0.000    0.000    0.000    0.000 
#
# Total GULP energy -89573.479195 kJ/mol
# GULP energy per Si atom -5598.342450 kJ/mol
# Density = 2.475998 g / cm^3
# Si number density = 24.816465 Si / 1000 Ang^3
#
#
#
# Elastic Constant Matrix: (Units=GPa)
#
#
# Indices 1 2 3 4 5 6 
#
# 1 162.7773 50.2834 11.0609 3.9793 -16.7959 -17.5362
# 2 50.2834 167.3493 15.6570 23.4855 3.4899 -7.8610
# 3 11.0609 15.6570 49.1649 13.8622 -0.7454 5.0175
# 4 3.9793 23.4855 13.8622 45.3958 13.2425 4.9103
# 5 -16.7959 3.4899 -0.7454 13.2425 47.0181 12.6409
# 6 -17.5362 -7.8610 5.0175 4.9103 12.6409 50.1349
#
#
#
# Elastic Compliance Matrix: (Units=1/GPa)
#
#
# Indices 1 2 3 4 5 6 
#
# 1 0.007276 -0.002032 -0.001105 -0.000107 0.002286 0.001771
# 2 -0.002032 0.007185 -0.001060 -0.003130 -0.000662 0.000995
# 3 -0.001105 -0.001060 0.023222 -0.006945 0.002788 -0.002900
# 4 -0.000107 -0.003130 -0.006945 0.028080 -0.007649 -0.000655
# 5 0.002286 -0.000662 0.002788 -0.007649 0.025766 -0.005330
# 6 0.001771 0.000995 -0.002900 -0.000655 -0.005330 0.022420
#
#
# Mechanical properties :
#
#
# Convention : Reuss Voigt Hill
#
# Bulk Modulus (GPa) = 34.14394 59.25490 46.69942
# Shear Modulus (GPa) = 37.84811 48.66244 43.25528
#
# Velocity S-wave (km/s) = 3.90952 4.43300 4.17946
# Velocity P-wave (km/s) = 5.84530 7.08033 6.49225
#
# Compressibility (1/GPa) = 0.02928777
#
# Stress axis : x y z
#
# Youngs Moduli (GPa) = 137.44702 139.17705 43.06172
#
# Poissons Ratio (x) = 0.28282 0.04760
# Poissons Ratio (y) = 0.27930 0.04565
# Poissons Ratio (z) = 0.15194 0.14755
#
# Static dielectric constant tensor:
#      x y z
#    x 2.025960 0.022820 0.122130 
#    y 0.022820 2.001690 0.040250 
#    z 0.122130 0.040250 2.122920 
# 
# From -- ./inp_files/306527.got.cif
#   From: 2010.05.17/outbox.cif.g08.bks.cpg/sg2_154_cif.got.tgz:306527.got - 2010.06.03 11:33:40.
