data_PCOD9051296
_publ_section_title
;
Structure prediction by ZEFSAII (Michael W. Deem and Ramdas Pophale) SiO2 
 PCOD9051296
Probable space group: P -1
;
_chemical_formula_sum "Si O2"
_cell_formula_units_Z 12
_cell_length_a 8.288646
_cell_length_b 7.632693
_cell_length_c 8.788217
_cell_angle_alpha 72.370062
_cell_angle_beta 103.351405
_cell_angle_gamma 125.330691
_cell_volume 431.169580
_symmetry_space_group_name_H-M "P -1"
_symmetry_group_IT_number 2
_symmetry_cell_setting 'triclinic'
loop_
_space_group_symop_operation_xyz
x,y,z
-x,-y,-z
loop_
_atom_site_type_symbol
_atom_site_label
_atom_site_fract_x
_atom_site_fract_y
_atom_site_fract_z
Si Si1 0.050120 0.812225 0.415340
Si Si2 0.446214 0.863345 0.216704
Si Si3 0.425624 0.648312 0.877556
Si Si4 0.956240 0.327146 0.890491
Si Si5 0.395425 0.599327 0.542574
Si Si6 0.124885 0.911912 0.741954
O O1 0.836762 0.585596 0.449961
O O2 0.096545 0.800243 0.249759
O O3 0.146675 0.829834 0.599479
O O4 0.023357 0.014590 0.345852
O O5 0.241972 0.664280 0.152722
O O6 0.422545 0.804297 0.404667
O O7 0.486664 0.100237 0.118996
O O8 0.653017 0.886086 0.220996
O O9 0.483123 0.669829 0.708409
O O10 0.186075 0.516207 0.870779
O O11 0.500000 0.500000 0.000000
O O12 0.944133 0.221872 0.079849
O O13 0.500000 0.500000 0.500000
#
# Coordination Sequence:
#
# PCOD9051296 Si02
#       6
#     2   2   2   2   2   2
#     4  10  25  45  78 108 151 205 248 308 388 442
#     4  12  28  47  80 113 151 201 253 314 380 451
#     4  11  30  48  77 112 150 203 253 312 387 447
#     4  11  28  48  77 108 156 195 259 313 375 454
#     4  11  25  48  76 110 154 197 251 313 378 457
#     4  11  25  46  76 114 150 200 254 310 380 453
#
# _framework density 27.831275999999999
#
# number of rings (size 3 to 8) (size 9 to 14) (size 15 to 20)
#    0.000    1.000    1.667    1.500   16.333    3.333 
#    0.000    0.000    0.000    0.000    0.000    0.000 
#    0.000    0.000    0.000    0.000    0.000    0.000 
#
# Total GULP energy -67051.025361 kJ/mol
# GULP energy per Si atom -5587.585447 kJ/mol
# Density = 2.776793 g / cm^3
# Si number density = 27.831276 Si / 1000 Ang^3
#
#
#
# Elastic Constant Matrix: (Units=GPa)
#
#
# Indices 1 2 3 4 5 6 
#
# 1 87.5285 45.7892 66.1341 11.0322 -1.7521 12.2954
# 2 45.7892 95.4447 53.2922 -0.2020 -1.4043 17.2639
# 3 66.1341 53.2922 283.4006 -3.4536 -4.5570 -10.8656
# 4 11.0322 -0.2020 -3.4536 55.7065 -13.3631 -9.8625
# 5 -1.7521 -1.4043 -4.5570 -13.3631 55.6453 1.7797
# 6 12.2954 17.2639 -10.8656 -9.8625 1.7797 53.8339
#
#
#
# Elastic Compliance Matrix: (Units=1/GPa)
#
#
# Indices 1 2 3 4 5 6 
#
# 1 0.018302 -0.006300 -0.003298 -0.004708 -0.000866 -0.003659
# 2 -0.006300 0.014966 -0.001467 0.000663 0.000332 -0.003546
# 3 -0.003298 -0.001467 0.004694 0.001494 0.000525 0.002427
# 4 -0.004708 0.000663 0.001494 0.021008 0.004881 0.004852
# 5 -0.000866 0.000332 0.000525 0.004881 0.019152 0.000458
# 6 -0.003659 -0.003546 0.002427 0.004852 0.000458 0.021912
#
#
# Mechanical properties :
#
#
# Convention : Reuss Voigt Hill
#
# Bulk Modulus (GPa) = 63.15829 88.53387 75.84608
# Shear Modulus (GPa) = 39.23331 53.11436 46.17384
#
# Velocity S-wave (km/s) = 3.75865 4.37331 4.07758
# Velocity P-wave (km/s) = 6.44819 7.57503 7.03421
#
# Compressibility (1/GPa) = 0.01583323
#
# Stress axis : x y z
#
# Youngs Moduli (GPa) = 54.63746 66.81666 213.05055
#
# Poissons Ratio (x) = 0.42094 0.70264
# Poissons Ratio (y) = 0.34421 0.31249
# Poissons Ratio (z) = 0.18019 0.09800
#
# Static dielectric constant tensor:
#      x y z
#    x 2.315740 -0.067260 -0.098050 
#    y -0.067260 2.217910 -0.005760 
#    z -0.098050 -0.005760 2.158700 
# 
# From -- ./inp_files/157743.got.cif
#   From: 2010.05.17/outbox.cif.g08.bks.cpg/sg2_79_cif.got.tgz:157743.got - 2010.06.03 11:33:40.
