data_PCOD9051756
_publ_section_title
;
Structure prediction by ZEFSAII (Michael W. Deem and Ramdas Pophale) SiO2 
 PCOD9051756
Probable space group: P -1
;
_chemical_formula_sum "Si O2"
_cell_formula_units_Z 16
_cell_length_a 14.382355
_cell_length_b 8.984519
_cell_length_c 10.140500
_cell_angle_alpha 30.596673
_cell_angle_beta 92.626520
_cell_angle_gamma 94.017026
_cell_volume 665.043248
_symmetry_space_group_name_H-M "P -1"
_symmetry_group_IT_number 2
_symmetry_cell_setting 'triclinic'
loop_
_space_group_symop_operation_xyz
x,y,z
-x,-y,-z
loop_
_atom_site_type_symbol
_atom_site_label
_atom_site_fract_x
_atom_site_fract_y
_atom_site_fract_z
Si Si1 0.322191 0.644173 0.202638
Si Si2 0.683041 0.371288 0.289463
Si Si3 0.027886 0.945459 0.691726
Si Si4 0.800333 0.845378 0.285939
Si Si5 0.392084 0.984385 0.200877
Si Si6 0.949920 0.675173 0.253364
Si Si7 0.435434 0.735643 0.880950
Si Si8 0.891708 0.532402 0.092392
O O1 0.276787 0.354457 0.489789
O O2 0.381507 0.817453 0.188825
O O3 0.380044 0.601345 0.105950
O O4 0.241103 0.853824 0.991657
O O5 0.672615 0.178342 0.567854
O O6 0.631744 0.198221 0.295486
O O7 0.786560 0.453132 0.182790
O O8 0.636593 0.681451 0.074038
O O9 0.082869 0.644411 0.900532
O O10 0.108133 0.123725 0.639488
O O11 0.000000 0.000000 0.500000
O O12 0.928620 0.867153 0.814356
O O13 0.842437 0.703462 0.265961
O O14 0.495974 0.004264 0.254850
O O15 0.952520 0.491897 0.259124
O O16 0.000000 0.500000 0.500000
O O17 0.000000 0.000000 0.000000
O O18 0.500000 0.500000 0.000000
#
# Coordination Sequence:
#
# PCOD9051756 Si02
#       8
#     2   2   2   2   2   2   2   2
#     4  12  26  46  73 105 141 183 230 293 341 423
#     4  11  25  44  71 102 138 179 230 288 341 413
#     4  11  26  42  65  94 139 184 230 283 334 410
#     4  12  27  46  70 104 141 182 236 283 348 400
#     4  11  24  47  72 103 138 176 229 283 353 418
#     4  12  24  43  67  96 134 185 231 282 335 395
#     4  10  25  47  75 105 141 181 228 286 358 422
#     4  11  25  42  65  98 132 183 230 279 342 399
#
# _framework density 24.058585999999998
#
# number of rings (size 3 to 8) (size 9 to 14) (size 15 to 20)
#    0.000    0.750    1.250    5.250    7.000    5.000 
#    0.000    4.375    0.000    0.000    0.000    0.000 
#    0.000    0.000    0.000    0.000    0.000    0.000 
#
# Total GULP energy -89445.424745 kJ/mol
# GULP energy per Si atom -5590.339047 kJ/mol
# Density = 2.400383 g / cm^3
# Si number density = 24.058586 Si / 1000 Ang^3
#
#
#
# Elastic Constant Matrix: (Units=GPa)
#
#
# Indices 1 2 3 4 5 6 
#
# 1 67.5360 22.5107 -4.4544 10.6969 -13.3611 9.6412
# 2 22.5107 122.8816 -2.8147 19.1374 0.4546 9.5751
# 3 -4.4544 -2.8147 85.5763 8.1681 -4.0843 -0.3199
# 4 10.6969 19.1374 8.1681 39.3873 -0.9947 -3.8305
# 5 -13.3611 0.4546 -4.0843 -0.9947 37.8944 14.1276
# 6 9.6412 9.5751 -0.3199 -3.8305 14.1276 45.1108
#
#
#
# Elastic Compliance Matrix: (Units=1/GPa)
#
#
# Indices 1 2 3 4 5 6 
#
# 1 0.019359 -0.002207 0.001843 -0.005014 0.009557 -0.007075
# 2 -0.002207 0.009357 0.000579 -0.004247 -0.000274 -0.001785
# 3 0.001843 0.000579 0.012235 -0.003402 0.002423 -0.001478
# 4 -0.005014 -0.004247 -0.003402 0.029974 -0.003365 0.005548
# 5 0.009557 -0.000274 0.002423 -0.003365 0.034843 -0.013165
# 6 -0.007075 -0.001785 -0.001478 0.005548 -0.013165 0.028642
#
#
# Mechanical properties :
#
#
# Convention : Reuss Voigt Hill
#
# Bulk Modulus (GPa) = 24.16609 34.05303 29.10956
# Shear Modulus (GPa) = 33.83515 41.86198 37.84856
#
# Velocity S-wave (km/s) = 3.75422 4.17586 3.97064
# Velocity P-wave (km/s) = 5.37203 6.11844 5.75735
#
# Compressibility (1/GPa) = 0.04138030
#
# Stress axis : x y z
#
# Youngs Moduli (GPa) = 51.65544 106.87035 81.73099
#
# Poissons Ratio (x) = 0.23590 -0.15066
# Poissons Ratio (y) = 0.11402 -0.04728
# Poissons Ratio (z) = -0.09522 -0.06183
#
# Static dielectric constant tensor:
#      x y z
#    x 1.950710 0.006200 0.021740 
#    y 0.006200 2.001800 0.007910 
#    z 0.021740 0.007910 1.929460 
# 
# From -- ./inp_files/297289.got.cif
#   From: 2010.05.17/outbox.cif.g08.bks.cpg/sg2_149_cif.got.tgz:297289.got - 2010.06.03 11:33:40.
