data_PCOD9051253
_publ_section_title
;
Structure prediction by ZEFSAII (Michael W. Deem and Ramdas Pophale) SiO2 
 PCOD9051253
Probable space group: P -1
;
_chemical_formula_sum "Si O2"
_cell_formula_units_Z 10
_cell_length_a 4.809961
_cell_length_b 13.448213
_cell_length_c 9.330011
_cell_angle_alpha 50.071016
_cell_angle_beta 56.440406
_cell_angle_gamma 74.395169
_cell_volume 382.163579
_symmetry_space_group_name_H-M "P -1"
_symmetry_group_IT_number 2
_symmetry_cell_setting 'triclinic'
loop_
_space_group_symop_operation_xyz
x,y,z
-x,-y,-z
loop_
_atom_site_type_symbol
_atom_site_label
_atom_site_fract_x
_atom_site_fract_y
_atom_site_fract_z
Si Si1 0.391594 0.515058 0.679969
Si Si2 0.289500 0.629642 0.049528
Si Si3 0.953093 0.965173 0.211203
Si Si4 0.369438 0.103186 0.215428
Si Si5 0.954790 0.738233 0.616232
O O1 0.500000 0.500000 0.500000
O O2 0.604328 0.645975 0.835709
O O3 0.255913 0.652328 0.619739
O O4 0.673188 0.478348 0.740810
O O5 0.348181 0.768281 0.986355
O O6 0.937035 0.594791 0.102961
O O7 0.977207 0.817350 0.388622
O O8 0.577324 0.995419 0.321563
O O9 0.216946 0.057020 0.149495
O O10 0.000000 0.000000 0.000000
O O11 0.084956 0.149779 0.356599
#
# Coordination Sequence:
#
# PCOD9051253 Si02
#       5
#     2   2   2   2   2
#     4  12  25  46  71 113 146 185 244 308 364 421
#     4  10  25  45  74 100 150 190 247 287 364 439
#     4  12  25  46  71 113 146 185 244 308 364 421
#     4  10  25  45  74 100 150 190 247 287 364 439
#     4  10  26  44  80 102 150 198 242 290 368 436
#
# _framework density 26.166808
#
# number of rings (size 3 to 8) (size 9 to 14) (size 15 to 20)
#    1.200    0.000    0.000    4.800    2.800    4.800 
#    7.200    0.000    0.000    0.000    0.000    0.000 
#    0.000    0.000    0.000    0.000    0.000    0.000 
#
# Total GULP energy -56021.612152 kJ/mol
# GULP energy per Si atom -5602.161215 kJ/mol
# Density = 2.610725 g / cm^3
# Si number density = 26.166808 Si / 1000 Ang^3
#
#
#
# Elastic Constant Matrix: (Units=GPa)
#
#
# Indices 1 2 3 4 5 6 
#
# 1 100.1475 18.0225 -1.3158 -6.5323 13.8838 9.5493
# 2 18.0225 60.6191 19.8688 -1.9675 -1.5005 -10.7494
# 3 -1.3158 19.8688 129.2406 3.5537 11.5653 0.9698
# 4 -6.5323 -1.9675 3.5537 50.3417 -1.1894 9.5301
# 5 13.8838 -1.5005 11.5653 -1.1894 36.1368 3.7371
# 6 9.5493 -10.7494 0.9698 9.5301 3.7371 40.5824
#
#
#
# Elastic Compliance Matrix: (Units=1/GPa)
#
#
# Indices 1 2 3 4 5 6 
#
# 1 0.012043 -0.004784 0.001259 0.001962 -0.004734 -0.004156
# 2 -0.004784 0.020254 -0.003468 -0.000734 0.003096 0.006461
# 3 0.001259 -0.003468 0.008598 -0.000466 -0.003291 -0.001008
# 4 0.001962 -0.000734 -0.000466 0.021215 0.000651 -0.005687
# 5 -0.004734 0.003096 -0.003291 0.000651 0.030796 -0.000976
# 6 -0.004156 0.006461 -0.001008 -0.005687 -0.000976 0.028780
#
#
# Mechanical properties :
#
#
# Convention : Reuss Voigt Hill
#
# Bulk Modulus (GPa) = 37.16055 40.35092 38.75574
# Shear Modulus (GPa) = 34.56843 42.30763 38.43803
#
# Velocity S-wave (km/s) = 3.63861 4.02536 3.83686
# Velocity P-wave (km/s) = 5.64667 6.08760 5.87127
#
# Compressibility (1/GPa) = 0.02691026
#
# Stress axis : x y z
#
# Youngs Moduli (GPa) = 83.03424 49.37368 116.30225
#
# Poissons Ratio (x) = 0.23618 -0.14641
# Poissons Ratio (y) = 0.39720 0.40331
# Poissons Ratio (z) = -0.10453 0.17122
#
# Static dielectric constant tensor:
#      x y z
#    x 2.032740 0.043750 -0.086840 
#    y 0.043750 2.145350 -0.025520 
#    z -0.086840 -0.025520 2.052470 
# 
# From -- ./inp_files/42194.got.cif
#   From: 2010.05.17/outbox.cif.g08.bks.cpg/sg2_22_cif.got.tgz:42194.got - 2010.06.03 11:33:40.
