data_PCOD9051793
_publ_section_title
;
Structure prediction by ZEFSAII (Michael W. Deem and Ramdas Pophale) SiO2 
 PCOD9051793
Probable space group: P -1
;
_chemical_formula_sum "Si O2"
_cell_formula_units_Z 14
_cell_length_a 8.885445
_cell_length_b 5.103436
_cell_length_c 14.588708
_cell_angle_alpha 119.539441
_cell_angle_beta 115.099203
_cell_angle_gamma 91.916736
_cell_volume 495.886962
_symmetry_space_group_name_H-M "P -1"
_symmetry_group_IT_number 2
_symmetry_cell_setting 'triclinic'
loop_
_space_group_symop_operation_xyz
x,y,z
-x,-y,-z
loop_
_atom_site_type_symbol
_atom_site_label
_atom_site_fract_x
_atom_site_fract_y
_atom_site_fract_z
Si Si1 0.707096 0.412122 0.157205
Si Si2 0.300844 0.381816 0.461224
Si Si3 0.812744 0.243449 0.793256
Si Si4 0.141535 0.808627 0.001487
Si Si5 0.521142 0.815174 0.379989
Si Si6 0.668531 0.071169 0.265215
Si Si7 0.992810 0.641606 0.410787
O O1 0.729699 0.162504 0.045762
O O2 0.652704 0.715179 0.165120
O O3 0.899298 0.579762 0.277901
O O4 0.606764 0.240257 0.192717
O O5 0.500000 0.500000 0.500000
O O6 0.324957 0.604088 0.264364
O O7 0.333869 0.335031 0.570122
O O8 0.210589 0.061418 0.327624
O O9 0.819045 0.404719 0.558029
O O10 0.011117 0.452638 0.892947
O O11 0.761295 0.158747 0.871198
O O12 0.000000 0.000000 0.000000
O O13 0.581380 0.998725 0.331077
O O14 0.500000 0.000000 0.500000
O O15 0.870495 0.311337 0.371617
O O16 0.000000 0.000000 0.500000
#
# Coordination Sequence:
#
# PCOD9051793 Si02
#       7
#     2   2   2   2   2   2   2
#     4  10  25  47  78 113 160 208 280 342 416 493
#     4  11  25  49  83 123 176 221 275 353 433 511
#     4  10  25  47  78 119 157 212 283 346 434 495
#     4  11  24  47  86 112 156 211 288 357 418 503
#     4  10  25  49  79 116 164 218 274 345 428 512
#     4  10  25  51  76 111 170 214 284 337 420 520
#     4  10  25  48  77 115 169 224 282 338 419 518
#
# _framework density 28.232241999999999
#
# number of rings (size 3 to 8) (size 9 to 14) (size 15 to 20)
#    0.857    0.857    0.000    1.714    8.000    6.857 
#    7.714    1.429    0.000    0.000    0.000    0.000 
#    0.000    0.000    0.000    0.000    0.000    0.000 
#
# Total GULP energy -78210.985535 kJ/mol
# GULP energy per Si atom -5586.498967 kJ/mol
# Density = 2.816798 g / cm^3
# Si number density = 28.232242 Si / 1000 Ang^3
#
#
#
# Elastic Constant Matrix: (Units=GPa)
#
#
# Indices 1 2 3 4 5 6 
#
# 1 106.2523 43.9438 56.4653 5.8451 -1.2264 -0.8359
# 2 43.9438 169.9999 52.0527 -6.2891 -7.8500 -7.6113
# 3 56.4653 52.0527 194.2395 -18.5800 -0.1974 -11.7214
# 4 5.8451 -6.2891 -18.5800 34.1037 6.7338 -12.3537
# 5 -1.2264 -7.8500 -0.1974 6.7338 72.3744 -6.2516
# 6 -0.8359 -7.6113 -11.7214 -12.3537 -6.2516 61.4910
#
#
#
# Elastic Compliance Matrix: (Units=1/GPa)
#
#
# Indices 1 2 3 4 5 6 
#
# 1 0.012630 -0.002416 -0.003646 -0.005326 0.000277 -0.001864
# 2 -0.002416 0.006927 -0.000960 0.001396 0.000663 0.000990
# 3 -0.003646 -0.000960 0.007093 0.005189 -0.000441 0.002181
# 4 -0.005326 0.001396 0.005189 0.036818 -0.002640 0.008218
# 5 0.000277 0.000663 -0.000441 -0.002640 0.014217 0.000917
# 6 -0.001864 0.000990 0.002181 0.008218 0.000917 0.018520
#
#
# Mechanical properties :
#
#
# Convention : Reuss Voigt Hill
#
# Bulk Modulus (GPa) = 79.32592 86.15725 82.74159
# Shear Modulus (GPa) = 43.68662 54.79581 49.24122
#
# Velocity S-wave (km/s) = 3.93797 4.41034 4.18083
# Velocity P-wave (km/s) = 6.98824 7.51787 7.25789
#
# Compressibility (1/GPa) = 0.01260622
#
# Stress axis : x y z
#
# Youngs Moduli (GPa) = 79.17780 144.35242 140.98492
#
# Poissons Ratio (x) = 0.34878 0.51399
# Poissons Ratio (y) = 0.19131 0.13537
# Poissons Ratio (z) = 0.28866 0.13860
#
# Static dielectric constant tensor:
#      x y z
#    x 2.257220 0.000610 -0.087150 
#    y 0.000610 2.584700 0.033380 
#    z -0.087150 0.033380 2.244800 
# 
# From -- ./inp_files/409691.got.cif
#   From: 2010.05.17/outbox.cif.g08.bks.cpg/sg2_205_cif.got.tgz:409691.got - 2010.06.03 11:33:40.
