data_PCOD9051345
_publ_section_title
;
Structure prediction by ZEFSAII (Michael W. Deem and Ramdas Pophale) SiO2 
 PCOD9051345
Probable space group: P -1
;
_chemical_formula_sum "Si O2"
_cell_formula_units_Z 16
_cell_length_a 14.373223
_cell_length_b 18.062889
_cell_length_c 11.224376
_cell_angle_alpha 41.277362
_cell_angle_beta 142.272928
_cell_angle_gamma 159.311368
_cell_volume 629.056254
_symmetry_space_group_name_H-M "P -1"
_symmetry_group_IT_number 2
_symmetry_cell_setting 'triclinic'
loop_
_space_group_symop_operation_xyz
x,y,z
-x,-y,-z
loop_
_atom_site_type_symbol
_atom_site_label
_atom_site_fract_x
_atom_site_fract_y
_atom_site_fract_z
Si Si1 0.009445 0.816023 0.147813
Si Si2 0.433008 0.700177 0.887768
Si Si3 0.503021 0.478134 0.196163
Si Si4 0.214979 0.894223 0.909247
Si Si5 0.806599 0.074923 0.430487
Si Si6 0.159746 0.695610 0.293898
Si Si7 0.084888 0.081138 0.353979
Si Si8 0.214036 0.696161 0.893790
O O1 0.825937 0.664648 0.258650
O O2 0.148439 0.794292 0.252153
O O3 0.738650 0.694829 0.942539
O O4 0.266593 0.060783 0.138942
O O5 0.149539 0.555773 0.697579
O O6 0.459603 0.581696 0.059511
O O7 0.364520 0.710781 0.933184
O O8 0.409379 0.327495 0.379867
O O9 0.085332 0.910133 0.843705
O O10 0.154397 0.884384 0.723641
O O11 0.545055 0.111805 0.003838
O O12 0.122038 0.722824 0.087699
O O13 0.483151 0.852112 0.421560
O O14 0.963041 0.051818 0.624392
O O15 0.886990 0.251686 0.335909
O O16 0.000000 0.000000 0.500000
O O17 0.000000 0.500000 0.000000
#
# Coordination Sequence:
#
# PCOD9051345 Si02
#       8
#     2   2   2   2   2   2   2   2
#     4  10  19  35  59  87 107 138 195 240 272 317
#     4  11  18  32  59  82 109 138 189 238 276 317
#     4  10  21  36  57  86 111 145 185 236 278 322
#     4  10  17  35  52  78 110 148 186 225 268 332
#     4  10  20  33  54  78 114 151 180 224 284 332
#     4  10  18  34  56  81 111 139 186 233 273 319
#     4  10  20  35  58  77 113 154 181 216 285 344
#     4  11  20  30  55  85 112 142 192 235 272 324
#
# _framework density 25.434929
#
# number of rings (size 3 to 8) (size 9 to 14) (size 15 to 20)
#    0.000    1.750    5.000    3.375    1.750    0.000 
#    0.000    1.250   11.000    0.750    0.000    0.000 
#    0.000    0.000    0.000    0.000    0.000    0.000 
#
# Total GULP energy -89176.945404 kJ/mol
# GULP energy per Si atom -5573.559088 kJ/mol
# Density = 2.537704 g / cm^3
# Si number density = 25.434929 Si / 1000 Ang^3
#
#
#
# Elastic Constant Matrix: (Units=GPa)
#
#
# Indices 1 2 3 4 5 6 
#
# 1 102.6206 21.8937 18.3738 -14.0376 14.8914 26.8565
# 2 21.8937 167.0399 15.0041 -28.9223 -16.2714 33.7418
# 3 18.3738 15.0041 43.9135 -8.1868 4.4212 5.8455
# 4 -14.0376 -28.9223 -8.1868 31.5117 -0.5331 -4.6929
# 5 14.8914 -16.2714 4.4212 -0.5331 30.9867 -1.7974
# 6 26.8565 33.7418 5.8455 -4.6929 -1.7974 51.4681
#
#
#
# Elastic Compliance Matrix: (Units=1/GPa)
#
#
# Indices 1 2 3 4 5 6 
#
# 1 0.013537 -0.000091 -0.003384 0.003995 -0.006378 -0.006478
# 2 -0.000091 0.008753 -0.001496 0.006981 0.004700 -0.004720
# 3 -0.003384 -0.001496 0.025665 0.003753 -0.002752 0.000077
# 4 0.003995 0.006981 0.003753 0.040427 0.001712 -0.003341
# 5 -0.006378 0.004700 -0.002752 0.001712 0.038346 0.002055
# 6 -0.006478 -0.004720 0.000077 -0.003341 0.002055 0.025663
#
#
# Mechanical properties :
#
#
# Convention : Reuss Voigt Hill
#
# Bulk Modulus (GPa) = 26.30632 47.12413 36.71522
# Shear Modulus (GPa) = 28.57065 40.01346 34.29205
#
# Velocity S-wave (km/s) = 3.35518 3.97062 3.67580
# Velocity P-wave (km/s) = 5.03733 6.29195 5.69927
#
# Compressibility (1/GPa) = 0.03801368
#
# Stress axis : x y z
#
# Youngs Moduli (GPa) = 73.86994 114.24752 38.96314
#
# Poissons Ratio (x) = 0.01044 0.13184
# Poissons Ratio (y) = 0.00675 0.05828
# Poissons Ratio (z) = 0.24995 0.17090
#
# Static dielectric constant tensor:
#      x y z
#    x 2.069570 0.082930 -0.071250 
#    y 0.082930 2.085020 -0.017180 
#    z -0.071250 -0.017180 2.207200 
# 
# From -- ./inp_files/535081.got.cif
#   From: 2010.05.17/outbox.cif.g08.bks.cpg/sg2_268_cif.got.tgz:535081.got - 2010.06.03 11:33:40.
