data_PCOD9051859
_publ_section_title
;
Structure prediction by ZEFSAII (Michael W. Deem and Ramdas Pophale) SiO2 
 PCOD9051859
Probable space group: P -1
;
_chemical_formula_sum "Si O2"
_cell_formula_units_Z 11
_cell_length_a 8.565704
_cell_length_b 8.522814
_cell_length_c 11.245367
_cell_angle_alpha 139.933698
_cell_angle_beta 71.243355
_cell_angle_gamma 90.214686
_cell_volume 459.113092
_symmetry_space_group_name_H-M "P -1"
_symmetry_group_IT_number 2
_symmetry_cell_setting 'triclinic'
loop_
_space_group_symop_operation_xyz
x,y,z
-x,-y,-z
loop_
_atom_site_type_symbol
_atom_site_label
_atom_site_fract_x
_atom_site_fract_y
_atom_site_fract_z
Si Si1 0.332073 0.923694 0.516731
Si Si2 0.155780 0.126779 0.304590
Si Si3 0.884403 0.355958 0.285598
Si Si4 0.797214 0.879387 0.079008
Si Si5 0.484429 0.371487 0.058040
Si Si6 0.000000 0.000000 0.500000
O O1 0.413367 0.603494 0.307332
O O2 0.194224 0.007711 0.490131
O O3 0.500000 0.000000 0.500000
O O4 0.239684 0.068617 0.743198
O O5 0.219993 0.349394 0.470311
O O6 0.044663 0.229894 0.270887
O O7 0.016945 0.096420 0.415885
O O8 0.322839 0.851013 0.088074
O O9 0.780574 0.162703 0.195478
O O10 0.999537 0.327036 0.120540
O O11 0.660294 0.759130 0.994495
O O12 0.500000 0.500000 0.000000
#
# Coordination Sequence:
#
# PCOD9051859 Si02
#       6
#     2   2   2   2   2   1
#     4  12  25  48  74 112 153 190 253 312 374 444
#     4  11  24  46  74 106 147 196 246 311 371 444
#     4  10  25  48  72 105 145 200 250 297 379 455
#     4  11  24  49  71 103 151 196 246 307 369 458
#     4  12  25  46  72 112 150 189 250 313 376 442
#     4  12  22  44  80 104 142 200 242 314 364 436
#
# _framework density 23.959237000000002
#
# number of rings (size 3 to 8) (size 9 to 14) (size 15 to 20)
#    0.000    0.727    5.455    1.091    2.545    1.455 
#   16.364    5.455    0.000    0.000    0.000    0.000 
#    0.000    0.000    0.000    0.000    0.000    0.000 
#
# Total GULP energy -61354.794360 kJ/mol
# GULP energy per Si atom -5577.708578 kJ/mol
# Density = 2.390471 g / cm^3
# Si number density = 23.959237 Si / 1000 Ang^3
#
#
#
# Elastic Constant Matrix: (Units=GPa)
#
#
# Indices 1 2 3 4 5 6 
#
# 1 116.3694 38.7291 30.3879 17.8805 10.1223 32.4396
# 2 38.7291 62.0512 37.2931 -3.3803 -4.2882 15.5045
# 3 30.3879 37.2931 126.2894 7.1344 21.4465 -11.1592
# 4 17.8805 -3.3803 7.1344 43.9653 6.3696 0.8167
# 5 10.1223 -4.2882 21.4465 6.3696 31.4845 13.7946
# 6 32.4396 15.5045 -11.1592 0.8167 13.7946 42.7003
#
#
#
# Elastic Compliance Matrix: (Units=1/GPa)
#
#
# Indices 1 2 3 4 5 6 
#
# 1 0.014828 -0.004329 -0.003541 -0.006060 0.003359 -0.011588
# 2 -0.004329 0.036773 -0.016714 0.003788 0.027228 -0.023300
# 3 -0.003541 -0.016714 0.019708 0.000042 -0.024072 0.021686
# 4 -0.006060 0.003788 0.000042 0.026098 -0.004711 0.004262
# 5 0.003359 0.027228 -0.024072 -0.004711 0.069785 -0.041183
# 6 -0.011588 -0.023300 0.021686 0.004262 -0.041183 0.059573
#
#
# Mechanical properties :
#
#
# Convention : Reuss Voigt Hill
#
# Bulk Modulus (GPa) = 45.16779 57.50336 51.33557
# Shear Modulus (GPa) = 17.64829 36.85001 27.24915
#
# Velocity S-wave (km/s) = 2.71698 3.92603 3.37607
# Velocity P-wave (km/s) = 5.36055 6.67864 6.05556
#
# Compressibility (1/GPa) = 0.02213967
#
# Stress axis : x y z
#
# Youngs Moduli (GPa) = 67.43929 27.19399 50.74111
#
# Poissons Ratio (x) = 0.11773 0.17970
# Poissons Ratio (y) = 0.29195 0.84809
# Poissons Ratio (z) = 0.23884 0.45452
#
# Static dielectric constant tensor:
#      x y z
#    x 1.871760 0.007160 0.013090 
#    y 0.007160 1.953300 -0.008230 
#    z 0.013090 -0.008230 1.945720 
# 
# From -- ./inp_files/377391.got.cif
#   From: 2010.05.17/outbox.cif.g08.bks.cpg/sg2_189_cif.got.tgz:377391.got - 2010.06.03 11:33:40.
