data_PCOD9051317
_publ_section_title
;
Structure prediction by ZEFSAII (Michael W. Deem and Ramdas Pophale) SiO2 
 PCOD9051317
Probable space group: P -1
;
_chemical_formula_sum "Si O2"
_cell_formula_units_Z 16
_cell_length_a 9.825547
_cell_length_b 8.881900
_cell_length_c 14.752054
_cell_angle_alpha 142.072639
_cell_angle_beta 107.810896
_cell_angle_gamma 61.902440
_cell_volume 692.928050
_symmetry_space_group_name_H-M "P -1"
_symmetry_group_IT_number 2
_symmetry_cell_setting 'triclinic'
loop_
_space_group_symop_operation_xyz
x,y,z
-x,-y,-z
loop_
_atom_site_type_symbol
_atom_site_label
_atom_site_fract_x
_atom_site_fract_y
_atom_site_fract_z
Si Si1 0.580837 0.746216 0.663982
Si Si2 0.770805 0.280239 0.601754
Si Si3 0.526091 0.737208 0.436373
Si Si4 0.923716 0.657111 0.287991
Si Si5 0.159505 0.488306 0.986179
Si Si6 0.339143 0.745503 0.059363
Si Si7 0.365252 0.015917 0.909429
Si Si8 0.207261 0.700995 0.816829
O O1 0.710157 0.458576 0.582741
O O2 0.524687 0.765277 0.558114
O O3 0.444043 0.823933 0.748444
O O4 0.645165 0.976250 0.797513
O O5 0.615333 0.346556 0.659058
O O6 0.902628 0.368146 0.709105
O O7 0.840708 0.958131 0.453150
O O8 0.689133 0.526959 0.337811
O O9 0.500000 0.000000 0.500000
O O10 0.831916 0.651634 0.175871
O O11 0.924431 0.405792 0.228941
O O12 0.295271 0.306486 0.991621
O O13 0.197007 0.743355 0.091729
O O14 0.000000 0.500000 0.000000
O O15 0.500000 0.500000 0.000000
O O16 0.297287 0.698696 0.926784
O O17 0.219312 0.958633 0.893311
O O18 0.500000 0.000000 0.000000
#
# Coordination Sequence:
#
# PCOD9051317 Si02
#       8
#     2   2   2   2   2   2   2   2
#     4  12  25  41  72 105 134 179 236 290 339 411
#     4  11  24  44  68  96 139 182 229 278 346 415
#     4  12  24  40  70 101 132 177 235 279 340 408
#     4  10  25  46  65  96 145 186 218 288 352 412
#     4  11  26  43  70  99 138 183 230 282 357 415
#     4  11  22  44  67  98 139 176 227 288 347 413
#     4  12  24  42  71 106 138 177 232 292 345 410
#     4  11  23  41  68 100 132 178 224 287 342 404
#
# _framework density 23.090420999999999
#
# number of rings (size 3 to 8) (size 9 to 14) (size 15 to 20)
#    0.000    0.750    5.000    1.875    3.500    3.000 
#    0.000    3.125    0.000    0.000    0.000    0.000 
#    0.000    0.000    0.000    0.000    0.000    0.000 
#
# Total GULP energy -89324.352312 kJ/mol
# GULP energy per Si atom -5582.772020 kJ/mol
# Density = 2.303787 g / cm^3
# Si number density = 23.090421 Si / 1000 Ang^3
#
#
#
# Elastic Constant Matrix: (Units=GPa)
#
#
# Indices 1 2 3 4 5 6 
#
# 1 126.8124 23.5874 14.4008 -1.3891 32.4148 30.5499
# 2 23.5874 102.8698 17.6471 -5.4948 17.9045 20.8551
# 3 14.4008 17.6471 72.5542 -12.2569 21.6760 13.1842
# 4 -1.3891 -5.4948 -12.2569 29.9550 10.9098 11.0610
# 5 32.4148 17.9045 21.6760 10.9098 38.5364 8.2492
# 6 30.5499 20.8551 13.1842 11.0610 8.2492 39.9510
#
#
#
# Elastic Compliance Matrix: (Units=1/GPa)
#
#
# Indices 1 2 3 4 5 6 
#
# 1 0.016720 0.003375 0.009517 0.020476 -0.022790 -0.018652
# 2 0.003375 0.013666 0.004423 0.013726 -0.012928 -0.012305
# 3 0.009517 0.004423 0.029819 0.033070 -0.031468 -0.022086
# 4 0.020476 0.013726 0.033070 0.088372 -0.057294 -0.046373
# 5 -0.022790 -0.012928 -0.031468 -0.057294 0.077686 0.034382
# 6 -0.018652 -0.012305 -0.022086 -0.046373 0.034382 0.058745
#
#
# Mechanical properties :
#
#
# Convention : Reuss Voigt Hill
#
# Bulk Modulus (GPa) = 10.54440 45.94522 28.24481
# Shear Modulus (GPa) = 17.73115 38.12855 27.92985
#
# Velocity S-wave (km/s) = 2.77411 4.06799 3.48168
# Velocity P-wave (km/s) = 3.85193 6.48120 5.33120
#
# Compressibility (1/GPa) = 0.09483709
#
# Stress axis : x y z
#
# Youngs Moduli (GPa) = 59.80848 73.17241 33.53558
#
# Poissons Ratio (x) = -0.24697 -0.31917
# Poissons Ratio (y) = -0.20186 -0.14834
# Poissons Ratio (z) = -0.56922 -0.32366
#
# Static dielectric constant tensor:
#      x y z
#    x 1.794100 0.034570 -0.369240 
#    y 0.034570 1.885870 0.047080 
#    z -0.369240 0.047080 1.004480 
# 
# From -- ./inp_files/495890.got.cif
#   From: 2010.05.17/outbox.cif.g08.bks.cpg/sg2_248_cif.got.tgz:495890.got - 2010.06.03 11:33:40.
