data_PCOD9051268
_publ_section_title
;
Structure prediction by ZEFSAII (Michael W. Deem and Ramdas Pophale) SiO2 
 PCOD9051268
Probable space group: P -1
;
_chemical_formula_sum "Si O2"
_cell_formula_units_Z 14
_cell_length_a 18.456079
_cell_length_b 5.031283
_cell_length_c 13.858689
_cell_angle_alpha 61.859355
_cell_angle_beta 30.736473
_cell_angle_gamma 62.925574
_cell_volume 576.422014
_symmetry_space_group_name_H-M "P -1"
_symmetry_group_IT_number 2
_symmetry_cell_setting 'triclinic'
loop_
_space_group_symop_operation_xyz
x,y,z
-x,-y,-z
loop_
_atom_site_type_symbol
_atom_site_label
_atom_site_fract_x
_atom_site_fract_y
_atom_site_fract_z
Si Si1 0.453506 0.850832 0.482095
Si Si2 0.868118 0.225002 0.149588
Si Si3 0.728609 0.541740 0.557943
Si Si4 0.000246 0.307975 0.191100
Si Si5 0.629834 0.229477 0.896188
Si Si6 0.067572 0.813875 0.361386
Si Si7 0.441483 0.867405 0.281032
O O1 0.500000 0.500000 0.500000
O O2 0.281737 0.905728 0.662604
O O3 0.500000 0.000000 0.500000
O O4 0.510957 0.909335 0.299373
O O5 0.907131 0.278310 0.206375
O O6 0.869971 0.523774 0.028830
O O7 0.000000 0.000000 0.000000
O O8 0.891581 0.525132 0.344361
O O9 0.704291 0.257337 0.703359
O O10 0.680359 0.844689 0.621068
O O11 0.624712 0.448753 0.605907
O O12 0.037487 0.010528 0.264220
O O13 0.761155 0.254637 0.813061
O O14 0.500000 0.500000 0.000000
O O15 0.556573 0.931459 0.058015
O O16 0.000000 0.500000 0.500000
O O17 0.000000 0.000000 0.500000
#
# Coordination Sequence:
#
# PCOD9051268 Si02
#       7
#     2   2   2   2   2   2   2
#     4  12  28  47  71 108 151 190 246 313 380 437
#     4  11  27  48  82 107 150 205 264 312 377 456
#     4  11  22  43  73 103 139 191 242 297 365 448
#     4  11  26  46  78 109 152 198 263 308 385 445
#     4  10  25  45  74 109 147 193 243 298 380 450
#     4  12  29  47  74 111 154 196 249 315 377 447
#     4  11  24  43  71 102 144 191 241 295 368 444
#
# _framework density 24.287763999999999
#
# number of rings (size 3 to 8) (size 9 to 14) (size 15 to 20)
#    0.000    0.857    2.857    2.143   12.000    2.286 
#    0.000    0.000    0.000    0.000    0.000    0.000 
#    0.000    0.000    0.000    0.000    0.000    0.000 
#
# Total GULP energy -78245.925305 kJ/mol
# GULP energy per Si atom -5588.994665 kJ/mol
# Density = 2.423248 g / cm^3
# Si number density = 24.287764 Si / 1000 Ang^3
#
#
#
# Elastic Constant Matrix: (Units=GPa)
#
#
# Indices 1 2 3 4 5 6 
#
# 1 111.1860 35.2818 32.3626 -9.5822 12.3274 -8.3975
# 2 35.2818 106.2032 19.7228 -6.5999 1.0720 2.0250
# 3 32.3626 19.7228 112.2256 -18.4747 4.0938 -10.9623
# 4 -9.5822 -6.5999 -18.4747 47.5373 -7.1387 1.8270
# 5 12.3274 1.0720 4.0938 -7.1387 52.2685 -5.9219
# 6 -8.3975 2.0250 -10.9623 1.8270 -5.9219 51.1058
#
#
#
# Elastic Compliance Matrix: (Units=1/GPa)
#
#
# Indices 1 2 3 4 5 6 
#
# 1 0.011068 -0.003210 -0.002352 0.000502 -0.002159 0.001173
# 2 -0.003210 0.010718 -0.000992 0.000584 0.000568 -0.001120
# 3 -0.002352 -0.000992 0.010496 0.003462 0.000433 0.001831
# 4 0.000502 0.000584 0.003462 0.022968 0.002770 0.000302
# 5 -0.002159 0.000568 0.000433 0.002770 0.020196 0.001957
# 6 0.001173 -0.001120 0.001831 0.000302 0.001957 0.020413
#
#
# Mechanical properties :
#
#
# Convention : Reuss Voigt Hill
#
# Bulk Modulus (GPa) = 52.14891 56.03882 54.09386
# Shear Modulus (GPa) = 43.34331 46.33215 44.83773
#
# Velocity S-wave (km/s) = 4.22900 4.37238 4.30129
# Velocity P-wave (km/s) = 6.73527 6.97232 6.85482
#
# Compressibility (1/GPa) = 0.01917586
#
# Stress axis : x y z
#
# Youngs Moduli (GPa) = 90.34921 93.29814 95.27368
#
# Poissons Ratio (x) = 0.29945 0.22405
# Poissons Ratio (y) = 0.28999 0.09452
# Poissons Ratio (z) = 0.21247 0.09256
#
# Static dielectric constant tensor:
#      x y z
#    x 2.036880 0.006570 0.006670 
#    y 0.006570 1.925420 -0.065640 
#    z 0.006670 -0.065640 1.952070 
# 
# From -- ./inp_files/100499.got.cif
#   From: 2010.05.17/outbox.cif.g08.bks.cpg/sg2_51_cif.got.tgz:100499.got - 2010.06.03 11:33:40.
