data_PCOD9051836
_publ_section_title
;
Structure prediction by ZEFSAII (Michael W. Deem and Ramdas Pophale) SiO2 
 PCOD9051836
Probable space group: P -1
;
_chemical_formula_sum "Si O2"
_cell_formula_units_Z 14
_cell_length_a 14.871775
_cell_length_b 22.975154
_cell_length_c 11.194199
_cell_angle_alpha 32.811752
_cell_angle_beta 140.423875
_cell_angle_gamma 163.263225
_cell_volume 582.458740
_symmetry_space_group_name_H-M "P -1"
_symmetry_group_IT_number 2
_symmetry_cell_setting 'triclinic'
loop_
_space_group_symop_operation_xyz
x,y,z
-x,-y,-z
loop_
_atom_site_type_symbol
_atom_site_label
_atom_site_fract_x
_atom_site_fract_y
_atom_site_fract_z
Si Si1 0.205058 0.095722 0.655741
Si Si2 0.878316 0.536585 0.471264
Si Si3 0.718135 0.972668 0.749245
Si Si4 0.186495 0.376000 0.977461
Si Si5 0.199615 0.755062 0.036903
Si Si6 0.401052 0.892969 0.734640
Si Si7 0.825897 0.842452 0.928080
O O1 0.577645 0.360070 0.552699
O O2 0.000000 0.000000 0.500000
O O3 0.085333 0.059017 0.722408
O O4 0.080035 0.887711 0.888545
O O5 0.789513 0.514620 0.285471
O O6 0.222004 0.819723 0.365469
O O7 0.910494 0.431464 0.697264
O O8 0.767894 0.118640 0.477537
O O9 0.681603 0.849243 0.832544
O O10 0.418987 0.800512 0.826818
O O11 0.001642 0.119748 0.868872
O O12 0.547178 0.588368 0.010678
O O13 0.054834 0.326987 0.053947
O O14 0.275613 0.791386 0.913963
O O15 0.500000 0.000000 0.000000
#
# Coordination Sequence:
#
# PCOD9051836 Si02
#       7
#     2   2   2   2   2   2   2
#     4  12  26  41  71 110 140 172 229 290 355 419
#     4  12  23  43  72 106 142 178 218 294 365 406
#     4  10  25  48  70  95 137 202 230 283 325 422
#     4  12  25  42  71 109 143 177 219 291 367 412
#     4  12  24  40  71 110 139 169 231 287 353 420
#     4  11  25  48  73  97 144 181 240 283 348 402
#     4  11  24  47  72  97 146 183 236 278 351 408
#
# _framework density 24.036034999999998
#
# number of rings (size 3 to 8) (size 9 to 14) (size 15 to 20)
#    0.000    0.571    4.286    3.429    6.000    0.000 
#    0.000   17.143    0.000    0.000    0.000    0.000 
#    0.000    0.000    0.000    0.000    0.000    0.000 
#
# Total GULP energy -78321.145732 kJ/mol
# GULP energy per Si atom -5594.367552 kJ/mol
# Density = 2.398133 g / cm^3
# Si number density = 24.036035 Si / 1000 Ang^3
#
#
#
# Elastic Constant Matrix: (Units=GPa)
#
#
# Indices 1 2 3 4 5 6 
#
# 1 172.5321 16.4438 50.8240 -3.3050 -7.0029 9.4113
# 2 16.4438 103.1653 27.0002 1.5244 -9.8404 3.3039
# 3 50.8240 27.0002 107.1283 14.4965 -9.7002 -0.7339
# 4 -3.3050 1.5244 14.4965 46.5066 3.2176 -5.6947
# 5 -7.0029 -9.8404 -9.7002 3.2176 39.3252 2.4130
# 6 9.4113 3.3039 -0.7339 -5.6947 2.4130 33.6331
#
#
#
# Elastic Compliance Matrix: (Units=1/GPa)
#
#
# Indices 1 2 3 4 5 6 
#
# 1 0.006956 -0.000140 -0.003423 0.001319 0.000363 -0.001810
# 2 -0.000140 0.010589 -0.002437 0.000113 0.002087 -0.001185
# 3 -0.003423 -0.002437 0.012320 -0.004073 0.002114 0.000625
# 4 0.001319 0.000113 -0.004073 0.023518 -0.002894 0.003721
# 5 0.000363 0.002087 0.002114 -0.002894 0.026939 -0.002683
# 6 -0.001810 -0.001185 0.000625 0.003721 -0.002683 0.031192
#
#
# Mechanical properties :
#
#
# Convention : Reuss Voigt Hill
#
# Bulk Modulus (GPa) = 55.97484 63.48466 59.72975
# Shear Modulus (GPa) = 38.61969 43.13015 40.87492
#
# Velocity S-wave (km/s) = 4.01277 4.24063 4.12827
# Velocity P-wave (km/s) = 6.69389 7.10259 6.90127
#
# Compressibility (1/GPa) = 0.01786517
#
# Stress axis : x y z
#
# Youngs Moduli (GPa) = 143.75131 94.44138 81.17073
#
# Poissons Ratio (x) = 0.01321 0.27786
# Poissons Ratio (y) = 0.02010 0.19780
# Poissons Ratio (z) = 0.49208 0.23013
#
# Static dielectric constant tensor:
#      x y z
#    x 2.061600 -0.023460 0.038050 
#    y -0.023460 1.949740 0.012910 
#    z 0.038050 0.012910 1.910400 
# 
# From -- ./inp_files/458043.got.cif
#   From: 2010.05.17/outbox.cif.g08.bks.cpg/sg2_230_cif.got.tgz:458043.got - 2010.06.03 11:33:40.
