data_PCOD9051239
_publ_section_title
;
Structure prediction by ZEFSAII (Michael W. Deem and Ramdas Pophale) SiO2 
 PCOD9051239
Probable space group: P -1
;
_chemical_formula_sum "Si O2"
_cell_formula_units_Z 14
_cell_length_a 5.146914
_cell_length_b 16.378486
_cell_length_c 9.283927
_cell_angle_alpha 50.910673
_cell_angle_beta 80.488679
_cell_angle_gamma 85.054583
_cell_volume 598.927493
_symmetry_space_group_name_H-M "P -1"
_symmetry_group_IT_number 2
_symmetry_cell_setting 'triclinic'
loop_
_space_group_symop_operation_xyz
x,y,z
-x,-y,-z
loop_
_atom_site_type_symbol
_atom_site_label
_atom_site_fract_x
_atom_site_fract_y
_atom_site_fract_z
Si Si1 0.579731 0.402862 0.505140
Si Si2 0.762645 0.004590 0.133238
Si Si3 0.969509 0.149643 0.162219
Si Si4 0.586369 0.759014 0.801006
Si Si5 0.712035 0.780216 0.433704
Si Si6 0.162378 0.785861 0.191592
Si Si7 0.276081 0.475469 0.928053
O O1 0.500000 0.500000 0.500000
O O2 0.377779 0.316753 0.549922
O O3 0.735230 0.329731 0.681769
O O4 0.712649 0.453053 0.294938
O O5 0.878847 0.032945 0.248917
O O6 0.603927 0.895851 0.277692
O O7 0.638250 0.115903 0.973668
O O8 0.000000 0.000000 0.000000
O O9 0.715333 0.210024 0.179526
O O10 0.215530 0.157586 0.234580
O O11 0.028970 0.202849 0.941162
O O12 0.646776 0.754784 0.630940
O O13 0.671794 0.645989 0.980844
O O14 0.018669 0.797729 0.344875
O O15 0.500000 0.500000 0.000000
O O16 0.000000 0.500000 0.000000
#
# Coordination Sequence:
#
# PCOD9051239 Si02
#       7
#     2   2   2   2   2   2   2
#     4  12  27  43  71 105 139 190 246 299 355 431
#     4   8  20  45  70 105 140 187 237 296 363 426
#     4  10  25  45  73 104 143 191 231 301 359 427
#     4  12  25  46  71 104 151 182 245 296 363 429
#     4  11  24  44  71 101 143 189 238 298 362 428
#     4   9  23  45  67 103 137 187 237 293 359 425
#     4  12  26  47  70 103 141 194 238 292 362 423
#
# _framework density 23.375118000000001
#
# number of rings (size 3 to 8) (size 9 to 14) (size 15 to 20)
#    0.857    0.571    1.429    2.571    6.000    2.286 
#    5.143    0.000    0.000    0.000    0.000    0.000 
#    0.000    0.000    0.000    0.000    0.000    0.000 
#
# Total GULP energy -78066.323197 kJ/mol
# GULP energy per Si atom -5576.165943 kJ/mol
# Density = 2.332192 g / cm^3
# Si number density = 23.375118 Si / 1000 Ang^3
#
#
#
# Elastic Constant Matrix: (Units=GPa)
#
#
# Indices 1 2 3 4 5 6 
#
# 1 78.8693 22.8975 17.4213 5.2544 -3.9158 -2.8694
# 2 22.8975 135.8795 41.5031 -14.0353 -5.1340 4.6161
# 3 17.4213 41.5031 113.5122 -13.7429 -15.9247 0.7059
# 4 5.2544 -14.0353 -13.7429 56.6664 -4.6398 5.4634
# 5 -3.9158 -5.1340 -15.9247 -4.6398 40.9511 8.1053
# 6 -2.8694 4.6161 0.7059 5.4634 8.1053 37.6482
#
#
#
# Elastic Compliance Matrix: (Units=1/GPa)
#
#
# Indices 1 2 3 4 5 6 
#
# 1 0.013886 -0.002143 -0.001680 -0.002412 -0.000214 0.001749
# 2 -0.002143 0.008776 -0.002577 0.001933 0.000421 -0.001562
# 3 -0.001680 -0.002577 0.010949 0.002657 0.004340 -0.001337
# 4 -0.002412 0.001933 0.002657 0.019738 0.004117 -0.004221
# 5 -0.000214 0.000421 0.004340 0.004117 0.027944 -0.006763
# 6 0.001749 -0.001562 -0.001337 -0.004221 -0.006763 0.028980
#
#
# Mechanical properties :
#
#
# Convention : Reuss Voigt Hill
#
# Bulk Modulus (GPa) = 48.05504 54.65609 51.35556
# Shear Modulus (GPa) = 38.45794 43.48240 40.97017
#
# Velocity S-wave (km/s) = 4.06057 4.31768 4.19110
# Velocity P-wave (km/s) = 6.52588 6.94906 6.74079
#
# Compressibility (1/GPa) = 0.02080947
#
# Stress axis : x y z
#
# Youngs Moduli (GPa) = 72.01303 113.94151 91.33592
#
# Poissons Ratio (x) = 0.24422 0.15348
# Poissons Ratio (y) = 0.15435 0.23538
# Poissons Ratio (z) = 0.12101 0.29364
#
# Static dielectric constant tensor:
#      x y z
#    x 2.024680 0.009110 0.060170 
#    y 0.009110 1.979840 -0.035810 
#    z 0.060170 -0.035810 1.881310 
# 
# From -- ./inp_files/134976.got.cif
#   From: 2010.05.17/outbox.cif.g08.bks.cpg/sg2_68_cif.got.tgz:134976.got - 2010.06.03 11:33:40.
