data_PCOD9051547
_publ_section_title
;
Structure prediction by ZEFSAII (Michael W. Deem and Ramdas Pophale) SiO2 
 PCOD9051547
Probable space group: P -1
;
_chemical_formula_sum "Si O2"
_cell_formula_units_Z 16
_cell_length_a 14.051927
_cell_length_b 11.863965
_cell_length_c 16.712714
_cell_angle_alpha 56.154687
_cell_angle_beta 145.430383
_cell_angle_gamma 149.204976
_cell_volume 692.480918
_symmetry_space_group_name_H-M "P -1"
_symmetry_group_IT_number 2
_symmetry_cell_setting 'triclinic'
loop_
_space_group_symop_operation_xyz
x,y,z
-x,-y,-z
loop_
_atom_site_type_symbol
_atom_site_label
_atom_site_fract_x
_atom_site_fract_y
_atom_site_fract_z
Si Si1 0.668909 0.401705 0.305947
Si Si2 0.213449 0.988437 0.471978
Si Si3 0.243650 0.316842 0.966536
Si Si4 0.156272 0.463058 0.992108
Si Si5 0.804196 0.234681 0.173787
Si Si6 0.441338 0.121443 0.412555
Si Si7 0.472259 0.936546 0.776523
Si Si8 0.126180 0.021975 0.660318
O O1 0.668712 0.355688 0.416124
O O2 0.660795 0.263911 0.299680
O O3 0.953313 0.702286 0.370892
O O4 0.351930 0.263597 0.115352
O O5 0.368715 0.013607 0.642828
O O6 0.031546 0.996272 0.371976
O O7 0.449567 0.175855 0.487733
O O8 0.233894 0.432987 0.977071
O O9 0.500000 0.500000 0.000000
O O10 0.903022 0.081804 0.782026
O O11 0.041863 0.532099 0.855948
O O12 0.488601 0.701337 0.175783
O O13 0.857020 0.193403 0.938184
O O14 0.674438 0.188492 0.189096
O O15 0.966126 0.199440 0.307975
O O16 0.500000 0.000000 0.000000
O O17 0.500000 0.000000 0.500000
O O18 0.000000 0.000000 0.500000
#
# Coordination Sequence:
#
# PCOD9051547 Si02
#       8
#     2   2   2   2   2   2   2   2
#     4  12  25  42  74 106 145 188 226 286 361 422
#     4  12  25  46  69 105 145 187 227 296 349 418
#     4  12  22  42  68 101 144 186 225 282 344 425
#     4  11  24  46  71 104 135 183 234 290 345 421
#     4  10  25  46  74  99 134 186 238 291 354 403
#     4  12  25  42  66 106 147 180 236 275 350 433
#     4  12  25  43  75 105 142 182 237 284 356 422
#     4  11  23  49  73  98 138 182 239 293 349 411
#
# _framework density 23.105331
#
# number of rings (size 3 to 8) (size 9 to 14) (size 15 to 20)
#    0.000    0.500    6.250    1.500    0.000    4.000 
#    0.000    1.875    0.000    0.000    0.000    0.000 
#    0.000    0.000    0.000    0.000    0.000    0.000 
#
# Total GULP energy -89560.176263 kJ/mol
# GULP energy per Si atom -5597.511016 kJ/mol
# Density = 2.305274 g / cm^3
# Si number density = 23.105331 Si / 1000 Ang^3
#
#
#
# Elastic Constant Matrix: (Units=GPa)
#
#
# Indices 1 2 3 4 5 6 
#
# 1 79.8570 38.9134 9.8866 -6.7419 4.1832 -7.9068
# 2 38.9134 72.3136 15.7694 -13.8428 11.0274 1.6384
# 3 9.8866 15.7694 124.7180 -8.7743 5.4803 0.8441
# 4 -6.7419 -13.8428 -8.7743 47.5992 -0.6311 4.9907
# 5 4.1832 11.0274 5.4803 -0.6311 43.2382 -15.1575
# 6 -7.9068 1.6384 0.8441 4.9907 -15.1575 29.3958
#
#
#
# Elastic Compliance Matrix: (Units=1/GPa)
#
#
# Indices 1 2 3 4 5 6 
#
# 1 0.018249 -0.010729 -0.000400 -0.001362 0.003683 0.007648
# 2 -0.010729 0.022280 -0.001182 0.005578 -0.007544 -0.008931
# 3 -0.000400 -0.001182 0.008340 0.001232 -0.001063 -0.001038
# 4 -0.001362 0.005578 0.001232 0.023291 -0.003348 -0.006393
# 5 0.003683 -0.007544 -0.001063 -0.003348 0.031109 0.018051
# 6 0.007648 -0.008931 -0.001038 -0.006393 0.018051 0.046996
#
#
# Mechanical properties :
#
#
# Convention : Reuss Voigt Hill
#
# Bulk Modulus (GPa) = 41.24014 45.11415 43.17714
# Shear Modulus (GPa) = 27.32696 38.20126 32.76411
#
# Velocity S-wave (km/s) = 3.44279 4.07056 3.76976
# Velocity P-wave (km/s) = 5.80442 6.45448 6.13806
#
# Compressibility (1/GPa) = 0.02424822
#
# Stress axis : x y z
#
# Youngs Moduli (GPa) = 54.79697 44.88253 119.90953
#
# Poissons Ratio (x) = 0.48153 0.04791
# Poissons Ratio (y) = 0.58790 0.14177
# Poissons Ratio (z) = 0.02189 0.05306
#
# Static dielectric constant tensor:
#      x y z
#    x 1.847970 0.033690 0.026320 
#    y 0.033690 1.897710 0.020070 
#    z 0.026320 0.020070 1.874220 
# 
# From -- ./inp_files/515826.got.cif
#   From: 2010.05.17/outbox.cif.g08.bks.cpg/sg2_258_cif.got.tgz:515826.got - 2010.06.03 11:33:40.
