data_PCOD9051099
_publ_section_title
;
Structure prediction by ZEFSAII (Michael W. Deem and Ramdas Pophale) SiO2 
 PCOD9051099
Probable space group: P -1
;
_chemical_formula_sum "Si O2"
_cell_formula_units_Z 14
_cell_length_a 7.407322
_cell_length_b 14.109642
_cell_length_c 17.891203
_cell_angle_alpha 149.718339
_cell_angle_beta 139.274308
_cell_angle_gamma 56.663182
_cell_volume 583.084386
_symmetry_space_group_name_H-M "P -1"
_symmetry_group_IT_number 2
_symmetry_cell_setting 'triclinic'
loop_
_space_group_symop_operation_xyz
x,y,z
-x,-y,-z
loop_
_atom_site_type_symbol
_atom_site_label
_atom_site_fract_x
_atom_site_fract_y
_atom_site_fract_z
Si Si1 0.120655 0.401167 0.037646
Si Si2 0.168343 0.349295 0.795714
Si Si3 0.246175 0.431451 0.631036
Si Si4 0.349164 0.014524 0.382921
Si Si5 0.667686 0.862264 0.795287
Si Si6 0.737316 0.017640 0.356986
Si Si7 0.333251 0.530648 0.553371
O O1 0.455984 0.435735 0.148707
O O2 0.054205 0.530449 0.173358
O O3 0.000000 0.500000 0.000000
O O4 0.930410 0.178748 0.841272
O O5 0.027579 0.210791 0.586082
O O6 0.172725 0.180639 0.742873
O O7 0.500000 0.500000 0.000000
O O8 0.279323 0.499503 0.601987
O O9 0.942775 0.458932 0.575509
O O10 0.252977 0.209125 0.485573
O O11 0.500000 0.000000 0.500000
O O12 0.550836 0.018548 0.375776
O O13 0.461220 0.975173 0.771045
O O14 0.566544 0.747046 0.762529
O O15 0.615676 0.669347 0.594557
O O16 0.000000 0.000000 0.000000
#
# Coordination Sequence:
#
# PCOD9051099 Si02
#       7
#     2   2   2   2   2   2   2
#     4  12  24  40  66  98 133 177 221 267 340 405
#     4  11  23  40  68  97 132 178 217 273 345 395
#     4  11  24  45  67  96 137 174 225 277 336 391
#     4  12  23  42  66  96 136 172 215 280 338 402
#     4  11  25  45  69  98 133 177 232 274 336 394
#     4  11  24  42  65  99 137 171 226 283 330 402
#     4  10  25  45  69  96 130 180 226 280 327 396
#
# _framework density 24.010248000000001
#
# number of rings (size 3 to 8) (size 9 to 14) (size 15 to 20)
#    0.000    0.857    5.714    0.000    2.000    9.143 
#    0.000    2.857    0.000    0.000    0.000    0.000 
#    0.000    0.000    0.000    0.000    0.000    0.000 
#
# Total GULP energy -78318.118299 kJ/mol
# GULP energy per Si atom -5594.151307 kJ/mol
# Density = 2.395560 g / cm^3
# Si number density = 24.010248 Si / 1000 Ang^3
#
#
#
# Elastic Constant Matrix: (Units=GPa)
#
#
# Indices 1 2 3 4 5 6 
#
# 1 49.7298 -2.3474 10.3618 9.5532 7.9075 3.8965
# 2 -2.3474 107.1424 56.1798 -1.1376 10.0270 11.8084
# 3 10.3618 56.1798 172.5343 19.1951 33.1383 -2.7640
# 4 9.5532 -1.1376 19.1951 40.7700 2.9036 5.5840
# 5 7.9075 10.0270 33.1383 2.9036 32.9191 -4.8919
# 6 3.8965 11.8084 -2.7640 5.5840 -4.8919 32.0119
#
#
#
# Elastic Compliance Matrix: (Units=1/GPa)
#
#
# Indices 1 2 3 4 5 6 
#
# 1 0.022205 0.001530 -0.000354 -0.004125 -0.005589 -0.003432
# 2 0.001530 0.012415 -0.004387 0.002906 -0.000848 -0.005781
# 3 -0.000354 -0.004387 0.009091 -0.004102 -0.007059 0.002083
# 4 -0.004125 0.002906 -0.004102 0.028225 0.000897 -0.005710
# 5 -0.005589 -0.000848 -0.007059 0.000897 0.039946 0.006331
# 6 -0.003432 -0.005781 0.002083 -0.005710 0.006331 0.035932
#
#
# Mechanical properties :
#
#
# Convention : Reuss Voigt Hill
#
# Bulk Modulus (GPa) = 26.81865 50.86609 38.84237
# Shear Modulus (GPa) = 29.99995 38.82103 34.41049
#
# Velocity S-wave (km/s) = 3.53861 4.02537 3.78981
# Velocity P-wave (km/s) = 5.28106 6.54492 5.94666
#
# Compressibility (1/GPa) = 0.03728748
#
# Stress axis : x y z
#
# Youngs Moduli (GPa) = 45.03522 80.54977 109.99396
#
# Poissons Ratio (x) = -0.12322 0.03895
# Poissons Ratio (y) = -0.06889 0.48258
# Poissons Ratio (z) = 0.01595 0.35340
#
# Static dielectric constant tensor:
#      x y z
#    x 2.055930 0.015400 0.029160 
#    y 0.015400 1.873790 -0.033440 
#    z 0.029160 -0.033440 1.951880 
# 
# From -- ./inp_files/255950.got.cif
#   From: 2010.05.17/outbox.cif.g08.bks.cpg/sg2_128_cif.got.tgz:255950.got - 2010.06.03 11:33:40.
