data_PCOD9051560
_publ_section_title
;
Structure prediction by ZEFSAII (Michael W. Deem and Ramdas Pophale) SiO2 
 PCOD9051560
Probable space group: P -1
;
_chemical_formula_sum "Si O2"
_cell_formula_units_Z 11
_cell_length_a 14.996509
_cell_length_b 6.042138
_cell_length_c 6.405788
_cell_angle_alpha 75.273057
_cell_angle_beta 55.805975
_cell_angle_gamma 67.633537
_cell_volume 443.363473
_symmetry_space_group_name_H-M "P -1"
_symmetry_group_IT_number 2
_symmetry_cell_setting 'triclinic'
loop_
_space_group_symop_operation_xyz
x,y,z
-x,-y,-z
loop_
_atom_site_type_symbol
_atom_site_label
_atom_site_fract_x
_atom_site_fract_y
_atom_site_fract_z
Si Si1 0.095124 0.094860 0.243575
Si Si2 0.853960 0.513596 0.176166
Si Si3 0.243350 0.222550 0.357740
Si Si4 0.433622 0.877852 0.462876
Si Si5 0.000000 0.000000 0.000000
Si Si6 0.659587 0.494884 0.150712
O O1 0.190621 0.072929 0.301646
O O2 0.103962 0.954231 0.048040
O O3 0.090681 0.363475 0.106273
O O4 0.000000 0.000000 0.500000
O O5 0.844000 0.660185 0.370266
O O6 0.927285 0.240216 0.162968
O O7 0.727720 0.540176 0.254754
O O8 0.353885 0.051263 0.361246
O O9 0.274789 0.437006 0.145795
O O10 0.532279 0.672914 0.269507
O O11 0.357323 0.762427 0.735633
O O12 0.500000 0.000000 0.500000
#
# Coordination Sequence:
#
# PCOD9051560 Si02
#       6
#     2   2   2   2   1   2
#     4  11  27  49  77 110 149 204 260 320 386 451
#     4  11  26  50  73 114 154 202 261 317 377 458
#     4  11  25  50  80 115 154 202 258 312 387 458
#     4  11  23  48  78 113 157 198 248 318 378 466
#     4  12  28  48  74 102 158 200 258 320 372 452
#     4  10  25  46  75 115 155 200 250 310 389 454
#
# _framework density 24.810341000000001
#
# number of rings (size 3 to 8) (size 9 to 14) (size 15 to 20)
#    0.000    1.091    1.818    2.182    5.091    5.091 
#    3.273    0.000    0.000    0.000    0.000    0.000 
#    0.000    0.000    0.000    0.000    0.000    0.000 
#
# Total GULP energy -61260.604797 kJ/mol
# GULP energy per Si atom -5569.145891 kJ/mol
# Density = 2.475387 g / cm^3
# Si number density = 24.810341 Si / 1000 Ang^3
#
#
#
# Elastic Constant Matrix: (Units=GPa)
#
#
# Indices 1 2 3 4 5 6 
#
# 1 214.1659 55.7232 54.9427 0.7064 18.3068 21.2375
# 2 55.7232 53.2698 39.9857 -8.3771 13.0819 10.2405
# 3 54.9427 39.9857 120.2673 -37.2412 -1.9991 7.3704
# 4 0.7064 -8.3771 -37.2412 55.3700 4.5946 -14.2770
# 5 18.3068 13.0819 -1.9991 4.5946 44.3504 2.0347
# 6 21.2375 10.2405 7.3704 -14.2770 2.0347 48.6180
#
#
#
# Elastic Compliance Matrix: (Units=1/GPa)
#
#
# Indices 1 2 3 4 5 6 
#
# 1 0.006958 -0.005440 -0.002132 -0.002879 -0.000957 -0.002376
# 2 -0.005440 0.033545 -0.008925 -0.001069 -0.007788 -0.003325
# 3 -0.002132 -0.008925 0.015001 0.009322 0.003079 0.003146
# 4 -0.002879 -0.001069 0.009322 0.026326 -0.001163 0.007849
# 5 -0.000957 -0.007788 0.003079 -0.001163 0.025491 0.000183
# 6 -0.002376 -0.003325 0.003146 0.007849 0.000183 0.024127
#
#
# Mechanical properties :
#
#
# Convention : Reuss Voigt Hill
#
# Bulk Modulus (GPa) = 44.42072 76.55626 60.48849
# Shear Modulus (GPa) = 29.07905 45.47111 37.27508
#
# Velocity S-wave (km/s) = 3.42724 4.28571 3.88029
# Velocity P-wave (km/s) = 5.79692 7.44401 6.67149
#
# Compressibility (1/GPa) = 0.02251202
#
# Stress axis : x y z
#
# Youngs Moduli (GPa) = 143.70985 29.81055 66.66163
#
# Poissons Ratio (x) = 0.16215 0.14214
# Poissons Ratio (y) = 0.78171 0.59493
# Poissons Ratio (z) = 0.30642 0.26605
#
# Static dielectric constant tensor:
#      x y z
#    x 2.048700 -0.056150 -0.045750 
#    y -0.056150 1.991800 -0.016250 
#    z -0.045750 -0.016250 1.983180 
# 
# From -- ./inp_files/85785.got.cif
#   From: 2010.05.17/outbox.cif.g08.bks.cpg/sg2_43_cif.got.tgz:85785.got - 2010.06.03 11:33:40.
