data_PCOD9051641
_publ_section_title
;
Structure prediction by ZEFSAII (Michael W. Deem and Ramdas Pophale) SiO2 
 PCOD9051641
Probable space group: P -1
;
_chemical_formula_sum "Si O2"
_cell_formula_units_Z 14
_cell_length_a 6.284164
_cell_length_b 13.506364
_cell_length_c 10.211273
_cell_angle_alpha 59.561981
_cell_angle_beta 91.087405
_cell_angle_gamma 127.876617
_cell_volume 532.749086
_symmetry_space_group_name_H-M "P -1"
_symmetry_group_IT_number 2
_symmetry_cell_setting 'triclinic'
loop_
_space_group_symop_operation_xyz
x,y,z
-x,-y,-z
loop_
_atom_site_type_symbol
_atom_site_label
_atom_site_fract_x
_atom_site_fract_y
_atom_site_fract_z
Si Si1 0.000000 0.500000 0.000000
Si Si2 0.595969 0.686227 0.718116
Si Si3 0.494919 0.891550 0.469925
Si Si4 0.000000 0.500000 0.500000
Si Si5 0.031259 0.152827 0.145613
Si Si6 0.762578 0.968688 0.919938
Si Si7 0.183578 0.446241 0.311170
Si Si8 0.905567 0.252593 0.832964
O O1 0.284273 0.573174 0.864804
O O2 0.829665 0.488661 0.869196
O O3 0.649414 0.834934 0.566114
O O4 0.846554 0.748873 0.786021
O O5 0.635124 0.601512 0.671283
O O6 0.162635 0.721676 0.549470
O O7 0.500000 0.000000 0.500000
O O8 0.683591 0.997474 0.273657
O O9 0.265371 0.549455 0.370151
O O10 0.948762 0.582954 0.338440
O O11 0.206297 0.100196 0.159109
O O12 0.060995 0.250226 0.960349
O O13 0.868926 0.139286 0.799777
O O14 0.428399 0.844573 0.053705
O O15 0.000000 0.000000 0.000000
#
# Coordination Sequence:
#
# PCOD9051641 Si02
#       8
#     1   2   2   1   2   2   2   2
#     4  10  26  52  72 102 146 204 258 304 378 472
#     4  11  25  46  78 107 148 196 256 321 389 455
#     4  11  25  43  72 117 143 183 254 329 379 453
#     4  12  30  46  76 110 162 204 250 318 384 462
#     4  11  24  41  80 109 140 192 253 321 386 446
#     4   9  22  44  72 102 142 198 253 306 376 449
#     4  11  27  48  73 108 155 203 252 319 383 464
#     4  10  25  47  70 104 151 202 249 311 374 463
#
# _framework density 26.278789
#
# number of rings (size 3 to 8) (size 9 to 14) (size 15 to 20)
#    0.000    1.429    1.429    0.857   14.000    0.000 
#    0.000    5.714    0.000    0.000    0.000    0.000 
#    0.000    0.000    0.000    0.000    0.000    0.000 
#
# Total GULP energy -77936.731128 kJ/mol
# GULP energy per Si atom -5566.909366 kJ/mol
# Density = 2.621898 g / cm^3
# Si number density = 26.278789 Si / 1000 Ang^3
#
#
#
# Elastic Constant Matrix: (Units=GPa)
#
#
# Indices 1 2 3 4 5 6 
#
# 1 125.0583 27.5654 46.9728 5.3493 4.7241 -12.7321
# 2 27.5654 27.1184 15.1636 5.4157 9.9797 -6.2800
# 3 46.9728 15.1636 155.8331 16.1445 30.3461 -19.0843
# 4 5.3493 5.4157 16.1445 30.7081 8.7378 -9.6291
# 5 4.7241 9.9797 30.3461 8.7378 44.1248 7.5798
# 6 -12.7321 -6.2800 -19.0843 -9.6291 7.5798 47.9437
#
#
#
# Elastic Compliance Matrix: (Units=1/GPa)
#
#
# Indices 1 2 3 4 5 6 
#
# 1 0.011492 -0.011326 -0.003086 0.000652 0.003334 -0.000056
# 2 -0.011326 0.054122 0.001669 -0.002916 -0.012657 0.006161
# 3 -0.003086 0.001669 0.009097 -0.001457 -0.006664 0.003781
# 4 0.000652 -0.002916 -0.001457 0.038372 -0.007396 0.008087
# 5 0.003334 -0.012657 -0.006664 -0.007396 0.032955 -0.010121
# 6 -0.000056 0.006161 0.003781 0.008087 -0.010121 0.026379
#
#
# Mechanical properties :
#
#
# Convention : Reuss Voigt Hill
#
# Bulk Modulus (GPa) = 20.31486 54.15705 37.23595
# Shear Modulus (GPa) = 23.33056 39.10917 31.21986
#
# Velocity S-wave (km/s) = 2.98285 3.86196 3.45051
# Velocity P-wave (km/s) = 4.42837 6.36708 5.48407
#
# Compressibility (1/GPa) = 0.04922506
#
# Stress axis : x y z
#
# Youngs Moduli (GPa) = 87.01481 18.47673 109.93155
#
# Poissons Ratio (x) = 0.20928 0.33921
# Poissons Ratio (y) = 0.98557 -0.18348
# Poissons Ratio (z) = 0.26849 -0.03084
#
# Static dielectric constant tensor:
#      x y z
#    x 2.057240 -0.046940 -0.035330 
#    y -0.046940 2.217240 0.026480 
#    z -0.035330 0.026480 1.988060 
# 
# From -- ./inp_files/94077.got.cif
#   From: 2010.05.17/outbox.cif.g08.bks.cpg/sg2_48_cif.got.tgz:94077.got - 2010.06.03 11:33:40.
