data_PCOD9051500
_publ_section_title
;
Structure prediction by ZEFSAII (Michael W. Deem and Ramdas Pophale) SiO2 
 PCOD9051500
Probable space group: P -1
;
_chemical_formula_sum "Si O2"
_cell_formula_units_Z 12
_cell_length_a 10.770847
_cell_length_b 5.895434
_cell_length_c 12.485497
_cell_angle_alpha 56.454730
_cell_angle_beta 131.345740
_cell_angle_gamma 117.351737
_cell_volume 490.386004
_symmetry_space_group_name_H-M "P -1"
_symmetry_group_IT_number 2
_symmetry_cell_setting 'triclinic'
loop_
_space_group_symop_operation_xyz
x,y,z
-x,-y,-z
loop_
_atom_site_type_symbol
_atom_site_label
_atom_site_fract_x
_atom_site_fract_y
_atom_site_fract_z
Si Si1 0.027416 0.051631 0.876759
Si Si2 0.199422 0.089769 0.362990
Si Si3 0.278000 0.633619 0.130708
Si Si4 0.067859 0.216851 0.577802
Si Si5 0.636916 0.914547 0.315323
Si Si6 0.320948 0.539340 0.933613
O O1 0.165970 0.317352 0.867524
O O2 0.837117 0.087258 0.719692
O O3 0.120758 0.785119 0.979679
O O4 0.000000 0.000000 0.000000
O O5 0.242782 0.392831 0.261259
O O6 0.309765 0.045265 0.540027
O O7 0.005119 0.989139 0.314548
O O8 0.440164 0.836995 0.210830
O O9 0.326493 0.535702 0.066067
O O10 0.258807 0.303726 0.625666
O O11 0.000000 0.500000 0.500000
O O12 0.000000 0.000000 0.500000
O O13 0.700227 0.174343 0.208593
O O14 0.500000 0.500000 0.000000
#
# Coordination Sequence:
#
# PCOD9051500 Si02
#       6
#     2   2   2   2   2   2
#     4  12  27  47  78 108 157 204 259 323 400 482
#     4  11  26  46  76 111 150 198 261 329 392 464
#     4  12  26  51  73 112 155 205 261 317 400 486
#     4  10  25  46  72 115 157 203 257 328 404 469
#     4  11  26  48  78 113 154 202 266 332 391 473
#     4  12  27  49  77 113 151 209 260 322 400 478
#
# _framework density 24.470517000000001
#
# number of rings (size 3 to 8) (size 9 to 14) (size 15 to 20)
#    0.000    0.667    3.333    2.500    9.333    1.333 
#    0.000    4.167    0.000    0.000    0.000    0.000 
#    0.000    0.000    0.000    0.000    0.000    0.000 
#
# Total GULP energy -66825.858656 kJ/mol
# GULP energy per Si atom -5568.821555 kJ/mol
# Density = 2.441482 g / cm^3
# Si number density = 24.470517 Si / 1000 Ang^3
#
#
#
# Elastic Constant Matrix: (Units=GPa)
#
#
# Indices 1 2 3 4 5 6 
#
# 1 66.9891 20.2190 1.1679 -21.0082 3.1066 -2.6896
# 2 20.2190 121.5054 33.3944 0.2418 -3.7272 34.8302
# 3 1.1679 33.3944 106.2922 1.3809 -9.1695 14.1430
# 4 -21.0082 0.2418 1.3809 43.3068 14.2955 -5.7071
# 5 3.1066 -3.7272 -9.1695 14.2955 33.5033 -11.3513
# 6 -2.6896 34.8302 14.1430 -5.7071 -11.3513 48.5367
#
#
#
# Elastic Compliance Matrix: (Units=1/GPa)
#
#
# Indices 1 2 3 4 5 6 
#
# 1 0.021041 -0.005121 0.000008 0.012994 -0.006414 0.004866
# 2 -0.005121 0.012345 -0.002628 -0.003514 -0.000380 -0.008879
# 3 0.000008 -0.002628 0.010597 -0.001389 0.002973 -0.000670
# 4 0.012994 -0.003514 -0.001389 0.035143 -0.015569 0.004138
# 5 -0.006414 -0.000380 0.002973 -0.015569 0.040092 0.006597
# 6 0.004866 -0.008879 -0.000670 0.004138 0.006597 0.029469
#
#
# Mechanical properties :
#
#
# Convention : Reuss Voigt Hill
#
# Bulk Modulus (GPa) = 35.08593 44.92770 40.00682
# Shear Modulus (GPa) = 28.79025 41.06973 34.92999
#
# Velocity S-wave (km/s) = 3.43378 4.10119 3.78224
# Velocity P-wave (km/s) = 5.48546 6.38954 5.95468
#
# Compressibility (1/GPa) = 0.02850146
#
# Stress axis : x y z
#
# Youngs Moduli (GPa) = 47.52571 81.00387 94.36460
#
# Poissons Ratio (x) = 0.41484 -0.00076
# Poissons Ratio (y) = 0.24339 0.24799
# Poissons Ratio (z) = -0.00038 0.21287
#
# Static dielectric constant tensor:
#      x y z
#    x 0.262960 1.906920 0.827450 
#    y 1.906920 -0.105860 -0.917260 
#    z 0.827450 -0.917260 1.507020 
# 
# From -- ./inp_files/408131.got.cif
#   From: 2010.05.17/outbox.cif.g08.bks.cpg/sg2_205_cif.got.tgz:408131.got - 2010.06.03 11:33:40.
