data_PCOD9051064
_publ_section_title
;
Structure prediction by ZEFSAII (Michael W. Deem and Ramdas Pophale) SiO2 
 PCOD9051064
Probable space group: P -1
;
_chemical_formula_sum "Si O2"
_cell_formula_units_Z 14
_cell_length_a 20.820472
_cell_length_b 11.943481
_cell_length_c 15.209559
_cell_angle_alpha 151.618735
_cell_angle_beta 161.619719
_cell_angle_gamma 28.566873
_cell_volume 542.668815
_symmetry_space_group_name_H-M "P -1"
_symmetry_group_IT_number 2
_symmetry_cell_setting 'triclinic'
loop_
_space_group_symop_operation_xyz
x,y,z
-x,-y,-z
loop_
_atom_site_type_symbol
_atom_site_label
_atom_site_fract_x
_atom_site_fract_y
_atom_site_fract_z
Si Si1 0.808193 0.796218 0.500089
Si Si2 0.395694 0.177232 0.175482
Si Si3 0.819222 0.000245 0.945954
Si Si4 0.810678 0.150831 0.237929
Si Si5 0.005473 0.555388 0.771269
Si Si6 0.498958 0.595280 0.689262
Si Si7 0.456239 0.511099 0.131799
O O1 0.891791 0.688032 0.628029
O O2 0.973717 0.916997 0.754846
O O3 0.583677 0.004451 0.358681
O O4 0.748836 0.588781 0.220777
O O5 0.360229 0.449392 0.355598
O O6 0.493933 0.175489 0.204368
O O7 0.202295 0.064032 0.860696
O O8 0.785559 0.051263 0.040114
O O9 0.626993 0.195023 0.779180
O O10 0.877597 0.718152 0.797612
O O11 0.001156 0.273921 0.570948
O O12 0.615411 0.387677 0.175402
O O13 0.249631 0.554937 0.088318
O O14 0.442016 0.602150 0.722093
#
# Coordination Sequence:
#
# PCOD9051064 Si02
#       7
#     2   2   2   2   2   2   2
#     4  11  21  42  67 104 131 174 231 275 324 403
#     4  10  25  45  68  97 139 174 228 276 328 402
#     4  12  22  40  68 103 135 175 213 289 325 399
#     4  11  27  42  63 108 141 169 220 282 343 393
#     4  12  24  42  73 103 132 176 227 275 339 391
#     4  11  23  47  71  97 129 187 230 266 329 408
#     4  11  23  40  70  99 138 174 224 276 337 393
#
# _framework density 25.798424000000001
#
# number of rings (size 3 to 8) (size 9 to 14) (size 15 to 20)
#    0.000    0.857    4.286    3.000    4.000    3.429 
#    0.000    2.143    0.000    0.000    0.000    0.000 
#    0.000    0.000    0.000    0.000    0.000    0.000 
#
# Total GULP energy -78384.387758 kJ/mol
# GULP energy per Si atom -5598.884840 kJ/mol
# Density = 2.573971 g / cm^3
# Si number density = 25.798424 Si / 1000 Ang^3
#
#
#
# Elastic Constant Matrix: (Units=GPa)
#
#
# Indices 1 2 3 4 5 6 
#
# 1 150.2385 32.1100 28.2976 9.1482 -17.0776 5.7338
# 2 32.1100 40.8498 22.8935 15.5976 -10.0378 19.5555
# 3 28.2976 22.8935 68.8140 20.8424 -0.5386 13.3770
# 4 9.1482 15.5976 20.8424 44.8904 6.3821 0.1339
# 5 -17.0776 -10.0378 -0.5386 6.3821 41.0531 1.5860
# 6 5.7338 19.5555 13.3770 0.1339 1.5860 45.9252
#
#
#
# Elastic Compliance Matrix: (Units=1/GPa)
#
#
# Indices 1 2 3 4 5 6 
#
# 1 0.008506 -0.006797 -0.002107 0.001380 0.001542 0.002388
# 2 -0.006797 0.051742 -0.005675 -0.015743 0.012967 -0.019933
# 3 -0.002107 -0.005675 0.019910 -0.006715 -0.000840 -0.003071
# 4 0.001380 -0.015743 -0.006715 0.031785 -0.008640 0.008693
# 5 0.001542 0.012967 -0.000840 -0.008640 0.029753 -0.006472
# 6 0.002388 -0.019933 -0.003071 0.008693 -0.006472 0.031057
#
#
# Mechanical properties :
#
#
# Convention : Reuss Voigt Hill
#
# Bulk Modulus (GPa) = 19.60700 47.38939 33.49820
# Shear Modulus (GPa) = 22.84050 38.14717 30.49384
#
# Velocity S-wave (km/s) = 2.97870 3.84951 3.44176
# Velocity P-wave (km/s) = 4.40985 6.17797 5.36722
#
# Compressibility (1/GPa) = 0.05100220
#
# Stress axis : x y z
#
# Youngs Moduli (GPa) = 117.56989 19.32663 50.22517
#
# Poissons Ratio (x) = 0.13135 0.10581
# Poissons Ratio (y) = 0.79907 0.28501
# Poissons Ratio (z) = 0.24769 0.10967
#
# Static dielectric constant tensor:
#      x y z
#    x 2.020850 0.009760 0.042940 
#    y 0.009760 2.057130 0.040560 
#    z 0.042940 0.040560 2.091650 
# 
# From -- ./inp_files/257231.got.cif
#   From: 2010.05.17/outbox.cif.g08.bks.cpg/sg2_129_cif.got.tgz:257231.got - 2010.06.03 11:33:40.
