data_PCOD9051833
_publ_section_title
;
Structure prediction by ZEFSAII (Michael W. Deem and Ramdas Pophale) SiO2 
 PCOD9051833
Probable space group: P -1
;
_chemical_formula_sum "Si O2"
_cell_formula_units_Z 10
_cell_length_a 11.494223
_cell_length_b 9.174182
_cell_length_c 7.291836
_cell_angle_alpha 118.094848
_cell_angle_beta 115.348325
_cell_angle_gamma 38.400337
_cell_volume 418.887125
_symmetry_space_group_name_H-M "P -1"
_symmetry_group_IT_number 2
_symmetry_cell_setting 'triclinic'
loop_
_space_group_symop_operation_xyz
x,y,z
-x,-y,-z
loop_
_atom_site_type_symbol
_atom_site_label
_atom_site_fract_x
_atom_site_fract_y
_atom_site_fract_z
Si Si1 0.836543 0.288387 0.090095
Si Si2 0.102923 0.404742 0.817831
Si Si3 0.664016 0.318188 0.654743
Si Si4 0.821099 0.398920 0.548833
Si Si5 0.549113 0.065464 0.395977
O O1 0.773996 0.357565 0.299573
O O2 0.913714 0.396962 0.155812
O O3 0.667937 0.402327 0.903595
O O4 0.000000 0.000000 0.000000
O O5 0.992603 0.362070 0.614512
O O6 0.678121 0.849463 0.209155
O O7 0.000000 0.500000 0.000000
O O8 0.500000 0.500000 0.500000
O O9 0.838916 0.243490 0.625201
O O10 0.661861 0.124982 0.567235
O O11 0.649047 0.679648 0.659331
O O12 0.500000 0.000000 0.500000
#
# Coordination Sequence:
#
# PCOD9051833 Si02
#       5
#     2   2   2   2   2
#     4  12  26  44  76 112 145 195 249 307 372 442
#     4  12  26  48  75 108 151 196 251 306 376 443
#     4  10  25  48  70 110 149 192 244 306 370 443
#     4  11  25  49  75 107 152 194 249 306 375 445
#     4  11  25  46  74 105 149 193 247 305 369 441
#
# _framework density 23.872781
#
# number of rings (size 3 to 8) (size 9 to 14) (size 15 to 20)
#    0.000    0.800    4.000    1.800    5.600    5.600 
#    0.000    0.000    0.000    0.000    0.000    0.000 
#    0.000    0.000    0.000    0.000    0.000    0.000 
#
# Total GULP energy -55880.937243 kJ/mol
# GULP energy per Si atom -5588.093724 kJ/mol
# Density = 2.381845 g / cm^3
# Si number density = 23.872781 Si / 1000 Ang^3
#
#
#
# Elastic Constant Matrix: (Units=GPa)
#
#
# Indices 1 2 3 4 5 6 
#
# 1 131.8104 79.2159 38.8971 11.0145 -12.7378 26.3173
# 2 79.2159 93.4061 20.0426 18.1424 -10.9797 -5.6336
# 3 38.8971 20.0426 161.5345 7.7910 -13.7057 -0.7929
# 4 11.0145 18.1424 7.7910 24.6650 -4.5353 -4.2957
# 5 -12.7378 -10.9797 -13.7057 -4.5353 53.9709 8.0148
# 6 26.3173 -5.6336 -0.7929 -4.2957 8.0148 72.7610
#
#
#
# Elastic Compliance Matrix: (Units=1/GPa)
#
#
# Indices 1 2 3 4 5 6 
#
# 1 0.021220 -0.018408 -0.002865 0.003782 0.002213 -0.009152
# 2 -0.018408 0.028803 0.001451 -0.012055 -0.000352 0.008231
# 3 -0.002865 0.001451 0.006874 -0.001584 0.001081 0.001011
# 4 0.003782 -0.012055 -0.001584 0.048661 0.002079 0.000325
# 5 0.002213 -0.000352 0.001081 0.002079 0.019856 -0.002880
# 6 -0.009152 0.008231 0.001011 0.000325 -0.002880 0.018039
#
#
# Mechanical properties :
#
#
# Convention : Reuss Voigt Hill
#
# Bulk Modulus (GPa) = 57.96633 73.67357 65.81995
# Shear Modulus (GPa) = 26.47626 46.85242 36.66434
#
# Velocity S-wave (km/s) = 3.33386 4.43492 3.92321
# Velocity P-wave (km/s) = 6.25728 7.55993 6.93924
#
# Compressibility (1/GPa) = 0.01725140
#
# Stress axis : x y z
#
# Youngs Moduli (GPa) = 47.12439 34.71882 145.48242
#
# Poissons Ratio (x) = 0.63911 0.41687
# Poissons Ratio (y) = 0.86748 -0.21108
# Poissons Ratio (z) = 0.13503 -0.05037
#
# Static dielectric constant tensor:
#      x y z
#    x 1.977700 -0.047080 0.049430 
#    y -0.047080 1.929760 -0.028790 
#    z 0.049430 -0.028790 1.940570 
# 
# From -- ./inp_files/41052.got.cif
#   From: 2010.05.17/outbox.cif.g08.bks.cpg/sg2_21_cif.got.tgz:41052.got - 2010.06.03 11:33:40.
