data_PCOD9051290
_publ_section_title
;
Structure prediction by ZEFSAII (Michael W. Deem and Ramdas Pophale) SiO2 
 PCOD9051290
Probable space group: P -1
;
_chemical_formula_sum "Si O2"
_cell_formula_units_Z 14
_cell_length_a 9.611914
_cell_length_b 12.463467
_cell_length_c 5.149512
_cell_angle_alpha 78.368820
_cell_angle_beta 60.033205
_cell_angle_gamma 89.454011
_cell_volume 520.425027
_symmetry_space_group_name_H-M "P -1"
_symmetry_group_IT_number 2
_symmetry_cell_setting 'triclinic'
loop_
_space_group_symop_operation_xyz
x,y,z
-x,-y,-z
loop_
_atom_site_type_symbol
_atom_site_label
_atom_site_fract_x
_atom_site_fract_y
_atom_site_fract_z
Si Si1 0.737042 0.469507 0.601746
Si Si2 0.112103 0.989817 0.645995
Si Si3 0.358693 0.706648 0.870338
Si Si4 0.536938 0.930219 0.751367
Si Si5 0.349853 0.329235 0.711529
Si Si6 0.834796 0.693250 0.602338
Si Si7 0.127389 0.741373 0.680369
O O1 0.663654 0.543646 0.414890
O O2 0.850950 0.563339 0.601450
O O3 0.807765 0.364762 0.464633
O O4 0.619291 0.406378 0.951117
O O5 0.180958 0.871146 0.611027
O O6 0.270775 0.077415 0.437628
O O7 0.000000 0.000000 0.500000
O O8 0.000000 0.000000 0.000000
O O9 0.419535 0.816705 0.915023
O O10 0.481975 0.711120 0.510427
O O11 0.172788 0.705445 0.951248
O O12 0.500000 0.000000 0.500000
O O13 0.500000 0.000000 0.000000
O O14 0.212947 0.272569 0.662504
O O15 0.312473 0.308043 0.054936
O O16 0.975292 0.747909 0.627560
#
# Coordination Sequence:
#
# PCOD9051290 Si02
#       7
#     2   2   2   2   2   2   2
#     4  10  25  45  76 108 154 196 249 298 370 450
#     4  12  30  52  79 111 153 197 260 322 382 452
#     4  12  27  44  81 107 154 194 253 302 385 437
#     4  12  27  53  78 114 150 196 261 324 381 447
#     4  10  26  47  69 110 150 197 240 305 364 446
#     4  10  26  46  71 105 157 195 247 297 366 445
#     4  12  27  46  78 109 148 202 251 302 383 440
#
# _framework density 26.901091999999998
#
# number of rings (size 3 to 8) (size 9 to 14) (size 15 to 20)
#    0.857    0.000    1.429    3.429   10.000    2.286 
#    0.000    0.000    0.000    0.000    0.000    0.000 
#    0.000    0.000    0.000    0.000    0.000    0.000 
#
# Total GULP energy -78149.236417 kJ/mol
# GULP energy per Si atom -5582.088315 kJ/mol
# Density = 2.683986 g / cm^3
# Si number density = 26.901092 Si / 1000 Ang^3
#
#
#
# Elastic Constant Matrix: (Units=GPa)
#
#
# Indices 1 2 3 4 5 6 
#
# 1 136.1388 17.1931 11.3503 -1.5593 28.0514 33.1111
# 2 17.1931 182.3667 36.5856 18.9758 8.5314 5.8950
# 3 11.3503 36.5856 110.6669 25.9043 26.7386 -0.1155
# 4 -1.5593 18.9758 25.9043 34.0343 -6.1735 -1.3954
# 5 28.0514 8.5314 26.7386 -6.1735 42.0219 3.1336
# 6 33.1111 5.8950 -0.1155 -1.3954 3.1336 59.1055
#
#
#
# Elastic Compliance Matrix: (Units=1/GPa)
#
#
# Indices 1 2 3 4 5 6 
#
# 1 0.010064 -0.000515 0.001327 -0.001807 -0.007333 -0.005238
# 2 -0.000515 0.006082 -0.001253 -0.002556 -0.000443 -0.000358
# 3 0.001327 -0.001253 0.015386 -0.013200 -0.012343 -0.000246
# 4 -0.001807 -0.002556 -0.013200 0.043814 0.016456 0.001403
# 5 -0.007333 -0.000443 -0.012343 0.016456 0.038870 0.002456
# 6 -0.005238 -0.000358 -0.000246 0.001403 0.002456 0.019791
#
#
# Mechanical properties :
#
#
# Convention : Reuss Voigt Hill
#
# Bulk Modulus (GPa) = 32.62570 62.15893 47.39231
# Shear Modulus (GPa) = 34.45798 51.30192 42.87995
#
# Velocity S-wave (km/s) = 3.58287 4.37172 3.99681
# Velocity P-wave (km/s) = 5.41020 6.97419 6.24138
#
# Compressibility (1/GPa) = 0.03065069
#
# Stress axis : x y z
#
# Youngs Moduli (GPa) = 99.36430 164.43250 64.99452
#
# Poissons Ratio (x) = 0.08463 -0.08626
# Poissons Ratio (y) = 0.05114 0.08143
# Poissons Ratio (z) = -0.13188 0.20602
#
# Static dielectric constant tensor:
#      x y z
#    x 2.174920 0.010920 -0.047530 
#    y 0.010920 2.083720 -0.039930 
#    z -0.047530 -0.039930 2.189120 
# 
# From -- ./inp_files/35757.got.cif
#   From: 2010.05.17/outbox.cif.g08.bks.cpg/sg2_18_cif.got.tgz:35757.got - 2010.06.03 11:33:40.
