data_PCOD9051632
_publ_section_title
;
Structure prediction by ZEFSAII (Michael W. Deem and Ramdas Pophale) SiO2 
 PCOD9051632
Probable space group: P -1
;
_chemical_formula_sum "Si O2"
_cell_formula_units_Z 14
_cell_length_a 28.588328
_cell_length_b 5.512521
_cell_length_c 8.750636
_cell_angle_alpha 108.297034
_cell_angle_beta 33.086497
_cell_angle_gamma 124.566158
_cell_volume 578.588761
_symmetry_space_group_name_H-M "P -1"
_symmetry_group_IT_number 2
_symmetry_cell_setting 'triclinic'
loop_
_space_group_symop_operation_xyz
x,y,z
-x,-y,-z
loop_
_atom_site_type_symbol
_atom_site_label
_atom_site_fract_x
_atom_site_fract_y
_atom_site_fract_z
Si Si1 0.793675 0.212551 0.623149
Si Si2 0.152880 0.067431 0.860166
Si Si3 0.466907 0.046218 0.261096
Si Si4 0.659550 0.645290 0.369913
Si Si5 0.898980 0.655036 0.162763
Si Si6 0.612750 0.234504 0.155351
Si Si7 0.017653 0.432036 0.609712
O O1 0.832354 0.515694 0.470583
O O2 0.862897 0.336780 0.611843
O O3 0.824850 0.043328 0.385829
O O4 0.672617 0.068852 0.954086
O O5 0.238586 0.129337 0.760232
O O6 0.168288 0.372883 0.803168
O O7 0.044321 0.926312 0.229953
O O8 0.401735 0.695216 0.444378
O O9 0.404815 0.205401 0.448984
O O10 0.575711 0.272486 0.102069
O O11 0.500000 0.000000 0.000000
O O12 0.680767 0.555848 0.129020
O O13 0.950504 0.483631 0.927924
O O14 0.000000 0.000000 0.000000
O O15 0.500000 0.000000 0.500000
O O16 0.000000 0.500000 0.500000
#
# Coordination Sequence:
#
# PCOD9051632 Si02
#       7
#     2   2   2   2   2   2   2
#     4  11  23  45  67  99 134 192 233 282 358 418
#     4  11  24  43  69 100 142 182 236 284 352 437
#     4  11  24  47  71 102 135 185 240 293 353 425
#     4  11  26  44  70 103 140 182 230 298 359 413
#     4  11  21  43  66  97 137 185 231 283 342 433
#     4  10  25  47  69  97 141 181 238 299 355 416
#     4  11  25  40  67 102 144 178 229 290 354 425
#
# _framework density 24.196805000000001
#
# number of rings (size 3 to 8) (size 9 to 14) (size 15 to 20)
#    0.000    1.143    2.857    2.571    8.000    4.000 
#    5.143    0.000    0.000    0.000    0.000    0.000 
#    0.000    0.000    0.000    0.000    0.000    0.000 
#
# Total GULP energy -78036.895003 kJ/mol
# GULP energy per Si atom -5574.063929 kJ/mol
# Density = 2.414173 g / cm^3
# Si number density = 24.196805 Si / 1000 Ang^3
#
#
#
# Elastic Constant Matrix: (Units=GPa)
#
#
# Indices 1 2 3 4 5 6 
#
# 1 165.6900 11.9437 26.7341 6.5289 -12.8322 23.8115
# 2 11.9437 38.0418 10.0223 0.9799 6.5863 -2.7578
# 3 26.7341 10.0223 95.2613 13.1291 -10.6238 -3.3037
# 4 6.5289 0.9799 13.1291 29.1830 -0.1040 -4.7907
# 5 -12.8322 6.5863 -10.6238 -0.1040 45.5225 1.2928
# 6 23.8115 -2.7578 -3.3037 -4.7907 1.2928 41.0436
#
#
#
# Elastic Compliance Matrix: (Units=1/GPa)
#
#
# Indices 1 2 3 4 5 6 
#
# 1 0.007405 -0.002633 -0.001485 -0.001690 0.002256 -0.004861
# 2 -0.002633 0.029140 -0.003060 0.001558 -0.005771 0.003603
# 3 -0.001485 -0.003060 0.012265 -0.004912 0.002847 0.000980
# 4 -0.001690 0.001558 -0.004912 0.037640 -0.001908 0.005143
# 5 0.002256 -0.005771 0.002847 -0.001908 0.024168 -0.002451
# 6 -0.004861 0.003603 0.000980 0.005143 -0.002451 0.028183
#
#
# Mechanical properties :
#
#
# Convention : Reuss Voigt Hill
#
# Bulk Modulus (GPa) = 29.02535 44.04369 36.53452
# Shear Modulus (GPa) = 30.36926 39.83602 35.10264
#
# Velocity S-wave (km/s) = 3.54657 4.06191 3.81296
# Velocity P-wave (km/s) = 5.36586 6.34354 5.87508
#
# Compressibility (1/GPa) = 0.03445264
#
# Stress axis : x y z
#
# Youngs Moduli (GPa) = 135.05131 34.31705 81.53505
#
# Poissons Ratio (x) = 0.09035 0.12109
# Poissons Ratio (y) = 0.35558 0.24952
# Poissons Ratio (z) = 0.20057 0.10502
#
# Static dielectric constant tensor:
#      x y z
#    x 1.854600 0.093690 -0.049310 
#    y 0.093690 1.323370 0.234610 
#    z -0.049310 0.234610 1.847400 
# 
# From -- ./inp_files/35766.got.cif
#   From: 2010.05.17/outbox.cif.g08.bks.cpg/sg2_18_cif.got.tgz:35766.got - 2010.06.03 11:33:40.
