data_PCOD9051276
_publ_section_title
;
Structure prediction by ZEFSAII (Michael W. Deem and Ramdas Pophale) SiO2 
 PCOD9051276
Probable space group: P -1
;
_chemical_formula_sum "Si O2"
_cell_formula_units_Z 16
_cell_length_a 8.655972
_cell_length_b 12.305210
_cell_length_c 15.510866
_cell_angle_alpha 120.265946
_cell_angle_beta 118.518909
_cell_angle_gamma 31.372343
_cell_volume 738.763859
_symmetry_space_group_name_H-M "P -1"
_symmetry_group_IT_number 2
_symmetry_cell_setting 'triclinic'
loop_
_space_group_symop_operation_xyz
x,y,z
-x,-y,-z
loop_
_atom_site_type_symbol
_atom_site_label
_atom_site_fract_x
_atom_site_fract_y
_atom_site_fract_z
Si Si1 0.720329 0.797152 0.913392
Si Si2 0.709206 0.954848 0.632163
Si Si3 0.167700 0.561470 0.216774
Si Si4 0.606549 0.460064 0.414710
Si Si5 0.502808 0.935202 0.200005
Si Si6 0.647509 0.714100 0.469435
Si Si7 0.769665 0.359144 0.916096
Si Si8 0.688912 0.207860 0.959821
O O1 0.745817 0.631937 0.863060
O O2 0.616253 0.889299 0.825585
O O3 0.029662 0.683703 0.977040
O O4 0.500000 0.000000 0.000000
O O5 0.567671 0.895980 0.561229
O O6 0.036958 0.766896 0.599453
O O7 0.723305 0.958802 0.739976
O O8 0.482918 0.186126 0.621309
O O9 0.419460 0.476187 0.309503
O O10 0.126174 0.668337 0.161993
O O11 0.840643 0.755911 0.250803
O O12 0.500000 0.500000 0.500000
O O13 0.528794 0.650127 0.446327
O O14 0.507247 0.803314 0.094681
O O15 0.000000 0.500000 0.500000
O O16 0.741334 0.233271 0.888702
O O17 0.450284 0.605017 0.942821
O O18 0.000000 0.000000 0.000000
#
# Coordination Sequence:
#
# PCOD9051276 Si02
#       8
#     2   2   2   2   2   2   2   2
#     4  12  24  44  69  99 143 186 230 285 347 409
#     4  10  25  45  75 102 134 183 233 286 355 422
#     4  12  28  43  69 102 143 185 240 288 350 420
#     4  11  28  47  71 103 144 182 231 295 354 419
#     4  12  26  42  71 103 139 186 237 285 348 424
#     4   9  22  48  73  97 135 176 227 292 354 409
#     4  11  24  43  64  97 137 181 231 288 340 413
#     4  11  24  41  67  95 138 181 227 286 349 402
#
# _framework density 21.657800999999999
#
# number of rings (size 3 to 8) (size 9 to 14) (size 15 to 20)
#    0.000    1.000    3.750    1.125   10.500    2.500 
#    0.000    0.000    0.000    0.000    0.000    0.000 
#    0.000    0.000    0.000    0.000    0.000    0.000 
#
# Total GULP energy -89276.696730 kJ/mol
# GULP energy per Si atom -5579.793546 kJ/mol
# Density = 2.160851 g / cm^3
# Si number density = 21.657801 Si / 1000 Ang^3
#
#
#
# Elastic Constant Matrix: (Units=GPa)
#
#
# Indices 1 2 3 4 5 6 
#
# 1 90.4482 31.1852 19.4274 3.3722 -4.4187 3.4836
# 2 31.1852 107.1440 14.5351 -12.3693 -16.2317 -4.1977
# 3 19.4274 14.5351 56.3764 -5.6575 -7.5661 -9.3361
# 4 3.3722 -12.3693 -5.6575 26.1115 -4.2668 0.3466
# 5 -4.4187 -16.2317 -7.5661 -4.2668 47.1523 -5.4575
# 6 3.4836 -4.1977 -9.3361 0.3466 -5.4575 40.0941
#
#
#
# Elastic Compliance Matrix: (Units=1/GPa)
#
#
# Indices 1 2 3 4 5 6 
#
# 1 0.013827 -0.004346 -0.004900 -0.005160 -0.001800 -0.002998
# 2 -0.004346 0.012210 0.000067 0.007100 0.004710 0.002251
# 3 -0.004900 0.000067 0.021569 0.005954 0.004256 0.005983
# 4 -0.005160 0.007100 0.005954 0.044773 0.007336 0.003190
# 5 -0.001800 0.004710 0.004256 0.007336 0.024577 0.004922
# 6 -0.002998 0.002251 0.005983 0.003190 0.004922 0.027473
#
#
# Mechanical properties :
#
#
# Convention : Reuss Voigt Hill
#
# Bulk Modulus (GPa) = 34.19078 42.69602 38.44340
# Shear Modulus (GPa) = 28.97937 35.25967 32.11952
#
# Velocity S-wave (km/s) = 3.66191 4.03927 3.85521
# Velocity P-wave (km/s) = 5.80522 6.44290 6.13236
#
# Compressibility (1/GPa) = 0.02924765
#
# Stress axis : x y z
#
# Youngs Moduli (GPa) = 72.32350 81.89803 46.36329
#
# Poissons Ratio (x) = 0.35589 0.22719
# Poissons Ratio (y) = 0.31429 -0.00309
# Poissons Ratio (z) = 0.35440 -0.00547
#
# Static dielectric constant tensor:
#      x y z
#    x 1.796200 0.056220 -0.009470 
#    y 0.056220 1.684980 -0.006260 
#    z -0.009470 -0.006260 1.839260 
# 
# From -- ./inp_files/117224.got.cif
#   From: 2010.05.17/outbox.cif.g08.bks.cpg/sg2_59_cif.got.tgz:117224.got - 2010.06.03 11:33:40.
