data_PCOD9051730
_publ_section_title
;
Structure prediction by ZEFSAII (Michael W. Deem and Ramdas Pophale) SiO2 
 PCOD9051730
Probable space group: P -1
;
_chemical_formula_sum "Si O2"
_cell_formula_units_Z 12
_cell_length_a 11.802687
_cell_length_b 7.587336
_cell_length_c 15.078033
_cell_angle_alpha 137.173958
_cell_angle_beta 148.249136
_cell_angle_gamma 53.742674
_cell_volume 481.039692
_symmetry_space_group_name_H-M "P -1"
_symmetry_group_IT_number 2
_symmetry_cell_setting 'triclinic'
loop_
_space_group_symop_operation_xyz
x,y,z
-x,-y,-z
loop_
_atom_site_type_symbol
_atom_site_label
_atom_site_fract_x
_atom_site_fract_y
_atom_site_fract_z
Si Si1 0.410709 0.057040 0.865885
Si Si2 0.918476 0.074944 0.591175
Si Si3 0.725980 0.605952 0.646590
Si Si4 0.415862 0.370145 0.779291
Si Si5 0.835892 0.807554 0.614952
Si Si6 0.745972 0.033472 0.945266
O O1 0.553616 0.912187 0.837042
O O2 0.155152 0.021775 0.698788
O O3 0.503431 0.357184 0.026042
O O4 0.500000 0.000000 0.000000
O O5 0.857681 0.356419 0.625348
O O6 0.757748 0.830946 0.360097
O O7 0.874347 0.047242 0.658679
O O8 0.500000 0.500000 0.500000
O O9 0.696479 0.769992 0.597710
O O10 0.839100 0.802121 0.867308
O O11 0.286446 0.399777 0.611409
O O12 0.627049 0.208854 0.860222
O O13 0.074018 0.804383 0.815550
#
# Coordination Sequence:
#
# PCOD9051730 Si02
#       6
#     2   2   2   2   2   2
#     4  12  25  47  77 113 150 202 253 311 385 450
#     4  10  25  49  78 112 142 206 251 309 378 446
#     4  12  25  47  77 113 150 202 253 311 385 450
#     4  10  25  47  73 112 149 197 256 310 373 446
#     4  10  25  47  73 112 149 197 256 310 373 446
#     4  12  25  47  74 112 154 196 251 317 378 458
#
# _framework density 24.945965999999999
#
# number of rings (size 3 to 8) (size 9 to 14) (size 15 to 20)
#    1.000    0.000    3.333    2.000    2.333    6.667 
#    0.000    0.000    0.000    0.000    0.000    0.000 
#    0.000    0.000    0.000    0.000    0.000    0.000 
#
# Total GULP energy -66928.064599 kJ/mol
# GULP energy per Si atom -5577.338717 kJ/mol
# Density = 2.488919 g / cm^3
# Si number density = 24.945966 Si / 1000 Ang^3
#
#
#
# Elastic Constant Matrix: (Units=GPa)
#
#
# Indices 1 2 3 4 5 6 
#
# 1 130.2907 21.7614 28.2741 3.3829 -10.9739 20.9660
# 2 21.7614 77.0391 44.7544 12.1713 -5.2278 4.5498
# 3 28.2741 44.7544 185.5713 -13.6706 7.1531 -13.5644
# 4 3.3829 12.1713 -13.6706 31.2119 -4.5925 -2.3010
# 5 -10.9739 -5.2278 7.1531 -4.5925 41.0156 -4.2668
# 6 20.9660 4.5498 -13.5644 -2.3010 -4.2668 40.1508
#
#
#
# Elastic Compliance Matrix: (Units=1/GPa)
#
#
# Indices 1 2 3 4 5 6 
#
# 1 0.009249 -0.000915 -0.001755 -0.001510 0.001954 -0.005198
# 2 -0.000915 0.018069 -0.005233 -0.009285 0.001546 -0.003706
# 3 -0.001755 -0.005233 0.007707 0.005718 -0.001394 0.004293
# 4 -0.001510 -0.009285 0.005718 0.039151 0.002452 0.006277
# 5 0.001954 0.001546 -0.001394 0.002452 0.025744 0.001210
# 6 -0.005198 -0.003706 0.004293 0.006277 0.001210 0.029979
#
#
# Mechanical properties :
#
#
# Convention : Reuss Voigt Hill
#
# Bulk Modulus (GPa) = 52.02979 64.72009 58.37494
# Shear Modulus (GPa) = 32.87053 42.34972 37.61013
#
# Velocity S-wave (km/s) = 3.63391 4.12473 3.88708
# Velocity P-wave (km/s) = 6.20559 6.97746 6.60282
#
# Compressibility (1/GPa) = 0.01921976
#
# Stress axis : x y z
#
# Youngs Moduli (GPa) = 108.11945 55.34212 129.75382
#
# Poissons Ratio (x) = 0.05063 0.22773
# Poissons Ratio (y) = 0.09891 0.67898
# Poissons Ratio (z) = 0.18976 0.28960
#
# Static dielectric constant tensor:
#      x y z
#    x 2.108770 0.072930 -0.058390 
#    y 0.072930 2.021130 -0.039870 
#    z -0.058390 -0.039870 2.046640 
# 
# From -- ./inp_files/277817.got.cif
#   From: 2010.05.17/outbox.cif.g08.bks.cpg/sg2_139_cif.got.tgz:277817.got - 2010.06.03 11:33:40.
