data_PCOD9051557
_publ_section_title
;
Structure prediction by ZEFSAII (Michael W. Deem and Ramdas Pophale) SiO2 
 PCOD9051557
Probable space group: P -1
;
_chemical_formula_sum "Si O2"
_cell_formula_units_Z 11
_cell_length_a 9.318512
_cell_length_b 9.316766
_cell_length_c 20.302232
_cell_angle_alpha 36.841409
_cell_angle_beta 29.840179
_cell_angle_gamma 31.480059
_cell_volume 445.385947
_symmetry_space_group_name_H-M "P -1"
_symmetry_group_IT_number 2
_symmetry_cell_setting 'triclinic'
loop_
_space_group_symop_operation_xyz
x,y,z
-x,-y,-z
loop_
_atom_site_type_symbol
_atom_site_label
_atom_site_fract_x
_atom_site_fract_y
_atom_site_fract_z
Si Si1 0.000000 0.000000 0.000000
Si Si2 0.392763 0.300379 0.904114
Si Si3 0.434296 0.863609 0.512683
Si Si4 0.381351 0.527058 0.129539
Si Si5 0.640524 0.241184 0.681614
Si Si6 0.686034 0.955870 0.647608
O O1 0.793699 0.190620 0.946789
O O2 0.253271 0.712390 0.958034
O O3 0.586764 0.409201 0.830926
O O4 0.462084 0.295476 0.801784
O O5 0.000000 0.500000 0.000000
O O6 0.500000 0.000000 0.000000
O O7 0.627683 0.525330 0.562394
O O8 0.500000 0.000000 0.500000
O O9 0.497128 0.957990 0.381718
O O10 0.029790 0.989183 0.629166
O O11 0.183832 0.361969 0.268960
O O12 0.479049 0.142661 0.725382
O O13 0.000000 0.000000 0.500000
#
# Coordination Sequence:
#
# PCOD9051557 Si02
#       6
#     1   2   2   2   2   2
#     4  10  26  44  74 104 138 198 246 308 368 428
#     4  12  27  46  72 106 147 199 256 302 373 436
#     4  11  23  44  72 106 143 191 241 296 380 436
#     4  11  25  47  73 105 149 187 255 302 375 437
#     4  11  25  44  68 105 145 188 243 309 361 441
#     4  10  25  46  75 110 146 192 242 303 373 444
#
# _framework density 24.697680999999999
#
# number of rings (size 3 to 8) (size 9 to 14) (size 15 to 20)
#    0.000    1.091    0.000    4.364    7.636    8.727 
#    0.000    0.000    0.000    0.000    0.000    0.000 
#    0.000    0.000    0.000    0.000    0.000    0.000 
#
# Total GULP energy -61424.170709 kJ/mol
# GULP energy per Si atom -5584.015519 kJ/mol
# Density = 2.464147 g / cm^3
# Si number density = 24.697681 Si / 1000 Ang^3
#
#
#
# Elastic Constant Matrix: (Units=GPa)
#
#
# Indices 1 2 3 4 5 6 
#
# 1 175.9057 46.7807 39.2229 -3.5671 43.2491 32.5651
# 2 46.7807 147.2712 39.5648 -19.4751 13.3991 -14.2238
# 3 39.2229 39.5648 80.7226 -1.3931 45.0288 3.4868
# 4 -3.5671 -19.4751 -1.3931 53.4401 10.0643 5.9965
# 5 43.2491 13.3991 45.0288 10.0643 57.8950 6.3598
# 6 32.5651 -14.2238 3.4868 5.9965 6.3598 45.4248
#
#
#
# Elastic Compliance Matrix: (Units=1/GPa)
#
#
# Indices 1 2 3 4 5 6 
#
# 1 0.009160 -0.003044 0.000903 0.001494 -0.006342 -0.006898
# 2 -0.003044 0.009595 -0.005186 0.002009 0.003202 0.004871
# 3 0.000903 -0.005186 0.025573 0.002743 -0.019638 -0.001847
# 4 0.001494 0.002009 0.002743 0.021235 -0.007136 -0.002457
# 5 -0.006342 0.003202 -0.019638 -0.007136 0.037481 0.002751
# 6 -0.006898 0.004871 -0.001847 -0.002457 0.002751 0.028566
#
#
# Mechanical properties :
#
#
# Convention : Reuss Voigt Hill
#
# Bulk Modulus (GPa) = 33.70018 72.78182 53.24100
# Shear Modulus (GPa) = 32.01958 49.90740 40.96349
#
# Velocity S-wave (km/s) = 3.60455 4.50013 4.07701
# Velocity P-wave (km/s) = 5.56762 7.51895 6.61563
#
# Compressibility (1/GPa) = 0.02967343
#
# Stress axis : x y z
#
# Youngs Moduli (GPa) = 109.17354 104.22121 39.10444
#
# Poissons Ratio (x) = 0.31722 -0.03530
# Poissons Ratio (y) = 0.33230 0.20279
# Poissons Ratio (z) = -0.09855 0.54048
#
# Static dielectric constant tensor:
#      x y z
#    x 2.005330 0.043120 -0.050130 
#    y 0.043120 1.886920 0.073810 
#    z -0.050130 0.073810 1.930170 
# 
# From -- ./inp_files/379094.got.cif
#   From: 2010.05.17/outbox.cif.g08.bks.cpg/sg2_190_cif.got.tgz:379094.got - 2010.06.03 11:33:40.
