data_PCOD9051479
_publ_section_title
;
Structure prediction by ZEFSAII (Michael W. Deem and Ramdas Pophale) SiO2 
 PCOD9051479
Probable space group: P -1
;
_chemical_formula_sum "Si O2"
_cell_formula_units_Z 16
_cell_length_a 9.937147
_cell_length_b 11.094035
_cell_length_c 15.969917
_cell_angle_alpha 45.901953
_cell_angle_beta 118.666381
_cell_angle_gamma 138.925303
_cell_volume 826.967156
_symmetry_space_group_name_H-M "P -1"
_symmetry_group_IT_number 2
_symmetry_cell_setting 'triclinic'
loop_
_space_group_symop_operation_xyz
x,y,z
-x,-y,-z
loop_
_atom_site_type_symbol
_atom_site_label
_atom_site_fract_x
_atom_site_fract_y
_atom_site_fract_z
Si Si1 0.492558 0.258217 0.135358
Si Si2 0.240640 0.873123 0.368614
Si Si3 0.597761 0.669426 0.755866
Si Si4 0.929977 0.488912 0.213529
Si Si5 0.896115 0.598167 0.827162
Si Si6 0.728089 0.119626 0.081383
Si Si7 0.797761 0.466959 0.365481
Si Si8 0.682330 0.005714 0.943879
O O1 0.428167 0.350643 0.140138
O O2 0.737185 0.409701 0.137413
O O3 0.392115 0.019048 0.265235
O O4 0.390818 0.189385 0.047519
O O5 0.278543 0.726782 0.497556
O O6 0.006458 0.699648 0.350487
O O7 0.285785 0.066326 0.347486
O O8 0.724531 0.611294 0.783826
O O9 0.377041 0.530202 0.714442
O O10 0.850625 0.410633 0.321535
O O11 0.030234 0.399253 0.244495
O O12 0.104123 0.758745 0.135150
O O13 0.097812 0.803388 0.839053
O O14 0.808135 0.358226 0.953970
O O15 0.504431 0.994566 0.112953
O O16 0.707342 0.984752 0.059806
#
# Coordination Sequence:
#
# PCOD9051479 Si02
#       8
#     2   2   2   2   2   2   2   2
#     4   9  18  32  55  77 102 135 174 212 259 308
#     4   9  19  34  59  79 106 136 175 206 260 316
#     4   9  20  34  53  77 112 137 163 219 267 299
#     4  10  18  30  58  76 102 137 177 210 251 316
#     4  10  19  37  52  78 106 140 174 213 266 304
#     4   9  20  33  57  72 104 142 178 214 255 319
#     4  10  18  35  59  81 101 139 177 208 251 318
#     4  10  17  35  53  79  95 136 186 212 255 302
#
# _framework density 19.347805000000001
#
# number of rings (size 3 to 8) (size 9 to 14) (size 15 to 20)
#    0.750    1.750    2.500    0.375    0.000    0.000 
#    6.750    1.875    0.000    1.500    0.000    0.000 
#    0.000    0.000    0.000    0.000    0.000    0.000 
#
# Total GULP energy -89174.481948 kJ/mol
# GULP energy per Si atom -5573.405122 kJ/mol
# Density = 1.930377 g / cm^3
# Si number density = 19.347805 Si / 1000 Ang^3
#
#
#
# Elastic Constant Matrix: (Units=GPa)
#
#
# Indices 1 2 3 4 5 6 
#
# 1 90.4816 26.3567 14.6741 6.2432 2.0953 14.7152
# 2 26.3567 127.3206 26.8854 9.4172 0.8883 7.4116
# 3 14.6741 26.8854 22.0376 -3.2407 -6.1674 -2.9796
# 4 6.2432 9.4172 -3.2407 24.1695 3.2435 -2.6250
# 5 2.0953 0.8883 -6.1674 3.2435 13.2288 0.1764
# 6 14.7152 7.4116 -2.9796 -2.6250 0.1764 14.8969
#
#
#
# Elastic Compliance Matrix: (Units=1/GPa)
#
#
# Indices 1 2 3 4 5 6 
#
# 1 0.020599 0.004743 -0.029347 -0.012583 -0.013770 -0.030631
# 2 0.004743 0.015273 -0.029731 -0.011671 -0.012507 -0.020139
# 3 -0.029347 -0.029731 0.133441 0.037482 0.058648 0.076382
# 4 -0.012583 -0.011671 0.037482 0.057314 0.005722 0.035765
# 5 -0.013770 -0.012507 0.058648 0.005722 0.104135 0.031330
# 6 -0.030631 -0.020139 0.076382 0.035765 0.031330 0.128614
#
#
# Mechanical properties :
#
#
# Convention : Reuss Voigt Hill
#
# Bulk Modulus (GPa) = 16.49000 41.74136 29.11568
# Shear Modulus (GPa) = 8.49963 21.92061 15.21012
#
# Velocity S-wave (km/s) = 2.09824 3.36962 2.80686
# Velocity P-wave (km/s) = 3.79626 6.06302 5.05825
#
# Compressibility (1/GPa) = 0.06064283
#
# Stress axis : x y z
#
# Youngs Moduli (GPa) = 48.54699 65.47409 7.49394
#
# Poissons Ratio (x) = -0.31053 0.21993
# Poissons Ratio (y) = -0.23025 0.22280
# Poissons Ratio (z) = 1.42473 1.94658
#
# Static dielectric constant tensor:
#      x y z
#    x 1.676120 -0.018020 -0.021040 
#    y -0.018020 1.714460 -0.000010 
#    z -0.021040 -0.000010 1.689910 
# 
# From -- ./inp_files/355398.got.cif
#   From: 2010.05.17/outbox.cif.g08.bks.cpg/sg2_178_cif.got.tgz:355398.got - 2010.06.03 11:33:40.
