data_PCOD9051010
_publ_section_title
;
Structure prediction by ZEFSAII (Michael W. Deem and Ramdas Pophale) SiO2 
 PCOD9051010
Probable space group: P -1
;
_chemical_formula_sum "Si O2"
_cell_formula_units_Z 16
_cell_length_a 8.804918
_cell_length_b 20.292297
_cell_length_c 22.922770
_cell_angle_alpha 157.031096
_cell_angle_beta 42.211101
_cell_angle_gamma 150.366130
_cell_volume 751.601569
_symmetry_space_group_name_H-M "P -1"
_symmetry_group_IT_number 2
_symmetry_cell_setting 'triclinic'
loop_
_space_group_symop_operation_xyz
x,y,z
-x,-y,-z
loop_
_atom_site_type_symbol
_atom_site_label
_atom_site_fract_x
_atom_site_fract_y
_atom_site_fract_z
Si Si1 0.165175 0.437318 0.435527
Si Si2 0.930250 0.981576 0.072613
Si Si3 0.128396 0.356943 0.999614
Si Si4 0.062418 0.389780 0.181719
Si Si5 0.842490 0.597258 0.463282
Si Si6 0.192337 0.577548 0.949391
Si Si7 0.778779 0.799539 0.349824
Si Si8 0.097441 0.069318 0.355442
O O1 0.002088 0.337947 0.464602
O O2 0.535037 0.691413 0.540418
O O3 0.000000 0.500000 0.500000
O O4 0.137597 0.240950 0.253194
O O5 0.987623 0.828317 0.959655
O O6 0.555755 0.838225 0.066720
O O7 0.000000 0.000000 0.000000
O O8 0.085999 0.386574 0.102718
O O9 0.001866 0.439024 0.060999
O O10 0.500000 0.500000 0.000000
O O11 0.930216 0.088457 0.814813
O O12 0.400248 0.637802 0.315530
O O13 0.807899 0.395104 0.279161
O O14 0.500000 0.500000 0.500000
O O15 0.025618 0.821980 0.550520
O O16 0.227488 0.396899 0.787579
O O17 0.000000 0.500000 0.000000
O O18 0.000000 0.000000 0.500000
O O19 0.930952 0.914896 0.336206
#
# Coordination Sequence:
#
# PCOD9051010 Si02
#       8
#     2   2   2   2   2   2   2   2
#     4  11  24  43  71  99 142 189 234 293 357 426
#     4  11  25  45  72 105 140 187 249 296 356 432
#     4  12  23  45  71 105 148 186 238 291 354 437
#     4  11  25  46  71 105 138 191 235 297 360 422
#     4  10  25  45  66  99 139 181 235 287 361 426
#     4  11  24  45  70 103 141 190 236 291 359 418
#     4  11  26  42  69 103 143 179 237 292 352 428
#     4  11  24  45  66 102 144 182 234 292 361 417
#
# _framework density 21.287876000000001
#
# number of rings (size 3 to 8) (size 9 to 14) (size 15 to 20)
#    0.000    1.000    2.500    3.000    7.000    3.500 
#    0.000    5.625    0.000    0.000    0.000    0.000 
#    0.000    0.000    0.000    0.000    0.000    0.000 
#
# Total GULP energy -89369.440083 kJ/mol
# GULP energy per Si atom -5585.590005 kJ/mol
# Density = 2.123942 g / cm^3
# Si number density = 21.287876 Si / 1000 Ang^3
#
#
#
# Elastic Constant Matrix: (Units=GPa)
#
#
# Indices 1 2 3 4 5 6 
#
# 1 158.6932 36.7132 53.0279 -7.4604 -18.4696 -22.6436
# 2 36.7132 84.2123 43.2475 -8.1266 4.7502 3.8542
# 3 53.0279 43.2475 134.2913 -6.3116 18.9843 4.1103
# 4 -7.4604 -8.1266 -6.3116 40.9388 -1.7840 6.9274
# 5 -18.4696 4.7502 18.9843 -1.7840 43.5978 1.1036
# 6 -22.6436 3.8542 4.1103 6.9274 1.1036 36.2908
#
#
#
# Elastic Compliance Matrix: (Units=1/GPa)
#
#
# Indices 1 2 3 4 5 6 
#
# 1 0.010058 -0.002965 -0.004118 -0.000292 0.006190 0.006924
# 2 -0.002965 0.015379 -0.003375 0.002537 -0.001268 -0.003547
# 3 -0.004118 -0.003375 0.011158 0.000609 -0.006124 -0.003404
# 4 -0.000292 0.002537 0.000609 0.025922 0.000534 -0.005485
# 5 0.006190 -0.001268 -0.006124 0.000534 0.028291 0.003728
# 6 0.006924 -0.003547 -0.003404 -0.005485 0.003728 0.033572
#
#
# Mechanical properties :
#
#
# Convention : Reuss Voigt Hill
#
# Bulk Modulus (GPa) = 63.77282 71.46378 67.61830
# Shear Modulus (GPa) = 33.21787 40.44603 36.83195
#
# Velocity S-wave (km/s) = 3.95449 4.36358 4.16406
# Velocity P-wave (km/s) = 7.13253 7.68315 7.41296
#
# Compressibility (1/GPa) = 0.01568066
#
# Stress axis : x y z
#
# Youngs Moduli (GPa) = 99.42482 65.02321 89.62271
#
# Poissons Ratio (x) = 0.19276 0.36903
# Poissons Ratio (y) = 0.29475 0.30248
# Poissons Ratio (z) = 0.40939 0.21946
#
# Static dielectric constant tensor:
#      x y z
#    x 1.814640 0.030220 0.026680 
#    y 0.030220 1.794560 0.036330 
#    z 0.026680 0.036330 1.766470 
# 
# From -- ./inp_files/608668.got.cif
#   From: 2010.05.17/outbox.cif.g08.bks.cpg/sg2_305_cif.got.tgz:608668.got - 2010.06.03 11:33:40.
