data_PCOD9051706
_publ_section_title
;
Structure prediction by ZEFSAII (Michael W. Deem and Ramdas Pophale) SiO2 
 PCOD9051706
Probable space group: P -1
;
_chemical_formula_sum "Si O2"
_cell_formula_units_Z 10
_cell_length_a 9.917614
_cell_length_b 13.271763
_cell_length_c 5.084494
_cell_angle_alpha 133.680450
_cell_angle_beta 70.204597
_cell_angle_gamma 126.612826
_cell_volume 385.393453
_symmetry_space_group_name_H-M "P -1"
_symmetry_group_IT_number 2
_symmetry_cell_setting 'triclinic'
loop_
_space_group_symop_operation_xyz
x,y,z
-x,-y,-z
loop_
_atom_site_type_symbol
_atom_site_label
_atom_site_fract_x
_atom_site_fract_y
_atom_site_fract_z
Si Si1 0.912164 0.060002 0.463592
Si Si2 0.324657 0.836425 0.264051
Si Si3 0.385380 0.579291 0.449390
Si Si4 0.877533 0.423964 0.695792
Si Si5 0.254081 0.265817 0.340729
O O1 0.796075 0.124990 0.755817
O O2 0.072767 0.209118 0.478332
O O3 0.000000 0.000000 0.500000
O O4 0.791315 0.903587 0.077541
O O5 0.231460 0.764666 0.475805
O O6 0.500000 0.000000 0.500000
O O7 0.353161 0.703595 0.863412
O O8 0.272404 0.542475 0.199457
O O9 0.314813 0.411174 0.352488
O O10 0.587630 0.671803 0.453985
O O11 0.000000 0.500000 0.500000
O O12 0.000000 0.500000 0.000000
#
# Coordination Sequence:
#
# PCOD9051706 Si02
#       5
#     2   2   2   2   2
#     4  11  26  45  72 108 158 199 254 320 399 464
#     4  12  27  48  78 117 153 206 266 327 391 468
#     4  11  25  48  78 110 155 202 269 318 392 470
#     4  12  27  49  78 116 156 205 264 331 393 469
#     4  10  25  47  72 111 153 206 250 324 394 471
#
# _framework density 25.947506000000001
#
# number of rings (size 3 to 8) (size 9 to 14) (size 15 to 20)
#    0.000    0.800    4.000    1.200    5.600    4.000 
#    0.000    4.000    0.000    0.000    0.000    0.000 
#    0.000    0.000    0.000    0.000    0.000    0.000 
#
# Total GULP energy -56032.253402 kJ/mol
# GULP energy per Si atom -5603.225340 kJ/mol
# Density = 2.588845 g / cm^3
# Si number density = 25.947506 Si / 1000 Ang^3
#
#
#
# Elastic Constant Matrix: (Units=GPa)
#
#
# Indices 1 2 3 4 5 6 
#
# 1 224.4832 71.6247 52.1065 9.8749 13.0906 8.6572
# 2 71.6247 152.5328 63.1206 22.8435 25.1833 19.0927
# 3 52.1065 63.1206 122.6217 18.0512 5.7837 14.6212
# 4 9.8749 22.8435 18.0512 48.3271 4.0494 13.7069
# 5 13.0906 25.1833 5.7837 4.0494 53.3378 2.7014
# 6 8.6572 19.0927 14.6212 13.7069 2.7014 45.9087
#
#
#
# Elastic Compliance Matrix: (Units=1/GPa)
#
#
# Indices 1 2 3 4 5 6 
#
# 1 0.005397 -0.002017 -0.001308 0.000316 -0.000263 0.000159
# 2 -0.002017 0.010183 -0.003671 -0.002210 -0.003655 -0.001811
# 3 -0.001308 -0.003671 0.010968 -0.001833 0.001067 -0.001235
# 4 0.000316 -0.002210 -0.001833 0.024005 -0.000369 -0.005702
# 5 -0.000263 -0.003655 0.001067 -0.000369 0.020444 0.000137
# 6 0.000159 -0.001811 -0.001235 -0.005702 0.000137 0.024593
#
#
# Mechanical properties :
#
#
# Convention : Reuss Voigt Hill
#
# Bulk Modulus (GPa) = 79.64714 97.03794 88.34254
# Shear Modulus (GPa) = 43.94869 50.36712 47.15790
#
# Velocity S-wave (km/s) = 4.11999 4.41059 4.26776
# Velocity P-wave (km/s) = 7.30716 7.96346 7.64236
#
# Compressibility (1/GPa) = 0.01255538
#
# Stress axis : x y z
#
# Youngs Moduli (GPa) = 185.28350 98.19903 91.17627
#
# Poissons Ratio (x) = 0.19804 0.11929
# Poissons Ratio (y) = 0.37367 0.33474
# Poissons Ratio (z) = 0.24242 0.36052
#
# Static dielectric constant tensor:
#      x y z
#    x 2.025380 -0.026760 -0.028210 
#    y -0.026760 2.005440 -0.027000 
#    z -0.028210 -0.027000 2.160880 
# 
# From -- ./inp_files/20742.got.cif
#   From: 2010.05.17/outbox.cif.g08.bks.cpg/sg2_11_cif.got.tgz:20742.got - 2010.06.03 11:33:40.
