data_PCOD9051436
_publ_section_title
;
Structure prediction by ZEFSAII (Michael W. Deem and Ramdas Pophale) SiO2 
 PCOD9051436
Probable space group: P -1
;
_chemical_formula_sum "Si O2"
_cell_formula_units_Z 14
_cell_length_a 13.211566
_cell_length_b 8.645561
_cell_length_c 16.217621
_cell_angle_alpha 49.989572
_cell_angle_beta 26.923389
_cell_angle_gamma 61.350799
_cell_volume 618.490865
_symmetry_space_group_name_H-M "P -1"
_symmetry_group_IT_number 2
_symmetry_cell_setting 'triclinic'
loop_
_space_group_symop_operation_xyz
x,y,z
-x,-y,-z
loop_
_atom_site_type_symbol
_atom_site_label
_atom_site_fract_x
_atom_site_fract_y
_atom_site_fract_z
Si Si1 0.914387 0.464458 0.979748
Si Si2 0.290460 0.189840 0.052966
Si Si3 0.853480 0.758856 0.689131
Si Si4 0.248475 0.542444 0.456156
Si Si5 0.522104 0.070274 0.365569
Si Si6 0.691476 0.678024 0.346159
Si Si7 0.121645 0.202849 0.526536
O O1 0.891096 0.685816 0.889678
O O2 0.078364 0.345573 0.855817
O O3 0.667882 0.310075 0.186204
O O4 0.000000 0.500000 0.000000
O O5 0.325921 0.256451 0.100652
O O6 0.525662 0.273985 0.800345
O O7 0.143319 0.945782 0.236963
O O8 0.776003 0.720066 0.664312
O O9 0.042840 0.630849 0.610984
O O10 0.000000 0.000000 0.500000
O O11 0.309699 0.396433 0.532951
O O12 0.146083 0.397882 0.502241
O O13 0.285704 0.070240 0.492099
O O14 0.500000 0.000000 0.500000
O O15 0.642915 0.903694 0.294182
O O16 0.500000 0.500000 0.500000
#
# Coordination Sequence:
#
# PCOD9051436 Si02
#       7
#     2   2   2   2   2   2   2
#     4  12  24  44  69 102 139 188 230 288 356 416
#     4  11  23  46  71 101 140 183 231 285 348 408
#     4  10  25  46  71 101 140 181 237 289 341 413
#     4  12  24  47  72 102 137 184 235 281 355 412
#     4  12  23  43  68 104 140 179 233 284 352 421
#     4  12  25  42  68 102 141 182 232 291 348 422
#     4  11  24  44  71 101 140 182 231 291 338 418
#
# _framework density 22.635743000000002
#
# number of rings (size 3 to 8) (size 9 to 14) (size 15 to 20)
#    0.000    0.571    4.286    4.286    2.000    2.857 
#    2.571    2.857    0.000    0.000    0.000    0.000 
#    0.000    0.000    0.000    0.000    0.000    0.000 
#
# Total GULP energy -78219.245466 kJ/mol
# GULP energy per Si atom -5587.088962 kJ/mol
# Density = 2.258422 g / cm^3
# Si number density = 22.635743 Si / 1000 Ang^3
#
#
#
# Elastic Constant Matrix: (Units=GPa)
#
#
# Indices 1 2 3 4 5 6 
#
# 1 103.3162 12.7111 11.8236 -5.7112 6.0997 17.2926
# 2 12.7111 71.3007 2.1700 4.6379 -16.0267 1.4342
# 3 11.8236 2.1700 73.8291 2.3101 -8.5294 19.6119
# 4 -5.7112 4.6379 2.3101 38.6504 9.4997 -3.8812
# 5 6.0997 -16.0267 -8.5294 9.4997 32.0885 -3.6843
# 6 17.2926 1.4342 19.6119 -3.8812 -3.6843 42.2407
#
#
#
# Elastic Compliance Matrix: (Units=1/GPa)
#
#
# Indices 1 2 3 4 5 6 
#
# 1 0.011455 -0.003392 -0.001389 0.003156 -0.005650 -0.004132
# 2 -0.003392 0.017495 0.001340 -0.005420 0.011421 0.000671
# 3 -0.001389 0.001340 0.016292 -0.003375 0.005474 -0.006874
# 4 0.003156 -0.005420 -0.003375 0.030606 -0.013020 0.002136
# 5 -0.005650 0.011421 0.005474 -0.013020 0.043479 0.001980
# 6 -0.004132 0.000671 -0.006874 0.002136 0.001980 0.028903
#
#
# Mechanical properties :
#
#
# Convention : Reuss Voigt Hill
#
# Bulk Modulus (GPa) = 26.06836 33.53949 29.80392
# Shear Modulus (GPa) = 29.78003 37.37866 33.57935
#
# Velocity S-wave (km/s) = 3.63108 4.06804 3.85576
# Velocity P-wave (km/s) = 5.39640 6.07573 5.74611
#
# Compressibility (1/GPa) = 0.03836068
#
# Stress axis : x y z
#
# Youngs Moduli (GPa) = 87.29877 57.15856 61.38083
#
# Poissons Ratio (x) = 0.19388 0.08523
# Poissons Ratio (y) = 0.29611 -0.08224
# Poissons Ratio (z) = 0.12122 -0.07658
#
# Static dielectric constant tensor:
#      x y z
#    x 1.880910 -0.077400 0.162460 
#    y -0.077400 1.891190 0.035410 
#    z 0.162460 0.035410 0.937240 
# 
# From -- ./inp_files/225771.got.cif
#   From: 2010.05.17/outbox.cif.g08.bks.cpg/sg2_113_cif.got.tgz:225771.got - 2010.06.03 11:33:40.
