data_PCOD9051197
_publ_section_title
;
Structure prediction by ZEFSAII (Michael W. Deem and Ramdas Pophale) SiO2 
 PCOD9051197
Probable space group: P -1
;
_chemical_formula_sum "Si O2"
_cell_formula_units_Z 10
_cell_length_a 10.132544
_cell_length_b 8.567738
_cell_length_c 13.735679
_cell_angle_alpha 51.255475
_cell_angle_beta 44.038708
_cell_angle_gamma 87.778965
_cell_volume 421.435009
_symmetry_space_group_name_H-M "P -1"
_symmetry_group_IT_number 2
_symmetry_cell_setting 'triclinic'
loop_
_space_group_symop_operation_xyz
x,y,z
-x,-y,-z
loop_
_atom_site_type_symbol
_atom_site_label
_atom_site_fract_x
_atom_site_fract_y
_atom_site_fract_z
Si Si1 0.035689 0.077157 0.066077
Si Si2 0.287015 0.490989 0.162321
Si Si3 0.322904 0.859193 0.382005
Si Si4 0.554110 0.240875 0.440242
Si Si5 0.441110 0.743984 0.185383
O O1 0.171463 0.408366 0.873848
O O2 0.267331 0.117061 0.978255
O O3 0.725254 0.836311 0.377657
O O4 0.000000 0.000000 0.000000
O O5 0.317165 0.509427 0.256089
O O6 0.948002 0.212192 0.425638
O O7 0.500000 0.500000 0.000000
O O8 0.406623 0.794726 0.934616
O O9 0.400177 0.796040 0.459694
O O10 0.239259 0.641891 0.423470
O O11 0.500000 0.000000 0.500000
O O12 0.500000 0.000000 0.000000
#
# Coordination Sequence:
#
# PCOD9051197 Si02
#       5
#     2   2   2   2   2
#     4  12  26  48  75 105 139 192 241 287 353 426
#     4  11  25  42  69 100 135 184 234 290 348 416
#     4  11  24  45  67  97 142 181 233 289 350 412
#     4  12  28  45  74 104 147 185 235 298 354 417
#     4  10  25  45  72 101 141 182 237 289 349 417
#
# _framework density 23.728452000000001
#
# number of rings (size 3 to 8) (size 9 to 14) (size 15 to 20)
#    0.000    0.800    2.000    3.600    8.400    3.200 
#    0.000    0.000    0.000    0.000    0.000    0.000 
#    0.000    0.000    0.000    0.000    0.000    0.000 
#
# Total GULP energy -56016.506060 kJ/mol
# GULP energy per Si atom -5601.650606 kJ/mol
# Density = 2.367444 g / cm^3
# Si number density = 23.728452 Si / 1000 Ang^3
#
#
#
# Elastic Constant Matrix: (Units=GPa)
#
#
# Indices 1 2 3 4 5 6 
#
# 1 143.3782 7.8502 8.9864 7.6727 2.7731 -7.0380
# 2 7.8502 95.2495 -1.8670 9.5409 8.1208 -2.0928
# 3 8.9864 -1.8670 73.7272 1.3631 -6.2626 6.9542
# 4 7.6727 9.5409 1.3631 41.8268 -8.1564 -6.5673
# 5 2.7731 8.1208 -6.2626 -8.1564 40.7129 8.5753
# 6 -7.0380 -2.0928 6.9542 -6.5673 8.5753 24.9002
#
#
#
# Elastic Compliance Matrix: (Units=1/GPa)
#
#
# Indices 1 2 3 4 5 6 
#
# 1 0.007281 -0.000342 -0.001234 -0.001083 -0.001374 0.002561
# 2 -0.000342 0.011095 0.000017 -0.002880 -0.002996 0.001103
# 3 -0.001234 0.000017 0.014554 -0.000481 0.003428 -0.005720
# 4 -0.001083 -0.002880 -0.000481 0.026495 0.004849 0.004904
# 5 -0.001374 -0.002996 0.003428 0.004849 0.028917 -0.010277
# 6 0.002561 0.001103 -0.005720 0.004904 -0.010277 0.047407
#
#
# Mechanical properties :
#
#
# Convention : Reuss Voigt Hill
#
# Bulk Modulus (GPa) = 33.54412 38.03270 35.78841
# Shear Modulus (GPa) = 33.60088 41.31366 37.45727
#
# Velocity S-wave (km/s) = 3.76714 4.17718 3.97745
# Velocity P-wave (km/s) = 5.75232 6.27122 6.01736
#
# Compressibility (1/GPa) = 0.02981148
#
# Stress axis : x y z
#
# Youngs Moduli (GPa) = 137.34489 90.12678 68.70985
#
# Poissons Ratio (x) = 0.03086 0.08482
# Poissons Ratio (y) = 0.04702 -0.00119
# Poissons Ratio (z) = 0.16954 -0.00156
#
# Static dielectric constant tensor:
#      x y z
#    x 1.866430 -0.008560 -0.003960 
#    y -0.008560 1.979810 -0.030670 
#    z -0.003960 -0.030670 1.864230 
# 
# From -- ./inp_files/15732.got.cif
#   From: 2010.05.17/outbox.cif.g08.bks.cpg/sg2_8_cif.got.tgz:15732.got - 2010.06.03 11:33:40.
