data_PCOD9051306
_publ_section_title
;
Structure prediction by ZEFSAII (Michael W. Deem and Ramdas Pophale) SiO2 
 PCOD9051306
Probable space group: P -1
;
_chemical_formula_sum "Si O2"
_cell_formula_units_Z 12
_cell_length_a 4.807669
_cell_length_b 20.220782
_cell_length_c 5.174585
_cell_angle_alpha 64.681067
_cell_angle_beta 101.320949
_cell_angle_gamma 75.748262
_cell_volume 413.794667
_symmetry_space_group_name_H-M "P -1"
_symmetry_group_IT_number 2
_symmetry_cell_setting 'triclinic'
loop_
_space_group_symop_operation_xyz
x,y,z
-x,-y,-z
loop_
_atom_site_type_symbol
_atom_site_label
_atom_site_fract_x
_atom_site_fract_y
_atom_site_fract_z
Si Si1 0.436348 0.204347 0.689809
Si Si2 0.813221 0.646778 0.956672
Si Si3 0.332816 0.484366 0.241791
Si Si4 0.346046 0.677798 0.217657
Si Si5 0.500000 0.000000 0.500000
Si Si6 0.933381 0.903043 0.182702
Si Si7 0.000000 0.000000 0.500000
O O1 0.238689 0.281486 0.363806
O O2 0.624407 0.239500 0.857343
O O3 0.200252 0.163382 0.773752
O O4 0.706610 0.138652 0.692196
O O5 0.485632 0.656673 0.993645
O O6 0.001882 0.554780 0.082682
O O7 0.022456 0.668156 0.180361
O O8 0.500000 0.500000 0.500000
O O9 0.415531 0.391194 0.448906
O O10 0.500000 0.500000 0.000000
O O11 0.814397 0.948922 0.359366
O O12 0.832792 0.963747 0.812487
O O13 0.353186 0.934923 0.662335
#
# Coordination Sequence:
#
# PCOD9051306 Si02
#       7
#     2   2   2   2   1   2   1
#     4  12  28  46  80 108 160 203 270 325 422 467
#     4  11  26  47  73 113 158 213 270 340 401 476
#     4  10  25  45  79 115 160 222 282 337 393 477
#     4  11  26  47  73 113 158 213 270 340 401 476
#     4  12  26  50  80 112 154 194 260 324 404 486
#     4  12  28  49  78 121 148 213 254 342 394 512
#     4  12  26  50  80 112 154 194 260 324 404 486
#
# _framework density 28.999891999999999
#
# number of rings (size 3 to 8) (size 9 to 14) (size 15 to 20)
#    0.000    0.667    0.000    5.500   11.667    8.667 
#    0.000    0.000    0.000    0.000    0.000    0.000 
#    0.000    0.000    0.000    0.000    0.000    0.000 
#
# Total GULP energy -66985.978507 kJ/mol
# GULP energy per Si atom -5582.164876 kJ/mol
# Density = 2.893389 g / cm^3
# Si number density = 28.999892 Si / 1000 Ang^3
#
#
#
# Elastic Constant Matrix: (Units=GPa)
#
#
# Indices 1 2 3 4 5 6 
#
# 1 220.8329 13.5814 11.5825 -18.4091 -6.4420 -2.6003
# 2 13.5814 170.2961 38.8288 8.3939 -19.0344 5.4456
# 3 11.5825 38.8288 135.1635 -4.5797 -11.1494 5.0793
# 4 -18.4091 8.3939 -4.5797 45.9885 1.6906 -12.4926
# 5 -6.4420 -19.0344 -11.1494 1.6906 54.5494 -17.4540
# 6 -2.6003 5.4456 5.0793 -12.4926 -17.4540 40.6332
#
#
#
# Elastic Compliance Matrix: (Units=1/GPa)
#
#
# Indices 1 2 3 4 5 6 
#
# 1 0.004799 -0.000411 -0.000204 0.002338 0.000769 0.001437
# 2 -0.000411 0.006607 -0.001756 -0.001734 0.001808 -0.000449
# 3 -0.000204 -0.001756 0.008035 0.000985 0.000953 -0.000070
# 4 0.002338 -0.001734 0.000985 0.025445 0.001936 0.008913
# 5 0.000769 0.001808 0.000953 0.001936 0.022351 0.009884
# 6 0.001437 -0.000449 -0.000070 0.008913 0.009884 0.031757
#
#
# Mechanical properties :
#
#
# Convention : Reuss Voigt Hill
#
# Bulk Modulus (GPa) = 68.03666 72.69756 70.36711
# Shear Modulus (GPa) = 46.02554 59.05422 52.53988
#
# Velocity S-wave (km/s) = 3.98816 4.51750 4.26106
# Velocity P-wave (km/s) = 6.68724 7.23416 6.96607
#
# Compressibility (1/GPa) = 0.01469796
#
# Stress axis : x y z
#
# Youngs Moduli (GPa) = 208.39731 151.35185 124.45781
#
# Poissons Ratio (x) = 0.06226 0.02544
# Poissons Ratio (y) = 0.08572 0.21849
# Poissons Ratio (z) = 0.04260 0.26570
#
# Static dielectric constant tensor:
#      x y z
#    x 2.203820 0.280200 -0.008920 
#    y 0.280200 2.363360 0.109850 
#    z -0.008920 0.109850 2.448380 
# 
# From -- ./inp_files/13819.got.cif
#   From: 2010.05.17/outbox.cif.g08.bks.cpg/sg2_7_cif.got.tgz:13819.got - 2010.06.03 11:33:40.
