data_PCOD9051767
_publ_section_title
;
Structure prediction by ZEFSAII (Michael W. Deem and Ramdas Pophale) SiO2 
 PCOD9051767
Probable space group: P -1
;
_chemical_formula_sum "Si O2"
_cell_formula_units_Z 10
_cell_length_a 13.987739
_cell_length_b 5.959889
_cell_length_c 5.923673
_cell_angle_alpha 77.006214
_cell_angle_beta 124.493636
_cell_angle_gamma 84.686326
_cell_volume 381.424076
_symmetry_space_group_name_H-M "P -1"
_symmetry_group_IT_number 2
_symmetry_cell_setting 'triclinic'
loop_
_space_group_symop_operation_xyz
x,y,z
-x,-y,-z
loop_
_atom_site_type_symbol
_atom_site_label
_atom_site_fract_x
_atom_site_fract_y
_atom_site_fract_z
Si Si1 0.511896 0.302656 0.256091
Si Si2 0.878942 0.187392 0.372900
Si Si3 0.974055 0.737355 0.072297
Si Si4 0.727349 0.899423 0.511098
Si Si5 0.310636 0.508344 0.266099
O O1 0.385612 0.338407 0.206504
O O2 0.603357 0.338758 0.565638
O O3 0.589348 0.051504 0.320716
O O4 0.500000 0.500000 0.000000
O O5 0.932196 0.346937 0.579218
O O6 0.790185 0.046152 0.396458
O O7 0.809453 0.331412 0.038847
O O8 0.000000 0.000000 0.500000
O O9 0.827241 0.831342 0.864855
O O10 0.000000 0.500000 0.000000
O O11 0.000000 0.000000 0.000000
O O12 0.713676 0.635472 0.515260
#
# Coordination Sequence:
#
# PCOD9051767 Si02
#       5
#     2   2   2   2   2
#     4  11  24  50  70 108 149 193 259 323 383 460
#     4  11  25  48  74 115 153 201 258 320 387 469
#     4  10  25  47  75 112 158 203 255 320 392 469
#     4  11  25  45  75 103 149 198 249 316 386 461
#     4  11  26  46  77 103 148 198 255 317 390 459
#
# _framework density 26.217538999999999
#
# number of rings (size 3 to 8) (size 9 to 14) (size 15 to 20)
#    0.000    1.200    2.000    1.800   11.200    1.600 
#   14.400    0.000    0.000    0.000    0.000    0.000 
#    0.000    0.000    0.000    0.000    0.000    0.000 
#
# Total GULP energy -55807.801132 kJ/mol
# GULP energy per Si atom -5580.780113 kJ/mol
# Density = 2.615787 g / cm^3
# Si number density = 26.217539 Si / 1000 Ang^3
#
#
#
# Elastic Constant Matrix: (Units=GPa)
#
#
# Indices 1 2 3 4 5 6 
#
# 1 106.0972 53.2948 16.3791 -16.5204 8.7351 -5.8490
# 2 53.2948 117.1478 60.9787 -13.0863 4.6559 -5.9163
# 3 16.3791 60.9787 141.5827 -23.4027 15.2949 -14.1224
# 4 -16.5204 -13.0863 -23.4027 52.1419 1.4969 2.0268
# 5 8.7351 4.6559 15.2949 1.4969 47.3180 -15.9681
# 6 -5.8490 -5.9163 -14.1224 2.0268 -15.9681 48.3574
#
#
#
# Elastic Compliance Matrix: (Units=1/GPa)
#
#
# Indices 1 2 3 4 5 6 
#
# 1 0.013207 -0.006654 0.002242 0.003573 -0.002460 0.000476
# 2 -0.006654 0.014387 -0.005812 -0.001149 0.001681 -0.000139
# 3 0.002242 -0.005812 0.010415 0.003949 -0.002826 0.001503
# 4 0.003573 -0.001149 0.003949 0.021883 -0.002630 -0.000341
# 5 -0.002460 0.001681 -0.002826 -0.002630 0.024924 0.007423
# 6 0.000476 -0.000139 0.001503 -0.000341 0.007423 0.023624
#
#
# Mechanical properties :
#
#
# Convention : Reuss Voigt Hill
#
# Bulk Modulus (GPa) = 56.94816 69.57032 63.25924
# Shear Modulus (GPa) = 37.10808 45.17513 41.14160
#
# Velocity S-wave (km/s) = 3.76625 4.15551 3.96566
# Velocity P-wave (km/s) = 6.37820 7.04399 6.71934
#
# Compressibility (1/GPa) = 0.01755983
#
# Stress axis : x y z
#
# Youngs Moduli (GPa) = 75.71748 69.50925 96.01846
#
# Poissons Ratio (x) = 0.46254 -0.21527
# Poissons Ratio (y) = 0.50386 0.55803
# Poissons Ratio (z) = -0.16976 0.40397
#
# Static dielectric constant tensor:
#      x y z
#    x 2.254360 -0.103050 -0.100820 
#    y -0.103050 2.285370 0.070010 
#    z -0.100820 0.070010 2.096290 
# 
# From -- ./inp_files/40600.got.cif
#   From: 2010.05.17/outbox.cif.g08.bks.cpg/sg2_21_cif.got.tgz:40600.got - 2010.06.03 11:33:40.
