data_PCOD9052250
_publ_section_title
;
Structure prediction by ZEFSAII (Michael W. Deem and Ramdas Pophale) SiO2 
 PCOD9052250
Probable space group: P -1
;
_chemical_formula_sum "Si O2"
_cell_formula_units_Z 16
_cell_length_a 10.182412
_cell_length_b 7.657882
_cell_length_c 12.332759
_cell_angle_alpha 128.360191
_cell_angle_beta 114.420335
_cell_angle_gamma 61.786325
_cell_volume 654.366328
_symmetry_space_group_name_H-M "P -1"
_symmetry_group_IT_number 2
_symmetry_cell_setting 'triclinic'
loop_
_space_group_symop_operation_xyz
x,y,z
-x,-y,-z
loop_
_atom_site_type_symbol
_atom_site_label
_atom_site_fract_x
_atom_site_fract_y
_atom_site_fract_z
Si Si1 0.544658 0.747475 0.472648
Si Si2 0.677568 0.924875 0.760128
Si Si3 0.820009 0.661844 0.062237
Si Si4 0.274101 0.694504 0.239745
Si Si5 0.637780 0.076198 0.033780
Si Si6 0.995212 0.731223 0.878007
Si Si7 0.040133 0.045944 0.653727
Si Si8 0.801460 0.383373 0.307750
O O1 0.564200 0.796185 0.624167
O O2 0.410003 0.645720 0.353871
O O3 0.711118 0.611794 0.430703
O O4 0.500000 0.000000 0.500000
O O5 0.618074 0.092694 0.905712
O O6 0.830119 0.741590 0.784489
O O7 0.719039 0.086731 0.746527
O O8 0.948872 0.429123 0.059017
O O9 0.828371 0.828735 0.233153
O O10 0.711370 0.522341 0.919766
O O11 0.789033 0.868770 0.041278
O O12 0.110646 0.781273 0.275382
O O13 0.500000 0.000000 0.000000
O O14 0.663368 0.297151 0.183179
O O15 0.104612 0.618491 0.770507
O O16 0.000000 0.000000 0.000000
O O17 0.094145 0.804203 0.645991
O O18 0.000000 0.000000 0.500000
#
# Coordination Sequence:
#
# PCOD9052250 Si02
#       8
#     2   2   2   2   2   2   2   2
#     4  10  26  44  68 102 140 184 235 290 354 413
#     4  11  24  44  71 100 141 189 233 288 354 409
#     4  11  25  40  71 100 134 185 229 286 351 406
#     4  11  22  47  68  97 143 187 235 288 342 431
#     4  11  25  43  67 103 142 183 236 287 351 431
#     4  12  22  43  75 107 138 179 242 299 341 420
#     4  11  26  42  67 105 142 177 236 293 353 408
#     4  11  23  46  70 102 139 189 235 286 354 421
#
# _framework density 24.451136000000002
#
# number of rings (size 3 to 8) (size 9 to 14) (size 15 to 20)
#    0.000    1.000    3.750    1.125    5.250    6.500 
#    0.000    6.250    0.000    0.000    0.000    0.000 
#    0.000    0.000    0.000    0.000    0.000    0.000 
#
# Total GULP energy -89265.801431 kJ/mol
# GULP energy per Si atom -5579.112589 kJ/mol
# Density = 2.439548 g / cm^3
# Si number density = 24.451136 Si / 1000 Ang^3
#
#
#
# Elastic Constant Matrix: (Units=GPa)
#
#
# Indices 1 2 3 4 5 6 
#
# 1 40.8034 9.3059 25.3845 -11.5969 4.8430 -0.8995
# 2 9.3059 105.5400 46.0015 -2.3003 -1.2669 -4.4040
# 3 25.3845 46.0015 166.5954 -29.8950 28.3187 2.2782
# 4 -11.5969 -2.3003 -29.8950 44.7515 -12.3637 -1.6001
# 5 4.8430 -1.2669 28.3187 -12.3637 43.2619 -4.3950
# 6 -0.8995 -4.4040 2.2782 -1.6001 -4.3950 27.1935
#
#
#
# Elastic Compliance Matrix: (Units=1/GPa)
#
#
# Indices 1 2 3 4 5 6 
#
# 1 0.028187 -0.000902 -0.003210 0.005329 0.000591 0.001464
# 2 -0.000902 0.011279 -0.003707 -0.001284 0.002742 0.002475
# 3 -0.003210 -0.003707 0.009008 0.003589 -0.004826 -0.002030
# 4 0.005329 -0.001284 0.003589 0.027543 0.005103 0.002113
# 5 0.000591 0.002742 -0.004826 0.005103 0.028330 0.005747
# 6 0.001464 0.002475 -0.002030 0.002113 0.005747 0.038446
#
#
# Mechanical properties :
#
#
# Convention : Reuss Voigt Hill
#
# Bulk Modulus (GPa) = 30.45553 52.70251 41.57902
# Shear Modulus (GPa) = 29.51990 38.52451 34.02221
#
# Velocity S-wave (km/s) = 3.47839 3.97365 3.73424
# Velocity P-wave (km/s) = 5.34930 6.53102 5.96947
#
# Compressibility (1/GPa) = 0.03283476
#
# Stress axis : x y z
#
# Youngs Moduli (GPa) = 35.47692 88.66210 111.01780
#
# Poissons Ratio (x) = 0.07996 0.35638
# Poissons Ratio (y) = 0.03199 0.41160
# Poissons Ratio (z) = 0.11389 0.32871
#
# Static dielectric constant tensor:
#      x y z
#    x 1.981200 0.086880 -0.067770 
#    y 0.086880 1.583850 0.142930 
#    z -0.067770 0.142930 1.957120 
# 
# From -- ./inp_files/420074.got.cif
#   From: 2010.05.17/outbox.cif.g08.bks.cpg/sg2_211_cif.got.tgz:420074.got - 2010.06.03 11:33:40.
