data_PCOD9052260
_publ_section_title
;
Structure prediction by ZEFSAII (Michael W. Deem and Ramdas Pophale) SiO2 
 PCOD9052260
Probable space group: P -1
;
_chemical_formula_sum "Si O2"
_cell_formula_units_Z 15
_cell_length_a 11.379919
_cell_length_b 16.776727
_cell_length_c 14.799420
_cell_angle_alpha 32.382892
_cell_angle_beta 130.506990
_cell_angle_gamma 151.375737
_cell_volume 677.025203
_symmetry_space_group_name_H-M "P -1"
_symmetry_group_IT_number 2
_symmetry_cell_setting 'triclinic'
loop_
_space_group_symop_operation_xyz
x,y,z
-x,-y,-z
loop_
_atom_site_type_symbol
_atom_site_label
_atom_site_fract_x
_atom_site_fract_y
_atom_site_fract_z
Si Si1 0.999249 0.978361 0.799827
Si Si2 0.366277 0.035296 0.851629
Si Si3 0.756120 0.557255 0.204003
Si Si4 0.120451 0.416815 0.466933
Si Si5 0.881744 0.531797 0.974113
Si Si6 0.284909 0.723774 0.695249
Si Si7 0.782470 0.777230 0.676898
Si Si8 0.000000 0.500000 0.500000
O O1 0.875398 0.871643 0.738290
O O2 0.244862 0.056855 0.841236
O O3 0.081837 0.211552 0.635631
O O4 0.823712 0.770714 0.990972
O O5 0.580644 0.294242 0.654138
O O6 0.128681 0.788566 0.908848
O O7 0.500000 0.000000 0.000000
O O8 0.705716 0.418417 0.222508
O O9 0.501154 0.365255 0.325440
O O10 0.970314 0.628705 0.296514
O O11 0.972150 0.372273 0.519917
O O12 0.988255 0.399107 0.333053
O O13 0.750176 0.578200 0.827038
O O14 0.000000 0.500000 0.000000
O O15 0.680709 0.294725 0.167313
O O16 0.500000 0.000000 0.500000
O O17 0.000000 0.000000 0.500000
#
# Coordination Sequence:
#
# PCOD9052260 Si02
#       8
#     2   2   2   2   2   2   2   1
#     4  11  24  44  73 102 138 190 243 293 365 435
#     4  11  21  45  69  97 145 185 240 296 357 436
#     4  11  23  48  69  99 143 186 242 298 363 431
#     4  11  24  42  70 103 136 191 239 291 368 429
#     4  11  26  44  67 107 141 185 244 294 364 420
#     4  11  23  42  72  99 137 191 237 293 359 436
#     4  11  26  43  71 105 143 184 234 306 357 421
#     4  10  26  44  68  96 144 180 236 296 360 424
#
# _framework density 22.155747999999999
#
# number of rings (size 3 to 8) (size 9 to 14) (size 15 to 20)
#    0.000    1.067    4.000    2.400    9.333    1.600 
#    2.400    0.000    0.000    0.000    0.000    0.000 
#    0.000    0.000    0.000    0.000    0.000    0.000 
#
# Total GULP energy -83512.942394 kJ/mol
# GULP energy per Si atom -5567.529493 kJ/mol
# Density = 2.210532 g / cm^3
# Si number density = 22.155748 Si / 1000 Ang^3
#
#
#
# Elastic Constant Matrix: (Units=GPa)
#
#
# Indices 1 2 3 4 5 6 
#
# 1 110.5112 5.2981 46.2448 -0.1257 29.2958 0.4544
# 2 5.2981 17.5082 12.9807 -8.0482 -0.0992 3.5588
# 3 46.2448 12.9807 160.6866 -9.0066 1.1062 -5.8868
# 4 -0.1257 -8.0482 -9.0066 30.5602 -4.7567 -2.1279
# 5 29.2958 -0.0992 1.1062 -4.7567 46.2262 -1.5157
# 6 0.4544 3.5588 -5.8868 -2.1279 -1.5157 23.7528
#
#
#
# Elastic Compliance Matrix: (Units=1/GPa)
#
#
# Indices 1 2 3 4 5 6 
#
# 1 0.012977 -0.002300 -0.003724 -0.003089 -0.008512 -0.001647
# 2 -0.002300 0.071099 -0.004506 0.017183 0.003159 -0.009984
# 3 -0.003724 -0.004506 0.007847 0.001699 0.002436 0.002999
# 4 -0.003089 0.017183 0.001699 0.038793 0.006004 0.001764
# 5 -0.008512 0.003159 0.002436 0.006004 0.027679 0.002597
# 6 -0.001647 -0.009984 0.002999 0.001764 0.002597 0.044695
#
#
# Mechanical properties :
#
#
# Convention : Reuss Voigt Hill
#
# Bulk Modulus (GPa) = 14.11154 46.41701 30.26427
# Shear Modulus (GPa) = 20.18001 35.05334 27.61667
#
# Velocity S-wave (km/s) = 3.02126 3.98192 3.53438
# Velocity P-wave (km/s) = 4.30741 6.49128 5.50865
#
# Compressibility (1/GPa) = 0.07086401
#
# Stress axis : x y z
#
# Youngs Moduli (GPa) = 77.05868 14.06494 127.43202
#
# Poissons Ratio (x) = 0.03234 0.47454
# Poissons Ratio (y) = 0.17721 0.57422
# Poissons Ratio (z) = 0.28696 0.06338
#
# Static dielectric constant tensor:
#      x y z
#    x 1.805360 0.055490 -0.021050 
#    y 0.055490 1.881390 0.033180 
#    z -0.021050 0.033180 1.869740 
# 
# From -- ./inp_files/238639.got.cif
#   From: 2010.05.17/outbox.cif.g08.bks.cpg/sg2_120_cif.got.tgz:238639.got - 2010.06.03 11:33:40.
