data_PCOD9052776
_publ_section_title
;
Structure prediction by ZEFSAII (Michael W. Deem and Ramdas Pophale) SiO2 
 PCOD9052776
Probable space group: P -1
;
_chemical_formula_sum "Si O2"
_cell_formula_units_Z 15
_cell_length_a 10.660100
_cell_length_b 5.048276
_cell_length_c 11.944129
_cell_angle_alpha 78.213212
_cell_angle_beta 62.682856
_cell_angle_gamma 83.347613
_cell_volume 558.870234
_symmetry_space_group_name_H-M "P -1"
_symmetry_group_IT_number 2
_symmetry_cell_setting 'triclinic'
loop_
_space_group_symop_operation_xyz
x,y,z
-x,-y,-z
loop_
_atom_site_type_symbol
_atom_site_label
_atom_site_fract_x
_atom_site_fract_y
_atom_site_fract_z
Si Si1 0.576901 0.630126 0.353210
Si Si2 0.143214 0.459896 0.259560
Si Si3 0.723764 0.105725 0.352901
Si Si4 0.271033 0.363006 0.993404
Si Si5 0.772636 0.016818 0.595096
Si Si6 0.842161 0.053503 0.093531
Si Si7 0.000000 0.500000 0.500000
Si Si8 0.426411 0.739065 0.182498
O O1 0.500000 0.500000 0.500000
O O2 0.710289 0.427311 0.316937
O O3 0.486912 0.586048 0.281703
O O4 0.604490 0.938658 0.348681
O O5 0.164470 0.312551 0.145433
O O6 0.289563 0.618468 0.190511
O O7 0.003830 0.607601 0.349135
O O8 0.136109 0.256288 0.391216
O O9 0.724628 0.017113 0.487592
O O10 0.849698 0.035844 0.224964
O O11 0.231536 0.669177 0.946176
O O12 0.437218 0.279413 0.952938
O O13 0.242423 0.176639 0.914785
O O14 0.866322 0.277950 0.550057
O O15 0.647177 0.009079 0.740253
O O16 0.000000 0.000000 0.000000
#
# Coordination Sequence:
#
# PCOD9052776 Si02
#       8
#     2   2   2   2   2   2   1   2
#     4  12  23  41  68 107 147 187 231 303 366 433
#     4  11  27  47  74 108 146 200 246 304 370 439
#     4  12  25  44  72 105 145 188 244 301 365 430
#     4  12  28  49  77 107 153 195 245 308 366 443
#     4  11  26  44  76 107 146 197 245 311 366 443
#     4  12  28  50  74 109 144 199 250 300 369 441
#     4  10  26  50  68 106 142 194 256 298 370 424
#     4  11  24  44  70 111 148 189 247 298 376 436
#
# _framework density 26.839863000000001
#
# number of rings (size 3 to 8) (size 9 to 14) (size 15 to 20)
#    0.000    0.533    4.000    2.400   11.200    1.600 
#    0.000    0.000    0.000    0.000    0.000    0.000 
#    0.000    0.000    0.000    0.000    0.000    0.000 
#
# Total GULP energy -83567.851032 kJ/mol
# GULP energy per Si atom -5571.190069 kJ/mol
# Density = 2.677877 g / cm^3
# Si number density = 26.839863 Si / 1000 Ang^3
#
#
#
# Elastic Constant Matrix: (Units=GPa)
#
#
# Indices 1 2 3 4 5 6 
#
# 1 58.0588 36.5006 16.1121 3.0858 -7.3600 -6.6369
# 2 36.5006 143.4018 29.1047 7.6792 7.4568 -0.8221
# 3 16.1121 29.1047 177.4986 39.5051 -9.9500 -18.0211
# 4 3.0858 7.6792 39.5051 44.2122 -5.9545 2.0972
# 5 -7.3600 7.4568 -9.9500 -5.9545 60.8650 1.0302
# 6 -6.6369 -0.8221 -18.0211 2.0972 1.0302 34.6814
#
#
#
# Elastic Compliance Matrix: (Units=1/GPa)
#
#
# Indices 1 2 3 4 5 6 
#
# 1 0.021679 -0.005560 -0.000556 0.000205 0.003170 0.003621
# 2 -0.005560 0.008722 -0.001093 -0.000346 -0.001931 -0.001347
# 3 -0.000556 -0.001093 0.007886 -0.006944 0.000603 0.004367
# 4 0.000205 -0.000346 -0.006944 0.029381 0.001898 -0.005410
# 5 0.003170 -0.001931 0.000603 0.001898 0.017330 0.000245
# 6 0.003621 -0.001347 0.004367 -0.005410 0.000245 0.032084
#
#
# Mechanical properties :
#
#
# Convention : Reuss Voigt Hill
#
# Bulk Modulus (GPa) = 41.89887 60.26599 51.08243
# Shear Modulus (GPa) = 35.85322 47.76786 41.81054
#
# Velocity S-wave (km/s) = 3.65885 4.22327 3.95115
# Velocity P-wave (km/s) = 5.78741 6.80323 6.31578
#
# Compressibility (1/GPa) = 0.02386699
#
# Stress axis : x y z
#
# Youngs Moduli (GPa) = 46.12788 114.65556 126.80146
#
# Poissons Ratio (x) = 0.63750 0.07055
# Poissons Ratio (y) = 0.25648 0.13865
# Poissons Ratio (z) = 0.02567 0.12537
#
# Static dielectric constant tensor:
#      x y z
#    x 2.188890 -0.142140 -0.067360 
#    y -0.142140 2.318270 0.140420 
#    z -0.067360 0.140420 2.247450 
# 
# From -- ./inp_files/409123.got.cif
#   From: 2010.05.17/outbox.cif.g08.bks.cpg/sg2_205_cif.got.tgz:409123.got - 2010.06.03 11:33:40.
