data_PCOD9052900
_publ_section_title
;
Structure prediction by ZEFSAII (Michael W. Deem and Ramdas Pophale) SiO2 
 PCOD9052900
Probable space group: P -1
;
_chemical_formula_sum "Si O2"
_cell_formula_units_Z 15
_cell_length_a 13.637294
_cell_length_b 9.165742
_cell_length_c 13.329049
_cell_angle_alpha 71.444857
_cell_angle_beta 36.965122
_cell_angle_gamma 51.022091
_cell_volume 715.699167
_symmetry_space_group_name_H-M "P -1"
_symmetry_group_IT_number 2
_symmetry_cell_setting 'triclinic'
loop_
_space_group_symop_operation_xyz
x,y,z
-x,-y,-z
loop_
_atom_site_type_symbol
_atom_site_label
_atom_site_fract_x
_atom_site_fract_y
_atom_site_fract_z
Si Si1 0.518791 0.640959 0.672643
Si Si2 0.906137 0.731883 0.029137
Si Si3 0.000000 0.000000 0.000000
Si Si4 0.651697 0.361504 0.814635
Si Si5 0.558890 0.956679 0.578244
Si Si6 0.096452 0.724084 0.666513
Si Si7 0.137012 0.063809 0.535432
Si Si8 0.301451 0.023761 0.195794
O O1 0.564904 0.491279 0.755608
O O2 0.605127 0.752405 0.613162
O O3 0.670806 0.500333 0.485826
O O4 0.264917 0.817543 0.821834
O O5 0.976234 0.764107 0.859408
O O6 0.974660 0.824342 0.031544
O O7 0.000000 0.500000 0.000000
O O8 0.651564 0.865431 0.225879
O O9 0.665550 0.170266 0.828430
O O10 0.893157 0.264716 0.666839
O O11 0.500000 0.500000 0.000000
O O12 0.763163 0.932082 0.445757
O O13 0.500000 0.000000 0.500000
O O14 0.134869 0.881276 0.586007
O O15 0.927864 0.778354 0.705893
O O16 0.279183 0.028850 0.332380
O O17 0.500000 0.000000 0.000000
#
# Coordination Sequence:
#
# PCOD9052900 Si02
#       8
#     2   2   1   2   2   2   2   2
#     4  11  24  46  67 100 145 178 244 295 362 430
#     4  11  26  46  70 103 142 194 250 295 367 434
#     4  10  28  42  70 102 142 188 246 300 360 434
#     4  11  25  42  69 105 140 188 233 290 366 429
#     4  11  27  45  69 104 143 185 245 299 350 439
#     4  11  23  44  73 100 145 187 236 303 364 437
#     4  11  24  45  72 103 143 187 234 291 368 431
#     4  11  23  43  71 108 139 184 239 290 357 445
#
# _framework density 20.958528000000001
#
# number of rings (size 3 to 8) (size 9 to 14) (size 15 to 20)
#    0.000    1.067    2.667    2.400   14.933    3.200 
#    0.000    0.000    0.000    0.000    0.000    0.000 
#    0.000    0.000    0.000    0.000    0.000    0.000 
#
# Total GULP energy -83548.106006 kJ/mol
# GULP energy per Si atom -5569.873734 kJ/mol
# Density = 2.091083 g / cm^3
# Si number density = 20.958528 Si / 1000 Ang^3
#
#
#
# Elastic Constant Matrix: (Units=GPa)
#
#
# Indices 1 2 3 4 5 6 
#
# 1 97.8409 17.6393 53.5950 -3.0221 -19.4838 2.0336
# 2 17.6393 87.5760 47.2618 7.5122 -10.0427 5.6580
# 3 53.5950 47.2618 145.8847 11.7518 0.7657 -13.1653
# 4 -3.0221 7.5122 11.7518 41.9655 0.6637 5.3801
# 5 -19.4838 -10.0427 0.7657 0.6637 43.3222 -10.0186
# 6 2.0336 5.6580 -13.1653 5.3801 -10.0186 21.7012
#
#
#
# Elastic Compliance Matrix: (Units=1/GPa)
#
#
# Indices 1 2 3 4 5 6 
#
# 1 0.014966 0.001158 -0.006465 0.003029 0.006261 -0.003487
# 2 0.001158 0.015093 -0.005884 -0.000200 0.002661 -0.006335
# 3 -0.006465 -0.005884 0.012343 -0.004067 -0.002203 0.009620
# 4 0.003029 -0.000200 -0.004067 0.026508 -0.001301 -0.009872
# 5 0.006261 0.002661 -0.002203 -0.001301 0.029157 0.011166
# 6 -0.003487 -0.006335 0.009620 -0.009872 0.011166 0.061497
#
#
# Mechanical properties :
#
#
# Convention : Reuss Voigt Hill
#
# Bulk Modulus (GPa) = 49.95163 63.14376 56.54770
# Shear Modulus (GPa) = 26.50831 35.58480 31.04656
#
# Velocity S-wave (km/s) = 3.56026 4.12499 3.85298
# Velocity P-wave (km/s) = 6.38638 7.27191 6.84349
#
# Compressibility (1/GPa) = 0.02001937
#
# Stress axis : x y z
#
# Youngs Moduli (GPa) = 66.81813 66.25698 81.01466
#
# Poissons Ratio (x) = -0.07671 0.52374
# Poissons Ratio (y) = -0.07736 0.47672
# Poissons Ratio (z) = 0.43197 0.38988
#
# Static dielectric constant tensor:
#      x y z
#    x 1.780400 -0.004910 0.023760 
#    y -0.004910 1.758430 0.000370 
#    z 0.023760 0.000370 1.748970 
# 
# From -- ./inp_files/203336.got.cif
#   From: 2010.05.17/outbox.cif.g08.bks.cpg/sg2_102_cif.got.tgz:203336.got - 2010.06.03 11:33:40.
