data_PCOD9052593
_publ_section_title
;
Structure prediction by ZEFSAII (Michael W. Deem and Ramdas Pophale) SiO2 
 PCOD9052593
Probable space group: P -1
;
_chemical_formula_sum "Si O2"
_cell_formula_units_Z 16
_cell_length_a 26.575722
_cell_length_b 18.883922
_cell_length_c 5.073312
_cell_angle_alpha 96.994377
_cell_angle_beta 104.544173
_cell_angle_gamma 17.637372
_cell_volume 684.110951
_symmetry_space_group_name_H-M "P -1"
_symmetry_group_IT_number 2
_symmetry_cell_setting 'triclinic'
loop_
_space_group_symop_operation_xyz
x,y,z
-x,-y,-z
loop_
_atom_site_type_symbol
_atom_site_label
_atom_site_fract_x
_atom_site_fract_y
_atom_site_fract_z
Si Si1 0.433270 0.235638 0.686764
Si Si2 0.251254 0.417654 0.017888
Si Si3 0.383472 0.463955 0.708534
Si Si4 0.962572 0.430802 0.407602
Si Si5 0.221635 0.992237 0.874232
Si Si6 0.857086 0.996341 0.713592
Si Si7 0.176796 0.257585 0.309099
Si Si8 0.795912 0.238432 0.893350
O O1 0.411256 0.225093 0.930400
O O2 0.348354 0.426684 0.683354
O O3 0.638416 0.977777 0.723454
O O4 0.321129 0.339189 0.366990
O O5 0.166446 0.451231 0.877804
O O6 0.080719 0.695902 0.851099
O O7 0.343082 0.538277 0.388163
O O8 0.592680 0.206769 0.949556
O O9 0.256279 0.677199 0.835872
O O10 0.843631 0.652713 0.463998
O O11 0.137449 0.234429 0.391660
O O12 0.051918 0.265750 0.682412
O O13 0.232125 0.917157 0.630193
O O14 0.189482 0.996390 0.109465
O O15 0.793352 0.158718 0.780445
O O16 0.000000 0.500000 0.000000
O O17 0.000000 0.000000 0.000000
#
# Coordination Sequence:
#
# PCOD9052593 Si02
#       8
#     2   2   2   2   2   2   2   2
#     4  12  27  45  72 104 143 185 240 288 349 419
#     4  11  26  46  72 104 141 189 233 292 346 426
#     4  12  26  42  71 102 141 182 242 290 349 415
#     4  10  26  47  73 105 142 188 234 285 363 419
#     4  11  25  43  75 101 138 186 233 292 352 424
#     4  11  24  45  71 101 142 184 235 286 359 419
#     4  11  27  46  76 103 145 185 236 292 353 431
#     4  12  26  44  68  98 143 188 232 294 355 415
#
# _framework density 23.388017999999999
#
# number of rings (size 3 to 8) (size 9 to 14) (size 15 to 20)
#    0.000    0.750    0.000    6.375   15.750    4.000 
#    0.000    0.000    0.000    0.000    0.000    0.000 
#    0.000    0.000    0.000    0.000    0.000    0.000 
#
# Total GULP energy -89720.257905 kJ/mol
# GULP energy per Si atom -5607.516119 kJ/mol
# Density = 2.333479 g / cm^3
# Si number density = 23.388018 Si / 1000 Ang^3
#
#
#
# Elastic Constant Matrix: (Units=GPa)
#
#
# Indices 1 2 3 4 5 6 
#
# 1 94.1011 37.1191 -4.6987 8.2378 22.2978 -0.1929
# 2 37.1191 68.8296 18.2539 18.1160 15.4463 -12.3838
# 3 -4.6987 18.2539 72.4239 -1.6169 11.9776 3.6495
# 4 8.2378 18.1160 -1.6169 33.1983 -0.4481 -0.0701
# 5 22.2978 15.4463 11.9776 -0.4481 30.6135 11.2339
# 6 -0.1929 -12.3838 3.6495 -0.0701 11.2339 33.9408
#
#
#
# Elastic Compliance Matrix: (Units=1/GPa)
#
#
# Indices 1 2 3 4 5 6 
#
# 1 0.016239 -0.007993 0.004666 0.000430 -0.009554 -0.000163
# 2 -0.007993 0.030546 -0.007236 -0.015178 -0.012895 0.016114
# 3 0.004666 -0.007236 0.017038 0.003542 -0.005388 -0.002655
# 4 0.000430 -0.015178 0.003542 0.038584 0.009863 -0.009101
# 5 -0.009554 -0.012895 -0.005388 0.009863 0.056809 -0.022962
# 6 -0.000163 0.016114 -0.002655 -0.009101 -0.022962 0.043209
#
#
# Mechanical properties :
#
#
# Convention : Reuss Voigt Hill
#
# Bulk Modulus (GPa) = 23.42093 37.41148 30.41621
# Shear Modulus (GPa) = 21.02754 31.86253 26.44503
#
# Velocity S-wave (km/s) = 3.00171 3.69500 3.36625
# Velocity P-wave (km/s) = 4.69569 5.85105 5.30491
#
# Compressibility (1/GPa) = 0.04269685
#
# Stress axis : x y z
#
# Youngs Moduli (GPa) = 61.58064 32.73729 58.69243
#
# Poissons Ratio (x) = 0.26168 -0.27387
# Poissons Ratio (y) = 0.49224 0.42469
# Poissons Ratio (z) = -0.28734 0.23688
#
# Static dielectric constant tensor:
#      x y z
#    x 1.858210 -0.001630 0.000410 
#    y -0.001630 1.910170 0.007870 
#    z 0.000410 0.007870 1.837780 
# 
# From -- ./inp_files/124836.got.cif
#   From: 2010.05.17/outbox.cif.g08.bks.cpg/sg2_63_cif.got.tgz:124836.got - 2010.06.03 11:33:40.
