data_PCOD9052463
_publ_section_title
;
Structure prediction by ZEFSAII (Michael W. Deem and Ramdas Pophale) SiO2 
 PCOD9052463
Probable space group: P -1
;
_chemical_formula_sum "Si O2"
_cell_formula_units_Z 16
_cell_length_a 26.050647
_cell_length_b 12.086809
_cell_length_c 8.149248
_cell_angle_alpha 135.578981
_cell_angle_beta 152.065461
_cell_angle_gamma 33.243843
_cell_volume 655.917592
_symmetry_space_group_name_H-M "P -1"
_symmetry_group_IT_number 2
_symmetry_cell_setting 'triclinic'
loop_
_space_group_symop_operation_xyz
x,y,z
-x,-y,-z
loop_
_atom_site_type_symbol
_atom_site_label
_atom_site_fract_x
_atom_site_fract_y
_atom_site_fract_z
Si Si1 0.949545 0.929024 0.140759
Si Si2 0.441899 0.385572 0.161040
Si Si3 0.733595 0.330811 0.342339
Si Si4 0.347119 0.961335 0.159109
Si Si5 0.853805 0.717421 0.839921
Si Si6 0.861688 0.210026 0.910409
Si Si7 0.762501 0.588898 0.175935
Si Si8 0.589114 0.992509 0.968196
O O1 0.104174 0.756763 0.319956
O O2 0.871524 0.856441 0.927895
O O3 0.000000 0.000000 0.500000
O O4 0.844537 0.110045 0.911118
O O5 0.500000 0.500000 0.500000
O O6 0.354161 0.494759 0.857724
O O7 0.361661 0.416387 0.136222
O O8 0.548753 0.148509 0.164102
O O9 0.737834 0.341056 0.564992
O O10 0.686575 0.188318 0.038009
O O11 0.468534 0.965677 0.582100
O O12 0.205977 0.182514 0.047708
O O13 0.386692 0.930416 0.047260
O O14 0.760760 0.674801 0.438866
O O15 0.000000 0.500000 0.000000
O O16 0.884351 0.363986 0.216225
O O17 0.000000 0.000000 0.000000
O O18 0.728194 0.761874 0.142087
#
# Coordination Sequence:
#
# PCOD9052463 Si02
#       8
#     2   2   2   2   2   2   2   2
#     4  11  22  44  74 106 147 190 246 299 365 443
#     4  12  27  46  76 108 143 196 259 305 367 435
#     4  11  25  45  74 103 151 192 245 305 368 436
#     4  11  26  47  74 101 153 192 246 298 381 436
#     4  12  26  44  75 110 146 195 247 306 376 439
#     4  10  26  46  71 109 146 194 245 297 372 447
#     4  12  27  46  74 106 153 190 252 308 369 444
#     4  11  28  49  72 108 150 198 247 306 373 443
#
# _framework density 24.393308000000001
#
# number of rings (size 3 to 8) (size 9 to 14) (size 15 to 20)
#    0.000    0.750    2.500    3.375   10.500    1.500 
#    0.000    3.125    0.000    0.000    0.000    0.000 
#    0.000    0.000    0.000    0.000    0.000    0.000 
#
# Total GULP energy -89159.915256 kJ/mol
# GULP energy per Si atom -5572.494704 kJ/mol
# Density = 2.433779 g / cm^3
# Si number density = 24.393308 Si / 1000 Ang^3
#
#
#
# Elastic Constant Matrix: (Units=GPa)
#
#
# Indices 1 2 3 4 5 6 
#
# 1 90.7834 41.5563 18.1994 2.4450 -10.0309 -3.0208
# 2 41.5563 113.4927 5.7701 7.3911 -9.4998 -5.7887
# 3 18.1994 5.7701 49.2091 12.5429 1.0294 -5.1644
# 4 2.4450 7.3911 12.5429 36.4350 5.9862 -10.7869
# 5 -10.0309 -9.4998 1.0294 5.9862 36.8696 -2.6485
# 6 -3.0208 -5.7887 -5.1644 -10.7869 -2.6485 42.7750
#
#
#
# Elastic Compliance Matrix: (Units=1/GPa)
#
#
# Indices 1 2 3 4 5 6 
#
# 1 0.014579 -0.004936 -0.005214 0.001465 0.002621 0.000264
# 2 -0.004936 0.010909 0.001193 -0.002366 0.001876 0.000791
# 3 -0.005214 0.001193 0.024218 -0.007954 -0.000447 0.000684
# 4 0.001465 -0.002366 -0.007954 0.033431 -0.004918 0.006949
# 5 0.002621 0.001876 -0.000447 -0.004918 0.029198 0.000953
# 6 0.000264 0.000791 0.000684 0.006949 0.000953 0.025398
#
#
# Mechanical properties :
#
#
# Convention : Reuss Voigt Hill
#
# Bulk Modulus (GPa) = 31.45254 42.72630 37.08942
# Shear Modulus (GPa) = 30.07640 35.74656 32.91148
#
# Velocity S-wave (km/s) = 3.51519 3.83224 3.67713
# Velocity P-wave (km/s) = 5.42193 6.09385 5.76768
#
# Compressibility (1/GPa) = 0.03179394
#
# Stress axis : x y z
#
# Youngs Moduli (GPa) = 68.59357 91.66605 41.29142
#
# Poissons Ratio (x) = 0.45242 0.21528
# Poissons Ratio (y) = 0.33855 -0.04927
# Poissons Ratio (z) = 0.35762 -0.10937
#
# Static dielectric constant tensor:
#      x y z
#    x 1.964390 0.026100 -0.150200 
#    y 0.026100 2.174410 -0.369030 
#    z -0.150200 -0.369030 2.307660 
# 
# From -- ./inp_files/357101.got.cif
#   From: 2010.05.17/outbox.cif.g08.bks.cpg/sg2_179_cif.got.tgz:357101.got - 2010.06.03 11:33:40.
