data_PCOD9052072
_publ_section_title
;
Structure prediction by ZEFSAII (Michael W. Deem and Ramdas Pophale) SiO2 
 PCOD9052072
Probable space group: P -1
;
_chemical_formula_sum "Si O2"
_cell_formula_units_Z 16
_cell_length_a 8.815643
_cell_length_b 14.356412
_cell_length_c 9.593567
_cell_angle_alpha 104.928653
_cell_angle_beta 49.320374
_cell_angle_gamma 72.682901
_cell_volume 687.037491
_symmetry_space_group_name_H-M "P -1"
_symmetry_group_IT_number 2
_symmetry_cell_setting 'triclinic'
loop_
_space_group_symop_operation_xyz
x,y,z
-x,-y,-z
loop_
_atom_site_type_symbol
_atom_site_label
_atom_site_fract_x
_atom_site_fract_y
_atom_site_fract_z
Si Si1 0.959592 0.615402 0.713158
Si Si2 0.912270 0.239440 0.178788
Si Si3 0.524195 0.997431 0.149281
Si Si4 0.624538 0.199519 0.528202
Si Si5 0.232414 0.216505 0.591502
Si Si6 0.990026 0.902737 0.193775
Si Si7 0.792194 0.447068 0.764221
Si Si8 0.385064 0.839032 0.169832
O O1 0.892344 0.526759 0.763392
O O2 0.064618 0.652226 0.788345
O O3 0.138804 0.575684 0.452955
O O4 0.672656 0.743221 0.898087
O O5 0.722051 0.265476 0.423579
O O6 0.845712 0.197420 0.067175
O O7 0.194323 0.112839 0.004459
O O8 0.343479 0.962767 0.286613
O O9 0.435571 0.124676 0.314854
O O10 0.500000 0.000000 0.000000
O O11 0.353918 0.253261 0.641680
O O12 0.620924 0.214198 0.701264
O O13 0.824190 0.049528 0.316579
O O14 0.192311 0.130749 0.668956
O O15 0.978404 0.325597 0.703009
O O16 0.181329 0.869006 0.191271
O O17 0.500000 0.500000 0.000000
#
# Coordination Sequence:
#
# PCOD9052072 Si02
#       8
#     2   2   2   2   2   2   2   2
#     4  10  25  50  76 103 147 184 246 304 362 421
#     4  11  25  42  69 106 151 189 234 293 358 433
#     4  11  22  38  64 103 143 184 229 293 364 438
#     4  12  25  41  67 109 153 195 234 287 362 441
#     4  12  24  42  69 100 145 188 243 295 370 423
#     4  12  24  41  66 109 154 193 232 289 358 442
#     4  11  26  49  80 108 136 192 248 309 359 425
#     4  11  24  42  73 103 146 187 238 289 362 436
#
# _framework density 23.288394
#
# number of rings (size 3 to 8) (size 9 to 14) (size 15 to 20)
#    0.000    0.750    2.500    5.625    8.750    0.000 
#    0.000    3.125    0.000    0.000    0.000    0.000 
#    0.000    0.000    0.000    0.000    0.000    0.000 
#
# Total GULP energy -89404.959760 kJ/mol
# GULP energy per Si atom -5587.809985 kJ/mol
# Density = 2.323539 g / cm^3
# Si number density = 23.288394 Si / 1000 Ang^3
#
#
#
# Elastic Constant Matrix: (Units=GPa)
#
#
# Indices 1 2 3 4 5 6 
#
# 1 96.6845 -19.9419 9.2147 -12.0335 -20.4729 7.4317
# 2 -19.9419 25.5307 -6.5568 -11.9936 -13.4894 23.4553
# 3 9.2147 -6.5568 83.4357 -20.9851 -8.0917 9.2770
# 4 -12.0335 -11.9936 -20.9851 31.2646 -0.3778 -0.0759
# 5 -20.4729 -13.4894 -8.0917 -0.3778 20.3571 -9.5372
# 6 7.4317 23.4553 9.2770 -0.0759 -9.5372 35.9629
#
#
#
# Elastic Compliance Matrix: (Units=1/GPa)
#
#
# Indices 1 2 3 4 5 6 
#
# 1 0.002856 -0.020180 -0.006855 -0.011306 -0.007682 0.012279
# 2 -0.020180 -0.035799 -0.014853 -0.031915 -0.040944 0.020424
# 3 -0.006855 -0.014853 0.009376 -0.002153 -0.010257 0.005961
# 4 -0.011306 -0.031915 -0.002153 0.013683 -0.025121 0.017074
# 5 -0.007682 -0.040944 -0.010257 -0.025121 0.027625 0.038210
# 6 0.012279 0.020424 0.005961 0.017074 0.038210 0.020580
#
#
# Mechanical properties :
#
#
# Convention : Reuss Voigt Hill
#
# Bulk Modulus (GPa) = -9.31590 19.00920 4.84665
# Shear Modulus (GPa) = 57.92559 32.37924 45.15242
#
# Velocity S-wave (km/s) = 4.99271 3.73280 4.40800
# Velocity P-wave (km/s) = 5.40623 5.17287 5.29084
#
# Compressibility (1/GPa) = -0.10734331
#
# Stress axis : x y z
#
# Youngs Moduli (GPa) = 350.09687 -27.93401 106.65257
#
# Poissons Ratio (x) = -0.56371 0.73113
# Poissons Ratio (y) = 7.06500 1.58414
# Poissons Ratio (z) = 2.39999 -0.41491
#
# Static dielectric constant tensor:
#      x y z
#    x 1.345000 1.121090 -0.949600 
#    y 1.121090 -0.251260 2.048590 
#    z -0.949600 2.048590 0.057020 
# 
# From -- ./inp_files/207532.got.cif
#   From: 2010.05.17/outbox.cif.g08.bks.cpg/sg2_104_cif.got.tgz:207532.got - 2010.06.03 11:33:40.
