data_PCOD9052523
_publ_section_title
;
Structure prediction by ZEFSAII (Michael W. Deem and Ramdas Pophale) SiO2 
 PCOD9052523
Probable space group: P -1
;
_chemical_formula_sum "Si O2"
_cell_formula_units_Z 13
_cell_length_a 5.397281
_cell_length_b 16.473812
_cell_length_c 11.337147
_cell_angle_alpha 32.449119
_cell_angle_beta 60.343068
_cell_angle_gamma 69.475581
_cell_volume 465.138233
_symmetry_space_group_name_H-M "P -1"
_symmetry_group_IT_number 2
_symmetry_cell_setting 'triclinic'
loop_
_space_group_symop_operation_xyz
x,y,z
-x,-y,-z
loop_
_atom_site_type_symbol
_atom_site_label
_atom_site_fract_x
_atom_site_fract_y
_atom_site_fract_z
Si Si1 0.541797 0.184805 0.256143
Si Si2 0.500000 0.500000 0.500000
Si Si3 0.282540 0.165798 0.937509
Si Si4 0.971203 0.146066 0.546038
Si Si5 0.712606 0.377447 0.209326
Si Si6 0.742092 0.473285 0.735918
Si Si7 0.949215 0.215744 0.717933
O O1 0.689994 0.270470 0.230809
O O2 0.208197 0.205340 0.321781
O O3 0.500000 0.000000 0.500000
O O4 0.695574 0.289238 0.986549
O O5 0.309902 0.332516 0.780067
O O6 0.599494 0.517672 0.595336
O O7 0.617858 0.143818 0.874103
O O8 0.106832 0.163613 0.859029
O O9 0.138949 0.031669 0.220627
O O10 0.730911 0.255672 0.458913
O O11 0.095014 0.170604 0.618758
O O12 0.441863 0.466006 0.188775
O O13 0.000000 0.500000 0.000000
O O14 0.042842 0.595847 0.514981
#
# Coordination Sequence:
#
# PCOD9052523 Si02
#       7
#     2   1   2   2   2   2   2
#     4  12  29  46  76 119 160 205 264 345 410 483
#     4  10  26  46  76 108 158 214 258 332 392 488
#     4  11  27  44  74 112 160 207 266 324 406 476
#     4  12  25  44  76 110 155 199 266 329 404 468
#     4  12  25  48  80 110 156 212 265 326 402 492
#     4  11  24  51  77 114 156 210 275 316 414 482
#     4  11  24  46  76 111 153 214 263 330 386 491
#
# _framework density 27.948682000000002
#
# number of rings (size 3 to 8) (size 9 to 14) (size 15 to 20)
#    0.000    0.615    3.077    4.154    4.308    5.538 
#    0.000    1.538    0.000    0.000    0.000    0.000 
#    0.000    0.000    0.000    0.000    0.000    0.000 
#
# Total GULP energy -72645.051759 kJ/mol
# GULP energy per Si atom -5588.080905 kJ/mol
# Density = 2.788507 g / cm^3
# Si number density = 27.948682 Si / 1000 Ang^3
#
#
#
# Elastic Constant Matrix: (Units=GPa)
#
#
# Indices 1 2 3 4 5 6 
#
# 1 123.4133 17.1285 58.4763 -2.8781 -16.5993 19.0945
# 2 17.1285 79.2107 28.3944 -23.0930 -2.0609 10.6535
# 3 58.4763 28.3944 234.0628 -50.6267 -20.1653 4.5787
# 4 -2.8781 -23.0930 -50.6267 63.6874 -3.0919 -2.7139
# 5 -16.5993 -2.0609 -20.1653 -3.0919 49.9080 2.4904
# 6 19.0945 10.6535 4.5787 -2.7139 2.4904 49.3614
#
#
#
# Elastic Compliance Matrix: (Units=1/GPa)
#
#
# Indices 1 2 3 4 5 6 
#
# 1 0.010377 -0.001372 -0.002612 -0.002147 0.002392 -0.003715
# 2 -0.001372 0.014816 -0.000285 0.005005 0.000470 -0.002389
# 3 -0.002612 -0.000285 0.006140 0.004779 0.001863 0.000671
# 4 -0.002147 0.005005 0.004779 0.021365 0.002730 0.000344
# 5 0.002392 0.000470 0.001863 0.002730 0.021881 -0.002153
# 6 -0.003715 -0.002389 0.000671 0.000344 -0.002153 0.022277
#
#
# Mechanical properties :
#
#
# Convention : Reuss Voigt Hill
#
# Bulk Modulus (GPa) = 43.86594 71.63168 57.74881
# Shear Modulus (GPa) = 44.25070 54.77052 49.51061
#
# Velocity S-wave (km/s) = 3.98337 4.43163 4.21346
# Velocity P-wave (km/s) = 6.07335 7.20216 6.66171
#
# Compressibility (1/GPa) = 0.02279673
#
# Stress axis : x y z
#
# Youngs Moduli (GPa) = 96.36598 67.49476 162.85409
#
# Poissons Ratio (x) = 0.09259 0.42533
# Poissons Ratio (y) = 0.13219 0.04640
# Poissons Ratio (z) = 0.25168 0.01923
#
# Static dielectric constant tensor:
#      x y z
#    x 3.096460 -0.424390 0.184430 
#    y -0.424390 2.298070 -0.032330 
#    z 0.184430 -0.032330 2.180230 
# 
# From -- ./inp_files/368784.got.cif
#   From: 2010.05.17/outbox.cif.g08.bks.cpg/sg2_185_cif.got.tgz:368784.got - 2010.06.03 11:33:40.
