data_PCOD9052766
_publ_section_title
;
Structure prediction by ZEFSAII (Michael W. Deem and Ramdas Pophale) SiO2 
 PCOD9052766
Probable space group: P -1
;
_chemical_formula_sum "Si O2"
_cell_formula_units_Z 16
_cell_length_a 12.805711
_cell_length_b 11.060077
_cell_length_c 12.265044
_cell_angle_alpha 108.269479
_cell_angle_beta 103.364094
_cell_angle_gamma 22.898824
_cell_volume 633.993381
_symmetry_space_group_name_H-M "P -1"
_symmetry_group_IT_number 2
_symmetry_cell_setting 'triclinic'
loop_
_space_group_symop_operation_xyz
x,y,z
-x,-y,-z
loop_
_atom_site_type_symbol
_atom_site_label
_atom_site_fract_x
_atom_site_fract_y
_atom_site_fract_z
Si Si1 0.049690 0.143961 0.527550
Si Si2 0.525634 0.529689 0.160494
Si Si3 0.215268 0.375720 0.532561
Si Si4 0.873674 0.679821 0.904054
Si Si5 0.399343 0.524377 0.584066
Si Si6 0.969172 0.763390 0.212481
Si Si7 0.056088 0.706413 0.803326
Si Si8 0.518254 0.709611 0.920040
O O1 0.830470 0.490193 0.546611
O O2 0.901516 0.192573 0.440150
O O3 0.064983 0.119166 0.653490
O O4 0.344535 0.854259 0.466779
O O5 0.584128 0.445363 0.280505
O O6 0.747460 0.392964 0.140814
O O7 0.467552 0.621772 0.927331
O O8 0.233067 0.913452 0.184093
O O9 0.163062 0.522193 0.666581
O O10 0.000000 0.500000 0.500000
O O11 0.500000 0.000000 0.500000
O O12 0.896729 0.519501 0.804907
O O13 0.025779 0.626527 0.861407
O O14 0.583347 0.062612 0.965242
O O15 0.000000 0.500000 0.000000
O O16 0.500000 0.500000 0.500000
O O17 0.174573 0.607647 0.134403
O O18 0.680608 0.059485 0.167784
#
# Coordination Sequence:
#
# PCOD9052766 Si02
#       8
#     2   2   2   2   2   2   2   2
#     4  12  23  40  64  99 137 178 226 266 343 407
#     4  12  24  45  68 104 150 182 235 279 353 429
#     4  12  24  41  64  95 136 178 223 270 337 411
#     4  10  26  49  75 101 136 180 245 301 356 409
#     4  12  23  40  65  98 142 184 224 273 327 416
#     4  11  23  44  70 105 138 180 241 294 348 413
#     4  12  26  46  70 103 145 185 228 298 351 418
#     4  11  25  45  72 102 138 187 234 297 352 412
#
# _framework density 25.236856
#
# number of rings (size 3 to 8) (size 9 to 14) (size 15 to 20)
#    0.000    0.500    2.500    6.000    0.000    7.000 
#    0.000    0.000    0.000    0.000    0.000    0.000 
#    0.000    0.000    0.000    0.000    0.000    0.000 
#
# Total GULP energy -89569.289915 kJ/mol
# GULP energy per Si atom -5598.080620 kJ/mol
# Density = 2.517942 g / cm^3
# Si number density = 25.236856 Si / 1000 Ang^3
#
#
#
# Elastic Constant Matrix: (Units=GPa)
#
#
# Indices 1 2 3 4 5 6 
#
# 1 125.6562 22.2163 18.5689 -6.3260 6.9963 13.7272
# 2 22.2163 117.3116 23.0671 -7.3746 14.6565 2.3845
# 3 18.5689 23.0671 112.6249 -0.1361 10.3322 4.0993
# 4 -6.3260 -7.3746 -0.1361 40.8476 6.2922 4.4801
# 5 6.9963 14.6565 10.3322 6.2922 46.6484 -2.1600
# 6 13.7272 2.3845 4.0993 4.4801 -2.1600 60.7311
#
#
#
# Elastic Compliance Matrix: (Units=1/GPa)
#
#
# Indices 1 2 3 4 5 6 
#
# 1 0.008666 -0.001181 -0.001021 0.001497 -0.000996 -0.001989
# 2 -0.001181 0.009516 -0.001489 0.001983 -0.002762 -0.000251
# 3 -0.001021 -0.001489 0.009503 -0.000123 -0.001485 -0.000396
# 4 0.001497 0.001983 -0.000123 0.026028 -0.004446 -0.002486
# 5 -0.000996 -0.002762 -0.001485 -0.004446 0.023457 0.001596
# 6 -0.001989 -0.000251 -0.000396 -0.002486 0.001596 0.017192
#
#
# Mechanical properties :
#
#
# Convention : Reuss Voigt Hill
#
# Bulk Modulus (GPa) = 49.25844 53.69971 51.47908
# Shear Modulus (GPa) = 46.07741 49.09478 47.58609
#
# Velocity S-wave (km/s) = 4.27757 4.41541 4.34704
# Velocity P-wave (km/s) = 6.63006 6.87888 6.75561
#
# Compressibility (1/GPa) = 0.02030109
#
# Stress axis : x y z
#
# Youngs Moduli (GPa) = 115.39110 105.08995 105.23024
#
# Poissons Ratio (x) = 0.12415 0.10747
# Poissons Ratio (y) = 0.13632 0.15672
# Poissons Ratio (z) = 0.11784 0.15651
#
# Static dielectric constant tensor:
#      x y z
#    x 1.783590 0.065900 -0.044850 
#    y 0.065900 2.038320 0.017850 
#    z -0.044850 0.017850 1.983050 
# 
# From -- ./inp_files/126872.got.cif
#   From: 2010.05.17/outbox.cif.g08.bks.cpg/sg2_64_cif.got.tgz:126872.got - 2010.06.03 11:33:40.
