data_PCOD9052029
_publ_section_title
;
Structure prediction by ZEFSAII (Michael W. Deem and Ramdas Pophale) SiO2 
 PCOD9052029
Probable space group: P -1
;
_chemical_formula_sum "Si O2"
_cell_formula_units_Z 12
_cell_length_a 7.314375
_cell_length_b 9.330609
_cell_length_c 8.656583
_cell_angle_alpha 60.833540
_cell_angle_beta 91.413467
_cell_angle_gamma 62.743567
_cell_volume 434.595551
_symmetry_space_group_name_H-M "P -1"
_symmetry_group_IT_number 2
_symmetry_cell_setting 'triclinic'
loop_
_space_group_symop_operation_xyz
x,y,z
-x,-y,-z
loop_
_atom_site_type_symbol
_atom_site_label
_atom_site_fract_x
_atom_site_fract_y
_atom_site_fract_z
Si Si1 0.504908 0.829142 0.457925
Si Si2 0.979870 0.673891 0.505732
Si Si3 0.298277 0.232927 0.052882
Si Si4 0.810101 0.394733 0.940941
Si Si5 0.464698 0.386425 0.732888
Si Si6 0.818540 0.077743 0.325612
O O1 0.756166 0.741456 0.554543
O O2 0.904341 0.884412 0.324033
O O3 0.398715 0.033198 0.254550
O O4 0.617546 0.143429 0.400097
O O5 0.491006 0.692979 0.399271
O O6 0.000000 0.500000 0.500000
O O7 0.216958 0.574784 0.637927
O O8 0.256706 0.413517 0.063250
O O9 0.450230 0.229092 0.921640
O O10 0.060831 0.297499 0.949848
O O11 0.646668 0.417624 0.790713
O O12 0.799617 0.247339 0.135899
O O13 0.000000 0.000000 0.500000
#
# Coordination Sequence:
#
# PCOD9052029 Si02
#       6
#     2   2   2   2   2   2
#     4  11  25  50  82 109 157 209 256 319 394 463
#     4  10  25  49  77 114 156 205 257 320 388 461
#     4  11  24  49  79 115 152 208 258 320 393 459
#     4  11  26  49  83 113 157 201 266 322 387 462
#     4  11  25  50  79 117 154 202 263 323 385 464
#     4  12  24  50  77 116 154 205 262 320 391 465
#
# _framework density 27.611882000000001
#
# number of rings (size 3 to 8) (size 9 to 14) (size 15 to 20)
#    0.000    1.000    1.667    3.500    2.333    3.333 
#   12.000    4.167    0.000    0.000    0.000    0.000 
#    0.000    0.000    0.000    0.000    0.000    0.000 
#
# Total GULP energy -67309.481386 kJ/mol
# GULP energy per Si atom -5609.123449 kJ/mol
# Density = 2.754904 g / cm^3
# Si number density = 27.611882 Si / 1000 Ang^3
#
#
#
# Elastic Constant Matrix: (Units=GPa)
#
#
# Indices 1 2 3 4 5 6 
#
# 1 186.8430 52.1539 70.1625 8.4215 42.2405 25.6486
# 2 52.1539 207.7836 82.9818 -8.9717 6.5306 16.3163
# 3 70.1625 82.9818 181.8334 -15.1743 8.2352 18.7432
# 4 8.4215 -8.9717 -15.1743 53.2659 13.1312 7.6305
# 5 42.2405 6.5306 8.2352 13.1312 69.7277 5.6833
# 6 25.6486 16.3163 18.7432 7.6305 5.6833 37.2299
#
#
#
# Elastic Compliance Matrix: (Units=1/GPa)
#
#
# Indices 1 2 3 4 5 6 
#
# 1 0.007744 -0.000712 -0.002195 -0.000524 -0.004006 -0.003198
# 2 -0.000712 0.006027 -0.002315 0.000600 0.000119 -0.001126
# 3 -0.002195 -0.002315 0.007784 0.002368 0.000339 -0.001929
# 4 -0.000524 0.000600 0.002368 0.021225 -0.003617 -0.004892
# 5 -0.004006 0.000119 0.000339 -0.003617 0.017347 0.000630
# 6 -0.003198 -0.001126 -0.001929 -0.004892 0.000630 0.031435
#
#
# Mechanical properties :
#
#
# Convention : Reuss Voigt Hill
#
# Bulk Modulus (GPa) = 90.01555 109.67294 99.84424
# Shear Modulus (GPa) = 47.30005 56.78882 52.04443
#
# Velocity S-wave (km/s) = 4.14337 4.53998 4.34620
# Velocity P-wave (km/s) = 7.45393 8.20290 7.83737
#
# Compressibility (1/GPa) = 0.01110919
#
# Stress axis : x y z
#
# Youngs Moduli (GPa) = 129.13847 165.93378 128.46817
#
# Poissons Ratio (x) = 0.11822 0.28205
# Poissons Ratio (y) = 0.09200 0.29735
# Poissons Ratio (z) = 0.28352 0.38407
#
# Static dielectric constant tensor:
#      x y z
#    x 2.218470 0.085320 0.025100 
#    y 0.085320 2.233510 -0.035170 
#    z 0.025100 -0.035170 2.196110 
# 
# From -- ./inp_files/375704.got.cif
#   From: 2010.05.17/outbox.cif.g08.bks.cpg/sg2_188_cif.got.tgz:375704.got - 2010.06.03 11:33:40.
