data_PCOD9052000
_publ_section_title
;
Structure prediction by ZEFSAII (Michael W. Deem and Ramdas Pophale) SiO2 
 PCOD9052000
Probable space group: P -1
;
_chemical_formula_sum "Si O2"
_cell_formula_units_Z 14
_cell_length_a 10.611057
_cell_length_b 8.531105
_cell_length_c 14.517468
_cell_angle_alpha 88.052436
_cell_angle_beta 151.624529
_cell_angle_gamma 80.446283
_cell_volume 568.651004
_symmetry_space_group_name_H-M "P -1"
_symmetry_group_IT_number 2
_symmetry_cell_setting 'triclinic'
loop_
_space_group_symop_operation_xyz
x,y,z
-x,-y,-z
loop_
_atom_site_type_symbol
_atom_site_label
_atom_site_fract_x
_atom_site_fract_y
_atom_site_fract_z
Si Si1 0.689106 0.249171 0.046157
Si Si2 0.597622 0.137659 0.606333
Si Si3 0.305832 0.837283 0.681580
Si Si4 0.475788 0.683483 0.263622
Si Si5 0.869176 0.418238 0.310015
Si Si6 0.839777 0.878512 0.119913
Si Si7 0.414722 0.656685 0.567156
O O1 0.706281 0.263841 0.947214
O O2 0.368084 0.389551 0.861826
O O3 0.734359 0.057061 0.105133
O O4 0.899352 0.310981 0.236874
O O5 0.553964 0.169414 0.685489
O O6 0.454929 0.305543 0.444042
O O7 0.500000 0.000000 0.500000
O O8 0.936464 0.095054 0.808433
O O9 0.264939 0.675535 0.703355
O O10 0.391191 0.790484 0.630815
O O11 0.570400 0.861612 0.900009
O O12 0.000000 0.000000 0.500000
O O13 0.425929 0.535069 0.289933
O O14 0.815383 0.604564 0.455712
O O15 0.070561 0.710715 0.323697
#
# Coordination Sequence:
#
# PCOD9052000 Si02
#       7
#     2   2   2   2   2   2   2
#     4  11  24  41  66 102 138 179 231 284 349 417
#     4  10  25  49  74 100 141 184 243 291 346 419
#     4  12  25  44  73 105 146 184 235 288 354 422
#     4  12  24  46  73  99 141 192 227 291 352 412
#     4  11  26  41  68 107 140 180 232 290 350 423
#     4  10  26  44  69 103 138 184 232 292 347 408
#     4  10  26  46  67 105 138 186 236 288 348 415
#
# _framework density 24.619669999999999
#
# number of rings (size 3 to 8) (size 9 to 14) (size 15 to 20)
#    0.857    0.286    1.429    3.429   10.000    1.714 
#    2.571    0.714    0.000    0.000    0.000    0.000 
#    0.000    0.000    0.000    0.000    0.000    0.000 
#
# Total GULP energy -78309.689219 kJ/mol
# GULP energy per Si atom -5593.549230 kJ/mol
# Density = 2.456363 g / cm^3
# Si number density = 24.619670 Si / 1000 Ang^3
#
#
#
# Elastic Constant Matrix: (Units=GPa)
#
#
# Indices 1 2 3 4 5 6 
#
# 1 76.2374 9.9941 10.6508 16.4574 -18.2148 -5.3346
# 2 9.9941 58.6751 3.0022 8.1262 -3.0465 -11.4947
# 3 10.6508 3.0022 85.6669 18.1229 -12.8737 -2.4474
# 4 16.4574 8.1262 18.1229 40.9776 -2.7688 -9.8583
# 5 -18.2148 -3.0465 -12.8737 -2.7688 45.6983 9.7504
# 6 -5.3346 -11.4947 -2.4474 -9.8583 9.7504 41.5962
#
#
#
# Elastic Compliance Matrix: (Units=1/GPa)
#
#
# Indices 1 2 3 4 5 6 
#
# 1 0.016039 -0.001840 0.000262 -0.006094 0.006263 -0.001348
# 2 -0.001840 0.018479 0.000021 -0.001876 -0.000583 0.004564
# 3 0.000262 0.000021 0.013483 -0.006182 0.003858 -0.001537
# 4 -0.006094 -0.001876 -0.006182 0.031299 -0.003818 0.006649
# 5 0.006263 -0.000583 0.003858 -0.003818 0.026530 -0.006255
# 6 -0.001348 0.004564 -0.001537 0.006649 -0.006255 0.028080
#
#
# Mechanical properties :
#
#
# Convention : Reuss Voigt Hill
#
# Bulk Modulus (GPa) = 22.27842 29.76375 26.02108
# Shear Modulus (GPa) = 32.89753 38.78324 35.84038
#
# Velocity S-wave (km/s) = 3.65941 3.97330 3.81958
# Velocity P-wave (km/s) = 5.18881 5.75892 5.48128
#
# Compressibility (1/GPa) = 0.04488649
#
# Stress axis : x y z
#
# Youngs Moduli (GPa) = 62.34830 54.11538 74.16564
#
# Poissons Ratio (x) = 0.09959 -0.01944
# Poissons Ratio (y) = 0.11474 -0.00155
# Poissons Ratio (z) = -0.01634 -0.00113
#
# Static dielectric constant tensor:
#      x y z
#    x 2.056770 -0.035080 -0.009980 
#    y -0.035080 1.980700 -0.031120 
#    z -0.009980 -0.031120 1.900580 
# 
# From -- ./inp_files/515692.got.cif
#   From: 2010.05.17/outbox.cif.g08.bks.cpg/sg2_258_cif.got.tgz:515692.got - 2010.06.03 11:33:40.
