data_PCOD9052487
_publ_section_title
;
Structure prediction by ZEFSAII (Michael W. Deem and Ramdas Pophale) SiO2 
 PCOD9052487
Probable space group: P -1
;
_chemical_formula_sum "Si O2"
_cell_formula_units_Z 16
_cell_length_a 9.342342
_cell_length_b 12.645445
_cell_length_c 9.247761
_cell_angle_alpha 60.003144
_cell_angle_beta 124.234661
_cell_angle_gamma 121.018153
_cell_volume 739.269000
_symmetry_space_group_name_H-M "P -1"
_symmetry_group_IT_number 2
_symmetry_cell_setting 'triclinic'
loop_
_space_group_symop_operation_xyz
x,y,z
-x,-y,-z
loop_
_atom_site_type_symbol
_atom_site_label
_atom_site_fract_x
_atom_site_fract_y
_atom_site_fract_z
Si Si1 0.305267 0.403799 0.390497
Si Si2 0.114256 0.794958 0.224760
Si Si3 0.652620 0.971031 0.007388
Si Si4 0.268360 0.175962 0.091134
Si Si5 0.710139 0.032490 0.555156
Si Si6 0.795250 0.906719 0.419848
Si Si7 0.839323 0.468095 0.546521
Si Si8 0.471854 0.427763 0.185371
O O1 0.500000 0.500000 0.500000
O O2 0.267740 0.248129 0.480310
O O3 0.155950 0.434677 0.385794
O O4 0.323054 0.444715 0.203886
O O5 0.161441 0.667907 0.296749
O O6 0.180557 0.829017 0.406523
O O7 0.230286 0.905630 0.103929
O O8 0.901207 0.783897 0.092809
O O9 0.766021 0.924759 0.223303
O O10 0.500000 0.000000 0.000000
O O11 0.609749 0.857522 0.941860
O O12 0.194169 0.052389 0.237351
O O13 0.397659 0.280353 0.197626
O O14 0.696348 0.980446 0.419994
O O15 0.500000 0.000000 0.500000
O O16 0.000000 0.000000 0.500000
O O17 0.659380 0.458069 0.358042
O O18 0.000000 0.500000 0.500000
O O19 0.500000 0.500000 0.000000
#
# Coordination Sequence:
#
# PCOD9052487 Si02
#       8
#     2   2   2   2   2   2   2   2
#     4  10  26  46  73 102 145 190 236 293 359 426
#     4  11  24  44  68  97 142 185 227 290 355 425
#     4  11  26  39  67 102 137 181 229 296 353 416
#     4  11  22  43  65  96 136 179 233 280 360 412
#     4  11  22  40  69  97 135 181 230 291 348 416
#     4  12  24  43  72 105 138 179 239 293 355 415
#     4  11  26  47  72 103 139 187 240 290 360 428
#     4  11  24  44  73  99 131 190 238 288 351 427
#
# _framework density 21.643000000000001
#
# number of rings (size 3 to 8) (size 9 to 14) (size 15 to 20)
#    0.000    1.000    1.250    6.000   12.250    0.000 
#    0.000    2.500    0.000    0.000    0.000    0.000 
#    0.000    0.000    0.000    0.000    0.000    0.000 
#
# Total GULP energy -89185.555685 kJ/mol
# GULP energy per Si atom -5574.097230 kJ/mol
# Density = 2.159374 g / cm^3
# Si number density = 21.643000 Si / 1000 Ang^3
#
#
#
# Elastic Constant Matrix: (Units=GPa)
#
#
# Indices 1 2 3 4 5 6 
#
# 1 150.3309 40.0007 28.4168 7.5919 -29.5048 -21.2808
# 2 40.0007 77.8347 18.4641 4.2731 -20.9500 -10.2202
# 3 28.4168 18.4641 85.7328 -0.1064 -21.1687 -9.6578
# 4 7.5919 4.2731 -0.1064 33.7965 -4.4519 -9.7412
# 5 -29.5048 -20.9500 -21.1687 -4.4519 45.9311 9.8001
# 6 -21.2808 -10.2202 -9.6578 -9.7412 9.8001 35.0874
#
#
#
# Elastic Compliance Matrix: (Units=1/GPa)
#
#
# Indices 1 2 3 4 5 6 
#
# 1 0.008713 -0.002962 -0.001148 -0.000270 0.003010 0.003190
# 2 -0.002962 0.016065 -0.001220 -0.000436 0.004576 0.001148
# 3 -0.001148 -0.001220 0.013697 0.001613 0.004785 0.001830
# 4 -0.000270 -0.000436 0.001613 0.032434 0.001659 0.008694
# 5 0.003010 0.004576 0.004785 0.001659 0.028823 -0.003114
# 6 0.003190 0.001148 0.001830 0.008694 -0.003114 0.034557
#
#
# Mechanical properties :
#
#
# Convention : Reuss Voigt Hill
#
# Bulk Modulus (GPa) = 35.94888 54.18462 45.06675
# Shear Modulus (GPa) = 32.42119 38.09747 35.25933
#
# Velocity S-wave (km/s) = 3.87460 4.20011 4.04063
# Velocity P-wave (km/s) = 6.05497 6.97217 6.52969
#
# Compressibility (1/GPa) = 0.02781728
#
# Stress axis : x y z
#
# Youngs Moduli (GPa) = 114.77037 62.24539 73.00932
#
# Poissons Ratio (x) = 0.18434 0.08381
# Poissons Ratio (y) = 0.33989 0.08905
# Poissons Ratio (z) = 0.13174 0.07592
#
# Static dielectric constant tensor:
#      x y z
#    x 1.596460 0.192560 -0.098580 
#    y 0.192560 2.428510 -0.076380 
#    z -0.098580 -0.076380 1.817850 
# 
# From -- ./inp_files/186146.got.cif
#   From: 2010.05.17/outbox.cif.g08.bks.cpg/sg2_94_cif.got.tgz:186146.got - 2010.06.03 11:33:40.
