data_PCOD9052863
_publ_section_title
;
Structure prediction by ZEFSAII (Michael W. Deem and Ramdas Pophale) SiO2 
 PCOD9052863
Probable space group: P -1
;
_chemical_formula_sum "Si O2"
_cell_formula_units_Z 16
_cell_length_a 21.814763
_cell_length_b 18.039504
_cell_length_c 12.423775
_cell_angle_alpha 34.044730
_cell_angle_beta 25.142919
_cell_angle_gamma 18.085918
_cell_volume 625.700509
_symmetry_space_group_name_H-M "P -1"
_symmetry_group_IT_number 2
_symmetry_cell_setting 'triclinic'
loop_
_space_group_symop_operation_xyz
x,y,z
-x,-y,-z
loop_
_atom_site_type_symbol
_atom_site_label
_atom_site_fract_x
_atom_site_fract_y
_atom_site_fract_z
Si Si1 0.332460 0.177511 0.300468
Si Si2 0.582586 0.583847 0.180919
Si Si3 0.359594 0.731783 0.883839
Si Si4 0.122500 0.272660 0.946888
Si Si5 0.281399 0.631910 0.432688
Si Si6 0.905632 0.990500 0.413358
Si Si7 0.195987 0.114310 0.791609
Si Si8 0.184020 0.234795 0.239105
O O1 0.206180 0.222695 0.556820
O O2 0.157025 0.262067 0.378253
O O3 0.385740 0.292001 0.064474
O O4 0.635570 0.885558 0.166356
O O5 0.433698 0.608863 0.300785
O O6 0.392139 0.740448 0.400377
O O7 0.885072 0.307792 0.059555
O O8 0.043885 0.944391 0.143353
O O9 0.500000 0.500000 0.000000
O O10 0.497646 0.620971 0.682489
O O11 0.383516 0.852284 0.763288
O O12 0.963247 0.526765 0.864411
O O13 0.259472 0.114164 0.809740
O O14 0.923995 0.312742 0.255286
O O15 0.101868 0.859973 0.361369
O O16 0.913973 0.826807 0.578303
O O17 0.500000 0.000000 0.000000
#
# Coordination Sequence:
#
# PCOD9052863 Si02
#       8
#     2   2   2   2   2   2   2   2
#     4  12  28  49  77 114 154 204 256 316 382 454
#     4  12  25  49  78 110 155 201 252 319 380 457
#     4  10  27  46  73 110 149 198 251 314 380 452
#     4  12  27  48  81 112 153 210 259 309 391 459
#     4  11  26  46  78 112 152 200 257 311 387 456
#     4  11  24  48  77 110 155 202 251 316 384 458
#     4  12  28  50  75 114 157 201 258 320 386 456
#     4  12  26  47  76 115 156 199 258 320 379 460
#
# _framework density 25.571339999999999
#
# number of rings (size 3 to 8) (size 9 to 14) (size 15 to 20)
#    0.000    0.500    3.750    1.875   10.500    4.500 
#    0.000    0.000    0.000    0.000    0.000    0.000 
#    0.000    0.000    0.000    0.000    0.000    0.000 
#
# Total GULP energy -89754.015112 kJ/mol
# GULP energy per Si atom -5609.625945 kJ/mol
# Density = 2.551314 g / cm^3
# Si number density = 25.571340 Si / 1000 Ang^3
#
#
#
# Elastic Constant Matrix: (Units=GPa)
#
#
# Indices 1 2 3 4 5 6 
#
# 1 107.3862 34.4276 20.6648 3.6963 3.9982 10.8107
# 2 34.4276 123.9194 6.3161 17.3973 4.3687 8.9856
# 3 20.6648 6.3161 127.0032 16.9936 27.1697 9.3510
# 4 3.6963 17.3973 16.9936 41.4298 1.5347 0.2057
# 5 3.9982 4.3687 27.1697 1.5347 46.4451 11.3959
# 6 10.8107 8.9856 9.3510 0.2057 11.3959 51.2448
#
#
#
# Elastic Compliance Matrix: (Units=1/GPa)
#
#
# Indices 1 2 3 4 5 6 
#
# 1 0.010690 -0.002929 -0.001768 0.000981 0.000747 -0.001589
# 2 -0.002929 0.009506 0.000767 -0.004014 -0.000709 -0.001015
# 3 -0.001768 0.000767 0.009853 -0.004002 -0.005472 -0.000327
# 4 0.000981 -0.004014 -0.004002 0.027316 0.001541 0.000775
# 5 0.000747 -0.000709 -0.005472 0.001541 0.025859 -0.004791
# 6 -0.001589 -0.001015 -0.000327 0.000775 -0.004791 0.021149
#
#
# Mechanical properties :
#
#
# Convention : Reuss Voigt Hill
#
# Bulk Modulus (GPa) = 45.06257 53.45840 49.26048
# Shear Modulus (GPa) = 41.79600 47.61730 44.70665
#
# Velocity S-wave (km/s) = 4.04726 4.31993 4.18582
# Velocity P-wave (km/s) = 6.28498 6.77003 6.53201
#
# Compressibility (1/GPa) = 0.02219137
#
# Stress axis : x y z
#
# Youngs Moduli (GPa) = 93.54848 105.19166 101.48828
#
# Poissons Ratio (x) = 0.30806 0.17941
# Poissons Ratio (y) = 0.27397 -0.07787
# Poissons Ratio (z) = 0.16537 -0.08072
#
# Static dielectric constant tensor:
#      x y z
#    x 2.010220 0.013670 0.024400 
#    y 0.013670 2.030860 0.026650 
#    z 0.024400 0.026650 2.027440 
# 
# From -- ./inp_files/472384.got.cif
#   From: 2010.05.17/outbox.cif.g08.bks.cpg/sg2_237_cif.got.tgz:472384.got - 2010.06.03 11:33:40.
