data_PCOD9052171
_publ_section_title
;
Structure prediction by ZEFSAII (Michael W. Deem and Ramdas Pophale) SiO2 
 PCOD9052171
Probable space group: P -1
;
_chemical_formula_sum "Si O2"
_cell_formula_units_Z 16
_cell_length_a 8.209919
_cell_length_b 5.346884
_cell_length_c 22.137245
_cell_angle_alpha 105.692899
_cell_angle_beta 108.345551
_cell_angle_gamma 121.425953
_cell_volume 664.184248
_symmetry_space_group_name_H-M "P -1"
_symmetry_group_IT_number 2
_symmetry_cell_setting 'triclinic'
loop_
_space_group_symop_operation_xyz
x,y,z
-x,-y,-z
loop_
_atom_site_type_symbol
_atom_site_label
_atom_site_fract_x
_atom_site_fract_y
_atom_site_fract_z
Si Si1 0.215255 0.763976 0.084021
Si Si2 0.380599 0.324367 0.378514
Si Si3 0.345112 0.124106 0.854253
Si Si4 0.306458 0.109947 0.232999
Si Si5 0.605349 0.897335 0.274187
Si Si6 0.611032 0.274397 0.085565
Si Si7 0.708416 0.416127 0.510478
Si Si8 0.175043 0.978078 0.567686
O O1 0.382083 0.680032 0.103297
O O2 0.151022 0.826603 0.144189
O O3 0.396344 0.130630 0.094999
O O4 0.000000 0.500000 0.000000
O O5 0.218738 0.074566 0.288698
O O6 0.466585 0.221995 0.435482
O O7 0.308288 0.508968 0.417967
O O8 0.619815 0.617288 0.391260
O O9 0.272839 0.053777 0.771347
O O10 0.247932 0.788485 0.861089
O O11 0.294935 0.348338 0.893906
O O12 0.418699 0.486844 0.243490
O O13 0.490056 0.060383 0.259854
O O14 0.770269 0.083217 0.363202
O O15 0.500000 0.000000 0.000000
O O16 0.789698 0.211896 0.489864
O O17 0.912255 0.798713 0.530821
#
# Coordination Sequence:
#
# PCOD9052171 Si02
#       8
#     2   2   2   2   2   2   2   2
#     4   9  20  34  56  82 108 143 186 235 278 342
#     4  10  20  35  58  78 118 154 191 242 296 344
#     4   9  18  33  54  77 105 144 188 219 277 343
#     4  10  19  35  57  79 109 152 194 228 295 348
#     4  10  17  35  56  81 106 153 194 230 283 350
#     4  10  19  33  53  77 105 138 182 227 275 336
#     4  10  20  35  54  88 112 149 202 237 291 352
#     4  10  20  33  58  82 115 152 196 239 292 343
#
# _framework density 24.089700000000001
#
# number of rings (size 3 to 8) (size 9 to 14) (size 15 to 20)
#    0.750    1.500    2.500    1.125    0.000    0.500 
#    0.000    1.250    0.000    0.000    0.000    0.000 
#    0.000    0.000    0.000    0.000    0.000    0.000 
#
# Total GULP energy -89162.049897 kJ/mol
# GULP energy per Si atom -5572.628119 kJ/mol
# Density = 2.403487 g / cm^3
# Si number density = 24.089700 Si / 1000 Ang^3
#
#
#
# Elastic Constant Matrix: (Units=GPa)
#
#
# Indices 1 2 3 4 5 6 
#
# 1 87.0468 30.3769 45.2744 4.4218 -11.8702 -16.2087
# 2 30.3769 87.6639 6.5392 6.6625 -8.2009 -24.0232
# 3 45.2744 6.5392 174.8599 1.9117 -42.2171 -13.9184
# 4 4.4218 6.6625 1.9117 23.1439 -1.6016 -8.7409
# 5 -11.8702 -8.2009 -42.2171 -1.6016 35.0376 4.8299
# 6 -16.2087 -24.0232 -13.9184 -8.7409 4.8299 33.3557
#
#
#
# Elastic Compliance Matrix: (Units=1/GPa)
#
#
# Indices 1 2 3 4 5 6 
#
# 1 0.015404 -0.004330 -0.003782 -0.000379 -0.000755 0.002798
# 2 -0.004330 0.015701 0.002131 -0.000007 0.003453 0.009591
# 3 -0.003782 0.002131 0.009220 0.000923 0.010047 0.002332
# 4 -0.000379 -0.000007 0.000923 0.048057 0.001445 0.012580
# 5 -0.000755 0.003453 0.010047 0.001445 0.041165 0.000731
# 6 0.002798 0.009591 0.002332 0.012580 0.000731 0.042411
#
#
# Mechanical properties :
#
#
# Convention : Reuss Voigt Hill
#
# Bulk Modulus (GPa) = 35.25812 57.10572 46.18192
# Shear Modulus (GPa) = 25.85690 36.13279 30.99484
#
# Velocity S-wave (km/s) = 3.27977 3.87709 3.59087
# Velocity P-wave (km/s) = 5.38614 6.61811 6.03365
#
# Compressibility (1/GPa) = 0.02836226
#
# Stress axis : x y z
#
# Youngs Moduli (GPa) = 64.92003 63.69150 108.46560
#
# Poissons Ratio (x) = 0.27581 0.41018
# Poissons Ratio (y) = 0.28113 -0.23118
# Poissons Ratio (z) = 0.24551 -0.13575
#
# Static dielectric constant tensor:
#      x y z
#    x 1.868580 -0.021740 -0.036600 
#    y -0.021740 2.017310 -0.067130 
#    z -0.036600 -0.067130 1.960930 
# 
# From -- ./inp_files/585784.got.cif
#   From: 2010.05.17/outbox.cif.g08.bks.cpg/sg2_293_cif.got.tgz:585784.got - 2010.06.03 11:33:40.
