data_PCOD9052977
_publ_section_title
;
Structure prediction by ZEFSAII (Michael W. Deem and Ramdas Pophale) SiO2 
 PCOD9052977
Probable space group: P -1
;
_chemical_formula_sum "Si O2"
_cell_formula_units_Z 16
_cell_length_a 7.450092
_cell_length_b 8.017717
_cell_length_c 16.186699
_cell_angle_alpha 132.986599
_cell_angle_beta 99.735873
_cell_angle_gamma 73.425836
_cell_volume 677.451066
_symmetry_space_group_name_H-M "P -1"
_symmetry_group_IT_number 2
_symmetry_cell_setting 'triclinic'
loop_
_space_group_symop_operation_xyz
x,y,z
-x,-y,-z
loop_
_atom_site_type_symbol
_atom_site_label
_atom_site_fract_x
_atom_site_fract_y
_atom_site_fract_z
Si Si1 0.842672 0.987441 0.585617
Si Si2 0.632840 0.062409 0.100282
Si Si3 0.961746 0.174336 0.976823
Si Si4 0.235639 0.487389 0.799490
Si Si5 0.488030 0.711839 0.664701
Si Si6 0.824785 0.915715 0.732556
Si Si7 0.270386 0.984422 0.594061
Si Si8 0.835923 0.477927 0.371487
O O1 0.760201 0.065070 0.695201
O O2 0.717360 0.063316 0.519551
O O3 0.873443 0.705230 0.492901
O O4 0.046181 0.039269 0.609556
O O5 0.658745 0.312858 0.151308
O O6 0.558516 0.100327 0.200234
O O7 0.828161 0.867465 0.054600
O O8 0.500000 0.000000 0.000000
O O9 0.837583 0.076078 0.867000
O O10 0.866735 0.425321 0.093440
O O11 0.000000 0.000000 0.000000
O O12 0.334034 0.215452 0.708401
O O13 0.104694 0.507562 0.714849
O O14 0.703353 0.719813 0.668861
O O15 0.381048 0.520889 0.627802
O O16 0.382061 0.781611 0.593150
O O17 0.037866 0.774759 0.681841
#
# Coordination Sequence:
#
# PCOD9052977 Si02
#       8
#     2   2   2   2   2   2   2   2
#     4  10  22  40  63  82 118 162 195 250 294 345
#     4  10  19  35  60  90 122 152 194 250 290 340
#     4  10  17  35  58  88 117 146 195 239 287 351
#     4   9  19  36  62  86 118 158 191 241 294 356
#     4  11  22  36  61  88 121 157 195 246 293 351
#     4  12  21  36  63  89 118 151 201 247 294 344
#     4  10  21  41  60  83 121 161 195 237 305 351
#     4  10  20  40  61  88 118 149 205 250 291 340
#
# _framework density 23.617941999999999
#
# number of rings (size 3 to 8) (size 9 to 14) (size 15 to 20)
#    0.000    1.750    5.000    1.875    0.000    1.000 
#    0.000    6.250    8.250    0.000    0.000    0.000 
#    0.000    0.000    0.000    0.000    0.000    0.000 
#
# Total GULP energy -89161.994200 kJ/mol
# GULP energy per Si atom -5572.624637 kJ/mol
# Density = 2.356419 g / cm^3
# Si number density = 23.617942 Si / 1000 Ang^3
#
#
#
# Elastic Constant Matrix: (Units=GPa)
#
#
# Indices 1 2 3 4 5 6 
#
# 1 100.4149 14.7694 36.4185 -2.7219 7.9858 5.2723
# 2 14.7694 49.0772 31.6958 -8.3329 -4.7677 4.4473
# 3 36.4185 31.6958 164.7392 -29.6000 5.2542 4.8944
# 4 -2.7219 -8.3329 -29.6000 24.1248 11.1960 -1.3416
# 5 7.9858 -4.7677 5.2542 11.1960 23.7093 -2.4129
# 6 5.2723 4.4473 4.8944 -1.3416 -2.4129 18.4070
#
#
#
# Elastic Compliance Matrix: (Units=1/GPa)
#
#
# Indices 1 2 3 4 5 6 
#
# 1 0.011466 -0.002413 -0.001858 -0.000021 -0.004207 -0.002760
# 2 -0.002413 0.024840 -0.004430 -0.000393 0.006640 -0.003291
# 3 -0.001858 -0.004430 0.010557 0.015894 -0.010252 -0.001390
# 4 -0.000021 -0.000393 0.015894 0.079978 -0.041745 -0.003768
# 5 -0.004207 0.006640 -0.010252 -0.041745 0.067745 0.008164
# 6 -0.002760 -0.003291 -0.001390 -0.003768 0.008164 0.057078
#
#
# Mechanical properties :
#
#
# Convention : Reuss Voigt Hill
#
# Bulk Modulus (GPa) = 33.94310 53.33322 43.63816
# Shear Modulus (GPa) = 17.92834 28.67137 23.29985
#
# Velocity S-wave (km/s) = 2.75816 3.48798 3.14432
# Velocity P-wave (km/s) = 4.95441 6.23314 5.63020
#
# Compressibility (1/GPa) = 0.02946107
#
# Stress axis : x y z
#
# Youngs Moduli (GPa) = 87.21132 40.25759 94.71984
#
# Poissons Ratio (x) = 0.09713 0.17601
# Poissons Ratio (y) = 0.21041 0.41965
# Poissons Ratio (z) = 0.16206 0.17836
#
# Static dielectric constant tensor:
#      x y z
#    x 1.933680 0.023690 -0.041770 
#    y 0.023690 1.971330 -0.006450 
#    z -0.041770 -0.006450 2.010670 
# 
# From -- ./inp_files/267811.got.cif
#   From: 2010.05.17/outbox.cif.g08.bks.cpg/sg2_134_cif.got.tgz:267811.got - 2010.06.03 11:33:40.
