data_PCOD9052909
_publ_section_title
;
Structure prediction by ZEFSAII (Michael W. Deem and Ramdas Pophale) SiO2 
 PCOD9052909
Probable space group: P -1
;
_chemical_formula_sum "Si O2"
_cell_formula_units_Z 15
_cell_length_a 26.297884
_cell_length_b 10.626841
_cell_length_c 11.565165
_cell_angle_alpha 139.714868
_cell_angle_beta 32.276633
_cell_angle_gamma 155.008184
_cell_volume 729.101153
_symmetry_space_group_name_H-M "P -1"
_symmetry_group_IT_number 2
_symmetry_cell_setting 'triclinic'
loop_
_space_group_symop_operation_xyz
x,y,z
-x,-y,-z
loop_
_atom_site_type_symbol
_atom_site_label
_atom_site_fract_x
_atom_site_fract_y
_atom_site_fract_z
Si Si1 0.886146 0.178350 0.551542
Si Si2 0.220789 0.697960 0.979395
Si Si3 0.931982 0.351882 0.152813
Si Si4 0.682074 0.580406 0.405651
Si Si5 0.500000 0.500000 0.500000
Si Si6 0.072008 0.253601 0.442269
Si Si7 0.454915 0.311387 0.841385
Si Si8 0.304334 0.325596 0.942828
O O1 0.000000 0.500000 0.500000
O O2 0.958483 0.148417 0.487827
O O3 0.809294 0.932817 0.429494
O O4 0.777288 0.152148 0.811167
O O5 0.253446 0.527483 0.826142
O O6 0.342964 0.967807 0.847354
O O7 0.062681 0.473938 0.066609
O O8 0.880925 0.475937 0.393727
O O9 0.801380 0.997793 0.142423
O O10 0.000000 0.500000 0.000000
O O11 0.571177 0.485837 0.458042
O O12 0.593998 0.440797 0.598107
O O13 0.431000 0.550920 0.764957
O O14 0.203736 0.347321 0.191836
O O15 0.000000 0.000000 0.500000
O O16 0.370193 0.327697 0.931438
O O17 0.500000 0.500000 0.000000
#
# Coordination Sequence:
#
# PCOD9052909 Si02
#       8
#     2   2   2   2   1   2   2   2
#     4  11  26  43  65 103 136 171 220 282 340 403
#     4  11  23  42  68  99 129 170 221 274 345 389
#     4  11  21  38  68 101 132 154 217 284 335 394
#     4  11  25  45  69  90 136 180 228 270 333 408
#     4  10  28  46  62  92 132 190 226 262 322 414
#     4  11  23  40  70 104 129 171 221 284 346 391
#     4  11  22  43  66  98 134 171 223 282 325 401
#     4  11  23  45  64  94 137 172 219 275 330 398
#
# _framework density 20.573277000000001
#
# number of rings (size 3 to 8) (size 9 to 14) (size 15 to 20)
#    0.000    1.067    4.000    2.000    5.600    0.533 
#    4.800    1.333    0.000    0.000    0.000    0.000 
#    0.000    0.000    0.000    0.000    0.000    0.000 
#
# Total GULP energy -83596.845109 kJ/mol
# GULP energy per Si atom -5573.123007 kJ/mol
# Density = 2.052645 g / cm^3
# Si number density = 20.573277 Si / 1000 Ang^3
#
#
#
# Elastic Constant Matrix: (Units=GPa)
#
#
# Indices 1 2 3 4 5 6 
#
# 1 78.9771 19.1611 29.9414 14.3619 3.2436 -4.8548
# 2 19.1611 48.8227 16.9121 6.3893 -5.1555 1.4331
# 3 29.9414 16.9121 170.9127 25.4774 -10.5002 -6.6328
# 4 14.3619 6.3893 25.4774 25.6558 -1.7248 8.9306
# 5 3.2436 -5.1555 -10.5002 -1.7248 24.3254 -0.9025
# 6 -4.8548 1.4331 -6.6328 8.9306 -0.9025 25.8623
#
#
#
# Elastic Compliance Matrix: (Units=1/GPa)
#
#
# Indices 1 2 3 4 5 6 
#
# 1 0.016673 -0.005605 -0.000975 -0.009451 -0.004268 0.006305
# 2 -0.005605 0.023738 -0.001044 -0.000606 0.005201 -0.002244
# 3 -0.000975 -0.001044 0.007736 -0.008373 0.002834 0.004849
# 4 -0.009451 -0.000606 -0.008373 0.061537 0.000949 -0.025104
# 5 -0.004268 0.005201 0.002834 0.000949 0.044103 0.000849
# 6 0.006305 -0.002244 0.004849 -0.025104 0.000849 0.049916
#
#
# Mechanical properties :
#
#
# Convention : Reuss Voigt Hill
#
# Bulk Modulus (GPa) = 30.39633 47.86019 39.12826
# Shear Modulus (GPa) = 21.74702 30.68188 26.21445
#
# Velocity S-wave (km/s) = 3.25476 3.86599 3.57347
# Velocity P-wave (km/s) = 5.37879 6.57583 6.00720
#
# Compressibility (1/GPa) = 0.03289871
#
# Stress axis : x y z
#
# Youngs Moduli (GPa) = 59.97786 42.12638 129.27337
#
# Poissons Ratio (x) = 0.23611 0.12604
# Poissons Ratio (y) = 0.33616 0.13499
# Poissons Ratio (z) = 0.05848 0.04399
#
# Static dielectric constant tensor:
#      x y z
#    x 1.697690 0.002650 0.022860 
#    y 0.002650 1.782480 -0.056040 
#    z 0.022860 -0.056040 1.748700 
# 
# From -- ./inp_files/390615.got.cif
#   From: 2010.05.17/outbox.cif.g08.bks.cpg/sg2_196_cif.got.tgz:390615.got - 2010.06.03 11:33:40.
