data_PCOD9052790
_publ_section_title
;
Structure prediction by ZEFSAII (Michael W. Deem and Ramdas Pophale) SiO2 
 PCOD9052790
Probable space group: P -1
;
_chemical_formula_sum "Si O2"
_cell_formula_units_Z 13
_cell_length_a 9.551426
_cell_length_b 11.686484
_cell_length_c 5.311098
_cell_angle_alpha 102.011864
_cell_angle_beta 87.740119
_cell_angle_gamma 54.637898
_cell_volume 463.284472
_symmetry_space_group_name_H-M "P -1"
_symmetry_group_IT_number 2
_symmetry_cell_setting 'triclinic'
loop_
_space_group_symop_operation_xyz
x,y,z
-x,-y,-z
loop_
_atom_site_type_symbol
_atom_site_label
_atom_site_fract_x
_atom_site_fract_y
_atom_site_fract_z
Si Si1 0.771883 0.019857 0.915651
Si Si2 0.500000 0.500000 0.000000
Si Si3 0.111330 0.739349 0.843109
Si Si4 0.883978 0.664649 0.001111
Si Si5 0.728875 0.249335 0.672552
Si Si6 0.577931 0.693837 0.754898
Si Si7 0.677014 0.854147 0.522753
O O1 0.783154 0.096342 0.700882
O O2 0.953576 0.908141 0.993247
O O3 0.714392 0.920283 0.786410
O O4 0.622745 0.157852 0.149312
O O5 0.475980 0.622505 0.263983
O O6 0.428040 0.435742 0.207051
O O7 0.177640 0.749815 0.575772
O O8 0.016986 0.663147 0.800455
O O9 0.251176 0.675023 0.036318
O O10 0.836220 0.779026 0.279838
O O11 0.699722 0.704048 0.948660
O O12 0.000000 0.500000 0.000000
O O13 0.654248 0.728765 0.528383
O O14 0.500000 0.000000 0.500000
#
# Coordination Sequence:
#
# PCOD9052790 Si02
#       7
#     2   1   2   2   2   2   2
#     4  11  23  46  73 110 145 195 252 318 372 450
#     4  10  26  50  74 102 150 200 254 310 386 456
#     4  12  25  46  73 108 154 194 253 310 385 444
#     4  12  27  44  71 107 149 197 249 308 380 453
#     4  11  27  47  74 111 150 200 251 311 380 456
#     4  11  24  47  70 106 144 192 258 308 380 454
#     4  12  24  44  76 107 145 197 252 314 379 450
#
# _framework density 28.060511000000002
#
# number of rings (size 3 to 8) (size 9 to 14) (size 15 to 20)
#    0.000    0.615    3.077    4.154    2.154    4.923 
#    0.000    0.000    0.000    0.000    0.000    0.000 
#    0.000    0.000    0.000    0.000    0.000    0.000 
#
# Total GULP energy -72534.204305 kJ/mol
# GULP energy per Si atom -5579.554177 kJ/mol
# Density = 2.799664 g / cm^3
# Si number density = 28.060511 Si / 1000 Ang^3
#
#
#
# Elastic Constant Matrix: (Units=GPa)
#
#
# Indices 1 2 3 4 5 6 
#
# 1 119.2837 51.3305 39.7098 -22.2586 -15.2811 47.2562
# 2 51.3305 166.1692 31.1763 -16.8396 -21.3656 31.4834
# 3 39.7098 31.1763 88.9835 -32.4360 -43.9763 8.5998
# 4 -22.2586 -16.8396 -32.4360 53.8117 10.2251 -18.1000
# 5 -15.2811 -21.3656 -43.9763 10.2251 51.9508 -5.6474
# 6 47.2562 31.4834 8.5998 -18.1000 -5.6474 53.7186
#
#
#
# Elastic Compliance Matrix: (Units=1/GPa)
#
#
# Indices 1 2 3 4 5 6 
#
# 1 0.016004 -0.001700 -0.007992 -0.002400 -0.003698 -0.013001
# 2 -0.001700 0.007377 -0.000818 -0.000043 0.001573 -0.002546
# 3 -0.007992 -0.000818 0.029065 0.013279 0.020331 0.009469
# 4 -0.002400 -0.000043 0.013279 0.027785 0.006137 0.010017
# 5 -0.003698 0.001573 0.020331 0.006137 0.035339 0.004860
# 6 -0.013001 -0.002546 0.009469 0.010017 0.004860 0.033915
#
#
# Mechanical properties :
#
#
# Convention : Reuss Voigt Hill
#
# Bulk Modulus (GPa) = 31.82207 68.76329 50.29268
# Shear Modulus (GPa) = 27.62727 48.71086 38.16907
#
# Velocity S-wave (km/s) = 3.14117 4.17096 3.69215
# Velocity P-wave (km/s) = 4.95188 6.91046 6.01147
#
# Compressibility (1/GPa) = 0.03142473
#
# Stress axis : x y z
#
# Youngs Moduli (GPa) = 62.48257 135.55885 34.40601
#
# Poissons Ratio (x) = 0.23042 0.27499
# Poissons Ratio (y) = 0.10621 0.02816
# Poissons Ratio (z) = 0.49939 0.11094
#
# Static dielectric constant tensor:
#      x y z
#    x 2.361250 -0.346900 -0.063510 
#    y -0.346900 2.697540 0.090430 
#    z -0.063510 0.090430 2.378080 
# 
# From -- ./inp_files/64139.got.cif
#   From: 2010.05.17/outbox.cif.g08.bks.cpg/sg2_33_cif.got.tgz:64139.got - 2010.06.03 11:33:40.
