data_PCOD9052496
_publ_section_title
;
Structure prediction by ZEFSAII (Michael W. Deem and Ramdas Pophale) SiO2 
 PCOD9052496
Probable space group: P -1
;
_chemical_formula_sum "Si O2"
_cell_formula_units_Z 12
_cell_length_a 7.519312
_cell_length_b 8.628144
_cell_length_c 12.243581
_cell_angle_alpha 106.290270
_cell_angle_beta 95.957442
_cell_angle_gamma 34.476330
_cell_volume 419.553239
_symmetry_space_group_name_H-M "P -1"
_symmetry_group_IT_number 2
_symmetry_cell_setting 'triclinic'
loop_
_space_group_symop_operation_xyz
x,y,z
-x,-y,-z
loop_
_atom_site_type_symbol
_atom_site_label
_atom_site_fract_x
_atom_site_fract_y
_atom_site_fract_z
Si Si1 0.606288 0.997503 0.770995
Si Si2 0.072224 0.773650 0.338628
Si Si3 0.698983 0.518781 0.292949
Si Si4 0.627700 0.678887 0.559062
Si Si5 0.000000 0.000000 0.000000
Si Si6 0.229779 0.544699 0.071573
Si Si7 0.500000 0.000000 0.000000
O O1 0.610006 0.870743 0.645088
O O2 0.956891 0.827880 0.771964
O O3 0.366478 0.317112 0.780953
O O4 0.597426 0.894273 0.856328
O O5 0.387075 0.645483 0.317358
O O6 0.135683 0.606433 0.409477
O O7 0.055889 0.696707 0.206564
O O8 0.736584 0.116604 0.406733
O O9 0.718965 0.602030 0.423718
O O10 0.606531 0.320456 0.056841
O O11 0.001653 0.179447 0.971010
O O12 0.303679 0.305500 0.003792
#
# Coordination Sequence:
#
# PCOD9052496 Si02
#       7
#     2   2   2   2   1   2   1
#     4  12  28  48  74 109 150 202 254 311 379 456
#     4  12  25  46  76 113 148 193 249 320 385 450
#     4  12  27  47  77 111 149 196 254 316 383 455
#     4  12  24  50  76 110 149 197 251 315 383 456
#     4  10  26  46  74 104 146 202 252 324 362 456
#     4  11  26  47  74 107 154 198 259 312 387 452
#     4  12  30  50  76 110 158 208 256 312 386 466
#
# _framework density 28.601855
#
# number of rings (size 3 to 8) (size 9 to 14) (size 15 to 20)
#    0.000    0.333    1.667    6.000    7.000    1.333 
#    0.000    0.000    0.000    0.000    0.000    0.000 
#    0.000    0.000    0.000    0.000    0.000    0.000 
#
# Total GULP energy -66938.122384 kJ/mol
# GULP energy per Si atom -5578.176865 kJ/mol
# Density = 2.853676 g / cm^3
# Si number density = 28.601855 Si / 1000 Ang^3
#
#
#
# Elastic Constant Matrix: (Units=GPa)
#
#
# Indices 1 2 3 4 5 6 
#
# 1 77.8919 15.6099 -18.3796 -9.3518 -16.5659 -4.8268
# 2 15.6099 200.0138 76.3297 -33.0573 -11.2626 15.5734
# 3 -18.3796 76.3297 86.7745 -24.0807 -27.7291 9.5060
# 4 -9.3518 -33.0573 -24.0807 46.7782 -0.2429 -18.0997
# 5 -16.5659 -11.2626 -27.7291 -0.2429 41.7364 8.8187
# 6 -4.8268 15.5734 9.5060 -18.0997 8.8187 73.9192
#
#
#
# Elastic Compliance Matrix: (Units=1/GPa)
#
#
# Indices 1 2 3 4 5 6 
#
# 1 0.026395 -0.007605 0.023214 0.012161 0.023817 0.000477
# 2 -0.007605 0.010150 -0.014067 -0.001673 -0.009616 -0.000088
# 3 0.023214 -0.014067 0.045361 0.017735 0.035933 -0.001298
# 4 0.012161 -0.001673 0.017735 0.033906 0.015225 0.005352
# 5 0.023817 -0.009616 0.035933 0.015225 0.055614 -0.003947
# 6 0.000477 -0.000088 -0.001298 0.005352 -0.003947 0.015526
#
#
# Mechanical properties :
#
#
# Convention : Reuss Voigt Hill
#
# Bulk Modulus (GPa) = 11.76611 56.86667 34.31639
# Shear Modulus (GPa) = 23.56282 51.89476 37.72879
#
# Velocity S-wave (km/s) = 2.87334 4.26418 3.63589
# Velocity P-wave (km/s) = 3.88984 6.64602 5.44520
#
# Compressibility (1/GPa) = 0.08498984
#
# Stress axis : x y z
#
# Youngs Moduli (GPa) = 37.88614 98.51935 22.04541
#
# Poissons Ratio (x) = 0.74923 -0.51175
# Poissons Ratio (y) = 0.28812 0.31011
# Poissons Ratio (z) = -0.87947 1.38585
#
# Static dielectric constant tensor:
#      x y z
#    x 1.907340 -0.081290 0.192450 
#    y -0.081290 2.047490 -0.061560 
#    z 0.192450 -0.061560 2.218130 
# 
# From -- ./inp_files/178513.got.cif
#   From: 2010.05.17/outbox.cif.g08.bks.cpg/sg2_90_cif.got.tgz:178513.got - 2010.06.03 11:33:40.
