data_PCOD9052476
_publ_section_title
;
Structure prediction by ZEFSAII (Michael W. Deem and Ramdas Pophale) SiO2 
 PCOD9052476
Probable space group: P -1
;
_chemical_formula_sum "Si O2"
_cell_formula_units_Z 15
_cell_length_a 11.556369
_cell_length_b 17.505715
_cell_length_c 5.074375
_cell_angle_alpha 55.768721
_cell_angle_beta 70.835263
_cell_angle_gamma 47.960720
_cell_volume 628.378989
_symmetry_space_group_name_H-M "P -1"
_symmetry_group_IT_number 2
_symmetry_cell_setting 'triclinic'
loop_
_space_group_symop_operation_xyz
x,y,z
-x,-y,-z
loop_
_atom_site_type_symbol
_atom_site_label
_atom_site_fract_x
_atom_site_fract_y
_atom_site_fract_z
Si Si1 0.035862 0.297905 0.751447
Si Si2 0.192935 0.036093 0.071154
Si Si3 0.163398 0.332410 0.070483
Si Si4 0.281783 0.849160 0.755382
Si Si5 0.471650 0.409566 0.104348
Si Si6 0.507196 0.101021 0.194797
Si Si7 0.000000 0.000000 0.000000
Si Si8 0.267431 0.483681 0.602458
O O1 0.132047 0.303162 0.435538
O O2 0.857395 0.378421 0.634035
O O3 0.117422 0.161862 0.001975
O O4 0.040386 0.354101 0.906707
O O5 0.173520 0.953788 0.421534
O O6 0.100154 0.051314 0.848440
O O7 0.376098 0.958850 0.024658
O O8 0.331812 0.217708 0.062822
O O9 0.171971 0.438416 0.855047
O O10 0.374462 0.723638 0.792046
O O11 0.408428 0.862827 0.749485
O O12 0.160979 0.874126 0.018343
O O13 0.363029 0.415624 0.398985
O O14 0.500000 0.500000 0.000000
O O15 0.385013 0.452664 0.806381
O O16 0.500000 0.000000 0.500000
#
# Coordination Sequence:
#
# PCOD9052476 Si02
#       8
#     2   2   2   2   2   2   1   2
#     4  12  27  43  73 107 149 191 246 297 370 450
#     4  11  25  43  70 106 144 192 239 306 381 440
#     4  12  24  45  71 106 147 192 242 303 368 446
#     4  11  25  47  73 107 143 193 244 311 375 445
#     4  12  28  49  78 108 144 198 256 309 363 437
#     4  11  22  40  69 104 146 182 238 294 375 444
#     4  10  26  46  72 104 142 192 242 312 378 436
#     4  12  26  50  72 105 148 199 247 304 367 439
#
# _framework density 23.870943
#
# number of rings (size 3 to 8) (size 9 to 14) (size 15 to 20)
#    0.000    0.533    2.667    4.800    7.467    2.133 
#    0.000    0.000    0.000    0.000    0.000    0.000 
#    0.000    0.000    0.000    0.000    0.000    0.000 
#
# Total GULP energy -83768.130280 kJ/mol
# GULP energy per Si atom -5584.542019 kJ/mol
# Density = 2.381661 g / cm^3
# Si number density = 23.870943 Si / 1000 Ang^3
#
#
#
# Elastic Constant Matrix: (Units=GPa)
#
#
# Indices 1 2 3 4 5 6 
#
# 1 -137.2481 194.0679 96.3634 35.9245 -184.5070 -84.0866
# 2 194.0679 -0.2192 -31.9800 -60.4306 165.1621 63.9468
# 3 96.3634 -31.9800 42.8394 -28.2498 85.6437 31.3443
# 4 35.9245 -60.4306 -28.2498 31.1604 46.2689 12.8000
# 5 -184.5070 165.1621 85.6437 46.2689 -151.0103 -77.2222
# 6 -84.0866 63.9468 31.3443 12.8000 -77.2222 6.4740
#
#
#
# Elastic Compliance Matrix: (Units=1/GPa)
#
#
# Indices 1 2 3 4 5 6 
#
# 1 0.012930 0.000455 0.000841 0.005750 -0.012501 -0.001098
# 2 0.000455 0.007571 -0.004673 0.002250 0.004464 0.002543
# 3 0.000841 -0.004673 0.014414 0.000423 0.001281 0.001732
# 4 0.005750 0.002250 0.000423 0.026646 0.000704 0.006131
# 5 -0.012501 0.004464 0.001281 0.000704 0.017457 -0.005828
# 6 -0.001098 0.002543 0.001732 0.006131 -0.005828 0.025054
#
#
# Mechanical properties :
#
#
# Convention : Reuss Voigt Hill
#
# Bulk Modulus (GPa) = 35.50954 46.91939 41.21447
# Shear Modulus (GPa) = 41.59267 -46.21378 -2.31055
#
# Velocity S-wave (km/s) = 4.17873 -4.40476 -0.98490
# Velocity P-wave (km/s) = 6.17983 2.48416 4.00120
#
# Compressibility (1/GPa) = 0.02816144
#
# Stress axis : x y z
#
# Youngs Moduli (GPa) = 77.33947 132.07598 69.37596
#
# Poissons Ratio (x) = -0.06007 -0.05832
# Poissons Ratio (y) = -0.03517 0.32417
# Poissons Ratio (z) = -0.06502 0.61714
#
# Static dielectric constant tensor:
#      x y z
#    x 2.076710 0.033040 0.129870 
#    y 0.033040 1.960000 0.061310 
#    z 0.129870 0.061310 2.035850 
# 
# From -- ./inp_files/81111.got.cif
#   From: 2010.05.17/outbox.cif.g08.bks.cpg/sg2_41_cif.got.tgz:81111.got - 2010.06.03 11:33:40.
