data_PCOD9052426
_publ_section_title
;
Structure prediction by ZEFSAII (Michael W. Deem and Ramdas Pophale) SiO2 
 PCOD9052426
Probable space group: P -1
;
_chemical_formula_sum "Si O2"
_cell_formula_units_Z 13
_cell_length_a 13.689456
_cell_length_b 9.018002
_cell_length_c 9.604760
_cell_angle_alpha 45.032012
_cell_angle_beta 125.015528
_cell_angle_gamma 127.328999
_cell_volume 644.447828
_symmetry_space_group_name_H-M "P -1"
_symmetry_group_IT_number 2
_symmetry_cell_setting 'triclinic'
loop_
_space_group_symop_operation_xyz
x,y,z
-x,-y,-z
loop_
_atom_site_type_symbol
_atom_site_label
_atom_site_fract_x
_atom_site_fract_y
_atom_site_fract_z
Si Si1 0.627316 0.212732 0.462404
Si Si2 0.092532 0.287452 0.032104
Si Si3 0.742328 0.229525 0.243410
Si Si4 0.662782 0.697904 0.247003
Si Si5 0.500000 0.000000 0.000000
Si Si6 0.807472 0.002599 0.904685
Si Si7 0.136900 0.139287 0.458421
O O1 0.680646 0.254251 0.322725
O O2 0.603730 0.434959 0.344289
O O3 0.726695 0.147811 0.683533
O O4 0.500000 0.000000 0.500000
O O5 0.161037 0.144000 0.094929
O O6 0.122597 0.285470 0.220764
O O7 0.148150 0.539376 0.857367
O O8 0.942494 0.165590 0.965118
O O9 0.802783 0.037436 0.433724
O O10 0.633394 0.149477 0.090824
O O11 0.562196 0.805822 0.146439
O O12 0.771482 0.729879 0.430665
O O13 0.729516 0.836810 0.072207
O O14 0.000000 0.000000 0.500000
#
# Coordination Sequence:
#
# PCOD9052426 Si02
#       7
#     2   2   2   2   1   2   2
#     4  12  27  44  74 104 136 188 239 289 344 411
#     4  11  24  42  74 101 144 179 229 288 350 416
#     4  11  25  45  71 101 141 183 233 291 341 417
#     4  11  25  47  72 101 144 179 236 296 340 423
#     4  10  26  46  68  98 142 188 228 280 358 402
#     4  11  24  43  70 110 132 184 234 283 355 413
#     4  11  24  44  68 105 143 179 224 284 360 412
#
# _framework density 20.172307
#
# number of rings (size 3 to 8) (size 9 to 14) (size 15 to 20)
#    0.000    0.923    4.615    0.923    4.308    6.154 
#    0.000    5.385    0.000    0.000    0.000    0.000 
#    0.000    0.000    0.000    0.000    0.000    0.000 
#
# Total GULP energy -72458.430013 kJ/mol
# GULP energy per Si atom -5573.725386 kJ/mol
# Density = 2.012639 g / cm^3
# Si number density = 20.172307 Si / 1000 Ang^3
#
#
#
# Elastic Constant Matrix: (Units=GPa)
#
#
# Indices 1 2 3 4 5 6 
#
# 1 46.0923 36.1415 29.6315 -3.3771 16.0270 -1.7229
# 2 36.1415 119.4700 40.3034 -28.0906 9.1811 -3.9791
# 3 29.6315 40.3034 64.6406 -18.5293 -2.7261 12.5249
# 4 -3.3771 -28.0906 -18.5293 22.5554 7.3271 -0.4234
# 5 16.0270 9.1811 -2.7261 7.3271 38.1470 -0.9996
# 6 -1.7229 -3.9791 12.5249 -0.4234 -0.9996 26.3121
#
#
#
# Elastic Compliance Matrix: (Units=1/GPa)
#
#
# Indices 1 2 3 4 5 6 
#
# 1 0.051274 -0.009531 -0.026794 -0.020467 -0.016873 0.013700
# 2 -0.009531 0.016591 -0.000973 0.019710 -0.003778 0.002522
# 3 -0.026794 -0.000973 0.039435 0.023805 0.009215 -0.019940
# 4 -0.020467 0.019710 0.023805 0.089035 -0.011773 -0.008705
# 5 -0.016873 -0.003778 0.009215 -0.011773 0.037005 -0.004846
# 6 0.013700 0.002522 -0.019940 -0.008705 -0.004846 0.048451
#
#
# Mechanical properties :
#
#
# Convention : Reuss Voigt Hill
#
# Bulk Modulus (GPa) = 30.57853 49.15063 39.86458
# Shear Modulus (GPa) = 13.61320 25.67799 19.64560
#
# Velocity S-wave (km/s) = 2.60060 3.57169 3.12411
# Velocity P-wave (km/s) = 4.92027 6.43643 5.72873
#
# Compressibility (1/GPa) = 0.03270268
#
# Stress axis : x y z
#
# Youngs Moduli (GPa) = 19.50304 60.27483 25.35790
#
# Poissons Ratio (x) = 0.57450 0.67945
# Poissons Ratio (y) = 0.18589 0.02468
# Poissons Ratio (z) = 0.52257 0.05865
#
# Static dielectric constant tensor:
#      x y z
#    x 1.674500 0.015970 -0.006360 
#    y 0.015970 1.657220 0.019670 
#    z -0.006360 0.019670 1.684400 
# 
# From -- ./inp_files/22998.got.cif
#   From: 2010.05.17/outbox.cif.g08.bks.cpg/sg2_12_cif.got.tgz:22998.got - 2010.06.03 11:33:40.
