data_PCOD9052535
_publ_section_title
;
Structure prediction by ZEFSAII (Michael W. Deem and Ramdas Pophale) SiO2 
 PCOD9052535
Probable space group: P -1
;
_chemical_formula_sum "Si O2"
_cell_formula_units_Z 13
_cell_length_a 12.170597
_cell_length_b 8.814689
_cell_length_c 11.091378
_cell_angle_alpha 106.649829
_cell_angle_beta 126.673327
_cell_angle_gamma 37.095567
_cell_volume 529.425938
_symmetry_space_group_name_H-M "P -1"
_symmetry_group_IT_number 2
_symmetry_cell_setting 'triclinic'
loop_
_space_group_symop_operation_xyz
x,y,z
-x,-y,-z
loop_
_atom_site_type_symbol
_atom_site_label
_atom_site_fract_x
_atom_site_fract_y
_atom_site_fract_z
Si Si1 0.136416 0.500789 0.509791
Si Si2 0.673823 0.137735 0.377688
Si Si3 0.600222 0.275765 0.107215
Si Si4 0.115713 0.833362 0.301372
Si Si5 0.288425 0.322321 0.298354
Si Si6 0.000000 0.000000 0.000000
Si Si7 0.361845 0.932460 0.136219
O O1 0.225655 0.356369 0.404810
O O2 0.378201 0.329120 0.693439
O O3 0.000000 0.500000 0.500000
O O4 0.928444 0.827604 0.435463
O O5 0.511288 0.326592 0.195734
O O6 0.704344 0.265948 0.505956
O O7 0.551309 0.125765 0.383204
O O8 0.500000 0.500000 0.000000
O O9 0.597899 0.116381 0.992540
O O10 0.862952 0.089383 0.255746
O O11 0.155550 0.611441 0.248687
O O12 0.102964 0.936906 0.191140
O O13 0.245310 0.203838 0.168774
O O14 0.188823 0.951245 0.058059
#
# Coordination Sequence:
#
# PCOD9052535 Si02
#       7
#     2   2   2   2   2   1   2
#     4  12  26  50  78 119 154 210 266 329 403 476
#     4  12  26  49  78 114 162 209 268 329 390 484
#     4  11  26  47  74 112 156 214 265 327 397 467
#     4  11  25  47  76 113 157 205 265 324 401 474
#     4  12  27  47  79 114 154 207 262 329 402 468
#     4  10  26  46  78 114 154 210 252 334 394 472
#     4  11  26  50  76 114 161 206 264 326 406 471
#
# _framework density 24.554897
#
# number of rings (size 3 to 8) (size 9 to 14) (size 15 to 20)
#    0.000    0.615    3.077    3.231    8.615    3.077 
#    0.000    0.000    0.000    0.000    0.000    0.000 
#    0.000    0.000    0.000    0.000    0.000    0.000 
#
# Total GULP energy -72415.761757 kJ/mol
# GULP energy per Si atom -5570.443212 kJ/mol
# Density = 2.449901 g / cm^3
# Si number density = 24.554897 Si / 1000 Ang^3
#
#
#
# Elastic Constant Matrix: (Units=GPa)
#
#
# Indices 1 2 3 4 5 6 
#
# 1 144.6674 50.7630 66.1433 3.8215 -21.4954 -19.2375
# 2 50.7630 119.4512 41.3336 18.3868 0.3339 -6.9983
# 3 66.1433 41.3336 130.6735 23.8789 -15.0140 -6.0229
# 4 3.8215 18.3868 23.8789 37.9579 -4.4996 -6.8974
# 5 -21.4954 0.3339 -15.0140 -4.4996 53.8603 0.5366
# 6 -19.2375 -6.9983 -6.0229 -6.8974 0.5366 33.9649
#
#
#
# Elastic Compliance Matrix: (Units=1/GPa)
#
#
# Indices 1 2 3 4 5 6 
#
# 1 0.011720 -0.003717 -0.005027 0.005310 0.003683 0.006001
# 2 -0.003717 0.010987 -0.001027 -0.004738 -0.002224 -0.000951
# 3 -0.005027 -0.001027 0.011724 -0.006713 0.000731 -0.002355
# 4 0.005310 -0.004738 -0.006713 0.034092 0.003049 0.007716
# 5 0.003683 -0.002224 0.000731 0.003049 0.020488 0.002053
# 6 0.006001 -0.000951 -0.002355 0.007716 0.002053 0.033762
#
#
# Mechanical properties :
#
#
# Convention : Reuss Voigt Hill
#
# Bulk Modulus (GPa) = 67.16924 79.03021 73.09973
# Shear Modulus (GPa) = 33.94896 40.92678 37.43787
#
# Velocity S-wave (km/s) = 3.72233 4.08701 3.90893
# Velocity P-wave (km/s) = 6.77410 7.38421 7.08572
#
# Compressibility (1/GPa) = 0.01488777
#
# Stress axis : x y z
#
# Youngs Moduli (GPa) = 85.32219 91.01994 85.29180
#
# Poissons Ratio (x) = 0.33835 0.42879
# Poissons Ratio (y) = 0.31717 0.08761
# Poissons Ratio (z) = 0.42894 0.09350
#
# Static dielectric constant tensor:
#      x y z
#    x 2.216520 0.490180 -0.492210 
#    y 0.490180 2.886150 -0.773750 
#    z -0.492210 -0.773750 2.634280 
# 
# From -- ./inp_files/413281.got.cif
#   From: 2010.05.17/outbox.cif.g08.bks.cpg/sg2_207_cif.got.tgz:413281.got - 2010.06.03 11:33:40.
