data_PCOD9052254
_publ_section_title
;
Structure prediction by ZEFSAII (Michael W. Deem and Ramdas Pophale) SiO2 
 PCOD9052254
Probable space group: P -1
;
_chemical_formula_sum "Si O2"
_cell_formula_units_Z 10
_cell_length_a 18.154984
_cell_length_b 19.201296
_cell_length_c 5.058167
_cell_angle_alpha 62.548662
_cell_angle_beta 118.979535
_cell_angle_gamma 165.543880
_cell_volume 384.797931
_symmetry_space_group_name_H-M "P -1"
_symmetry_group_IT_number 2
_symmetry_cell_setting 'triclinic'
loop_
_space_group_symop_operation_xyz
x,y,z
-x,-y,-z
loop_
_atom_site_type_symbol
_atom_site_label
_atom_site_fract_x
_atom_site_fract_y
_atom_site_fract_z
Si Si1 0.732463 0.243526 0.779133
Si Si2 0.230213 0.477330 0.412244
Si Si3 0.895245 0.049299 0.794733
Si Si4 0.101404 0.458575 0.701633
Si Si5 0.503214 0.446104 0.847711
O O1 0.835577 0.273049 0.687726
O O2 0.672020 0.271968 0.481271
O O3 0.000000 0.500000 0.000000
O O4 0.500000 0.000000 0.000000
O O5 0.084398 0.260472 0.514311
O O6 0.030882 0.343262 0.524212
O O7 0.562515 0.776521 0.592660
O O8 0.224731 0.518344 0.055370
O O9 0.181950 0.319161 0.015892
O O10 0.780474 0.864102 0.050670
O O11 0.500000 0.500000 0.500000
O O12 0.500000 0.500000 0.000000
#
# Coordination Sequence:
#
# PCOD9052254 Si02
#       5
#     2   2   2   2   2
#     4  11  26  46  71 101 135 178 254 290 347 411
#     4  11  26  43  68  98 146 181 230 281 358 410
#     4  10  26  44  68 107 138 182 228 278 340 425
#     4  11  26  47  70 102 136 193 232 299 348 412
#     4  11  24  45  74 102 138 179 228 279 336 400
#
# _framework density 25.987667999999999
#
# number of rings (size 3 to 8) (size 9 to 14) (size 15 to 20)
#    0.000    1.200    2.000    1.200    2.800   17.600 
#    0.000    0.000    0.000    0.000    0.000    0.000 
#    0.000    0.000    0.000    0.000    0.000    0.000 
#
# Total GULP energy -55675.941498 kJ/mol
# GULP energy per Si atom -5567.594150 kJ/mol
# Density = 2.592852 g / cm^3
# Si number density = 25.987668 Si / 1000 Ang^3
#
#
#
# Elastic Constant Matrix: (Units=GPa)
#
#
# Indices 1 2 3 4 5 6 
#
# 1 88.1078 28.1779 48.0464 -13.4431 -27.1352 -4.3768
# 2 28.1779 197.0962 67.4097 -38.2035 3.9860 4.4487
# 3 48.0464 67.4097 281.2437 -56.1336 0.7296 -2.5197
# 4 -13.4431 -38.2035 -56.1336 40.0980 -2.6226 6.2791
# 5 -27.1352 3.9860 0.7296 -2.6226 51.8865 0.3625
# 6 -4.3768 4.4487 -2.5197 6.2791 0.3625 22.8576
#
#
#
# Elastic Compliance Matrix: (Units=1/GPa)
#
#
# Indices 1 2 3 4 5 6 
#
# 1 0.015933 -0.001594 -0.002149 0.000944 0.008514 0.002730
# 2 -0.001594 0.006607 -0.000139 0.006008 -0.001013 -0.003241
# 3 -0.002149 -0.000139 0.005293 0.006759 -0.000835 -0.001645
# 4 0.000944 0.006008 0.006759 0.042453 0.002166 -0.011940
# 5 0.008514 -0.001013 -0.000835 0.002166 0.023919 0.000761
# 6 0.002730 -0.003241 -0.001645 -0.011940 0.000761 0.047989
#
#
# Mechanical properties :
#
#
# Convention : Reuss Voigt Hill
#
# Bulk Modulus (GPa) = 49.82630 94.85732 72.34181
# Shear Modulus (GPa) = 31.91883 51.15598 41.53740
#
# Velocity S-wave (km/s) = 3.50841 4.44156 4.00227
# Velocity P-wave (km/s) = 5.96880 7.92991 7.01819
#
# Compressibility (1/GPa) = 0.02006972
#
# Stress axis : x y z
#
# Youngs Moduli (GPa) = 62.76251 151.35364 188.94342
#
# Poissons Ratio (x) = 0.24120 0.40607
# Poissons Ratio (y) = 0.10002 0.02620
# Poissons Ratio (z) = 0.13489 0.02099
#
# Static dielectric constant tensor:
#      x y z
#    x 2.264040 0.035200 0.072200 
#    y 0.035200 2.043030 0.025210 
#    z 0.072200 0.025210 2.081250 
# 
# From -- ./inp_files/102386.got.cif
#   From: 2010.05.17/outbox.cif.g08.bks.cpg/sg2_52_cif.got.tgz:102386.got - 2010.06.03 11:33:40.
