data_PCOD9052297
_publ_section_title
;
Structure prediction by ZEFSAII (Michael W. Deem and Ramdas Pophale) SiO2 
 PCOD9052297
Probable space group: P -1
;
_chemical_formula_sum "Si O2"
_cell_formula_units_Z 15
_cell_length_a 9.103958
_cell_length_b 9.747611
_cell_length_c 13.885932
_cell_angle_alpha 148.616679
_cell_angle_beta 95.593006
_cell_angle_gamma 77.505201
_cell_volume 617.224629
_symmetry_space_group_name_H-M "P -1"
_symmetry_group_IT_number 2
_symmetry_cell_setting 'triclinic'
loop_
_space_group_symop_operation_xyz
x,y,z
-x,-y,-z
loop_
_atom_site_type_symbol
_atom_site_label
_atom_site_fract_x
_atom_site_fract_y
_atom_site_fract_z
Si Si1 0.840565 0.091159 0.491545
Si Si2 0.124049 0.228492 0.879319
Si Si3 0.931758 0.085518 0.943375
Si Si4 0.530493 0.739998 0.077406
Si Si5 0.747348 0.744884 0.605026
Si Si6 0.500000 0.500000 0.500000
Si Si7 0.726755 0.656009 0.337389
Si Si8 0.447226 0.465627 0.252495
O O1 0.876079 0.016289 0.339349
O O2 0.747269 0.889093 0.408140
O O3 0.732591 0.389266 0.678462
O O4 0.000000 0.000000 0.500000
O O5 0.292990 0.266114 0.905389
O O6 0.000000 0.500000 0.000000
O O7 0.067457 0.152632 0.931649
O O8 0.802693 0.368108 0.119424
O O9 0.858902 0.868430 0.752421
O O10 0.000000 0.000000 0.000000
O O11 0.413948 0.018826 0.270076
O O12 0.500000 0.500000 0.000000
O O13 0.510782 0.728739 0.953492
O O14 0.680916 0.501939 0.494948
O O15 0.804316 0.680748 0.460893
O O16 0.488760 0.389703 0.320107
O O17 0.551932 0.671632 0.358554
#
# Coordination Sequence:
#
# PCOD9052297 Si02
#       8
#     2   2   2   2   2   1   2   2
#     4  12  24  42  73 105 147 188 248 312 378 450
#     4  12  24  43  68 106 151 189 249 304 385 452
#     4  12  28  47  73 108 152 204 246 316 383 458
#     4  12  24  44  78 110 145 190 250 322 380 449
#     4  11  25  49  73 106 148 190 258 304 376 453
#     4  10  26  44  72 104 146 200 254 306 370 458
#     4  11  23  47  71 103 147 191 247 307 374 450
#     4  11  24  44  72 106 143 195 247 308 379 442
#
# _framework density 24.302334999999999
#
# number of rings (size 3 to 8) (size 9 to 14) (size 15 to 20)
#    0.000    0.533    2.667    6.000    1.867    5.333 
#    0.000    0.000    0.000    0.000    0.000    0.000 
#    0.000    0.000    0.000    0.000    0.000    0.000 
#
# Total GULP energy -83670.998354 kJ/mol
# GULP energy per Si atom -5578.066557 kJ/mol
# Density = 2.424702 g / cm^3
# Si number density = 24.302335 Si / 1000 Ang^3
#
#
#
# Elastic Constant Matrix: (Units=GPa)
#
#
# Indices 1 2 3 4 5 6 
#
# 1 133.4847 31.3770 16.7208 -2.1550 19.4165 6.0944
# 2 31.3770 88.9120 19.4662 -28.7158 -1.1759 18.3766
# 3 16.7208 19.4662 110.1558 -33.2852 -0.5706 2.1465
# 4 -2.1550 -28.7158 -33.2852 37.4286 -2.4381 -16.0508
# 5 19.4165 -1.1759 -0.5706 -2.4381 39.7610 -13.4754
# 6 6.0944 18.3766 2.1465 -16.0508 -13.4754 28.6215
#
#
#
# Elastic Compliance Matrix: (Units=1/GPa)
#
#
# Indices 1 2 3 4 5 6 
#
# 1 0.010770 -0.004697 -0.004154 -0.011560 -0.009535 -0.009938
# 2 -0.004697 0.017414 0.002323 0.015454 0.003828 0.000114
# 3 -0.004154 0.002323 0.015933 0.022783 0.008855 0.015144
# 4 -0.011560 0.015454 0.022783 0.081356 0.028286 0.049772
# 5 -0.009535 0.003828 0.008855 0.028286 0.043771 0.035379
# 6 -0.009938 0.000114 0.015144 0.049772 0.035379 0.080415
#
#
# Mechanical properties :
#
#
# Convention : Reuss Voigt Hill
#
# Bulk Modulus (GPa) = 32.19356 51.96450 42.07903
# Shear Modulus (GPa) = 18.31036 38.82812 28.56924
#
# Velocity S-wave (km/s) = 2.74786 4.00147 3.43239
# Velocity P-wave (km/s) = 4.83152 6.54049 5.74985
#
# Compressibility (1/GPa) = 0.03106211
#
# Stress axis : x y z
#
# Youngs Moduli (GPa) = 92.85188 57.42393 62.76228
#
# Poissons Ratio (x) = 0.26972 0.26068
# Poissons Ratio (y) = 0.43612 -0.14579
# Poissons Ratio (z) = 0.38566 -0.13339
#
# Static dielectric constant tensor:
#      x y z
#    x 1.930430 -0.051870 0.038750 
#    y -0.051870 1.877190 -0.006630 
#    z 0.038750 -0.006630 1.964150 
# 
# From -- ./inp_files/257859.got.cif
#   From: 2010.05.17/outbox.cif.g08.bks.cpg/sg2_129_cif.got.tgz:257859.got - 2010.06.03 11:33:40.
