data_PCOD9052421
_publ_section_title
;
Structure prediction by ZEFSAII (Michael W. Deem and Ramdas Pophale) SiO2 
 PCOD9052421
Probable space group: P -1
;
_chemical_formula_sum "Si O2"
_cell_formula_units_Z 13
_cell_length_a 14.749678
_cell_length_b 7.730080
_cell_length_c 9.283335
_cell_angle_alpha 33.180563
_cell_angle_beta 112.470257
_cell_angle_gamma 111.134521
_cell_volume 533.554929
_symmetry_space_group_name_H-M "P -1"
_symmetry_group_IT_number 2
_symmetry_cell_setting 'triclinic'
loop_
_space_group_symop_operation_xyz
x,y,z
-x,-y,-z
loop_
_atom_site_type_symbol
_atom_site_label
_atom_site_fract_x
_atom_site_fract_y
_atom_site_fract_z
Si Si1 0.878258 0.516933 0.186033
Si Si2 0.298284 0.923277 0.748659
Si Si3 0.000000 0.500000 0.000000
Si Si4 0.517502 0.902212 0.915741
Si Si5 0.588159 0.228734 0.462679
Si Si6 0.219062 0.583403 0.199789
Si Si7 0.187018 0.791523 0.360696
O O1 0.782697 0.305906 0.219798
O O2 0.876231 0.441623 0.407313
O O3 0.968240 0.430543 0.201640
O O4 0.864470 0.883726 0.899141
O O5 0.406112 0.829291 0.842784
O O6 0.283186 0.281926 0.447655
O O7 0.274658 0.866756 0.943762
O O8 0.116286 0.496127 0.116133
O O9 0.569459 0.178357 0.657628
O O10 0.574953 0.588573 0.161136
O O11 0.500000 0.000000 0.000000
O O12 0.699422 0.146599 0.560599
O O13 0.500000 0.000000 0.500000
O O14 0.195858 0.667929 0.290209
#
# Coordination Sequence:
#
# PCOD9052421 Si02
#       7
#     2   2   1   2   2   2   2
#     4  11  24  42  67  90 127 160 213 255 320 379
#     4  11  22  42  64  93 127 175 207 258 310 369
#     4  10  26  46  68  96 118 166 208 264 316 388
#     4  12  23  39  64  93 128 171 219 256 298 367
#     4  12  24  40  62  94 134 169 212 255 307 370
#     4  11  24  42  67  92 131 160 214 260 318 373
#     4  12  24  42  64  97 128 169 202 265 316 365
#
# _framework density 24.364878000000001
#
# number of rings (size 3 to 8) (size 9 to 14) (size 15 to 20)
#    0.000    0.615    0.000    9.231    0.000    6.769 
#    0.000    0.000    0.000    0.000    0.000    0.000 
#    0.000    0.000    0.000    0.000    0.000    0.000 
#
# Total GULP energy -72618.420484 kJ/mol
# GULP energy per Si atom -5586.032345 kJ/mol
# Density = 2.430942 g / cm^3
# Si number density = 24.364878 Si / 1000 Ang^3
#
#
#
# Elastic Constant Matrix: (Units=GPa)
#
#
# Indices 1 2 3 4 5 6 
#
# 1 140.8361 26.1026 -10.5445 13.0214 -34.6229 4.4541
# 2 26.1026 130.1975 -145.4505 31.4795 41.3438 28.1932
# 3 -10.5445 -145.4505 371.5257 -21.7275 -48.9653 -54.7239
# 4 13.0214 31.4795 -21.7275 32.7887 -16.7661 -6.9540
# 5 -34.6229 41.3438 -48.9653 -16.7661 20.6519 25.9955
# 6 4.4541 28.1932 -54.7239 -6.9540 25.9955 43.8594
#
#
#
# Elastic Compliance Matrix: (Units=1/GPa)
#
#
# Indices 1 2 3 4 5 6 
#
# 1 0.005134 0.004333 0.000138 -0.010465 -0.008664 0.000342
# 2 0.004333 0.006189 0.003756 0.002999 0.020785 -0.011576
# 3 0.000138 0.003756 0.004973 0.001557 0.002772 0.002380
# 4 -0.010465 0.002999 0.001557 0.022409 -0.029507 0.022119
# 5 -0.008664 0.020785 0.002772 -0.029507 -0.030921 0.004626
# 6 0.000342 -0.011576 0.002380 0.022119 0.004626 0.033942
#
#
# Mechanical properties :
#
#
# Convention : Reuss Voigt Hill
#
# Bulk Modulus (GPa) = 30.53482 42.53049 36.53265
# Shear Modulus (GPa) = 138.16028 70.95678 104.55853
#
# Velocity S-wave (km/s) = 7.53842 5.40239 6.55796
# Velocity P-wave (km/s) = 9.39840 7.51052 8.50699
#
# Compressibility (1/GPa) = 0.03274950
#
# Stress axis : x y z
#
# Youngs Moduli (GPa) = 194.76121 161.58260 201.09405
#
# Poissons Ratio (x) = -0.70009 -0.02785
# Poissons Ratio (y) = -0.84385 -0.75521
# Poissons Ratio (z) = -0.02697 -0.60683
#
# Static dielectric constant tensor:
#      x y z
#    x 1.876110 -0.014480 -0.021860 
#    y -0.014480 1.985510 0.098670 
#    z -0.021860 0.098670 1.964590 
# 
# From -- ./inp_files/89519.got.cif
#   From: 2010.05.17/outbox.cif.g08.bks.cpg/sg2_45_cif.got.tgz:89519.got - 2010.06.03 11:33:40.
