data_PCOD9052842
_publ_section_title
;
Structure prediction by ZEFSAII (Michael W. Deem and Ramdas Pophale) SiO2 
 PCOD9052842
Probable space group: P -1
;
_chemical_formula_sum "Si O2"
_cell_formula_units_Z 15
_cell_length_a 8.369408
_cell_length_b 13.297805
_cell_length_c 14.599857
_cell_angle_alpha 30.514519
_cell_angle_beta 47.143226
_cell_angle_gamma 64.984894
_cell_volume 543.643828
_symmetry_space_group_name_H-M "P -1"
_symmetry_group_IT_number 2
_symmetry_cell_setting 'triclinic'
loop_
_space_group_symop_operation_xyz
x,y,z
-x,-y,-z
loop_
_atom_site_type_symbol
_atom_site_label
_atom_site_fract_x
_atom_site_fract_y
_atom_site_fract_z
Si Si1 0.500000 0.000000 0.000000
Si Si2 0.030595 0.186972 0.266111
Si Si3 0.611599 0.374620 0.122536
Si Si4 0.640529 0.095502 0.603411
Si Si5 0.701971 0.313394 0.847321
Si Si6 0.188212 0.583936 0.562683
Si Si7 0.012996 0.205832 0.051190
Si Si8 0.695368 0.763965 0.471530
O O1 0.348981 0.863038 0.073765
O O2 0.395257 0.762696 0.281519
O O3 0.754125 0.147193 0.417213
O O4 0.092382 0.182183 0.140906
O O5 0.000000 0.000000 0.500000
O O6 0.193999 0.427586 0.049068
O O7 0.773251 0.256611 0.110726
O O8 0.402980 0.237189 0.384810
O O9 0.500000 0.500000 0.000000
O O10 0.834873 0.246694 0.484703
O O11 0.435782 0.178287 0.605923
O O12 0.514472 0.838690 0.879349
O O13 0.678024 0.525167 0.653559
O O14 0.955620 0.431816 0.710541
O O15 0.208689 0.404004 0.761996
O O16 0.953734 0.973873 0.210211
#
# Coordination Sequence:
#
# PCOD9052842 Si02
#       8
#     1   2   2   2   2   2   2   2
#     4  10  26  52  84 104 142 180 246 322 388 454
#     4  12  25  40  63 103 155 209 253 293 352 429
#     4  12  24  40  64 102 153 204 249 291 350 433
#     4  11  24  45  68 105 150 197 243 302 352 439
#     4  11  25  50  77 109 139 192 244 309 384 447
#     4  11  23  47  79 104 142 188 246 306 376 437
#     4  12  24  42  69 108 155 202 251 298 353 442
#     4  12  25  42  69 105 152 191 244 299 360 439
#
# _framework density 27.591595000000002
#
# number of rings (size 3 to 8) (size 9 to 14) (size 15 to 20)
#    0.000    0.533    4.000    4.400    3.733    0.000 
#    2.400    3.333    0.000    0.000    0.000    0.000 
#    0.000    0.000    0.000    0.000    0.000    0.000 
#
# Total GULP energy -83660.293350 kJ/mol
# GULP energy per Si atom -5577.352890 kJ/mol
# Density = 2.752880 g / cm^3
# Si number density = 27.591595 Si / 1000 Ang^3
#
#
#
# Elastic Constant Matrix: (Units=GPa)
#
#
# Indices 1 2 3 4 5 6 
#
# 1 106.6854 51.9386 53.0628 -13.8101 21.0921 33.2809
# 2 51.9386 97.3153 54.2892 -24.0893 -11.5504 20.3900
# 3 53.0628 54.2892 281.7888 -28.1047 14.4278 20.1086
# 4 -13.8101 -24.0893 -28.1047 51.7562 17.9373 -7.4396
# 5 21.0921 -11.5504 14.4278 17.9373 48.0107 -10.7076
# 6 33.2809 20.3900 20.1086 -7.4396 -10.7076 41.8088
#
#
#
# Elastic Compliance Matrix: (Units=1/GPa)
#
#
# Indices 1 2 3 4 5 6 
#
# 1 0.025007 -0.010369 0.000304 0.006260 -0.020158 -0.019044
# 2 -0.010369 0.017782 -0.002047 0.001543 0.009608 0.003301
# 3 0.000304 -0.002047 0.004418 0.002397 -0.003245 -0.001773
# 4 0.006260 0.001543 0.002397 0.027228 -0.014559 -0.005773
# 5 -0.020158 0.009608 -0.003245 -0.014559 0.043181 0.021389
# 6 -0.019044 0.003301 -0.001773 -0.005773 0.021389 0.042772
#
#
# Mechanical properties :
#
#
# Convention : Reuss Voigt Hill
#
# Bulk Modulus (GPa) = 43.50972 89.37451 66.44212
# Shear Modulus (GPa) = 26.00495 50.08173 38.04334
#
# Velocity S-wave (km/s) = 3.07334 4.26503 3.71725
# Velocity P-wave (km/s) = 5.32891 7.53102 6.52356
#
# Compressibility (1/GPa) = 0.02298337
#
# Stress axis : x y z
#
# Youngs Moduli (GPa) = 39.98960 56.23510 226.36920
#
# Poissons Ratio (x) = 0.58309 -0.06887
# Poissons Ratio (y) = 0.41464 0.46340
# Poissons Ratio (z) = -0.01217 0.11512
#
# Static dielectric constant tensor:
#      x y z
#    x 2.431340 -0.280850 0.028450 
#    y -0.280850 2.395020 -0.000330 
#    z 0.028450 -0.000330 2.107870 
# 
# From -- ./inp_files/503588.got.cif
#   From: 2010.05.17/outbox.cif.g08.bks.cpg/sg2_252_cif.got.tgz:503588.got - 2010.06.03 11:33:40.
