data_PCOD9052079
_publ_section_title
;
Structure prediction by ZEFSAII (Michael W. Deem and Ramdas Pophale) SiO2 
 PCOD9052079
Probable space group: P -1
;
_chemical_formula_sum "Si O2"
_cell_formula_units_Z 15
_cell_length_a 8.788060
_cell_length_b 12.699917
_cell_length_c 7.862939
_cell_angle_alpha 77.736435
_cell_angle_beta 58.695063
_cell_angle_gamma 51.894219
_cell_volume 582.303135
_symmetry_space_group_name_H-M "P -1"
_symmetry_group_IT_number 2
_symmetry_cell_setting 'triclinic'
loop_
_space_group_symop_operation_xyz
x,y,z
-x,-y,-z
loop_
_atom_site_type_symbol
_atom_site_label
_atom_site_fract_x
_atom_site_fract_y
_atom_site_fract_z
Si Si1 0.960541 0.876926 0.230641
Si Si2 0.748699 0.583402 0.543228
Si Si3 0.255602 0.362195 0.867444
Si Si4 0.487834 0.474518 0.816383
Si Si5 0.998595 0.263086 0.074558
Si Si6 0.372097 0.861312 0.848686
Si Si7 0.500000 0.000000 0.000000
Si Si8 0.912641 0.913749 0.608355
O O1 0.940382 0.792262 0.131993
O O2 0.754569 0.034617 0.271907
O O3 0.971970 0.829926 0.429933
O O4 0.183820 0.856038 0.047917
O O5 0.724032 0.637004 0.347673
O O6 0.669071 0.487172 0.622249
O O7 0.579236 0.713658 0.715695
O O8 0.000000 0.500000 0.500000
O O9 0.454034 0.359343 0.837920
O O10 0.212491 0.258051 0.004233
O O11 0.000000 0.500000 0.000000
O O12 0.500000 0.500000 0.000000
O O13 0.247564 0.599564 0.840064
O O14 0.652325 0.004635 0.763581
O O15 0.424653 0.936326 0.922756
O O16 0.013798 0.824767 0.749366
O O17 0.000000 0.000000 0.500000
#
# Coordination Sequence:
#
# PCOD9052079 Si02
#       8
#     2   2   2   2   2   2   1   2
#     4  11  23  52  78 115 164 213 277 344 432 505
#     4  12  26  49  81 121 164 226 281 346 434 506
#     4  10  25  50  76 112 166 212 285 352 415 512
#     4  11  25  52  79 114 157 217 282 349 421 500
#     4  11  24  52  79 119 160 213 278 355 419 512
#     4  11  25  49  80 117 169 212 284 351 419 522
#     4  12  26  46  76 124 166 216 280 342 426 510
#     4  12  26  47  81 118 169 217 277 343 435 512
#
# _framework density 25.759777
#
# number of rings (size 3 to 8) (size 9 to 14) (size 15 to 20)
#    0.000    0.800    4.000    2.800    1.867    4.800 
#    7.200    1.333    0.000    0.000    0.000    0.000 
#    0.000    0.000    0.000    0.000    0.000    0.000 
#
# Total GULP energy -83801.074456 kJ/mol
# GULP energy per Si atom -5586.738297 kJ/mol
# Density = 2.570115 g / cm^3
# Si number density = 25.759777 Si / 1000 Ang^3
#
#
#
# Elastic Constant Matrix: (Units=GPa)
#
#
# Indices 1 2 3 4 5 6 
#
# 1 167.5157 26.1451 38.5504 -14.6610 -18.6357 26.5937
# 2 26.1451 44.7020 15.8747 -1.7231 -13.5897 -0.7968
# 3 38.5504 15.8747 131.4569 -18.2593 1.3004 15.2741
# 4 -14.6610 -1.7231 -18.2593 57.6927 0.0467 -14.8839
# 5 -18.6357 -13.5897 1.3004 0.0467 65.4150 -5.9892
# 6 26.5937 -0.7968 15.2741 -14.8839 -5.9892 51.7995
#
#
#
# Elastic Compliance Matrix: (Units=1/GPa)
#
#
# Indices 1 2 3 4 5 6 
#
# 1 0.007529 -0.003628 -0.001328 0.000547 0.001120 -0.003243
# 2 -0.003628 0.027014 -0.002673 -0.000028 0.004964 0.003632
# 3 -0.001328 -0.002673 0.008783 0.001969 -0.001250 -0.001528
# 4 0.000547 -0.000028 0.001969 0.019320 0.000532 0.004751
# 5 0.001120 0.004964 -0.001250 0.000532 0.016842 0.001970
# 6 -0.003243 0.003632 -0.001528 0.004751 0.001970 0.023069
#
#
# Mechanical properties :
#
#
# Convention : Reuss Voigt Hill
#
# Bulk Modulus (GPa) = 35.62878 56.09056 45.85967
# Shear Modulus (GPa) = 39.31689 52.52172 45.91930
#
# Velocity S-wave (km/s) = 3.91101 4.52032 4.22666
# Velocity P-wave (km/s) = 5.85285 7.00472 6.45454
#
# Compressibility (1/GPa) = 0.02806720
#
# Stress axis : x y z
#
# Youngs Moduli (GPa) = 132.82443 37.01723 113.85951
#
# Poissons Ratio (x) = 0.13429 0.15121
# Poissons Ratio (y) = 0.48187 0.30440
# Poissons Ratio (z) = 0.17640 0.09896
#
# Static dielectric constant tensor:
#      x y z
#    x 1.997170 0.057250 0.077440 
#    y 0.057250 2.087880 0.172090 
#    z 0.077440 0.172090 1.896160 
# 
# From -- ./inp_files/201749.got.cif
#   From: 2010.05.17/outbox.cif.g08.bks.cpg/sg2_101_cif.got.tgz:201749.got - 2010.06.03 11:33:40.
