data_PCOD9052151
_publ_section_title
;
Structure prediction by ZEFSAII (Michael W. Deem and Ramdas Pophale) SiO2 
 PCOD9052151
Probable space group: P -1
;
_chemical_formula_sum "Si O2"
_cell_formula_units_Z 12
_cell_length_a 6.312619
_cell_length_b 19.450584
_cell_length_c 5.666874
_cell_angle_alpha 76.424452
_cell_angle_beta 49.522980
_cell_angle_gamma 65.550102
_cell_volume 481.230487
_symmetry_space_group_name_H-M "P -1"
_symmetry_group_IT_number 2
_symmetry_cell_setting 'triclinic'
loop_
_space_group_symop_operation_xyz
x,y,z
-x,-y,-z
loop_
_atom_site_type_symbol
_atom_site_label
_atom_site_fract_x
_atom_site_fract_y
_atom_site_fract_z
Si Si1 0.167320 0.285836 0.041032
Si Si2 0.082307 0.380085 0.614805
Si Si3 0.383668 0.482655 0.350274
Si Si4 0.190487 0.740052 0.291837
Si Si5 0.057672 0.955019 0.744171
Si Si6 0.276643 0.144889 0.761467
O O1 0.043136 0.366028 0.933779
O O2 0.458306 0.282353 0.986146
O O3 0.312067 0.216517 0.811029
O O4 0.907709 0.263635 0.365770
O O5 0.386403 0.397366 0.406076
O O6 0.933409 0.448677 0.486826
O O7 0.951219 0.319034 0.661691
O O8 0.500000 0.500000 0.500000
O O9 0.500000 0.500000 0.000000
O O10 0.990604 0.819815 0.261495
O O11 0.594108 0.097124 0.463066
O O12 0.000000 0.000000 0.500000
O O13 0.840373 0.906680 0.944476
O O14 0.000000 0.000000 0.000000
#
# Coordination Sequence:
#
# PCOD9052151 Si02
#       6
#     2   2   2   2   2   2
#     4  11  25  44  75 103 147 191 249 305 367 434
#     4  10  26  41  68 108 140 194 242 308 364 440
#     4  11  26  45  72 102 149 190 247 301 372 438
#     4  11  25  44  75 103 147 191 249 305 367 434
#     4  12  28  48  78 110 152 195 244 299 366 440
#     4  11  26  47  72 111 144 198 244 306 364 437
#
# _framework density 24.936077999999998
#
# number of rings (size 3 to 8) (size 9 to 14) (size 15 to 20)
#    0.000    1.000    0.000    4.000   16.333    4.000 
#    0.000    0.000    0.000    0.000    0.000    0.000 
#    0.000    0.000    0.000    0.000    0.000    0.000 
#
# Total GULP energy -66827.894296 kJ/mol
# GULP energy per Si atom -5568.991191 kJ/mol
# Density = 2.487932 g / cm^3
# Si number density = 24.936078 Si / 1000 Ang^3
#
#
#
# Elastic Constant Matrix: (Units=GPa)
#
#
# Indices 1 2 3 4 5 6 
#
# 1 115.7654 51.8559 39.4350 5.2644 -4.2509 -3.6754
# 2 51.8559 60.3326 15.4791 -13.3637 10.2160 8.2422
# 3 39.4350 15.4791 112.5266 -18.2912 -8.3134 6.3428
# 4 5.2644 -13.3637 -18.2912 37.4368 0.5747 -4.2152
# 5 -4.2509 10.2160 -8.3134 0.5747 51.8765 -1.8962
# 6 -3.6754 8.2422 6.3428 -4.2152 -1.8962 39.5209
#
#
#
# Elastic Compliance Matrix: (Units=1/GPa)
#
#
# Indices 1 2 3 4 5 6 
#
# 1 0.021628 -0.021607 -0.006756 -0.013414 0.005328 0.006427
# 2 -0.021607 0.041109 0.004866 0.019137 -0.009656 -0.009786
# 3 -0.006756 0.004866 0.012102 0.008294 0.000237 -0.002690
# 4 -0.013414 0.019137 0.008294 0.039254 -0.004068 -0.002578
# 5 0.005328 -0.009656 0.000237 -0.004068 0.021811 0.003084
# 6 0.006427 -0.009786 -0.002690 -0.002578 0.003084 0.028246
#
#
# Mechanical properties :
#
#
# Convention : Reuss Voigt Hill
#
# Bulk Modulus (GPa) = 35.91371 55.79605 45.85488
# Shear Modulus (GPa) = 22.68339 37.89047 30.28693
#
# Velocity S-wave (km/s) = 3.01933 3.90231 3.48887
# Velocity P-wave (km/s) = 5.15643 6.53668 5.88715
#
# Compressibility (1/GPa) = 0.02784452
#
# Stress axis : x y z
#
# Youngs Moduli (GPa) = 46.23609 24.32586 82.62805
#
# Poissons Ratio (x) = 0.52562 0.55826
# Poissons Ratio (y) = 0.99904 -0.40210
# Poissons Ratio (z) = 0.31239 -0.11838
#
# Static dielectric constant tensor:
#      x y z
#    x 2.137790 0.105740 0.024140 
#    y 0.105740 1.923780 -0.032040 
#    z 0.024140 -0.032040 2.036270 
# 
# From -- ./inp_files/5675.got.cif
#   From: 2010.05.17/outbox.cif.g08.bks.cpg/sg2_3_cif.got.tgz:5675.got - 2010.06.03 11:33:40.
