data_PCOD9052361
_publ_section_title
;
Structure prediction by ZEFSAII (Michael W. Deem and Ramdas Pophale) SiO2 
 PCOD9052361
Probable space group: P -1
;
_chemical_formula_sum "Si O2"
_cell_formula_units_Z 16
_cell_length_a 19.444494
_cell_length_b 19.692470
_cell_length_c 10.108663
_cell_angle_alpha 138.278887
_cell_angle_beta 141.241271
_cell_angle_gamma 14.928668
_cell_volume 623.661769
_symmetry_space_group_name_H-M "P -1"
_symmetry_group_IT_number 2
_symmetry_cell_setting 'triclinic'
loop_
_space_group_symop_operation_xyz
x,y,z
-x,-y,-z
loop_
_atom_site_type_symbol
_atom_site_label
_atom_site_fract_x
_atom_site_fract_y
_atom_site_fract_z
Si Si1 0.869499 0.749797 0.671901
Si Si2 0.888006 0.583927 0.250619
Si Si3 0.489355 0.748267 0.179459
Si Si4 0.274262 0.792702 0.697403
Si Si5 0.730110 0.638109 0.828916
Si Si6 0.824055 0.058214 0.756551
Si Si7 0.152484 0.192441 0.647871
Si Si8 0.482033 0.400243 0.496497
O O1 0.902814 0.685059 0.780710
O O2 0.186521 0.523225 0.781636
O O3 0.771740 0.727984 0.422150
O O4 0.647869 0.022775 0.688287
O O5 0.980072 0.615676 0.378215
O O6 0.691282 0.710588 0.024317
O O7 0.422364 0.752634 0.227030
O O8 0.297353 0.858929 0.937990
O O9 0.356588 0.618862 0.642146
O O10 0.484354 0.639774 0.669043
O O11 0.000000 0.000000 0.500000
O O12 0.683264 0.556253 0.639894
O O13 0.058621 0.346279 0.855234
O O14 0.489504 0.889065 0.736421
O O15 0.746044 0.167810 0.653550
O O16 0.937654 0.845943 0.583500
O O17 0.000000 0.000000 0.000000
#
# Coordination Sequence:
#
# PCOD9052361 Si02
#       8
#     2   2   2   2   2   2   2   2
#     4  11  29  47  74 109 143 196 236 307 358 438
#     4  11  25  49  76 104 147 189 249 290 373 426
#     4  12  28  49  76 108 152 190 244 303 364 435
#     4  11  26  45  74 102 147 190 248 296 366 430
#     4  11  26  44  74 104 145 188 238 301 361 423
#     4  11  26  48  76 107 150 196 241 300 370 435
#     4  11  26  46  72 109 144 185 245 298 356 434
#     4  10  26  45  69 108 142 191 244 303 356 439
#
# _framework density 25.654931000000001
#
# number of rings (size 3 to 8) (size 9 to 14) (size 15 to 20)
#    0.000    1.000    1.250    2.250   15.750    5.500 
#    0.000    0.000    0.000    0.000    0.000    0.000 
#    0.000    0.000    0.000    0.000    0.000    0.000 
#
# Total GULP energy -89124.463134 kJ/mol
# GULP energy per Si atom -5570.278946 kJ/mol
# Density = 2.559654 g / cm^3
# Si number density = 25.654931 Si / 1000 Ang^3
#
#
#
# Elastic Constant Matrix: (Units=GPa)
#
#
# Indices 1 2 3 4 5 6 
#
# 1 79.2915 60.4684 6.4386 -4.0627 -3.2637 28.4121
# 2 60.4684 95.4598 1.5245 8.1757 -5.8212 8.2660
# 3 6.4386 1.5245 141.9047 -0.1188 -10.2277 -4.8835
# 4 -4.0627 8.1757 -0.1188 31.5481 10.8238 -6.3597
# 5 -3.2637 -5.8212 -10.2277 10.8238 27.6000 0.3674
# 6 28.4121 8.2660 -4.8835 -6.3597 0.3674 37.8055
#
#
#
# Elastic Compliance Matrix: (Units=1/GPa)
#
#
# Indices 1 2 3 4 5 6 
#
# 1 0.040046 -0.024218 -0.002671 0.008083 -0.004216 -0.023745
# 2 -0.024218 0.026142 0.001698 -0.010120 0.007102 0.010932
# 3 -0.002671 0.001698 0.007470 -0.001433 0.003341 0.002328
# 4 0.008083 -0.010120 -0.001433 0.042304 -0.018343 0.003248
# 5 -0.004216 0.007102 0.003341 -0.018343 0.045683 -0.001483
# 6 -0.023745 0.010932 0.002328 0.003248 -0.001483 0.042768
#
#
# Mechanical properties :
#
#
# Convention : Reuss Voigt Hill
#
# Bulk Modulus (GPa) = 42.96274 50.39099 46.67687
# Shear Modulus (GPa) = 19.04376 35.93902 27.49139
#
# Velocity S-wave (km/s) = 2.72748 3.74687 3.27706
# Velocity P-wave (km/s) = 5.16736 6.19703 5.70547
#
# Compressibility (1/GPa) = 0.02327598
#
# Stress axis : x y z
#
# Youngs Moduli (GPa) = 24.97110 38.25238 133.87497
#
# Poissons Ratio (x) = 0.92638 0.35759
# Poissons Ratio (y) = 0.60474 -0.22727
# Poissons Ratio (z) = 0.06670 -0.06494
#
# Static dielectric constant tensor:
#      x y z
#    x 2.419740 -0.296770 0.047960 
#    y -0.296770 2.270280 -0.026480 
#    z 0.047960 -0.026480 1.996450 
# 
# From -- ./inp_files/336773.got.cif
#   From: 2010.05.17/outbox.cif.g08.bks.cpg/sg2_169_cif.got.tgz:336773.got - 2010.06.03 11:33:40.
