data_PCOD9052744
_publ_section_title
;
Structure prediction by ZEFSAII (Michael W. Deem and Ramdas Pophale) SiO2 
 PCOD9052744
Probable space group: P -1
;
_chemical_formula_sum "Si O2"
_cell_formula_units_Z 16
_cell_length_a 16.930607
_cell_length_b 8.644838
_cell_length_c 11.952744
_cell_angle_alpha 98.284493
_cell_angle_beta 136.406891
_cell_angle_gamma 50.115774
_cell_volume 736.720361
_symmetry_space_group_name_H-M "P -1"
_symmetry_group_IT_number 2
_symmetry_cell_setting 'triclinic'
loop_
_space_group_symop_operation_xyz
x,y,z
-x,-y,-z
loop_
_atom_site_type_symbol
_atom_site_label
_atom_site_fract_x
_atom_site_fract_y
_atom_site_fract_z
Si Si1 0.449155 0.296110 0.098073
Si Si2 0.183225 0.937580 0.552803
Si Si3 0.892634 0.175565 0.083180
Si Si4 0.378665 0.411253 0.776037
Si Si5 0.024101 0.216026 0.000814
Si Si6 0.286064 0.216525 0.270303
Si Si7 0.300400 0.136590 0.018614
Si Si8 0.985815 0.375580 0.561821
O O1 0.660447 0.105150 0.327771
O O2 0.390426 0.179409 0.042176
O O3 0.306740 0.551909 0.051048
O O4 0.425268 0.367013 0.950986
O O5 0.294417 0.663513 0.673547
O O6 0.075735 0.128066 0.567398
O O7 0.036976 0.056564 0.318361
O O8 0.954702 0.202777 0.039147
O O9 0.900793 0.987317 0.033768
O O10 0.222022 0.447349 0.603638
O O11 0.562195 0.157994 0.875106
O O12 0.184284 0.165650 0.194330
O O13 0.848563 0.499012 0.800318
O O14 0.277367 0.224645 0.127843
O O15 0.500000 0.000000 0.500000
O O16 0.106943 0.296143 0.782729
O O17 0.000000 0.500000 0.500000
#
# Coordination Sequence:
#
# PCOD9052744 Si02
#       8
#     2   2   2   2   2   2   2   2
#     4  12  24  45  67 101 141 182 227 275 340 418
#     4  12  27  40  70 102 140 184 226 277 339 412
#     4  11  25  46  72  97 138 182 226 285 345 399
#     4  12  26  41  66 104 144 175 226 274 339 413
#     4  10  26  49  70 101 133 177 235 290 340 402
#     4  11  27  47  74 102 135 175 237 288 343 399
#     4  12  26  44  70 102 139 185 223 284 341 410
#     4  12  24  44  69  98 140 186 225 271 342 415
#
# _framework density 21.717876
#
# number of rings (size 3 to 8) (size 9 to 14) (size 15 to 20)
#    0.000    0.500    5.000    1.875    7.000    1.000 
#    0.000    2.500    0.000    0.000    0.000    0.000 
#    0.000    0.000    0.000    0.000    0.000    0.000 
#
# Total GULP energy -89635.589897 kJ/mol
# GULP energy per Si atom -5602.224369 kJ/mol
# Density = 2.166845 g / cm^3
# Si number density = 21.717876 Si / 1000 Ang^3
#
#
#
# Elastic Constant Matrix: (Units=GPa)
#
#
# Indices 1 2 3 4 5 6 
#
# 1 40.7222 2.0413 6.0330 2.9016 13.7528 1.8257
# 2 2.0413 95.4804 27.9085 -5.8784 -3.0079 -0.9697
# 3 6.0330 27.9085 104.7210 0.8658 10.7774 -4.4664
# 4 2.9016 -5.8784 0.8658 26.8417 -6.7618 2.7817
# 5 13.7528 -3.0079 10.7774 -6.7618 26.2875 0.3218
# 6 1.8257 -0.9697 -4.4664 2.7817 0.3218 35.0670
#
#
#
# Elastic Compliance Matrix: (Units=1/GPa)
#
#
# Indices 1 2 3 4 5 6 
#
# 1 0.031749 -0.002054 0.000754 -0.008713 -0.019386 -0.000745
# 2 -0.002054 0.012004 -0.003654 0.004285 0.005053 -0.000413
# 3 0.000754 -0.003654 0.011208 -0.002966 -0.006190 0.001579
# 4 -0.008713 0.004285 -0.002966 0.044032 0.017633 -0.003460
# 5 -0.019386 0.005053 -0.006190 0.017633 0.055854 -0.001551
# 6 -0.000745 -0.000413 0.001579 -0.003460 -0.001551 0.029034
#
#
# Mechanical properties :
#
#
# Convention : Reuss Voigt Hill
#
# Bulk Modulus (GPa) = 22.19565 34.76546 28.48056
# Shear Modulus (GPa) = 23.94554 31.30198 27.62376
#
# Velocity S-wave (km/s) = 3.32410 3.80056 3.57029
# Velocity P-wave (km/s) = 4.99751 5.94151 5.48984
#
# Compressibility (1/GPa) = 0.04505387
#
# Stress axis : x y z
#
# Youngs Moduli (GPa) = 31.49677 83.30525 89.21828
#
# Poissons Ratio (x) = 0.17109 -0.06724
# Poissons Ratio (y) = 0.06469 0.32599
# Poissons Ratio (z) = -0.02374 0.30439
#
# Static dielectric constant tensor:
#      x y z
#    x 1.816070 0.018330 0.012980 
#    y 0.018330 1.811180 -0.010230 
#    z 0.012980 -0.010230 1.742390 
# 
# From -- ./inp_files/270269.got.cif
#   From: 2010.05.17/outbox.cif.g08.bks.cpg/sg2_136_cif.got.tgz:270269.got - 2010.06.03 11:33:40.
