data_PCOD9052355
_publ_section_title
;
Structure prediction by ZEFSAII (Michael W. Deem and Ramdas Pophale) SiO2 
 PCOD9052355
Probable space group: P -1
;
_chemical_formula_sum "Si O2"
_cell_formula_units_Z 14
_cell_length_a 20.286976
_cell_length_b 9.919343
_cell_length_c 11.982344
_cell_angle_alpha 48.825191
_cell_angle_beta 153.012632
_cell_angle_gamma 144.356940
_cell_volume 617.571907
_symmetry_space_group_name_H-M "P -1"
_symmetry_group_IT_number 2
_symmetry_cell_setting 'triclinic'
loop_
_space_group_symop_operation_xyz
x,y,z
-x,-y,-z
loop_
_atom_site_type_symbol
_atom_site_label
_atom_site_fract_x
_atom_site_fract_y
_atom_site_fract_z
Si Si1 0.208531 0.612894 0.797290
Si Si2 0.904971 0.669016 0.009518
Si Si3 0.471372 0.732908 0.719940
Si Si4 0.596451 0.242237 0.654061
Si Si5 0.712329 0.888464 0.574667
Si Si6 0.601191 0.875131 0.159858
Si Si7 0.225073 0.233754 0.703881
O O1 0.178798 0.430727 0.938713
O O2 0.000000 0.500000 0.500000
O O3 0.301963 0.857078 0.870691
O O4 0.369002 0.694516 0.903485
O O5 0.817193 0.451398 0.912293
O O6 0.827563 0.797576 0.783866
O O7 0.133922 0.856661 0.270728
O O8 0.434656 0.715520 0.541727
O O9 0.288993 0.491450 0.639087
O O10 0.526564 0.980377 0.702704
O O11 0.652678 0.753904 0.016787
O O12 0.470874 0.261438 0.538797
O O13 0.652729 0.896024 0.356775
O O14 0.690478 0.796505 0.261771
O O15 0.000000 0.000000 0.500000
#
# Coordination Sequence:
#
# PCOD9052355 Si02
#       7
#     2   2   2   2   2   2   2
#     4  11  23  39  65 103 139 175 212 280 347 411
#     4  11  23  39  64 102 134 176 219 276 351 406
#     4  10  26  45  68  99 128 190 237 276 337 411
#     4  11  23  45  69  93 140 178 229 286 339 406
#     4  11  24  40  67 105 134 174 223 284 350 414
#     4  11  24  42  68 103 137 175 227 278 349 408
#     4  11  26  47  70 100 140 184 234 284 336 408
#
# _framework density 22.669425
#
# number of rings (size 3 to 8) (size 9 to 14) (size 15 to 20)
#    0.000    1.143    2.857    2.143    4.000    8.000 
#    0.000    2.857    0.000    0.000    0.000    0.000 
#    0.000    0.000    0.000    0.000    0.000    0.000 
#
# Total GULP energy -78296.446409 kJ/mol
# GULP energy per Si atom -5592.603315 kJ/mol
# Density = 2.261783 g / cm^3
# Si number density = 22.669425 Si / 1000 Ang^3
#
#
#
# Elastic Constant Matrix: (Units=GPa)
#
#
# Indices 1 2 3 4 5 6 
#
# 1 85.6463 21.1161 44.1449 7.6926 -22.6207 -10.1481
# 2 21.1161 122.9872 58.7064 13.6326 -13.5356 6.1216
# 3 44.1449 58.7064 130.2268 28.7989 -13.3228 10.7063
# 4 7.6926 13.6326 28.7989 51.5239 1.8933 -3.0544
# 5 -22.6207 -13.5356 -13.3228 1.8933 24.3207 -3.2010
# 6 -10.1481 6.1216 10.7063 -3.0544 -3.2010 26.9060
#
#
#
# Elastic Compliance Matrix: (Units=1/GPa)
#
#
# Indices 1 2 3 4 5 6 
#
# 1 0.021300 0.000974 -0.006976 0.000553 0.018176 0.012813
# 2 0.000974 0.010693 -0.004595 -0.000555 0.004413 0.000225
# 3 -0.006976 -0.004595 0.013868 -0.005894 -0.002045 -0.008017
# 4 0.000553 -0.000555 -0.005894 0.023207 -0.004197 0.004816
# 5 0.018176 0.004413 -0.002045 -0.004197 0.061462 0.013501
# 6 0.012813 0.000225 -0.008017 0.004816 0.013501 0.047291
#
#
# Mechanical properties :
#
#
# Convention : Reuss Voigt Hill
#
# Bulk Modulus (GPa) = 40.53750 65.19944 52.86847
# Shear Modulus (GPa) = 24.12683 34.87631 29.50157
#
# Velocity S-wave (km/s) = 3.26588 3.92659 3.61138
# Velocity P-wave (km/s) = 5.66941 7.02716 6.38448
#
# Compressibility (1/GPa) = 0.02466851
#
# Stress axis : x y z
#
# Youngs Moduli (GPa) = 46.94733 93.51911 72.10654
#
# Poissons Ratio (x) = -0.09108 0.50300
# Poissons Ratio (y) = -0.04573 0.33132
# Poissons Ratio (z) = 0.32750 0.42970
#
# Static dielectric constant tensor:
#      x y z
#    x 1.806840 -0.034930 -0.012660 
#    y -0.034930 1.903480 0.017480 
#    z -0.012660 0.017480 1.843420 
# 
# From -- ./inp_files/542866.got.cif
#   From: 2010.05.17/outbox.cif.g08.bks.cpg/sg2_272_cif.got.tgz:542866.got - 2010.06.03 11:33:40.
