data_PCOD9052712
_publ_section_title
;
Structure prediction by ZEFSAII (Michael W. Deem and Ramdas Pophale) SiO2 
 PCOD9052712
Probable space group: P -1
;
_chemical_formula_sum "Si O2"
_cell_formula_units_Z 10
_cell_length_a 13.427082
_cell_length_b 5.540961
_cell_length_c 9.669802
_cell_angle_alpha 127.266062
_cell_angle_beta 130.091675
_cell_angle_gamma 76.675943
_cell_volume 422.703247
_symmetry_space_group_name_H-M "P -1"
_symmetry_group_IT_number 2
_symmetry_cell_setting 'triclinic'
loop_
_space_group_symop_operation_xyz
x,y,z
-x,-y,-z
loop_
_atom_site_type_symbol
_atom_site_label
_atom_site_fract_x
_atom_site_fract_y
_atom_site_fract_z
Si Si1 0.626366 0.864533 0.603572
Si Si2 0.506808 0.638849 0.898894
Si Si3 0.996580 0.137646 0.391130
Si Si4 0.142384 0.765732 0.218179
Si Si5 0.283479 0.294340 0.110168
O O1 0.605999 0.580983 0.377320
O O2 0.613342 0.816014 0.738706
O O3 0.500000 0.000000 0.500000
O O4 0.783028 0.066530 0.794426
O O5 0.646380 0.615377 0.942926
O O6 0.500000 0.500000 0.000000
O O7 0.500000 0.000000 0.000000
O O8 0.000000 0.500000 0.500000
O O9 0.117258 0.035118 0.386081
O O10 0.000000 0.000000 0.500000
O O11 0.856227 0.950885 0.131968
O O12 0.249802 0.565021 0.270643
O O13 0.000000 0.500000 0.000000
#
# Coordination Sequence:
#
# PCOD9052712 Si02
#       5
#     2   2   2   2   2
#     4  12  26  49  81 111 155 209 267 314 388 475
#     4  12  29  46  73 113 154 197 253 324 386 444
#     4  11  29  48  78 115 156 199 258 328 395 451
#     4  10  26  48  77 107 153 206 263 310 388 467
#     4  11  27  49  78 109 157 207 268 312 386 475
#
# _framework density 23.657257999999999
#
# number of rings (size 3 to 8) (size 9 to 14) (size 15 to 20)
#    0.000    0.800    2.000    1.800   16.800    1.600 
#    0.000    0.000    0.000    0.000    0.000    0.000 
#    0.000    0.000    0.000    0.000    0.000    0.000 
#
# Total GULP energy -55729.136065 kJ/mol
# GULP energy per Si atom -5572.913607 kJ/mol
# Density = 2.360341 g / cm^3
# Si number density = 23.657258 Si / 1000 Ang^3
#
#
#
# Elastic Constant Matrix: (Units=GPa)
#
#
# Indices 1 2 3 4 5 6 
#
# 1 186.4724 67.3064 44.7485 7.3875 -13.5648 4.6308
# 2 67.3064 169.8033 76.0563 -1.8246 -33.8225 -0.6677
# 3 44.7485 76.0563 108.4356 -6.7614 -8.1647 10.5622
# 4 7.3875 -1.8246 -6.7614 53.2020 4.4083 -11.1919
# 5 -13.5648 -33.8225 -8.1647 4.4083 41.5260 6.4891
# 6 4.6308 -0.6677 10.5622 -11.1919 6.4891 44.5957
#
#
#
# Elastic Compliance Matrix: (Units=1/GPa)
#
#
# Indices 1 2 3 4 5 6 
#
# 1 0.006472 -0.001874 -0.001316 -0.001351 0.000600 -0.000815
# 2 -0.001874 0.010908 -0.006462 -0.000611 0.006953 0.000723
# 3 -0.001316 -0.006462 0.014450 0.001457 -0.002594 -0.002639
# 4 -0.001351 -0.000611 0.001457 0.020611 -0.003699 0.005497
# 5 0.000600 0.006953 -0.002594 -0.003699 0.030561 -0.004719
# 6 -0.000815 0.000723 -0.002639 0.005497 -0.004719 0.025210
#
#
# Mechanical properties :
#
#
# Convention : Reuss Voigt Hill
#
# Bulk Modulus (GPa) = 79.83804 93.43708 86.63756
# Shear Modulus (GPa) = 37.96692 46.30475 42.13583
#
# Velocity S-wave (km/s) = 4.01043 4.42896 4.22488
# Velocity P-wave (km/s) = 7.43410 8.10778 7.77824
#
# Compressibility (1/GPa) = 0.01252536
#
# Stress axis : x y z
#
# Youngs Moduli (GPa) = 154.50007 91.67659 69.20216
#
# Poissons Ratio (x) = 0.17183 0.09108
# Poissons Ratio (y) = 0.28959 0.44720
# Poissons Ratio (z) = 0.20334 0.59244
#
# Static dielectric constant tensor:
#      x y z
#    x 1.945160 0.144690 -0.017520 
#    y 0.144690 2.251490 0.065370 
#    z -0.017520 0.065370 1.932450 
# 
# From -- ./inp_files/49609.got.cif
#   From: 2010.05.17/outbox.cif.g08.bks.cpg/sg2_25_cif.got.tgz:49609.got - 2010.06.03 11:33:40.
