data_PCOD9052080
_publ_section_title
;
Structure prediction by ZEFSAII (Michael W. Deem and Ramdas Pophale) SiO2 
 PCOD9052080
Probable space group: P -1
;
_chemical_formula_sum "Si O2"
_cell_formula_units_Z 14
_cell_length_a 8.869878
_cell_length_b 21.674796
_cell_length_c 5.458660
_cell_angle_alpha 61.511140
_cell_angle_beta 71.965373
_cell_angle_gamma 39.267004
_cell_volume 580.426580
_symmetry_space_group_name_H-M "P -1"
_symmetry_group_IT_number 2
_symmetry_cell_setting 'triclinic'
loop_
_space_group_symop_operation_xyz
x,y,z
-x,-y,-z
loop_
_atom_site_type_symbol
_atom_site_label
_atom_site_fract_x
_atom_site_fract_y
_atom_site_fract_z
Si Si1 0.367423 0.762319 0.405764
Si Si2 0.588956 0.390896 0.579193
Si Si3 0.092895 0.503807 0.699724
Si Si4 0.894063 0.723012 0.431300
Si Si5 0.626331 0.914545 0.888737
Si Si6 0.837822 0.964366 0.428014
Si Si7 0.520859 0.195091 0.234035
O O1 0.409465 0.663589 0.557414
O O2 0.465380 0.759762 0.618081
O O3 0.086035 0.877771 0.325487
O O4 0.470241 0.767317 0.100720
O O5 0.500000 0.500000 0.500000
O O6 0.377004 0.418443 0.763405
O O7 0.874487 0.303636 0.624861
O O8 0.000000 0.500000 0.500000
O O9 0.992679 0.615076 0.519667
O O10 0.000000 0.500000 0.000000
O O11 0.724558 0.768316 0.668615
O O12 0.726039 0.810797 0.145435
O O13 0.837690 0.895904 0.730639
O O14 0.404062 0.971344 0.721345
O O15 0.500000 0.000000 0.000000
O O16 0.754668 0.066772 0.383097
#
# Coordination Sequence:
#
# PCOD9052080 Si02
#       7
#     2   2   2   2   2   2   2
#     4  12  27  47  74 107 150 198 253 311 377 444
#     4  10  25  50  76 113 142 196 252 313 378 453
#     4  11  25  52  79 110 150 189 248 316 382 446
#     4  11  24  47  78 108 148 201 248 311 377 451
#     4  11  23  44  71 108 156 197 259 311 374 447
#     4  11  26  43  71 110 153 208 254 311 371 456
#     4  12  26  46  72 109 151 199 248 305 378 445
#
# _framework density 24.120189
#
# number of rings (size 3 to 8) (size 9 to 14) (size 15 to 20)
#    0.000    0.857    1.429    4.286    6.000    1.143 
#    2.571    4.286    0.000    0.000    0.000    0.000 
#    0.000    0.000    0.000    0.000    0.000    0.000 
#
# Total GULP energy -77980.002141 kJ/mol
# GULP energy per Si atom -5570.000153 kJ/mol
# Density = 2.406529 g / cm^3
# Si number density = 24.120189 Si / 1000 Ang^3
#
#
#
# Elastic Constant Matrix: (Units=GPa)
#
#
# Indices 1 2 3 4 5 6 
#
# 1 124.7087 50.3482 54.0774 23.7661 -5.5878 -6.6330
# 2 50.3482 119.6085 37.7373 9.3402 -10.4307 -1.1919
# 3 54.0774 37.7373 134.9402 13.2919 -13.1267 4.9403
# 4 23.7661 9.3402 13.2919 43.6591 2.6629 -12.9752
# 5 -5.5878 -10.4307 -13.1267 2.6629 25.2216 14.6812
# 6 -6.6330 -1.1919 4.9403 -12.9752 14.6812 60.8298
#
#
#
# Elastic Compliance Matrix: (Units=1/GPa)
#
#
# Indices 1 2 3 4 5 6 
#
# 1 0.011774 -0.003596 -0.003362 -0.004376 -0.000568 0.000690
# 2 -0.003596 0.010564 -0.001057 -0.000539 0.003727 -0.001114
# 3 -0.003362 -0.001057 0.009989 -0.002296 0.006099 -0.003160
# 4 -0.004376 -0.000539 -0.002296 0.029245 -0.010390 0.008444
# 5 -0.000568 0.003727 0.006099 -0.010390 0.054574 -0.015872
# 6 0.000690 -0.001114 -0.003160 0.008444 -0.015872 0.022381
#
#
# Mechanical properties :
#
#
# Convention : Reuss Voigt Hill
#
# Bulk Modulus (GPa) = 61.36310 73.73148 67.54729
# Shear Modulus (GPa) = 31.25227 41.74841 36.50034
#
# Velocity S-wave (km/s) = 3.60347 4.16486 3.89430
# Velocity P-wave (km/s) = 6.54287 7.33231 6.94881
#
# Compressibility (1/GPa) = 0.01629644
#
# Stress axis : x y z
#
# Youngs Moduli (GPa) = 84.93474 94.66256 100.11355
#
# Poissons Ratio (x) = 0.34043 0.33659
# Poissons Ratio (y) = 0.30544 0.10578
# Poissons Ratio (z) = 0.28556 0.10002
#
# Static dielectric constant tensor:
#      x y z
#    x 2.094050 0.073360 0.029590 
#    y 0.073360 1.966090 -0.060100 
#    z 0.029590 -0.060100 1.901140 
# 
# From -- ./inp_files/52410.got.cif
#   From: 2010.05.17/outbox.cif.g08.bks.cpg/sg2_27_cif.got.tgz:52410.got - 2010.06.03 11:33:40.
