data_PCOD9052158
_publ_section_title
;
Structure prediction by ZEFSAII (Michael W. Deem and Ramdas Pophale) SiO2 
 PCOD9052158
Probable space group: P -1
;
_chemical_formula_sum "Si O2"
_cell_formula_units_Z 13
_cell_length_a 5.103593
_cell_length_b 8.941025
_cell_length_c 21.472192
_cell_angle_alpha 40.231251
_cell_angle_beta 64.594412
_cell_angle_gamma 79.335016
_cell_volume 554.325905
_symmetry_space_group_name_H-M "P -1"
_symmetry_group_IT_number 2
_symmetry_cell_setting 'triclinic'
loop_
_space_group_symop_operation_xyz
x,y,z
-x,-y,-z
loop_
_atom_site_type_symbol
_atom_site_label
_atom_site_fract_x
_atom_site_fract_y
_atom_site_fract_z
Si Si1 0.284996 0.499290 0.387789
Si Si2 0.578541 0.059949 0.320674
Si Si3 0.095935 0.939718 0.595049
Si Si4 0.932205 0.530905 0.302131
Si Si5 0.936596 0.499915 0.080560
Si Si6 0.500000 0.500000 0.500000
Si Si7 0.630496 0.277569 0.918061
O O1 0.051269 0.600929 0.338261
O O2 0.310497 0.550016 0.441566
O O3 0.625145 0.601705 0.297571
O O4 0.220447 0.214030 0.479206
O O5 0.705852 0.155990 0.344088
O O6 0.814808 0.220153 0.199141
O O7 0.242696 0.087282 0.338156
O O8 0.586462 0.786923 0.412194
O O9 0.110709 0.754506 0.598251
O O10 0.160982 0.618221 0.195508
O O11 0.654061 0.611361 0.084549
O O12 0.186171 0.641311 0.060804
O O13 0.000000 0.500000 0.000000
O O14 0.500000 0.000000 0.000000
#
# Coordination Sequence:
#
# PCOD9052158 Si02
#       7
#     2   2   2   2   2   1   2
#     4  11  24  38  64  98 131 182 214 280 328 421
#     4  11  22  42  68  94 137 184 216 285 343 415
#     4  11  21  40  65  96 131 168 228 270 331 402
#     4  12  22  41  67  94 131 171 232 271 351 397
#     4  12  25  48  76 106 142 192 245 299 370 435
#     4  10  26  42  60  98 144 174 228 272 348 418
#     4  12  27  48  73 107 144 185 245 312 361 422
#
# _framework density 23.451909000000001
#
# number of rings (size 3 to 8) (size 9 to 14) (size 15 to 20)
#    0.000    0.615    3.077    5.538    0.000    8.000 
#    0.000    0.000    0.000    0.000    0.000    0.000 
#    0.000    0.000    0.000    0.000    0.000    0.000 
#
# Total GULP energy -72376.107907 kJ/mol
# GULP energy per Si atom -5567.392916 kJ/mol
# Density = 2.339853 g / cm^3
# Si number density = 23.451909 Si / 1000 Ang^3
#
#
#
# Elastic Constant Matrix: (Units=GPa)
#
#
# Indices 1 2 3 4 5 6 
#
# 1 90.8925 12.6246 23.6418 -2.4753 -11.3462 30.2768
# 2 12.6246 59.2137 27.4016 -0.2511 -0.8935 28.6331
# 3 23.6418 27.4016 81.4714 6.0637 -6.7407 16.5917
# 4 -2.4753 -0.2511 6.0637 32.9190 5.1442 12.0425
# 5 -11.3462 -0.8935 -6.7407 5.1442 27.8413 10.6062
# 6 30.2768 28.6331 16.5917 12.0425 10.6062 41.7820
#
#
#
# Elastic Compliance Matrix: (Units=1/GPa)
#
#
# Indices 1 2 3 4 5 6 
#
# 1 0.024059 0.013087 -0.003837 0.011694 0.019813 -0.033279
# 2 0.013087 0.037972 -0.007849 0.015040 0.017561 -0.041181
# 3 -0.003837 -0.007849 0.015984 -0.004556 0.001888 0.002646
# 4 0.011694 0.015040 -0.004556 0.042364 0.008230 -0.031271
# 5 0.019813 0.017561 0.001888 0.008230 0.060595 -0.044895
# 6 -0.033279 -0.041181 0.002646 -0.031271 -0.044895 0.095629
#
#
# Mechanical properties :
#
#
# Convention : Reuss Voigt Hill
#
# Bulk Modulus (GPa) = 12.37361 39.87929 26.12645
# Shear Modulus (GPa) = 16.62561 31.70244 24.16403
#
# Velocity S-wave (km/s) = 2.66545 3.68068 3.21341
# Velocity P-wave (km/s) = 3.84193 5.92493 4.99326
#
# Compressibility (1/GPa) = 0.08081714
#
# Stress axis : x y z
#
# Youngs Moduli (GPa) = 41.56374 26.33527 62.56256
#
# Poissons Ratio (x) = -0.34464 0.24005
# Poissons Ratio (y) = -0.54393 0.49104
# Poissons Ratio (z) = 0.15948 0.20670
#
# Static dielectric constant tensor:
#      x y z
#    x 1.902620 -0.038840 -0.103120 
#    y -0.038840 1.368620 -0.378310 
#    z -0.103120 -0.378310 1.595270 
# 
# From -- ./inp_files/314006.got.cif
#   From: 2010.05.17/outbox.cif.g08.bks.cpg/sg2_158_cif.got.tgz:314006.got - 2010.06.03 11:33:40.
