data_PCOD9052011
_publ_section_title
;
Structure prediction by ZEFSAII (Michael W. Deem and Ramdas Pophale) SiO2 
 PCOD9052011
Probable space group: P -1
;
_chemical_formula_sum "Si O2"
_cell_formula_units_Z 14
_cell_length_a 8.556444
_cell_length_b 24.690560
_cell_length_c 4.779653
_cell_angle_alpha 118.496047
_cell_angle_beta 85.574641
_cell_angle_gamma 137.710361
_cell_volume 528.228683
_symmetry_space_group_name_H-M "P -1"
_symmetry_group_IT_number 2
_symmetry_cell_setting 'triclinic'
loop_
_space_group_symop_operation_xyz
x,y,z
-x,-y,-z
loop_
_atom_site_type_symbol
_atom_site_label
_atom_site_fract_x
_atom_site_fract_y
_atom_site_fract_z
Si Si1 0.921576 0.855947 0.891867
Si Si2 0.769727 0.144862 0.794891
Si Si3 0.489183 0.340409 0.911186
Si Si4 0.447152 0.551987 0.317612
Si Si5 0.559697 0.921930 0.794324
Si Si6 0.919222 0.638650 0.694280
Si Si7 0.556466 0.239873 0.930110
O O1 0.506098 0.839195 0.448687
O O2 0.698893 0.823249 0.008905
O O3 0.082698 0.865208 0.111544
O O4 0.133102 0.965896 0.980804
O O5 0.595194 0.078258 0.384084
O O6 0.224711 0.235014 0.531036
O O7 0.976556 0.262564 0.970464
O O8 0.619117 0.431544 0.911770
O O9 0.625281 0.318938 0.913886
O O10 0.473480 0.369008 0.280266
O O11 0.706668 0.589952 0.367580
O O12 0.229851 0.445648 0.253791
O O13 0.424145 0.885619 0.023007
O O14 0.191777 0.690093 0.731679
#
# Coordination Sequence:
#
# PCOD9052011 Si02
#       7
#     2   2   2   2   2   2   2
#     4  12  26  48  72 105 152 188 236 296 364 422
#     4  11  25  46  75 104 142 187 247 295 348 428
#     4  12  26  46  72 105 146 190 236 291 366 420
#     4  11  26  49  76 104 138 198 237 298 349 439
#     4  11  28  45  75 106 140 195 243 291 353 429
#     4  10  25  49  75 106 144 184 248 293 361 416
#     4  11  27  46  73 109 151 186 236 303 361 426
#
# _framework density 26.503672999999999
#
# number of rings (size 3 to 8) (size 9 to 14) (size 15 to 20)
#    0.000    0.857    2.857    1.286   12.000    6.286 
#    0.000    0.000    0.000    0.000    0.000    0.000 
#    0.000    0.000    0.000    0.000    0.000    0.000 
#
# Total GULP energy -78503.099819 kJ/mol
# GULP energy per Si atom -5607.364273 kJ/mol
# Density = 2.644335 g / cm^3
# Si number density = 26.503673 Si / 1000 Ang^3
#
#
#
# Elastic Constant Matrix: (Units=GPa)
#
#
# Indices 1 2 3 4 5 6 
#
# 1 144.2757 62.9107 25.3955 4.2057 5.9819 -3.8321
# 2 62.9107 112.7450 52.5247 12.1805 -2.7229 0.7429
# 3 25.3955 52.5247 75.9122 -15.3500 -6.9307 6.2587
# 4 4.2057 12.1805 -15.3500 54.6631 1.5224 0.6643
# 5 5.9819 -2.7229 -6.9307 1.5224 45.8398 -1.1523
# 6 -3.8321 0.7429 6.2587 0.6643 -1.1523 37.2595
#
#
#
# Elastic Compliance Matrix: (Units=1/GPa)
#
#
# Indices 1 2 3 4 5 6 
#
# 1 0.009340 -0.005701 0.000776 0.000799 -0.001444 0.000885
# 2 -0.005701 0.018701 -0.012591 -0.007286 0.000225 0.001293
# 3 0.000776 -0.012591 0.024075 0.009487 0.002380 -0.003809
# 4 0.000799 -0.007286 0.009487 0.022538 0.000104 -0.001765
# 5 -0.001444 0.000225 0.002380 0.000104 0.022377 0.000137
# 6 0.000885 0.001293 -0.003809 -0.001765 0.000137 0.027579
#
#
# Mechanical properties :
#
#
# Convention : Reuss Voigt Hill
#
# Bulk Modulus (GPa) = 58.53186 68.28832 63.41009
# Shear Modulus (GPa) = 30.24127 40.35928 35.30028
#
# Velocity S-wave (km/s) = 3.38157 3.90652 3.65348
# Velocity P-wave (km/s) = 6.11384 6.79480 6.46330
#
# Compressibility (1/GPa) = 0.01708471
#
# Stress axis : x y z
#
# Youngs Moduli (GPa) = 107.06282 53.47443 41.53657
#
# Poissons Ratio (x) = 0.30483 -0.03225
# Poissons Ratio (y) = 0.61032 0.52301
# Poissons Ratio (z) = -0.08312 0.67332
#
# Static dielectric constant tensor:
#      x y z
#    x 2.128970 -0.005450 -0.010390 
#    y -0.005450 2.065570 0.025000 
#    z -0.010390 0.025000 2.054540 
# 
# From -- ./inp_files/56028.got.cif
#   From: 2010.05.17/outbox.cif.g08.bks.cpg/sg2_29_cif.got.tgz:56028.got - 2010.06.03 11:33:40.
