data_PCOD9052588
_publ_section_title
;
Structure prediction by ZEFSAII (Michael W. Deem and Ramdas Pophale) SiO2 
 PCOD9052588
Probable space group: P -1
;
_chemical_formula_sum "Si O2"
_cell_formula_units_Z 12
_cell_length_a 5.394499
_cell_length_b 16.560872
_cell_length_c 9.287788
_cell_angle_alpha 58.760859
_cell_angle_beta 125.560326
_cell_angle_gamma 87.150417
_cell_volume 498.105866
_symmetry_space_group_name_H-M "P -1"
_symmetry_group_IT_number 2
_symmetry_cell_setting 'triclinic'
loop_
_space_group_symop_operation_xyz
x,y,z
-x,-y,-z
loop_
_atom_site_type_symbol
_atom_site_label
_atom_site_fract_x
_atom_site_fract_y
_atom_site_fract_z
Si Si1 0.528133 0.998700 0.838700
Si Si2 0.246296 0.843503 0.341263
Si Si3 0.614390 0.120792 0.338520
Si Si4 0.877169 0.612466 0.772381
Si Si5 0.159632 0.744182 0.909904
Si Si6 0.704249 0.563690 0.460058
O O1 0.344774 0.973967 0.666856
O O2 0.517112 0.110292 0.689555
O O3 0.927396 0.890283 0.076850
O O4 0.500000 0.000000 0.000000
O O5 0.154534 0.897915 0.420852
O O6 0.472631 0.713655 0.561575
O O7 0.671509 0.200441 0.179932
O O8 0.222859 0.175369 0.224878
O O9 0.894896 0.584219 0.638149
O O10 0.110390 0.661026 0.867372
O O11 0.000000 0.500000 0.000000
O O12 0.416381 0.677123 0.188111
O O13 0.500000 0.500000 0.500000
O O14 0.000000 0.500000 0.500000
#
# Coordination Sequence:
#
# PCOD9052588 Si02
#       6
#     2   2   2   2   2   2
#     4  11  26  46  74 108 144 191 241 302 364 432
#     4  10  26  47  72 108 142 194 241 296 369 425
#     4  11  26  46  77 101 148 185 245 299 361 432
#     4  11  25  49  75 105 149 189 244 298 359 435
#     4  11  26  46  72 108 139 197 241 294 367 425
#     4  12  26  44  70 103 143 191 240 297 357 423
#
# _framework density 24.091266000000001
#
# number of rings (size 3 to 8) (size 9 to 14) (size 15 to 20)
#    0.000    1.000    1.667    2.500   14.000    4.000 
#    0.000    0.000    0.000    0.000    0.000    0.000 
#    0.000    0.000    0.000    0.000    0.000    0.000 
#
# Total GULP energy -67090.235988 kJ/mol
# GULP energy per Si atom -5590.852999 kJ/mol
# Density = 2.403643 g / cm^3
# Si number density = 24.091266 Si / 1000 Ang^3
#
#
#
# Elastic Constant Matrix: (Units=GPa)
#
#
# Indices 1 2 3 4 5 6 
#
# 1 101.9981 34.7354 19.0068 4.3603 -34.1684 -12.8315
# 2 34.7354 153.6962 31.5944 22.0187 -10.9465 -25.3099
# 3 19.0068 31.5944 169.3171 17.2160 -11.8059 0.4583
# 4 4.3603 22.0187 17.2160 49.1428 1.8903 -7.9063
# 5 -34.1684 -10.9465 -11.8059 1.8903 46.0238 0.2984
# 6 -12.8315 -25.3099 0.4583 -7.9063 0.2984 41.9557
#
#
#
# Elastic Compliance Matrix: (Units=1/GPa)
#
#
# Indices 1 2 3 4 5 6 
#
# 1 0.014301 -0.001868 -0.000555 -0.000114 0.010015 0.003160
# 2 -0.001868 0.008171 -0.001044 -0.002517 0.000367 0.003892
# 3 -0.000555 -0.001044 0.006444 -0.001983 0.001082 -0.001251
# 4 -0.000114 -0.002517 -0.001983 0.022709 -0.002143 0.002763
# 5 0.010015 0.000367 0.001082 -0.002143 0.029598 0.002658
# 6 0.003160 0.003892 -0.001251 0.002763 0.002658 0.027665
#
#
# Mechanical properties :
#
#
# Convention : Reuss Voigt Hill
#
# Bulk Modulus (GPa) = 45.49389 66.18717 55.84053
# Shear Modulus (GPa) = 40.60139 50.06946 45.33542
#
# Velocity S-wave (km/s) = 4.10971 4.56381 4.34270
# Velocity P-wave (km/s) = 6.43775 7.43669 6.95518
#
# Compressibility (1/GPa) = 0.02198097
#
# Stress axis : x y z
#
# Youngs Moduli (GPa) = 69.92547 122.38686 155.18997
#
# Poissons Ratio (x) = 0.22859 0.08621
# Poissons Ratio (y) = 0.13061 0.16201
# Poissons Ratio (z) = 0.03884 0.12777
#
# Static dielectric constant tensor:
#      x y z
#    x 2.118880 -0.067750 0.091080 
#    y -0.067750 1.928790 0.002210 
#    z 0.091080 0.002210 1.919200 
# 
# From -- ./inp_files/49097.got.cif
#   From: 2010.05.17/outbox.cif.g08.bks.cpg/sg2_25_cif.got.tgz:49097.got - 2010.06.03 11:33:40.
