data_PCOD9052060
_publ_section_title
;
Structure prediction by ZEFSAII (Michael W. Deem and Ramdas Pophale) SiO2 
 PCOD9052060
Probable space group: P -1
;
_chemical_formula_sum "Si O2"
_cell_formula_units_Z 16
_cell_length_a 23.780197
_cell_length_b 14.545703
_cell_length_c 5.600331
_cell_angle_alpha 81.968439
_cell_angle_beta 80.711547
_cell_angle_gamma 18.504088
_cell_volume 606.186852
_symmetry_space_group_name_H-M "P -1"
_symmetry_group_IT_number 2
_symmetry_cell_setting 'triclinic'
loop_
_space_group_symop_operation_xyz
x,y,z
-x,-y,-z
loop_
_atom_site_type_symbol
_atom_site_label
_atom_site_fract_x
_atom_site_fract_y
_atom_site_fract_z
Si Si1 0.466301 0.775798 0.765695
Si Si2 0.181125 0.328815 0.606965
Si Si3 0.667920 0.747456 0.149002
Si Si4 0.003326 0.255780 0.801114
Si Si5 0.910152 0.070856 0.231251
Si Si6 0.263749 0.520729 0.474343
Si Si7 0.408270 0.615301 0.274757
Si Si8 0.834117 0.860045 0.894008
O O1 0.613148 0.627505 0.762974
O O2 0.583710 0.506878 0.707272
O O3 0.331796 0.020414 0.560520
O O4 0.329973 0.953275 0.000324
O O5 0.278830 0.235292 0.785218
O O6 0.113722 0.509922 0.402978
O O7 0.002797 0.557419 0.752444
O O8 0.648636 0.704621 0.391998
O O9 0.850075 0.442301 0.996133
O O10 0.500000 0.000000 0.000000
O O11 0.139586 0.958485 0.788798
O O12 0.101051 0.189151 0.891732
O O13 0.065986 0.808697 0.412587
O O14 0.758638 0.366972 0.346773
O O15 0.000000 0.000000 0.000000
O O16 0.500000 0.500000 0.500000
O O17 0.229087 0.952092 0.280020
O O18 0.500000 0.500000 0.000000
#
# Coordination Sequence:
#
# PCOD9052060 Si02
#       8
#     2   2   2   2   2   2   2   2
#     4  11  26  46  70 111 141 192 248 302 373 445
#     4  11  25  46  74 100 148 195 242 307 369 451
#     4  11  24  44  66 104 144 186 243 298 375 440
#     4  11  24  44  74 100 138 194 238 299 374 442
#     4  11  24  43  71 102 139 186 238 302 368 443
#     4  11  25  42  69 106 141 181 241 302 367 445
#     4  10  25  50  74 106 147 197 249 312 369 441
#     4  10  26  48  72 103 145 192 248 299 374 450
#
# _framework density 26.394504000000001
#
# number of rings (size 3 to 8) (size 9 to 14) (size 15 to 20)
#    0.000    1.250    2.500    1.125    8.750    1.500 
#   15.750    0.000    0.000    0.000    0.000    0.000 
#    0.000    0.000    0.000    0.000    0.000    0.000 
#
# Total GULP energy -89507.474714 kJ/mol
# GULP energy per Si atom -5594.217170 kJ/mol
# Density = 2.633443 g / cm^3
# Si number density = 26.394504 Si / 1000 Ang^3
#
#
#
# Elastic Constant Matrix: (Units=GPa)
#
#
# Indices 1 2 3 4 5 6 
#
# 1 90.0985 24.3897 34.1589 0.5870 -36.1671 3.3403
# 2 24.3897 111.8894 6.0535 -10.7164 -4.3387 8.3367
# 3 34.1589 6.0535 74.5023 -17.1037 -10.8325 -3.8508
# 4 0.5870 -10.7164 -17.1037 47.5944 -5.9328 -9.4497
# 5 -36.1671 -4.3387 -10.8325 -5.9328 39.3251 -1.8993
# 6 3.3403 8.3367 -3.8508 -9.4497 -1.8993 49.8317
#
#
#
# Elastic Compliance Matrix: (Units=1/GPa)
#
#
# Indices 1 2 3 4 5 6 
#
# 1 0.022169 -0.003838 -0.007838 -0.002011 0.017447 -0.001166
# 2 -0.003838 0.009930 0.001165 0.002287 -0.001814 -0.000949
# 3 -0.007838 0.001165 0.018759 0.007663 -0.000601 0.003210
# 4 -0.002011 0.002287 0.007663 0.025971 0.004695 0.005448
# 5 0.017447 -0.001814 -0.000601 0.004695 0.041893 0.001575
# 6 -0.001166 -0.000949 0.003210 0.005448 0.001575 0.021646
#
#
# Mechanical properties :
#
#
# Convention : Reuss Voigt Hill
#
# Bulk Modulus (GPa) = 33.51468 45.07715 39.29592
# Shear Modulus (GPa) = 29.18254 41.47613 35.32933
#
# Velocity S-wave (km/s) = 3.32871 3.96838 3.66254
# Velocity P-wave (km/s) = 5.24394 6.17355 5.72763
#
# Compressibility (1/GPa) = 0.02983767
#
# Stress axis : x y z
#
# Youngs Moduli (GPa) = 45.10792 100.70119 53.30799
#
# Poissons Ratio (x) = 0.38645 0.41781
# Poissons Ratio (y) = 0.17310 -0.06210
# Poissons Ratio (z) = 0.35354 -0.11731
#
# Static dielectric constant tensor:
#      x y z
#    x 2.145790 0.111600 0.035840 
#    y 0.111600 2.136530 0.056700 
#    z 0.035840 0.056700 2.118710 
# 
# From -- ./inp_files/124178.got.cif
#   From: 2010.05.17/outbox.cif.g08.bks.cpg/sg2_63_cif.got.tgz:124178.got - 2010.06.03 11:33:40.
