data_PCOD9052793
_publ_section_title
;
Structure prediction by ZEFSAII (Michael W. Deem and Ramdas Pophale) SiO2 
 PCOD9052793
Probable space group: P -1
;
_chemical_formula_sum "Si O2"
_cell_formula_units_Z 14
_cell_length_a 18.379642
_cell_length_b 6.935233
_cell_length_c 9.354258
_cell_angle_alpha 128.131432
_cell_angle_beta 32.944221
_cell_angle_gamma 123.142468
_cell_volume 508.917534
_symmetry_space_group_name_H-M "P -1"
_symmetry_group_IT_number 2
_symmetry_cell_setting 'triclinic'
loop_
_space_group_symop_operation_xyz
x,y,z
-x,-y,-z
loop_
_atom_site_type_symbol
_atom_site_label
_atom_site_fract_x
_atom_site_fract_y
_atom_site_fract_z
Si Si1 0.840564 0.831832 0.970591
Si Si2 0.500000 0.000000 0.000000
Si Si3 0.849081 0.957720 0.343119
Si Si4 0.127050 0.461061 0.475107
Si Si5 0.000000 0.500000 0.000000
Si Si6 0.371943 0.612574 0.828678
Si Si7 0.641117 0.673583 0.751109
Si Si8 0.365402 0.822593 0.642460
O O1 0.922060 0.730341 0.655575
O O2 0.873651 0.887307 0.106200
O O3 0.732103 0.602003 0.052979
O O4 0.762883 0.064971 0.162069
O O5 0.427721 0.762604 0.936992
O O6 0.515021 0.831469 0.056203
O O7 0.701497 0.857053 0.602510
O O8 0.941893 0.784120 0.201421
O O9 0.855643 0.254077 0.477961
O O10 0.260167 0.371313 0.299527
O O11 0.021147 0.471842 0.782298
O O12 0.500000 0.500000 0.500000
O O13 0.319862 0.765820 0.853686
O O14 0.618461 0.422175 0.587387
O O15 0.500000 0.000000 0.500000
#
# Coordination Sequence:
#
# PCOD9052793 Si02
#       8
#     2   1   2   2   1   2   2   2
#     4  12  24  41  71 100 133 187 236 276 341 415
#     4  12  22  38  64  92 138 190 230 276 328 392
#     4  11  23  47  73  97 140 176 225 292 356 415
#     4  11  25  47  72 104 134 178 231 287 356 424
#     4  10  26  50  74 108 136 168 220 302 372 420
#     4  12  23  40  58  94 137 185 235 284 326 387
#     4  11  23  42  65  96 144 186 228 287 337 396
#     4  12  23  39  63  95 141 189 233 275 327 393
#
# _framework density 27.509369
#
# number of rings (size 3 to 8) (size 9 to 14) (size 15 to 20)
#    0.000    0.571    5.714    2.143    0.000    2.857 
#    0.000    5.000    0.000    0.000    0.000    0.000 
#    0.000    0.000    0.000    0.000    0.000    0.000 
#
# Total GULP energy -77958.364868 kJ/mol
# GULP energy per Si atom -5568.454633 kJ/mol
# Density = 2.744676 g / cm^3
# Si number density = 27.509369 Si / 1000 Ang^3
#
#
#
# Elastic Constant Matrix: (Units=GPa)
#
#
# Indices 1 2 3 4 5 6 
#
# 1 159.8919 44.7127 15.5013 28.2620 11.7382 -28.6104
# 2 44.7127 123.1420 34.4221 31.5909 9.2415 -37.6397
# 3 15.5013 34.4221 110.7564 15.8985 19.2556 -2.9386
# 4 28.2620 31.5909 15.8985 67.2294 -6.6531 -2.4298
# 5 11.7382 9.2415 19.2556 -6.6531 29.1058 13.1522
# 6 -28.6104 -37.6397 -2.9386 -2.4298 13.1522 64.0779
#
#
#
# Elastic Compliance Matrix: (Units=1/GPa)
#
#
# Indices 1 2 3 4 5 6 
#
# 1 0.008362 -0.000148 0.000837 -0.004164 -0.007081 0.004980
# 2 -0.000148 0.014001 -0.001477 -0.006741 -0.009357 0.009755
# 3 0.000837 -0.001477 0.011429 -0.003183 -0.008946 0.001745
# 4 -0.004164 -0.006741 -0.003183 0.021692 0.014557 -0.008130
# 5 -0.007081 -0.009357 -0.008946 0.014557 0.058725 -0.020570
# 6 0.004980 0.009755 0.001745 -0.008130 -0.020570 0.027554
#
#
# Mechanical properties :
#
#
# Convention : Reuss Voigt Hill
#
# Bulk Modulus (GPa) = 31.04214 64.78472 47.91343
# Shear Modulus (GPa) = 32.45114 52.02623 42.23868
#
# Velocity S-wave (km/s) = 3.43831 4.35353 3.92271
# Velocity P-wave (km/s) = 5.20302 6.99086 6.16212
#
# Compressibility (1/GPa) = 0.03221427
#
# Stress axis : x y z
#
# Youngs Moduli (GPa) = 119.59542 71.42475 87.49444
#
# Poissons Ratio (x) = 0.01057 -0.07320
# Poissons Ratio (y) = 0.01770 0.12926
# Poissons Ratio (z) = -0.10006 0.10552
#
# Static dielectric constant tensor:
#      x y z
#    x 3.244210 -1.207680 -0.428290 
#    y -1.207680 3.316720 0.340020 
#    z -0.428290 0.340020 2.067950 
# 
# From -- ./inp_files/88080.got.cif
#   From: 2010.05.17/outbox.cif.g08.bks.cpg/sg2_45_cif.got.tgz:88080.got - 2010.06.03 11:33:40.
