data_PCOD9052692
_publ_section_title
;
Structure prediction by ZEFSAII (Michael W. Deem and Ramdas Pophale) SiO2 
 PCOD9052692
Probable space group: P -1
;
_chemical_formula_sum "Si O2"
_cell_formula_units_Z 12
_cell_length_a 12.134654
_cell_length_b 8.325059
_cell_length_c 5.366009
_cell_angle_alpha 63.679296
_cell_angle_beta 74.754532
_cell_angle_gamma 93.104353
_cell_volume 459.555877
_symmetry_space_group_name_H-M "P -1"
_symmetry_group_IT_number 2
_symmetry_cell_setting 'triclinic'
loop_
_space_group_symop_operation_xyz
x,y,z
-x,-y,-z
loop_
_atom_site_type_symbol
_atom_site_label
_atom_site_fract_x
_atom_site_fract_y
_atom_site_fract_z
Si Si1 0.993768 0.844342 0.912138
Si Si2 0.116702 0.534727 0.201115
Si Si3 0.464823 0.890508 0.343966
Si Si4 0.172078 0.162137 0.366795
Si Si5 0.750773 0.374011 0.450615
Si Si6 0.597819 0.616135 0.677306
O O1 0.860479 0.821359 0.913543
O O2 0.102835 0.955707 0.605313
O O3 0.021060 0.646613 0.086817
O O4 0.000000 0.000000 0.000000
O O5 0.099631 0.316474 0.405853
O O6 0.159847 0.630673 0.372143
O O7 0.205573 0.559633 0.896625
O O8 0.328675 0.818884 0.437079
O O9 0.530814 0.723566 0.453630
O O10 0.500000 0.000000 0.500000
O O11 0.500000 0.000000 0.000000
O O12 0.302495 0.238819 0.330614
O O13 0.667857 0.491645 0.561152
O O14 0.500000 0.500000 0.000000
#
# Coordination Sequence:
#
# PCOD9052692 Si02
#       6
#     2   2   2   2   2   2
#     4  11  27  47  77 114 150 198 257 317 383 456
#     4  11  26  48  78 107 156 195 252 318 379 459
#     4  12  26  42  70 110 149 194 249 315 376 443
#     4  10  26  48  75 112 149 203 252 313 389 447
#     4  11  26  48  72 109 147 203 251 302 386 453
#     4  11  25  51  79 106 155 205 258 311 381 469
#
# _framework density 26.112169999999999
#
# number of rings (size 3 to 8) (size 9 to 14) (size 15 to 20)
#    0.000    1.000    0.000    5.000   14.000    3.333 
#    0.000    0.000    0.000    0.000    0.000    0.000 
#    0.000    0.000    0.000    0.000    0.000    0.000 
#
# Total GULP energy -67036.662149 kJ/mol
# GULP energy per Si atom -5586.388512 kJ/mol
# Density = 2.605274 g / cm^3
# Si number density = 26.112170 Si / 1000 Ang^3
#
#
#
# Elastic Constant Matrix: (Units=GPa)
#
#
# Indices 1 2 3 4 5 6 
#
# 1 115.5791 19.2850 57.2119 -5.8226 11.3852 24.8383
# 2 19.2850 111.4492 44.0579 15.3739 -4.1518 41.1350
# 3 57.2119 44.0579 184.9524 -3.6500 -10.0740 6.0133
# 4 -5.8226 15.3739 -3.6500 47.7387 -3.6476 -0.6281
# 5 11.3852 -4.1518 -10.0740 -3.6476 51.0063 2.3981
# 6 24.8383 41.1350 6.0133 -0.6281 2.3981 73.1861
#
#
#
# Elastic Compliance Matrix: (Units=1/GPa)
#
#
# Indices 1 2 3 4 5 6 
#
# 1 0.011576 0.000750 -0.003786 0.000597 -0.003043 -0.003934
# 2 0.000750 0.013643 -0.003305 -0.004632 0.000321 -0.007701
# 3 -0.003786 -0.003305 0.007422 0.001357 0.002022 0.002478
# 4 0.000597 -0.004632 0.001357 0.022745 0.001270 0.002443
# 5 -0.003043 0.000321 0.002022 0.001270 0.020800 0.000015
# 6 -0.003934 -0.007701 0.002478 0.002443 0.000015 0.019145
#
#
# Mechanical properties :
#
#
# Convention : Reuss Voigt Hill
#
# Bulk Modulus (GPa) = 50.10398 72.56557 61.33477
# Shear Modulus (GPa) = 43.60521 53.81462 48.70992
#
# Velocity S-wave (km/s) = 4.09090 4.54464 4.32373
# Velocity P-wave (km/s) = 6.44543 7.44235 6.96176
#
# Compressibility (1/GPa) = 0.01995850
#
# Stress axis : x y z
#
# Youngs Moduli (GPa) = 86.38459 73.29748 134.74285
#
# Poissons Ratio (x) = -0.05496 0.51008
# Poissons Ratio (y) = -0.06478 0.44538
# Poissons Ratio (z) = 0.32701 0.24228
#
# Static dielectric constant tensor:
#      x y z
#    x 2.037510 0.057100 -0.115240 
#    y 0.057100 2.103260 0.024250 
#    z -0.115240 0.024250 2.115150 
# 
# From -- ./inp_files/60138.got.cif
#   From: 2010.05.17/outbox.cif.g08.bks.cpg/sg2_31_cif.got.tgz:60138.got - 2010.06.03 11:33:40.
