data_PCOD9052393
_publ_section_title
;
Structure prediction by ZEFSAII (Michael W. Deem and Ramdas Pophale) SiO2 
 PCOD9052393
Probable space group: P -1
;
_chemical_formula_sum "Si O2"
_cell_formula_units_Z 14
_cell_length_a 7.545810
_cell_length_b 15.147016
_cell_length_c 4.764602
_cell_angle_alpha 96.697315
_cell_angle_beta 73.001948
_cell_angle_gamma 90.317457
_cell_volume 516.999754
_symmetry_space_group_name_H-M "P -1"
_symmetry_group_IT_number 2
_symmetry_cell_setting 'triclinic'
loop_
_space_group_symop_operation_xyz
x,y,z
-x,-y,-z
loop_
_atom_site_type_symbol
_atom_site_label
_atom_site_fract_x
_atom_site_fract_y
_atom_site_fract_z
Si Si1 0.099251 0.140404 0.506297
Si Si2 0.296039 0.054832 0.893692
Si Si3 0.841756 0.561829 0.237184
Si Si4 0.681668 0.111614 0.580595
Si Si5 0.921659 0.679648 0.756451
Si Si6 0.346122 0.692913 0.507098
Si Si7 0.587199 0.421473 0.115039
O O1 0.198610 0.125998 0.750466
O O2 0.134370 0.231122 0.354097
O O3 0.878656 0.131877 0.636370
O O4 0.184188 0.063469 0.235839
O O5 0.511153 0.078530 0.832325
O O6 0.284545 0.961269 0.705280
O O7 0.904759 0.600553 0.513208
O O8 0.694775 0.485565 0.303606
O O9 0.810699 0.644148 0.063761
O O10 0.000000 0.500000 0.000000
O O11 0.612482 0.205220 0.518742
O O12 0.138617 0.690111 0.736598
O O13 0.488318 0.647543 0.647616
O O14 0.335960 0.643443 0.193433
O O15 0.500000 0.500000 0.000000
#
# Coordination Sequence:
#
# PCOD9052393 Si02
#       7
#     2   2   2   2   2   2   2
#     4  11  25  44  71 105 145 178 233 286 342 414
#     4  11  25  46  71 107 138 184 231 281 350 419
#     4  12  21  39  65  86 125 165 226 271 316 401
#     4  10  26  45  75 101 142 185 228 287 350 409
#     4  11  22  39  66  97 123 177 222 276 332 393
#     4  11  23  43  63  92 130 171 220 272 334 404
#     4  12  26  40  61  92 128 169 215 274 337 391
#
# _framework density 27.079315999999999
#
# number of rings (size 3 to 8) (size 9 to 14) (size 15 to 20)
#    0.000    0.857    2.857    3.429    0.000   12.571 
#    0.000    0.000    0.000    0.000    0.000    0.000 
#    0.000    0.000    0.000    0.000    0.000    0.000 
#
# Total GULP energy -78451.237532 kJ/mol
# GULP energy per Si atom -5603.659824 kJ/mol
# Density = 2.701768 g / cm^3
# Si number density = 27.079316 Si / 1000 Ang^3
#
#
#
# Elastic Constant Matrix: (Units=GPa)
#
#
# Indices 1 2 3 4 5 6 
#
# 1 97.0169 23.0723 28.4441 -9.3051 -2.8885 3.6556
# 2 23.0723 170.3014 30.6174 -21.6143 2.6086 -5.0566
# 3 28.4441 30.6174 140.8586 -18.6030 18.2136 -0.8655
# 4 -9.3051 -21.6143 -18.6030 43.1695 -0.4494 -2.7201
# 5 -2.8885 2.6086 18.2136 -0.4494 38.8241 -9.5479
# 6 3.6556 -5.0566 -0.8655 -2.7201 -9.5479 37.5544
#
#
#
# Elastic Compliance Matrix: (Units=1/GPa)
#
#
# Indices 1 2 3 4 5 6 
#
# 1 0.011373 -0.001081 -0.002168 0.000944 0.001753 -0.000789
# 2 -0.001081 0.006557 -0.000863 0.002757 0.000217 0.001223
# 3 -0.002168 -0.000863 0.008635 0.002740 -0.004268 -0.000593
# 4 0.000944 0.002757 0.002740 0.026054 -0.000587 0.002080
# 5 0.001753 0.000217 -0.004268 -0.000587 0.029653 0.007257
# 6 -0.000789 0.001223 -0.000593 0.002080 0.007257 0.028851
#
#
# Mechanical properties :
#
#
# Convention : Reuss Voigt Hill
#
# Bulk Modulus (GPa) = 54.53008 63.60495 59.06751
# Shear Modulus (GPa) = 39.85284 45.64580 42.74932
#
# Velocity S-wave (km/s) = 3.84045 4.11010 3.97756
# Velocity P-wave (km/s) = 6.31239 6.78699 6.55399
#
# Compressibility (1/GPa) = 0.01833850
#
# Stress axis : x y z
#
# Youngs Moduli (GPa) = 87.92877 152.51955 115.80923
#
# Poissons Ratio (x) = 0.16493 0.25111
# Poissons Ratio (y) = 0.09509 0.09996
# Poissons Ratio (z) = 0.19066 0.13165
#
# Static dielectric constant tensor:
#      x y z
#    x 2.102320 -0.097510 -0.016250 
#    y -0.097510 2.094050 -0.014070 
#    z -0.016250 -0.014070 2.035890 
# 
# From -- ./inp_files/38476.got.cif
#   From: 2010.05.17/outbox.cif.g08.bks.cpg/sg2_20_cif.got.tgz:38476.got - 2010.06.03 11:33:40.
