data_PCOD9052149
_publ_section_title
;
Structure prediction by ZEFSAII (Michael W. Deem and Ramdas Pophale) SiO2 
 PCOD9052149
Probable space group: P -1
;
_chemical_formula_sum "Si O2"
_cell_formula_units_Z 15
_cell_length_a 16.503583
_cell_length_b 8.959166
_cell_length_c 5.145100
_cell_angle_alpha 106.172933
_cell_angle_beta 115.272232
_cell_angle_gamma 100.428934
_cell_volume 620.061371
_symmetry_space_group_name_H-M "P -1"
_symmetry_group_IT_number 2
_symmetry_cell_setting 'triclinic'
loop_
_space_group_symop_operation_xyz
x,y,z
-x,-y,-z
loop_
_atom_site_type_symbol
_atom_site_label
_atom_site_fract_x
_atom_site_fract_y
_atom_site_fract_z
Si Si1 0.500000 0.000000 0.500000
Si Si2 0.199901 0.894039 0.214107
Si Si3 0.755830 0.517506 0.528068
Si Si4 0.640986 0.152895 0.268519
Si Si5 0.624526 0.871636 0.729300
Si Si6 0.260855 0.284717 0.900541
Si Si7 0.095925 0.621990 0.564447
Si Si8 0.081303 0.950148 0.451157
O O1 0.422103 0.898647 0.587991
O O2 0.532854 0.828555 0.406266
O O3 0.259055 0.873070 0.536205
O O4 0.102045 0.926063 0.162282
O O5 0.276837 0.045552 0.246430
O O6 0.172382 0.725042 0.934456
O O7 0.670461 0.342104 0.325745
O O8 0.759141 0.600774 0.850743
O O9 0.852842 0.480256 0.582557
O O10 0.739300 0.634068 0.338103
O O11 0.601053 0.031592 0.905517
O O12 0.643390 0.751643 0.905188
O O13 0.175983 0.108295 0.708608
O O14 0.073747 0.770155 0.460358
O O15 0.000000 0.500000 0.500000
O O16 0.000000 0.000000 0.500000
#
# Coordination Sequence:
#
# PCOD9052149 Si02
#       8
#     1   2   2   2   2   2   2   2
#     4  10  26  40  84 104 136 184 248 300 364 450
#     4  11  20  43  74  94 144 188 252 293 366 419
#     4  12  26  45  72 106 146 197 238 298 374 427
#     4  11  22  46  74 105 137 187 247 295 367 444
#     4  11  22  46  74 105 137 187 247 295 367 444
#     4  12  26  45  72 106 146 197 238 298 374 427
#     4  12  26  43  67 102 141 196 251 307 351 432
#     4  12  26  43  67 102 141 196 251 307 351 432
#
# _framework density 24.191154000000001
#
# number of rings (size 3 to 8) (size 9 to 14) (size 15 to 20)
#    0.000    0.533    5.333    2.800    5.600    1.067 
#    0.000    1.333    0.000    0.000    0.000    0.000 
#    0.000    0.000    0.000    0.000    0.000    0.000 
#
# Total GULP energy -83672.127211 kJ/mol
# GULP energy per Si atom -5578.141814 kJ/mol
# Density = 2.413609 g / cm^3
# Si number density = 24.191154 Si / 1000 Ang^3
#
#
#
# Elastic Constant Matrix: (Units=GPa)
#
#
# Indices 1 2 3 4 5 6 
#
# 1 133.1307 50.8900 1.2844 -5.3327 -24.2138 11.9414
# 2 50.8900 124.3335 2.7149 -13.7737 -8.1457 -5.1420
# 3 1.2844 2.7149 65.8722 7.6110 -23.5842 1.5128
# 4 -5.3327 -13.7737 7.6110 40.3270 -9.6998 -8.4972
# 5 -24.2138 -8.1457 -23.5842 -9.6998 25.8329 -7.7433
# 6 11.9414 -5.1420 1.5128 -8.4972 -7.7433 29.4321
#
#
#
# Elastic Compliance Matrix: (Units=1/GPa)
#
#
# Indices 1 2 3 4 5 6 
#
# 1 0.011881 -0.003665 0.005172 0.002920 0.015561 -0.000790
# 2 -0.003665 0.010621 0.000295 0.005271 0.003924 0.005882
# 3 0.005172 0.000295 0.025992 0.005125 0.032594 0.006672
# 4 0.002920 0.005271 0.005125 0.036386 0.027933 0.017326
# 5 0.015561 0.003924 0.032594 0.027933 0.103141 0.027897
# 6 -0.000790 0.005882 0.006672 0.017326 0.027897 0.047323
#
#
# Mechanical properties :
#
#
# Convention : Reuss Voigt Hill
#
# Bulk Modulus (GPa) = 19.19538 48.12388 33.65963
# Shear Modulus (GPa) = 20.07165 37.01486 28.54326
#
# Velocity S-wave (km/s) = 2.88359 3.91589 3.43870
# Velocity P-wave (km/s) = 4.36336 6.35468 5.45073
#
# Compressibility (1/GPa) = 0.05209588
#
# Stress axis : x y z
#
# Youngs Moduli (GPa) = 84.16994 94.15353 38.47289
#
# Poissons Ratio (x) = 0.34511 -0.19897
# Poissons Ratio (y) = 0.30852 -0.01134
# Poissons Ratio (z) = -0.43530 -0.02775
#
# Static dielectric constant tensor:
#      x y z
#    x 2.023560 -0.060400 0.056970 
#    y -0.060400 1.952570 -0.086850 
#    z 0.056970 -0.086850 2.159520 
# 
# From -- ./inp_files/35769.got.cif
#   From: 2010.05.17/outbox.cif.g08.bks.cpg/sg2_18_cif.got.tgz:35769.got - 2010.06.03 11:33:40.
