data_PCOD9052304
_publ_section_title
;
Structure prediction by ZEFSAII (Michael W. Deem and Ramdas Pophale) SiO2 
 PCOD9052304
Probable space group: P -1
;
_chemical_formula_sum "Si O2"
_cell_formula_units_Z 15
_cell_length_a 11.707071
_cell_length_b 5.361971
_cell_length_c 10.977358
_cell_angle_alpha 92.109034
_cell_angle_beta 80.807912
_cell_angle_gamma 57.619973
_cell_volume 568.245997
_symmetry_space_group_name_H-M "P -1"
_symmetry_group_IT_number 2
_symmetry_cell_setting 'triclinic'
loop_
_space_group_symop_operation_xyz
x,y,z
-x,-y,-z
loop_
_atom_site_type_symbol
_atom_site_label
_atom_site_fract_x
_atom_site_fract_y
_atom_site_fract_z
Si Si1 0.201116 0.651868 0.618680
Si Si2 0.954903 0.847705 0.184389
Si Si3 0.637498 0.245383 0.904044
Si Si4 0.591767 0.003563 0.670770
Si Si5 0.687381 0.857602 0.240828
Si Si6 0.901040 0.438148 0.591593
Si Si7 0.500000 0.500000 0.500000
Si Si8 0.227404 0.426820 0.023631
O O1 0.258136 0.318436 0.645238
O O2 0.130098 0.750938 0.500918
O O3 0.337377 0.660365 0.586243
O O4 0.087406 0.836653 0.746548
O O5 0.802987 0.919090 0.183644
O O6 0.031371 0.653089 0.288759
O O7 0.061650 0.660652 0.056198
O O8 0.593299 0.211438 0.778084
O O9 0.729828 0.384301 0.898874
O O10 0.712523 0.907681 0.940627
O O11 0.500000 0.500000 0.000000
O O12 0.478516 0.918264 0.715232
O O13 0.545724 0.201310 0.562943
O O14 0.745210 0.719903 0.637565
O O15 0.705458 0.636557 0.122852
O O16 0.000000 0.500000 0.500000
#
# Coordination Sequence:
#
# PCOD9052304 Si02
#       8
#     2   2   2   2   2   2   1   2
#     4  11  27  46  74 110 152 204 264 325 395 472
#     4  12  27  47  78 108 159 205 263 327 403 468
#     4  12  27  52  82 119 156 210 267 327 395 474
#     4  11  26  49  80 111 159 202 266 326 398 475
#     4  11  27  50  74 113 152 210 260 333 395 470
#     4  12  25  47  74 106 153 203 262 322 397 472
#     4  10  26  44  72 112 144 202 248 332 378 470
#     4  12  29  49  83 117 161 208 268 330 396 473
#
# _framework density 26.397019
#
# number of rings (size 3 to 8) (size 9 to 14) (size 15 to 20)
#    0.000    0.533    4.000    2.000    9.333    1.600 
#    0.000    0.000    0.000    0.000    0.000    0.000 
#    0.000    0.000    0.000    0.000    0.000    0.000 
#
# Total GULP energy -83617.190779 kJ/mol
# GULP energy per Si atom -5574.479385 kJ/mol
# Density = 2.633694 g / cm^3
# Si number density = 26.397019 Si / 1000 Ang^3
#
#
#
# Elastic Constant Matrix: (Units=GPa)
#
#
# Indices 1 2 3 4 5 6 
#
# 1 135.1260 41.2079 14.3600 12.9805 -7.0347 -18.0674
# 2 41.2079 148.3610 26.6937 15.3464 -7.6578 -18.4167
# 3 14.3600 26.6937 84.0498 13.2510 0.1262 -12.3980
# 4 12.9805 15.3464 13.2510 32.6906 -6.9019 -13.0795
# 5 -7.0347 -7.6578 0.1262 -6.9019 48.3088 16.5454
# 6 -18.0674 -18.4167 -12.3980 -13.0795 16.5454 40.0257
#
#
#
# Elastic Compliance Matrix: (Units=1/GPa)
#
#
# Indices 1 2 3 4 5 6 
#
# 1 0.008454 -0.001853 -0.000269 -0.001415 -0.000107 0.002462
# 2 -0.001853 0.007946 -0.001707 -0.001584 0.000187 0.001696
# 3 -0.000269 -0.001707 0.013505 -0.003842 -0.001848 0.002784
# 4 -0.001415 -0.001584 -0.003842 0.037404 0.001848 0.008901
# 5 -0.000107 0.000187 -0.001848 0.001848 0.024416 -0.010024
# 6 0.002462 0.001696 0.002784 0.008901 -0.010024 0.034790
#
#
# Mechanical properties :
#
#
# Convention : Reuss Voigt Hill
#
# Bulk Modulus (GPa) = 44.95314 59.11778 52.03546
# Shear Modulus (GPa) = 35.31304 43.22337 39.26821
#
# Velocity S-wave (km/s) = 3.66152 4.05091 3.86113
# Velocity P-wave (km/s) = 5.91119 6.65763 6.29549
#
# Compressibility (1/GPa) = 0.02224538
#
# Stress axis : x y z
#
# Youngs Moduli (GPa) = 118.29015 125.84480 74.04564
#
# Poissons Ratio (x) = 0.23321 0.01994
# Poissons Ratio (y) = 0.21921 0.12643
# Poissons Ratio (z) = 0.03186 0.21487
#
# Static dielectric constant tensor:
#      x y z
#    x 2.187180 0.018340 0.049060 
#    y 0.018340 2.108640 0.098570 
#    z 0.049060 0.098570 2.166170 
# 
# From -- ./inp_files/76555.got.cif
#   From: 2010.05.17/outbox.cif.g08.bks.cpg/sg2_39_cif.got.tgz:76555.got - 2010.06.03 11:33:40.
