data_PCOD9052991
_publ_section_title
;
Structure prediction by ZEFSAII (Michael W. Deem and Ramdas Pophale) SiO2 
 PCOD9052991
Probable space group: P -1
;
_chemical_formula_sum "Si O2"
_cell_formula_units_Z 16
_cell_length_a 12.424954
_cell_length_b 8.608963
_cell_length_c 10.207800
_cell_angle_alpha 76.010944
_cell_angle_beta 144.444299
_cell_angle_gamma 109.861175
_cell_volume 595.959226
_symmetry_space_group_name_H-M "P -1"
_symmetry_group_IT_number 2
_symmetry_cell_setting 'triclinic'
loop_
_space_group_symop_operation_xyz
x,y,z
-x,-y,-z
loop_
_atom_site_type_symbol
_atom_site_label
_atom_site_fract_x
_atom_site_fract_y
_atom_site_fract_z
Si Si1 0.697901 0.597310 0.047614
Si Si2 0.257425 0.694681 0.223148
Si Si3 0.059545 0.579024 0.783343
Si Si4 0.829006 0.837578 0.592387
Si Si5 0.330579 0.652257 0.581930
Si Si6 0.143052 0.076579 0.741855
Si Si7 0.896144 0.804875 0.945929
Si Si8 0.505705 0.023175 0.775673
O O1 0.771657 0.431970 0.146840
O O2 0.786007 0.726953 0.221406
O O3 0.471906 0.567293 0.817714
O O4 0.777460 0.713492 0.971626
O O5 0.355015 0.626079 0.454857
O O6 0.385590 0.864820 0.257895
O O7 0.172470 0.588572 0.032815
O O8 0.074406 0.729843 0.106005
O O9 0.940716 0.715573 0.660239
O O10 0.891161 0.426928 0.596502
O O11 0.771707 0.774539 0.694881
O O12 0.644576 0.880397 0.337320
O O13 0.996230 0.007249 0.729034
O O14 0.393963 0.845073 0.644876
O O15 0.327541 0.003657 0.958290
O O16 0.000000 0.000000 0.500000
O O17 0.000000 0.000000 0.000000
#
# Coordination Sequence:
#
# PCOD9052991 Si02
#       8
#     2   2   2   2   2   2   2   2
#     4  11  23  39  63  93 132 169 206 259 314 372
#     4  11  21  36  58  93 135 172 202 246 304 382
#     4  11  24  38  58  94 139 169 202 248 319 381
#     4  11  23  38  65  92 128 167 203 255 313 378
#     4  11  22  35  59  93 130 170 209 249 304 371
#     4  11  24  46  69  92 119 162 220 271 315 369
#     4  11  17  34  61  90 129 166 204 246 308 367
#     4  11  22  42  65  92 123 165 221 258 306 370
#
# _framework density 26.847473999999998
#
# number of rings (size 3 to 8) (size 9 to 14) (size 15 to 20)
#    0.000    1.000    5.000    3.750    3.500    1.000 
#    0.000    0.625    0.000    3.750    0.000    0.000 
#    0.000    0.000    0.000    0.000    0.000    0.000 
#
# Total GULP energy -89430.305679 kJ/mol
# GULP energy per Si atom -5589.394105 kJ/mol
# Density = 2.678637 g / cm^3
# Si number density = 26.847474 Si / 1000 Ang^3
#
#
#
# Elastic Constant Matrix: (Units=GPa)
#
#
# Indices 1 2 3 4 5 6 
#
# 1 45.9270 12.3467 33.5227 -10.4662 -0.9180 -5.1302
# 2 12.3467 78.0771 33.1955 11.9838 5.4589 -13.8842
# 3 33.5227 33.1955 177.4974 3.0547 -3.5860 -22.1724
# 4 -10.4662 11.9838 3.0547 35.0136 -0.0060 9.8263
# 5 -0.9180 5.4589 -3.5860 -0.0060 51.9925 -6.1037
# 6 -5.1302 -13.8842 -22.1724 9.8263 -6.1037 44.0047
#
#
#
# Elastic Compliance Matrix: (Units=1/GPa)
#
#
# Indices 1 2 3 4 5 6 
#
# 1 0.029198 -0.004813 -0.005229 0.011769 0.000270 -0.003340
# 2 -0.004813 0.016570 -0.001351 -0.008602 -0.001246 0.005735
# 3 -0.005229 -0.001351 0.007366 -0.002701 0.000958 0.003412
# 4 0.011769 -0.008602 -0.002701 0.038441 -0.000402 -0.011342
# 5 0.000270 -0.001246 0.000958 -0.000402 0.019782 0.002955
# 6 -0.003340 0.005735 0.003412 -0.011342 0.002955 0.028806
#
#
# Mechanical properties :
#
#
# Convention : Reuss Voigt Hill
#
# Bulk Modulus (GPa) = 32.94957 51.07014 42.00985
# Shear Modulus (GPa) = 28.89069 41.03127 34.96098
#
# Velocity S-wave (km/s) = 3.28396 3.91360 3.61253
# Velocity P-wave (km/s) = 5.16515 6.28374 5.75170
#
# Compressibility (1/GPa) = 0.03034941
#
# Stress axis : x y z
#
# Youngs Moduli (GPa) = 34.24844 60.34848 135.75937
#
# Poissons Ratio (x) = 0.29048 0.70983
# Poissons Ratio (y) = 0.16485 0.18337
# Poissons Ratio (z) = 0.17907 0.08151
#
# Static dielectric constant tensor:
#      x y z
#    x 2.213340 0.097860 -0.104720 
#    y 0.097860 2.247650 -0.030600 
#    z -0.104720 -0.030600 2.114620 
# 
# From -- ./inp_files/447578.got.cif
#   From: 2010.05.17/outbox.cif.g08.bks.cpg/sg2_224_cif.got.tgz:447578.got - 2010.06.03 11:33:40.
