data_PCOD9052433
_publ_section_title
;
Structure prediction by ZEFSAII (Michael W. Deem and Ramdas Pophale) SiO2 
 PCOD9052433
Probable space group: P -1
;
_chemical_formula_sum "Si O2"
_cell_formula_units_Z 16
_cell_length_a 8.164915
_cell_length_b 9.518899
_cell_length_c 15.408368
_cell_angle_alpha 67.481701
_cell_angle_beta 129.026004
_cell_angle_gamma 79.292512
_cell_volume 690.761396
_symmetry_space_group_name_H-M "P -1"
_symmetry_group_IT_number 2
_symmetry_cell_setting 'triclinic'
loop_
_space_group_symop_operation_xyz
x,y,z
-x,-y,-z
loop_
_atom_site_type_symbol
_atom_site_label
_atom_site_fract_x
_atom_site_fract_y
_atom_site_fract_z
Si Si1 0.149748 0.973752 0.441057
Si Si2 0.391859 0.901656 0.707317
Si Si3 0.020311 0.907547 0.233750
Si Si4 0.567782 0.272345 0.912532
Si Si5 0.457137 0.821183 0.269441
Si Si6 0.243907 0.506320 0.425511
Si Si7 0.969062 0.388958 0.259592
Si Si8 0.789971 0.489374 0.981664
O O1 0.911081 0.969935 0.394815
O O2 0.062361 0.185766 0.371520
O O3 0.389519 0.855729 0.615568
O O4 0.170909 0.927249 0.358070
O O5 0.535900 0.705846 0.853124
O O6 0.515546 0.012592 0.738459
O O7 0.193703 0.867882 0.215553
O O8 0.018442 0.730589 0.299601
O O9 0.732819 0.095969 0.075130
O O10 0.548727 0.205159 0.828257
O O11 0.286835 0.441421 0.815710
O O12 0.726580 0.362872 0.939718
O O13 0.696182 0.625280 0.440791
O O14 0.500000 0.500000 0.500000
O O15 0.188487 0.419310 0.347453
O O16 0.895176 0.404618 0.131389
O O17 0.000000 0.500000 0.000000
#
# Coordination Sequence:
#
# PCOD9052433 Si02
#       8
#     2   2   2   2   2   2   2   2
#     4  11  24  46  73  98 139 181 239 287 340 406
#     4  11  25  44  68 106 136 182 233 285 348 407
#     4  11  25  45  69  99 139 187 227 283 342 414
#     4  12  26  45  71 101 145 181 230 287 343 419
#     4  11  26  45  68 101 143 180 231 287 346 405
#     4  10  26  46  69  99 140 182 231 284 343 416
#     4  12  25  49  72 100 140 187 232 288 346 409
#     4  12  27  43  71 104 141 183 232 287 347 411
#
# _framework density 23.162846999999999
#
# number of rings (size 3 to 8) (size 9 to 14) (size 15 to 20)
#    0.000    0.750    3.750    2.250    8.750    2.500 
#    0.000    0.000    0.000    0.000    0.000    0.000 
#    0.000    0.000    0.000    0.000    0.000    0.000 
#
# Total GULP energy -89585.866858 kJ/mol
# GULP energy per Si atom -5599.116679 kJ/mol
# Density = 2.311013 g / cm^3
# Si number density = 23.162847 Si / 1000 Ang^3
#
#
#
# Elastic Constant Matrix: (Units=GPa)
#
#
# Indices 1 2 3 4 5 6 
#
# 1 34.8434 4.0332 -1.9604 13.3027 1.1131 -4.8982
# 2 4.0332 92.1952 25.3659 7.5786 -6.9408 18.0700
# 3 -1.9604 25.3659 85.3752 -2.2382 -16.9152 15.6376
# 4 13.3027 7.5786 -2.2382 50.3838 2.1209 -7.9427
# 5 1.1131 -6.9408 -16.9152 2.1209 24.6195 2.0718
# 6 -4.8982 18.0700 15.6376 -7.9427 2.0718 39.8885
#
#
#
# Elastic Compliance Matrix: (Units=1/GPa)
#
#
# Indices 1 2 3 4 5 6 
#
# 1 0.032329 -0.001538 0.000145 -0.007744 -0.001392 0.003140
# 2 -0.001538 0.013167 -0.002361 -0.002735 0.002894 -0.005923
# 3 0.000145 -0.002361 0.015513 -0.000319 0.010485 -0.005602
# 4 -0.007744 -0.002735 -0.000319 0.023239 -0.003079 0.005200
# 5 -0.001392 0.002894 0.010485 -0.003079 0.049706 -0.008787
# 6 0.003140 -0.005923 -0.005602 0.005200 -0.008787 0.031827
#
#
# Mechanical properties :
#
#
# Convention : Reuss Voigt Hill
#
# Bulk Modulus (GPa) = 18.69107 29.69901 24.19504
# Shear Modulus (GPa) = 26.16145 35.31002 30.73574
#
# Velocity S-wave (km/s) = 3.36439 3.90862 3.64667
# Velocity P-wave (km/s) = 4.81446 5.76363 5.31030
#
# Compressibility (1/GPa) = 0.05350149
#
# Stress axis : x y z
#
# Youngs Moduli (GPa) = 30.93239 75.94789 64.46211
#
# Poissons Ratio (x) = 0.11680 -0.00936
# Poissons Ratio (y) = 0.04757 0.15219
# Poissons Ratio (z) = -0.00449 0.17930
#
# Static dielectric constant tensor:
#      x y z
#    x 1.878040 -0.035640 0.052060 
#    y -0.035640 1.847580 -0.043620 
#    z 0.052060 -0.043620 1.935160 
# 
# From -- ./inp_files/200889.got.cif
#   From: 2010.05.17/outbox.cif.g08.bks.cpg/sg2_101_cif.got.tgz:200889.got - 2010.06.03 11:33:40.
