data_PCOD9052556
_publ_section_title
;
Structure prediction by ZEFSAII (Michael W. Deem and Ramdas Pophale) SiO2 
 PCOD9052556
Probable space group: P -1
;
_chemical_formula_sum "Si O2"
_cell_formula_units_Z 14
_cell_length_a 14.450703
_cell_length_b 23.787291
_cell_length_c 15.990685
_cell_angle_alpha 161.609939
_cell_angle_beta 26.429964
_cell_angle_gamma 159.590611
_cell_volume 603.796197
_symmetry_space_group_name_H-M "P -1"
_symmetry_group_IT_number 2
_symmetry_cell_setting 'triclinic'
loop_
_space_group_symop_operation_xyz
x,y,z
-x,-y,-z
loop_
_atom_site_type_symbol
_atom_site_label
_atom_site_fract_x
_atom_site_fract_y
_atom_site_fract_z
Si Si1 0.679860 0.816264 0.754845
Si Si2 0.373540 0.509398 0.784591
Si Si3 0.449270 0.330986 0.729958
Si Si4 0.804169 0.505303 0.534209
Si Si5 0.233440 0.861772 0.199946
Si Si6 0.112325 0.845903 0.094190
Si Si7 0.192071 0.011020 0.927363
O O1 0.638261 0.596271 0.444334
O O2 0.411428 0.781982 0.942234
O O3 0.847114 0.927909 0.861817
O O4 0.806332 0.986494 0.812582
O O5 0.580695 0.499872 0.657242
O O6 0.072936 0.347340 0.831297
O O7 0.511752 0.775435 0.038729
O O8 0.702883 0.448320 0.630844
O O9 0.349871 0.076240 0.469448
O O10 0.500000 0.500000 0.000000
O O11 0.195577 0.281691 0.819622
O O12 0.834199 0.327492 0.219833
O O13 0.088617 0.754956 0.652320
O O14 0.257907 0.957527 0.221571
O O15 0.000000 0.000000 0.000000
#
# Coordination Sequence:
#
# PCOD9052556 Si02
#       7
#     2   2   2   2   2   2   2
#     4  12  23  41  73 100 133 177 229 282 335 405
#     4  11  23  46  68  97 139 182 229 272 327 407
#     4  12  25  38  63 104 145 175 213 276 347 409
#     4  11  23  44  68 100 140 177 222 278 343 397
#     4  12  24  41  69 108 138 171 224 279 345 405
#     4  12  23  41  71 107 136 173 222 283 348 400
#     4  10  26  47  68  93 136 189 231 274 330 398
#
# _framework density 23.186631999999999
#
# number of rings (size 3 to 8) (size 9 to 14) (size 15 to 20)
#    0.000    0.571    5.714    3.000    2.000    1.714 
#    0.000    2.143    0.000    0.000    0.000    0.000 
#    0.000    0.000    0.000    0.000    0.000    0.000 
#
# Total GULP energy -78321.434540 kJ/mol
# GULP energy per Si atom -5594.388181 kJ/mol
# Density = 2.313386 g / cm^3
# Si number density = 23.186632 Si / 1000 Ang^3
#
#
#
# Elastic Constant Matrix: (Units=GPa)
#
#
# Indices 1 2 3 4 5 6 
#
# 1 93.9642 29.3969 15.4640 1.0366 19.3338 0.1576
# 2 29.3969 149.6032 73.1077 16.0986 -11.7129 -8.9074
# 3 15.4640 73.1077 130.8904 7.5170 13.7657 1.5524
# 4 1.0366 16.0986 7.5170 46.5767 3.4845 -4.5890
# 5 19.3338 -11.7129 13.7657 3.4845 34.0383 -1.0598
# 6 0.1576 -8.9074 1.5524 -4.5890 -1.0598 28.4100
#
#
#
# Elastic Compliance Matrix: (Units=1/GPa)
#
#
# Indices 1 2 3 4 5 6 
#
# 1 0.014040 -0.004956 0.002170 0.001672 -0.010788 -0.001883
# 2 -0.004956 0.012831 -0.007566 -0.003486 0.010781 0.004303
# 3 0.002170 -0.007566 0.012554 0.000900 -0.009107 -0.003264
# 4 0.001672 -0.003486 0.000900 0.023088 -0.004802 0.002399
# 5 -0.010788 0.010781 -0.009107 -0.004802 0.043539 0.004786
# 6 -0.001883 0.004303 -0.003264 0.002399 0.004786 0.037303
#
#
# Mechanical properties :
#
#
# Convention : Reuss Voigt Hill
#
# Bulk Modulus (GPa) = 53.41288 67.82169 60.61729
# Shear Modulus (GPa) = 29.36027 38.90428 34.13227
#
# Velocity S-wave (km/s) = 3.56231 4.10063 3.84091
# Velocity P-wave (km/s) = 6.32504 7.19264 6.77275
#
# Compressibility (1/GPa) = 0.01872208
#
# Stress axis : x y z
#
# Youngs Moduli (GPa) = 71.22500 77.93816 79.65548
#
# Poissons Ratio (x) = 0.38626 -0.17287
# Poissons Ratio (y) = 0.35299 0.60264
# Poissons Ratio (z) = -0.15457 0.58965
#
# Static dielectric constant tensor:
#      x y z
#    x 1.940030 -0.032020 -0.002950 
#    y -0.032020 1.906550 0.070820 
#    z -0.002950 0.070820 1.837100 
# 
# From -- ./inp_files/257748.got.cif
#   From: 2010.05.17/outbox.cif.g08.bks.cpg/sg2_129_cif.got.tgz:257748.got - 2010.06.03 11:33:40.
