data_PCOD9052312
_publ_section_title
;
Structure prediction by ZEFSAII (Michael W. Deem and Ramdas Pophale) SiO2 
 PCOD9052312
Probable space group: P -1
;
_chemical_formula_sum "Si O2"
_cell_formula_units_Z 14
_cell_length_a 7.765507
_cell_length_b 20.986060
_cell_length_c 8.818284
_cell_angle_alpha 147.434966
_cell_angle_beta 130.275351
_cell_angle_gamma 50.987035
_cell_volume 577.477653
_symmetry_space_group_name_H-M "P -1"
_symmetry_group_IT_number 2
_symmetry_cell_setting 'triclinic'
loop_
_space_group_symop_operation_xyz
x,y,z
-x,-y,-z
loop_
_atom_site_type_symbol
_atom_site_label
_atom_site_fract_x
_atom_site_fract_y
_atom_site_fract_z
Si Si1 0.654101 0.690227 0.353671
Si Si2 0.455659 0.866949 0.154601
Si Si3 0.123426 0.516824 0.758921
Si Si4 0.813636 0.067296 0.148638
Si Si5 0.161221 0.783577 0.281736
Si Si6 0.034803 0.149825 0.014883
Si Si7 0.666599 0.594096 0.830614
O O1 0.673319 0.593817 0.306736
O O2 0.425747 0.796004 0.434056
O O3 0.873266 0.748445 0.634937
O O4 0.657826 0.621169 0.058709
O O5 0.500000 0.000000 0.500000
O O6 0.406109 0.879471 0.970888
O O7 0.607981 0.731357 0.999697
O O8 0.219708 0.856236 0.084837
O O9 0.000000 0.500000 0.500000
O O10 0.924389 0.533179 0.805159
O O11 0.198974 0.641143 0.026840
O O12 0.918351 0.165243 0.496753
O O13 0.798116 0.972732 0.082658
O O14 0.000000 0.000000 0.000000
O O15 0.993487 0.831844 0.144569
O O16 0.500000 0.500000 0.500000
#
# Coordination Sequence:
#
# PCOD9052312 Si02
#       7
#     2   2   2   2   2   2   2
#     4  12  26  49  75 108 151 197 249 307 383 443
#     4  11  25  47  77 111 150 195 255 308 375 453
#     4  12  27  46  74 109 151 191 250 311 373 448
#     4  10  26  44  74 104 148 189 247 303 370 441
#     4  12  26  47  76 107 152 194 245 311 378 449
#     4  11  24  49  74 107 152 190 250 303 378 443
#     4  12  27  47  81 111 151 202 254 311 377 449
#
# _framework density 24.243361
#
# number of rings (size 3 to 8) (size 9 to 14) (size 15 to 20)
#    0.000    0.571    2.857    3.857   12.000    0.571 
#    0.000    0.000    0.000    0.000    0.000    0.000 
#    0.000    0.000    0.000    0.000    0.000    0.000 
#
# Total GULP energy -78220.619498 kJ/mol
# GULP energy per Si atom -5587.187107 kJ/mol
# Density = 2.418818 g / cm^3
# Si number density = 24.243361 Si / 1000 Ang^3
#
#
#
# Elastic Constant Matrix: (Units=GPa)
#
#
# Indices 1 2 3 4 5 6 
#
# 1 58.6626 3.5397 24.8218 -14.9876 -3.3341 -13.4980
# 2 3.5397 192.5930 66.3426 -12.0785 -5.1671 16.7725
# 3 24.8218 66.3426 187.6951 -17.5694 3.3004 3.2636
# 4 -14.9876 -12.0785 -17.5694 45.0125 8.7212 -5.2061
# 5 -3.3341 -5.1671 3.3004 8.7212 48.3406 -0.9192
# 6 -13.4980 16.7725 3.2636 -5.2061 -0.9192 25.3772
#
#
#
# Elastic Compliance Matrix: (Units=1/GPa)
#
#
# Indices 1 2 3 4 5 6 
#
# 1 0.023754 -0.000330 -0.002501 0.008469 0.000530 0.014931
# 2 -0.000330 0.006304 -0.002112 0.000159 0.000690 -0.004013
# 3 -0.002501 -0.002112 0.006556 0.001308 -0.001092 -0.000549
# 4 0.008469 0.000159 0.001308 0.027542 -0.004272 0.009726
# 5 0.000530 0.000690 -0.001092 -0.004272 0.021640 -0.000126
# 6 0.014931 -0.004013 -0.000549 0.009726 -0.000126 0.052061
#
#
# Mechanical properties :
#
#
# Convention : Reuss Voigt Hill
#
# Bulk Modulus (GPa) = 37.41350 69.81765 53.61557
# Shear Modulus (GPa) = 31.91799 46.69584 39.30691
#
# Velocity S-wave (km/s) = 3.63239 4.39353 4.03096
# Velocity P-wave (km/s) = 5.74963 7.38909 6.62031
#
# Compressibility (1/GPa) = 0.02672832
#
# Stress axis : x y z
#
# Youngs Moduli (GPa) = 42.09794 158.63375 152.52822
#
# Poissons Ratio (x) = 0.05236 0.38146
# Poissons Ratio (y) = 0.01389 0.32213
# Poissons Ratio (z) = 0.10528 0.33502
#
# Static dielectric constant tensor:
#      x y z
#    x 1.979790 -0.003930 -0.027650 
#    y -0.003930 1.969620 0.003940 
#    z -0.027650 0.003940 1.954870 
# 
# From -- ./inp_files/189682.got.cif
#   From: 2010.05.17/outbox.cif.g08.bks.cpg/sg2_95_cif.got.tgz:189682.got - 2010.06.03 11:33:40.
