data_PCOD9052922
_publ_section_title
;
Structure prediction by ZEFSAII (Michael W. Deem and Ramdas Pophale) SiO2 
 PCOD9052922
Probable space group: P -1
;
_chemical_formula_sum "Si O2"
_cell_formula_units_Z 13
_cell_length_a 15.499800
_cell_length_b 8.619121
_cell_length_c 15.594587
_cell_angle_alpha 70.403874
_cell_angle_beta 18.682280
_cell_angle_gamma 60.129317
_cell_volume 504.090634
_symmetry_space_group_name_H-M "P -1"
_symmetry_group_IT_number 2
_symmetry_cell_setting 'triclinic'
loop_
_space_group_symop_operation_xyz
x,y,z
-x,-y,-z
loop_
_atom_site_type_symbol
_atom_site_label
_atom_site_fract_x
_atom_site_fract_y
_atom_site_fract_z
Si Si1 0.148486 0.476318 0.088340
Si Si2 0.111046 0.149671 0.858622
Si Si3 0.500000 0.500000 0.000000
Si Si4 0.328485 0.170446 0.823314
Si Si5 0.678045 0.479423 0.672306
Si Si6 0.303859 0.915484 0.165020
Si Si7 0.892351 0.061043 0.842050
O O1 0.052733 0.683693 0.093298
O O2 0.890905 0.506807 0.398591
O O3 0.171121 0.332979 0.018305
O O4 0.518810 0.381328 0.792139
O O5 0.101825 0.258605 0.935026
O O6 0.500000 0.000000 0.500000
O O7 0.000000 0.000000 0.000000
O O8 0.821968 0.399575 0.645998
O O9 0.461333 0.326683 0.029520
O O10 0.723589 0.069777 0.464400
O O11 0.313601 0.982866 0.894375
O O12 0.318839 0.691326 0.009107
O O13 0.142737 0.002602 0.206751
O O14 0.000000 0.000000 0.500000
O O15 0.500000 0.000000 0.000000
#
# Coordination Sequence:
#
# PCOD9052922 Si02
#       7
#     2   2   1   2   2   2   2
#     4  12  26  43  71 105 139 188 234 301 362 432
#     4  12  25  45  72 101 141 190 238 292 360 441
#     4  10  28  48  74 110 148 200 250 320 370 452
#     4  12  25  43  70 104 145 179 237 298 360 436
#     4  11  25  46  71 100 143 186 248 291 370 434
#     4  11  26  45  74 105 148 190 255 307 378 447
#     4  11  24  44  68 103 136 192 232 298 361 438
#
# _framework density 25.789014000000002
#
# number of rings (size 3 to 8) (size 9 to 14) (size 15 to 20)
#    0.000    0.615    0.000    7.846    6.462    4.923 
#    0.000    4.615    0.000    0.000    0.000    0.000 
#    0.000    0.000    0.000    0.000    0.000    0.000 
#
# Total GULP energy -72463.735373 kJ/mol
# GULP energy per Si atom -5574.133490 kJ/mol
# Density = 2.573032 g / cm^3
# Si number density = 25.789014 Si / 1000 Ang^3
#
#
#
# Elastic Constant Matrix: (Units=GPa)
#
#
# Indices 1 2 3 4 5 6 
#
# 1 124.4826 25.8680 49.1843 -16.4238 8.4122 41.5011
# 2 25.8680 117.3039 70.1441 -10.5873 2.9051 38.9956
# 3 49.1843 70.1441 160.3541 -37.4619 9.4394 23.9588
# 4 -16.4238 -10.5873 -37.4619 59.9623 7.0511 -1.2188
# 5 8.4122 2.9051 9.4394 7.0511 42.9932 3.8630
# 6 41.5011 38.9956 23.9588 -1.2188 3.8630 43.4786
#
#
#
# Elastic Compliance Matrix: (Units=1/GPa)
#
#
# Indices 1 2 3 4 5 6 
#
# 1 0.013796 0.004020 -0.003133 0.002386 -0.001339 -0.014862
# 2 0.004020 0.016367 -0.006259 -0.000333 0.000898 -0.015158
# 3 -0.003133 -0.006259 0.010837 0.005157 -0.002458 0.002995
# 4 0.002386 -0.000333 0.005157 0.020966 -0.004672 -0.003818
# 5 -0.001339 0.000898 -0.002458 -0.004672 0.024812 -0.000508
# 6 -0.014862 -0.015158 0.002995 -0.003818 -0.000508 0.049068
#
#
# Mechanical properties :
#
#
# Convention : Reuss Voigt Hill
#
# Bulk Modulus (GPa) = 33.05007 76.94817 54.99912
# Shear Modulus (GPa) = 31.91319 46.41644 39.16481
#
# Velocity S-wave (km/s) = 3.52159 4.24707 3.90123
# Velocity P-wave (km/s) = 5.42022 7.34524 6.45489
#
# Compressibility (1/GPa) = 0.03025712
#
# Stress axis : x y z
#
# Youngs Moduli (GPa) = 72.48539 61.09727 92.27674
#
# Poissons Ratio (x) = -0.24564 0.28913
# Poissons Ratio (y) = -0.29142 0.57753
# Poissons Ratio (z) = 0.22712 0.38239
#
# Static dielectric constant tensor:
#      x y z
#    x 1.697440 -0.063460 0.110120 
#    y -0.063460 2.379450 -0.075540 
#    z 0.110120 -0.075540 1.977130 
# 
# From -- ./inp_files/201213.got.cif
#   From: 2010.05.17/outbox.cif.g08.bks.cpg/sg2_101_cif.got.tgz:201213.got - 2010.06.03 11:33:40.
