data_PCOD9052206
_publ_section_title
;
Structure prediction by ZEFSAII (Michael W. Deem and Ramdas Pophale) SiO2 
 PCOD9052206
Probable space group: P -1
;
_chemical_formula_sum "Si O2"
_cell_formula_units_Z 16
_cell_length_a 18.972486
_cell_length_b 10.912639
_cell_length_c 14.287663
_cell_angle_alpha 29.590612
_cell_angle_beta 35.835538
_cell_angle_gamma 27.937910
_cell_volume 672.737049
_symmetry_space_group_name_H-M "P -1"
_symmetry_group_IT_number 2
_symmetry_cell_setting 'triclinic'
loop_
_space_group_symop_operation_xyz
x,y,z
-x,-y,-z
loop_
_atom_site_type_symbol
_atom_site_label
_atom_site_fract_x
_atom_site_fract_y
_atom_site_fract_z
Si Si1 0.727009 0.337752 0.199130
Si Si2 0.630742 0.737757 0.462726
Si Si3 0.846919 0.492037 0.813070
Si Si4 0.825434 0.704945 0.418655
Si Si5 0.328464 0.820813 0.454919
Si Si6 0.619752 0.189965 0.799289
Si Si7 0.389760 0.936237 0.910719
Si Si8 0.728766 0.356346 0.877658
O O1 0.763368 0.231784 0.337927
O O2 0.551835 0.640535 0.166240
O O3 0.743599 0.053033 0.316715
O O4 0.827668 0.415956 0.988555
O O5 0.777825 0.695517 0.371110
O O6 0.632729 0.441819 0.666233
O O7 0.500000 0.000000 0.500000
O O8 0.604256 0.839779 0.315230
O O9 0.841378 0.255778 0.910454
O O10 0.996483 0.461551 0.654853
O O11 0.704615 0.851389 0.699495
O O12 0.771056 0.534974 0.648027
O O13 0.500000 0.500000 0.500000
O O14 0.286962 0.890058 0.344121
O O15 0.649746 0.968807 0.001020
O O16 0.275097 0.885696 0.018781
O O17 0.558408 0.597207 0.945629
#
# Coordination Sequence:
#
# PCOD9052206 Si02
#       8
#     2   2   2   2   2   2   2   2
#     4  11  22  40  65  97 129 164 210 259 321 382
#     4  12  21  38  65  94 129 159 214 268 316 373
#     4  12  25  42  63  95 137 167 207 260 321 387
#     4  12  23  40  65  98 133 170 201 262 330 380
#     4  10  26  43  64  92 124 173 218 261 311 372
#     4  11  22  40  63  92 123 164 215 269 309 364
#     4  11  21  36  66  96 124 162 209 263 317 371
#     4  11  20  37  63  96 127 160 201 258 326 373
#
# _framework density 23.783436999999999
#
# number of rings (size 3 to 8) (size 9 to 14) (size 15 to 20)
#    0.000    0.750    6.250    2.250    1.750    3.000 
#    0.000    0.625    0.000    1.500    0.000    0.000 
#    0.000    0.000    0.000    0.000    0.000    0.000 
#
# Total GULP energy -89425.004072 kJ/mol
# GULP energy per Si atom -5589.062755 kJ/mol
# Density = 2.372931 g / cm^3
# Si number density = 23.783437 Si / 1000 Ang^3
#
#
#
# Elastic Constant Matrix: (Units=GPa)
#
#
# Indices 1 2 3 4 5 6 
#
# 1 106.5808 19.9772 42.6361 23.7011 19.3147 8.2810
# 2 19.9772 36.1130 22.7140 -5.3726 -2.0820 -0.1058
# 3 42.6361 22.7140 159.9879 12.1817 35.2818 5.8804
# 4 23.7011 -5.3726 12.1817 21.6558 6.3651 -2.1101
# 5 19.3147 -2.0820 35.2818 6.3651 65.5896 8.5760
# 6 8.2810 -0.1058 5.8804 -2.1101 8.5760 22.6822
#
#
#
# Elastic Compliance Matrix: (Units=1/GPa)
#
#
# Indices 1 2 3 4 5 6 
#
# 1 0.018248 -0.013456 -0.000388 -0.023184 -0.002308 -0.007908
# 2 -0.013456 0.043468 -0.006090 0.028223 0.004903 0.007466
# 3 -0.000388 -0.006090 0.008516 -0.004780 -0.004065 -0.001002
# 4 -0.023184 0.028223 -0.004780 0.082970 -0.000056 0.017574
# 5 -0.002308 0.004903 -0.004065 -0.000056 0.018961 -0.005255
# 6 -0.007908 0.007466 -0.001002 0.017574 -0.005255 0.050891
#
#
# Mechanical properties :
#
#
# Convention : Reuss Voigt Hill
#
# Bulk Modulus (GPa) = 32.93316 52.59294 42.76305
# Shear Modulus (GPa) = 18.31215 36.47580 27.39398
#
# Velocity S-wave (km/s) = 2.77781 3.92045 3.39751
# Velocity P-wave (km/s) = 4.91584 6.53104 5.78014
#
# Compressibility (1/GPa) = 0.03036453
#
# Stress axis : x y z
#
# Youngs Moduli (GPa) = 54.80007 23.00526 117.43151
#
# Poissons Ratio (x) = 0.30956 0.04552
# Poissons Ratio (y) = 0.73740 0.71516
# Poissons Ratio (z) = 0.02124 0.14010
#
# Static dielectric constant tensor:
#      x y z
#    x 1.992410 0.022930 0.064580 
#    y 0.022930 1.952550 -0.010440 
#    z 0.064580 -0.010440 1.913100 
# 
# From -- ./inp_files/433475.got.cif
#   From: 2010.05.17/outbox.cif.g08.bks.cpg/sg2_217_cif.got.tgz:433475.got - 2010.06.03 11:33:40.
