data_PCOD9052446
_publ_section_title
;
Structure prediction by ZEFSAII (Michael W. Deem and Ramdas Pophale) SiO2 
 PCOD9052446
Probable space group: P -1
;
_chemical_formula_sum "Si O2"
_cell_formula_units_Z 16
_cell_length_a 13.947249
_cell_length_b 11.516268
_cell_length_c 14.398964
_cell_angle_alpha 30.552392
_cell_angle_beta 141.781524
_cell_angle_gamma 123.085761
_cell_volume 661.547285
_symmetry_space_group_name_H-M "P -1"
_symmetry_group_IT_number 2
_symmetry_cell_setting 'triclinic'
loop_
_space_group_symop_operation_xyz
x,y,z
-x,-y,-z
loop_
_atom_site_type_symbol
_atom_site_label
_atom_site_fract_x
_atom_site_fract_y
_atom_site_fract_z
Si Si1 0.235645 0.846280 0.240504
Si Si2 0.330579 0.457537 0.877660
Si Si3 0.572987 0.630864 0.385182
Si Si4 0.935587 0.106652 0.730165
Si Si5 0.519706 0.930079 0.453430
Si Si6 0.279767 0.965203 0.788247
Si Si7 0.092003 0.719868 0.682913
Si Si8 0.090249 0.326537 0.101791
O O1 0.260291 0.588156 0.385609
O O2 0.138835 0.954956 0.188862
O O3 0.430545 0.749683 0.488421
O O4 0.125135 0.062280 0.934163
O O5 0.212368 0.621894 0.592446
O O6 0.201830 0.562223 0.791785
O O7 0.500000 0.500000 0.000000
O O8 0.403887 0.161764 0.141786
O O9 0.500000 0.500000 0.500000
O O10 0.642766 0.840869 0.323499
O O11 0.421732 0.776760 0.095588
O O12 0.955381 0.901004 0.808505
O O13 0.707410 0.820571 0.634500
O O14 0.500000 0.000000 0.500000
O O15 0.100380 0.097831 0.615772
O O16 0.207742 0.846032 0.732804
O O17 0.067435 0.526370 0.867130
O O18 0.000000 0.500000 0.000000
#
# Coordination Sequence:
#
# PCOD9052446 Si02
#       8
#     2   2   2   2   2   2   2   2
#     4  11  25  47  74 102 149 198 248 323 381 462
#     4  12  25  43  76 107 147 194 261 317 376 467
#     4  11  26  49  75 105 157 209 257 309 396 470
#     4  11  26  47  72 109 147 196 257 309 392 460
#     4  12  23  47  74 106 143 196 257 308 380 457
#     4  10  26  46  70 111 156 197 254 318 388 463
#     4  11  25  44  74 108 153 196 254 332 382 442
#     4  12  26  46  78 111 151 201 257 316 392 462
#
# _framework density 24.185724
#
# number of rings (size 3 to 8) (size 9 to 14) (size 15 to 20)
#    0.000    0.750    3.750    1.500    7.000    5.500 
#    2.250    0.625    0.000    0.000    0.000    0.000 
#    0.000    0.000    0.000    0.000    0.000    0.000 
#
# Total GULP energy -89254.976212 kJ/mol
# GULP energy per Si atom -5578.436013 kJ/mol
# Density = 2.413068 g / cm^3
# Si number density = 24.185724 Si / 1000 Ang^3
#
#
#
# Elastic Constant Matrix: (Units=GPa)
#
#
# Indices 1 2 3 4 5 6 
#
# 1 83.6047 26.5594 24.6627 5.3820 7.3097 -5.7775
# 2 26.5594 79.3229 48.7463 17.7493 6.7103 21.6477
# 3 24.6627 48.7463 168.0384 26.8714 17.2698 -2.5208
# 4 5.3820 17.7493 26.8714 44.0979 6.8078 11.4329
# 5 7.3097 6.7103 17.2698 6.8078 44.3884 -7.8078
# 6 -5.7775 21.6477 -2.5208 11.4329 -7.8078 29.3833
#
#
#
# Elastic Compliance Matrix: (Units=1/GPa)
#
#
# Indices 1 2 3 4 5 6 
#
# 1 0.014886 -0.007306 0.000260 -0.001415 0.000348 0.008975
# 2 -0.007306 0.024979 -0.006225 0.000930 -0.004134 -0.021834
# 3 0.000260 -0.006225 0.008596 -0.004493 -0.000529 0.006983
# 4 -0.001415 0.000930 -0.004493 0.029731 -0.005236 -0.014308
# 5 0.000348 -0.004134 -0.000529 -0.005236 0.026229 0.012076
# 6 0.008975 -0.021834 0.006983 -0.014308 0.012076 0.061259
#
#
# Mechanical properties :
#
#
# Convention : Reuss Voigt Hill
#
# Bulk Modulus (GPa) = 45.62375 58.98920 52.30648
# Shear Modulus (GPa) = 25.05901 38.97376 32.01638
#
# Velocity S-wave (km/s) = 3.22235 4.01863 3.64231
# Velocity P-wave (km/s) = 5.72273 6.78052 6.27396
#
# Compressibility (1/GPa) = 0.02191841
#
# Stress axis : x y z
#
# Youngs Moduli (GPa) = 67.17592 40.03409 116.32848
#
# Poissons Ratio (x) = 0.29249 -0.03022
# Poissons Ratio (y) = 0.49079 0.72416
# Poissons Ratio (z) = -0.01745 0.24922
#
# Static dielectric constant tensor:
#      x y z
#    x 1.790860 -0.005280 0.164000 
#    y -0.005280 2.089960 0.258900 
#    z 0.164000 0.258900 2.261370 
# 
# From -- ./inp_files/532292.got.cif
#   From: 2010.05.17/outbox.cif.g08.bks.cpg/sg2_267_cif.got.tgz:532292.got - 2010.06.03 11:33:40.
