data_PCOD9052888
_publ_section_title
;
Structure prediction by ZEFSAII (Michael W. Deem and Ramdas Pophale) SiO2 
 PCOD9052888
Probable space group: P -1
;
_chemical_formula_sum "Si O2"
_cell_formula_units_Z 16
_cell_length_a 11.809770
_cell_length_b 16.025301
_cell_length_c 14.019696
_cell_angle_alpha 54.196302
_cell_angle_beta 95.776438
_cell_angle_gamma 144.406048
_cell_volume 760.520818
_symmetry_space_group_name_H-M "P -1"
_symmetry_group_IT_number 2
_symmetry_cell_setting 'triclinic'
loop_
_space_group_symop_operation_xyz
x,y,z
-x,-y,-z
loop_
_atom_site_type_symbol
_atom_site_label
_atom_site_fract_x
_atom_site_fract_y
_atom_site_fract_z
Si Si1 0.698796 0.842038 0.490592
Si Si2 0.693435 0.662956 0.308512
Si Si3 0.894836 0.524988 0.560725
Si Si4 0.211628 0.578474 0.588810
Si Si5 0.614053 0.404081 0.776240
Si Si6 0.350173 0.278585 0.227202
Si Si7 0.671861 0.038973 0.013626
Si Si8 0.400212 0.297361 0.010141
O O1 0.430755 0.536538 0.631618
O O2 0.576231 0.849766 0.443691
O O3 0.713225 0.843815 0.604723
O O4 0.025712 0.071615 0.322971
O O5 0.500000 0.500000 0.500000
O O6 0.599071 0.687405 0.228838
O O7 0.064754 0.974873 0.156863
O O8 0.942720 0.593018 0.409439
O O9 0.887549 0.607390 0.585431
O O10 0.125659 0.626720 0.544183
O O11 0.524055 0.166948 0.772786
O O12 0.037651 0.377417 0.799333
O O13 0.674154 0.493273 0.828560
O O14 0.427400 0.138245 0.945232
O O15 0.436789 0.297745 0.123095
O O16 0.605313 0.582807 0.070072
O O17 0.500000 0.000000 0.000000
#
# Coordination Sequence:
#
# PCOD9052888 Si02
#       8
#     2   2   2   2   2   2   2   2
#     4  11  22  39  58  85 122 157 202 247 298 366
#     4  12  22  35  59  93 118 152 205 253 302 354
#     4   8  19  32  54  91 116 146 197 249 310 345
#     4  10  17  35  58  81 123 154 191 248 306 351
#     4  10  20  34  56  86 122 145 199 257 298 353
#     4  10  24  39  54  82 123 169 199 231 307 378
#     4   8  17  32  52  87 120 146 186 249 306 348
#     4  11  22  39  56  82 122 162 200 246 303 355
#
# _framework density 21.038212000000001
#
# number of rings (size 3 to 8) (size 9 to 14) (size 15 to 20)
#    0.750    1.250    2.500    1.875    1.750    0.000 
#    2.250    0.000    0.000    1.500    0.000    0.000 
#    0.000    0.000    0.000    0.000    0.000    0.000 
#
# Total GULP energy -89087.336406 kJ/mol
# GULP energy per Si atom -5567.958525 kJ/mol
# Density = 2.099033 g / cm^3
# Si number density = 21.038212 Si / 1000 Ang^3
#
#
#
# Elastic Constant Matrix: (Units=GPa)
#
#
# Indices 1 2 3 4 5 6 
#
# 1 91.1746 27.3793 2.0962 13.6282 -13.2998 -4.5994
# 2 27.3793 56.0932 16.4166 17.5146 -13.8480 -13.6919
# 3 2.0962 16.4166 62.0143 12.5839 0.9839 1.9018
# 4 13.6282 17.5146 12.5839 37.2157 -3.5379 -6.7184
# 5 -13.2998 -13.8480 0.9839 -3.5379 25.4804 3.0091
# 6 -4.5994 -13.6919 1.9018 -6.7184 3.0091 25.8157
#
#
#
# Elastic Compliance Matrix: (Units=1/GPa)
#
#
# Indices 1 2 3 4 5 6 
#
# 1 0.013521 -0.005764 0.001635 -0.002787 0.003702 -0.001925
# 2 -0.005764 0.030759 -0.007199 -0.006526 0.011572 0.012770
# 3 0.001635 -0.007199 0.019259 -0.005140 -0.003827 -0.005837
# 4 -0.002787 -0.006526 -0.005140 0.033575 -0.000761 0.005248
# 5 0.003702 0.011572 -0.003827 -0.000761 0.047349 0.001362
# 6 -0.001925 0.012770 -0.005837 0.005248 0.001362 0.046803
#
#
# Mechanical properties :
#
#
# Convention : Reuss Voigt Hill
#
# Bulk Modulus (GPa) = 24.46029 33.45181 28.95605
# Shear Modulus (GPa) = 21.97332 28.59503 25.28418
#
# Velocity S-wave (km/s) = 3.23530 3.69073 3.47049
# Velocity P-wave (km/s) = 5.06044 5.83926 5.46374
#
# Compressibility (1/GPa) = 0.04088259
#
# Stress axis : x y z
#
# Youngs Moduli (GPa) = 73.96073 32.51057 51.92498
#
# Poissons Ratio (x) = 0.18738 -0.08488
# Poissons Ratio (y) = 0.42628 0.37380
# Poissons Ratio (z) = -0.12090 0.23404
#
# Static dielectric constant tensor:
#      x y z
#    x 1.802470 -0.008050 -0.048420 
#    y -0.008050 1.755200 0.002640 
#    z -0.048420 0.002640 1.887230 
# 
# From -- ./inp_files/520815.got.cif
#   From: 2010.05.17/outbox.cif.g08.bks.cpg/sg2_261_cif.got.tgz:520815.got - 2010.06.03 11:33:40.
