data_PCOD9052592
_publ_section_title
;
Structure prediction by ZEFSAII (Michael W. Deem and Ramdas Pophale) SiO2 
 PCOD9052592
Probable space group: P -1
;
_chemical_formula_sum "Si O2"
_cell_formula_units_Z 14
_cell_length_a 11.920660
_cell_length_b 10.391339
_cell_length_c 5.375653
_cell_angle_alpha 111.167391
_cell_angle_beta 112.764297
_cell_angle_gamma 102.391271
_cell_volume 521.726851
_symmetry_space_group_name_H-M "P -1"
_symmetry_group_IT_number 2
_symmetry_cell_setting 'triclinic'
loop_
_space_group_symop_operation_xyz
x,y,z
-x,-y,-z
loop_
_atom_site_type_symbol
_atom_site_label
_atom_site_fract_x
_atom_site_fract_y
_atom_site_fract_z
Si Si1 0.725027 0.029514 0.585591
Si Si2 0.083471 0.549540 0.358089
Si Si3 0.254769 0.397318 0.150688
Si Si4 0.670678 0.153243 0.132523
Si Si5 0.547944 0.386999 0.266687
Si Si6 0.301198 0.308342 0.702706
Si Si7 0.984097 0.904056 0.166570
O O1 0.647516 0.052745 0.293051
O O2 0.884738 0.132233 0.763362
O O3 0.715681 0.858697 0.480541
O O4 0.668390 0.067917 0.816047
O O5 0.182575 0.470769 0.331163
O O6 0.179007 0.723784 0.608449
O O7 0.000000 0.500000 0.500000
O O8 0.000000 0.500000 0.000000
O O9 0.389411 0.565880 0.375981
O O10 0.196636 0.357733 0.786721
O O11 0.166226 0.224757 0.061738
O O12 0.585134 0.254737 0.106480
O O13 0.613860 0.555766 0.312309
O O14 0.388124 0.333623 0.063739
O O15 0.000000 0.000000 0.500000
O O16 0.000000 0.000000 0.000000
#
# Coordination Sequence:
#
# PCOD9052592 Si02
#       7
#     2   2   2   2   2   2   2
#     4  12  26  47  72 109 146 188 235 294 366 428
#     4  11  24  42  68 100 141 190 232 286 350 429
#     4  11  24  41  72  98 141 182 246 290 355 423
#     4  11  26  46  71 104 147 186 238 296 359 432
#     4  10  26  47  73 103 139 193 248 301 361 421
#     4  11  25  47  74 103 141 191 248 304 355 430
#     4  12  24  41  68 104 145 185 228 287 361 430
#
# _framework density 26.833964000000002
#
# number of rings (size 3 to 8) (size 9 to 14) (size 15 to 20)
#    0.000    0.857    1.429    4.714   10.000    1.143 
#    0.000    0.000    0.000    0.000    0.000    0.000 
#    0.000    0.000    0.000    0.000    0.000    0.000 
#
# Total GULP energy -77993.724715 kJ/mol
# GULP energy per Si atom -5570.980337 kJ/mol
# Density = 2.677289 g / cm^3
# Si number density = 26.833964 Si / 1000 Ang^3
#
#
#
# Elastic Constant Matrix: (Units=GPa)
#
#
# Indices 1 2 3 4 5 6 
#
# 1 122.2391 51.5839 38.3849 -1.1467 -30.3812 5.8474
# 2 51.5839 144.9870 53.8989 6.0424 -16.4120 21.5894
# 3 38.3849 53.8989 120.6391 22.6973 -33.5545 -9.3969
# 4 -1.1467 6.0424 22.6973 54.7076 0.5216 2.1034
# 5 -30.3812 -16.4120 -33.5545 0.5216 79.9174 5.9568
# 6 5.8474 21.5894 -9.3969 2.1034 5.9568 37.6744
#
#
#
# Elastic Compliance Matrix: (Units=1/GPa)
#
#
# Indices 1 2 3 4 5 6 
#
# 1 0.010629 -0.002734 -0.001682 0.001235 0.002841 -0.001021
# 2 -0.002734 0.010521 -0.004629 0.000964 -0.000325 -0.006761
# 3 -0.001682 -0.004629 0.013366 -0.005333 0.003611 0.005974
# 4 0.001235 0.000964 -0.005333 0.020540 -0.001483 -0.002987
# 5 0.002841 -0.000325 0.003611 -0.001483 0.015177 -0.001671
# 6 -0.001021 -0.006761 0.005974 -0.002987 -0.001671 0.032497
#
#
# Mechanical properties :
#
#
# Convention : Reuss Voigt Hill
#
# Bulk Modulus (GPa) = 60.88153 75.06673 67.97413
# Shear Modulus (GPa) = 39.58995 50.72639 45.15817
#
# Velocity S-wave (km/s) = 3.84522 4.35257 4.10673
# Velocity P-wave (km/s) = 6.51550 7.30035 6.91906
#
# Compressibility (1/GPa) = 0.01642534
#
# Stress axis : x y z
#
# Youngs Moduli (GPa) = 94.08018 95.05144 74.81915
#
# Poissons Ratio (x) = 0.25990 0.12584
# Poissons Ratio (y) = 0.25725 0.34632
# Poissons Ratio (z) = 0.15824 0.43997
#
# Static dielectric constant tensor:
#      x y z
#    x 2.536260 0.015410 0.398370 
#    y 0.015410 2.096930 -0.083800 
#    z 0.398370 -0.083800 2.595610 
# 
# From -- ./inp_files/72434.got.cif
#   From: 2010.05.17/outbox.cif.g08.bks.cpg/sg2_37_cif.got.tgz:72434.got - 2010.06.03 11:33:40.
