data_PCOD9052014
_publ_section_title
;
Structure prediction by ZEFSAII (Michael W. Deem and Ramdas Pophale) SiO2 
 PCOD9052014
Probable space group: P -1
;
_chemical_formula_sum "Si O2"
_cell_formula_units_Z 10
_cell_length_a 16.151499
_cell_length_b 4.889403
_cell_length_c 5.481165
_cell_angle_alpha 93.884007
_cell_angle_beta 66.987622
_cell_angle_gamma 109.457102
_cell_volume 374.680292
_symmetry_space_group_name_H-M "P -1"
_symmetry_group_IT_number 2
_symmetry_cell_setting 'triclinic'
loop_
_space_group_symop_operation_xyz
x,y,z
-x,-y,-z
loop_
_atom_site_type_symbol
_atom_site_label
_atom_site_fract_x
_atom_site_fract_y
_atom_site_fract_z
Si Si1 0.817593 0.894900 0.466434
Si Si2 0.345802 0.374416 0.705886
Si Si3 0.503245 0.243562 0.810729
Si Si4 0.782968 0.398347 0.816807
Si Si5 0.015601 0.351819 0.219369
O O1 0.744250 0.866235 0.330516
O O2 0.800406 0.569545 0.552506
O O3 0.788337 0.082890 0.725758
O O4 0.930345 0.045165 0.300771
O O5 0.414721 0.211807 0.728229
O O6 0.404319 0.614066 0.455617
O O7 0.308780 0.554865 0.958018
O O8 0.500000 0.500000 0.000000
O O9 0.500000 0.000000 0.000000
O O10 0.872356 0.592556 0.888848
O O11 0.000000 0.500000 0.500000
O O12 0.000000 0.500000 0.000000
#
# Coordination Sequence:
#
# PCOD9052014 Si02
#       5
#     2   2   2   2   2
#     4  11  27  48  76 116 158 207 266 320 389 479
#     4  11  28  49  86 112 154 211 262 335 406 486
#     4  11  28  55  77 112 157 197 262 337 417 484
#     4  11  27  48  76 116 158 207 266 320 389 479
#     4  10  25  49  75 115 170 216 262 329 395 474
#
# _framework density 26.689423000000001
#
# number of rings (size 3 to 8) (size 9 to 14) (size 15 to 20)
#    0.000    1.200    0.000    1.800   11.200   13.600 
#    0.000    3.000    0.000    0.000    0.000    0.000 
#    0.000    0.000    0.000    0.000    0.000    0.000 
#
# Total GULP energy -56050.950204 kJ/mol
# GULP energy per Si atom -5605.095020 kJ/mol
# Density = 2.662868 g / cm^3
# Si number density = 26.689423 Si / 1000 Ang^3
#
#
#
# Elastic Constant Matrix: (Units=GPa)
#
#
# Indices 1 2 3 4 5 6 
#
# 1 146.7793 46.1361 37.8249 -3.2138 20.8872 21.6363
# 2 46.1361 124.2324 39.5708 -8.5977 4.8605 -12.8664
# 3 37.8249 39.5708 134.8706 -24.6633 -1.7089 -4.9398
# 4 -3.2138 -8.5977 -24.6633 47.8834 2.0801 15.1396
# 5 20.8872 4.8605 -1.7089 2.0801 65.7293 7.3257
# 6 21.6363 -12.8664 -4.9398 15.1396 7.3257 42.8194
#
#
#
# Elastic Compliance Matrix: (Units=1/GPa)
#
#
# Indices 1 2 3 4 5 6 
#
# 1 0.009588 -0.003486 -0.001704 0.001173 -0.002187 -0.006129
# 2 -0.003486 0.010478 -0.002102 -0.001029 -0.000255 0.005075
# 3 -0.001704 -0.002102 0.009308 0.004390 0.000844 -0.000393
# 4 0.001173 -0.001029 0.004390 0.026081 0.000065 -0.009628
# 5 -0.002187 -0.000255 0.000844 0.000065 0.016132 -0.001657
# 6 -0.006129 0.005075 -0.000393 -0.009628 -0.001657 0.031618
#
#
# Mechanical properties :
#
#
# Convention : Reuss Voigt Hill
#
# Bulk Modulus (GPa) = 67.61169 72.54954 70.08061
# Shear Modulus (GPa) = 40.74318 50.10978 45.42648
#
# Velocity S-wave (km/s) = 3.91137 4.33773 4.13006
# Velocity P-wave (km/s) = 6.76655 7.23393 7.00414
#
# Compressibility (1/GPa) = 0.01479034
#
# Stress axis : x y z
#
# Youngs Moduli (GPa) = 104.29353 95.43863 107.43152
#
# Poissons Ratio (x) = 0.33271 0.18306
# Poissons Ratio (y) = 0.36358 0.22582
# Poissons Ratio (z) = 0.17771 0.20061
#
# Static dielectric constant tensor:
#      x y z
#    x 2.194620 0.061320 -0.006120 
#    y 0.061320 2.046030 0.002950 
#    z -0.006120 0.002950 2.038430 
# 
# From -- ./inp_files/1505.got.cif
#   From: 2010.05.17/outbox.cif.g08.bks.cpg/sg2_1_cif.got.tgz:1505.got - 2010.06.03 11:33:40.
