data_PCOD9052035
_publ_section_title
;
Structure prediction by ZEFSAII (Michael W. Deem and Ramdas Pophale) SiO2 
 PCOD9052035
Probable space group: P -1
;
_chemical_formula_sum "Si O2"
_cell_formula_units_Z 16
_cell_length_a 5.393741
_cell_length_b 5.113422
_cell_length_c 22.959413
_cell_angle_alpha 80.695402
_cell_angle_beta 104.823280
_cell_angle_gamma 94.347285
_cell_volume 603.709225
_symmetry_space_group_name_H-M "P -1"
_symmetry_group_IT_number 2
_symmetry_cell_setting 'triclinic'
loop_
_space_group_symop_operation_xyz
x,y,z
-x,-y,-z
loop_
_atom_site_type_symbol
_atom_site_label
_atom_site_fract_x
_atom_site_fract_y
_atom_site_fract_z
Si Si1 0.870205 0.618164 0.345809
Si Si2 0.261436 0.737726 0.140113
Si Si3 0.020735 0.765417 0.878878
Si Si4 0.548488 0.628426 0.738796
Si Si5 0.347753 0.205838 0.562195
Si Si6 0.693957 0.740010 0.573960
Si Si7 0.655108 0.268756 0.990330
Si Si8 0.097306 0.940823 0.757001
O O1 0.060336 0.383689 0.377347
O O2 0.854257 0.793193 0.397165
O O3 0.579977 0.512251 0.319344
O O4 0.953025 0.781409 0.287156
O O5 0.324592 0.697444 0.078149
O O6 0.007370 0.537080 0.133922
O O7 0.432589 0.598691 0.202659
O O8 0.221670 0.044219 0.139872
O O9 0.173056 0.922977 0.830898
O O10 0.102937 0.756417 0.951522
O O11 0.826597 0.771506 0.743228
O O12 0.331646 0.823924 0.740006
O O13 0.487085 0.495856 0.562609
O O14 0.239758 0.172757 0.491617
O O15 0.557254 0.980236 0.589181
O O16 0.500000 0.500000 0.000000
O O17 0.500000 0.000000 0.000000
#
# Coordination Sequence:
#
# PCOD9052035 Si02
#       8
#     2   2   2   2   2   2   2   2
#     4  12  29  44  84 111 166 206 280 318 422 469
#     4  11  25  47  72 104 152 203 263 326 401 469
#     4  11  25  47  72 104 152 203 263 326 401 469
#     4  11  30  50  76 115 161 213 267 333 400 484
#     4  10  25  49  78 115 158 207 266 333 403 479
#     4  10  25  49  78 115 158 207 266 333 403 479
#     4  12  24  40  74 108 146 200 265 327 398 470
#     4  11  30  50  76 115 161 213 267 333 400 484
#
# _framework density 26.502825000000001
#
# number of rings (size 3 to 8) (size 9 to 14) (size 15 to 20)
#    0.000    1.000    0.000    3.375   15.750    0.000 
#    0.000    3.750    0.000    2.250    0.000    0.000 
#    0.000    0.000    0.000    0.000    0.000    0.000 
#
# Total GULP energy -89653.976504 kJ/mol
# GULP energy per Si atom -5603.373532 kJ/mol
# Density = 2.644250 g / cm^3
# Si number density = 26.502825 Si / 1000 Ang^3
#
#
#
# Elastic Constant Matrix: (Units=GPa)
#
#
# Indices 1 2 3 4 5 6 
#
# 1 90.3272 23.7638 23.7971 -14.7120 3.1062 -8.9529
# 2 23.7638 113.1527 22.4380 -10.6830 -14.6890 -25.9229
# 3 23.7971 22.4380 172.2440 -11.8447 -0.5075 -16.7446
# 4 -14.7120 -10.6830 -11.8447 49.5187 -8.5220 1.1793
# 5 3.1062 -14.6890 -0.5075 -8.5220 43.0832 -5.1856
# 6 -8.9529 -25.9229 -16.7446 1.1793 -5.1856 44.4974
#
#
#
# Elastic Compliance Matrix: (Units=1/GPa)
#
#
# Indices 1 2 3 4 5 6 
#
# 1 0.012493 -0.002106 -0.001201 0.002782 -0.001005 0.000644
# 2 -0.002106 0.011924 -0.000388 0.002648 0.005574 0.006956
# 3 -0.001201 -0.000388 0.006286 0.001100 0.000478 0.001925
# 4 0.002782 0.002648 0.001100 0.022744 0.005522 0.002557
# 5 -0.001005 0.005574 0.000478 0.005522 0.027031 0.006228
# 6 0.000644 0.006956 0.001925 0.002557 0.006228 0.028038
#
#
# Mechanical properties :
#
#
# Convention : Reuss Voigt Hill
#
# Bulk Modulus (GPa) = 42.89179 57.30240 50.09709
# Shear Modulus (GPa) = 40.42821 47.80154 44.11488
#
# Velocity S-wave (km/s) = 3.90991 4.25154 4.08430
# Velocity P-wave (km/s) = 6.04998 6.76527 6.41760
#
# Compressibility (1/GPa) = 0.02331449
#
# Stress axis : x y z
#
# Youngs Moduli (GPa) = 80.04682 83.86506 159.07778
#
# Poissons Ratio (x) = 0.17661 0.19101
# Poissons Ratio (y) = 0.16857 0.06166
# Poissons Ratio (z) = 0.09611 0.03251
#
# Static dielectric constant tensor:
#      x y z
#    x 2.123470 0.076240 0.015490 
#    y 0.076240 2.044100 0.010820 
#    z 0.015490 0.010820 2.181910 
# 
# From -- ./inp_files/602707.got.cif
#   From: 2010.05.17/outbox.cif.g08.bks.cpg/sg2_302_cif.got.tgz:602707.got - 2010.06.03 11:33:40.
