data_PCOD9052474
_publ_section_title
;
Structure prediction by ZEFSAII (Michael W. Deem and Ramdas Pophale) SiO2 
 PCOD9052474
Probable space group: P -1
;
_chemical_formula_sum "Si O2"
_cell_formula_units_Z 14
_cell_length_a 7.852693
_cell_length_b 24.408381
_cell_length_c 8.923338
_cell_angle_alpha 41.637518
_cell_angle_beta 56.063649
_cell_angle_gamma 34.249950
_cell_volume 631.415345
_symmetry_space_group_name_H-M "P -1"
_symmetry_group_IT_number 2
_symmetry_cell_setting 'triclinic'
loop_
_space_group_symop_operation_xyz
x,y,z
-x,-y,-z
loop_
_atom_site_type_symbol
_atom_site_label
_atom_site_fract_x
_atom_site_fract_y
_atom_site_fract_z
Si Si1 0.846655 0.553870 0.304885
Si Si2 0.690075 0.190422 0.557301
Si Si3 0.802609 0.178945 0.874646
Si Si4 0.286866 0.169254 0.623681
Si Si5 0.638863 0.540455 0.916837
Si Si6 0.756592 0.446856 0.363669
Si Si7 0.775236 0.035233 0.409612
O O1 0.487090 0.674820 0.247668
O O2 0.952718 0.443378 0.385259
O O3 0.000000 0.500000 0.500000
O O4 0.012626 0.571421 0.086305
O O5 0.753080 0.165015 0.755899
O O6 0.497781 0.167445 0.631409
O O7 0.533983 0.325803 0.326429
O O8 0.022377 0.093157 0.511982
O O9 0.128941 0.129824 0.837407
O O10 0.751283 0.117325 0.135919
O O11 0.472705 0.101504 0.516192
O O12 0.975084 0.314255 0.456173
O O13 0.500000 0.500000 0.000000
O O14 0.627175 0.540036 0.102448
O O15 0.500000 0.500000 0.500000
O O16 0.000000 0.000000 0.500000
#
# Coordination Sequence:
#
# PCOD9052474 Si02
#       7
#     2   2   2   2   2   2   2
#     4  12  23  42  67 102 142 177 233 292 356 430
#     4  11  25  46  69 101 145 184 239 295 350 421
#     4  12  24  46  74 101 144 189 235 294 359 420
#     4  11  24  46  72 103 142 186 239 291 355 427
#     4  12  25  42  68 103 141 184 236 293 360 431
#     4  12  23  39  67 100 135 185 226 288 369 414
#     4  10  26  46  72 104 141 188 246 293 344 425
#
# _framework density 22.172411
#
# number of rings (size 3 to 8) (size 9 to 14) (size 15 to 20)
#    0.000    0.571    4.286    3.429    4.000    2.857 
#    0.000    4.286    0.000    0.000    0.000    0.000 
#    0.000    0.000    0.000    0.000    0.000    0.000 
#
# Total GULP energy -78004.060525 kJ/mol
# GULP energy per Si atom -5571.718609 kJ/mol
# Density = 2.212195 g / cm^3
# Si number density = 22.172411 Si / 1000 Ang^3
#
#
#
# Elastic Constant Matrix: (Units=GPa)
#
#
# Indices 1 2 3 4 5 6 
#
# 1 88.3602 41.1508 33.1302 16.1726 -8.3930 2.9045
# 2 41.1508 178.9976 39.7575 25.0399 -9.7300 -10.8789
# 3 33.1302 39.7575 81.5154 20.5317 19.3747 4.4503
# 4 16.1726 25.0399 20.5317 44.1922 1.8199 -4.1995
# 5 -8.3930 -9.7300 19.3747 1.8199 38.0791 16.1561
# 6 2.9045 -10.8789 4.4503 -4.1995 16.1561 34.8266
#
#
#
# Elastic Compliance Matrix: (Units=1/GPa)
#
#
# Indices 1 2 3 4 5 6 
#
# 1 0.016266 -0.001642 -0.007029 -0.002667 0.009236 -0.005577
# 2 -0.001642 0.007123 -0.002960 -0.002036 0.002494 0.001338
# 3 -0.007029 -0.002960 0.020883 -0.004602 -0.013944 0.002907
# 4 -0.002667 -0.002036 -0.004602 0.027391 -0.001931 0.004373
# 5 0.009236 0.002494 -0.013944 -0.001931 0.044150 -0.018923
# 6 -0.005577 0.001338 0.002907 0.004373 -0.018923 0.038531
#
#
# Mechanical properties :
#
#
# Convention : Reuss Voigt Hill
#
# Bulk Modulus (GPa) = 47.59616 64.10560 55.85088
# Shear Modulus (GPa) = 27.08408 39.07522 33.07965
#
# Velocity S-wave (km/s) = 3.49882 4.20257 3.86674
# Velocity P-wave (km/s) = 6.15104 7.24734 6.72158
#
# Compressibility (1/GPa) = 0.02101010
#
# Stress axis : x y z
#
# Youngs Moduli (GPa) = 61.47638 140.38552 47.88624
#
# Poissons Ratio (x) = 0.23054 0.33660
# Poissons Ratio (y) = 0.10095 0.14174
# Poissons Ratio (z) = 0.43213 0.41552
#
# Static dielectric constant tensor:
#      x y z
#    x 1.947320 -0.042330 -0.072630 
#    y -0.042330 1.839110 0.010240 
#    z -0.072630 0.010240 1.889110 
# 
# From -- ./inp_files/179598.got.cif
#   From: 2010.05.17/outbox.cif.g08.bks.cpg/sg2_90_cif.got.tgz:179598.got - 2010.06.03 11:33:40.
