data_PCOD9052230
_publ_section_title
;
Structure prediction by ZEFSAII (Michael W. Deem and Ramdas Pophale) SiO2 
 PCOD9052230
Probable space group: P -1
;
_chemical_formula_sum "Si O2"
_cell_formula_units_Z 16
_cell_length_a 6.307462
_cell_length_b 11.707282
_cell_length_c 12.497515
_cell_angle_alpha 80.060886
_cell_angle_beta 49.285355
_cell_angle_gamma 83.452078
_cell_volume 688.996183
_symmetry_space_group_name_H-M "P -1"
_symmetry_group_IT_number 2
_symmetry_cell_setting 'triclinic'
loop_
_space_group_symop_operation_xyz
x,y,z
-x,-y,-z
loop_
_atom_site_type_symbol
_atom_site_label
_atom_site_fract_x
_atom_site_fract_y
_atom_site_fract_z
Si Si1 0.935444 0.666799 0.463559
Si Si2 0.720783 0.306898 0.872429
Si Si3 0.271785 0.087705 0.510669
Si Si4 0.931951 0.745608 0.865383
Si Si5 0.410284 0.554410 0.408834
Si Si6 0.973820 0.511025 0.132795
Si Si7 0.165429 0.881262 0.971003
Si Si8 0.213094 0.063106 0.278961
O O1 0.118933 0.663218 0.294628
O O2 0.191081 0.660829 0.466103
O O3 0.725345 0.774221 0.501800
O O4 0.751274 0.555140 0.571385
O O5 0.771345 0.419070 0.911848
O O6 0.390209 0.276218 0.984569
O O7 0.874618 0.201211 0.900503
O O8 0.252462 0.070794 0.392079
O O9 0.500000 0.000000 0.500000
O O10 0.971706 0.049270 0.663352
O O11 0.939274 0.832185 0.748622
O O12 0.041796 0.622589 0.807010
O O13 0.102155 0.803220 0.898705
O O14 0.500000 0.500000 0.500000
O O15 0.692438 0.578025 0.248031
O O16 0.000000 0.500000 0.000000
O O17 0.479475 0.927846 0.868563
O O18 0.000000 0.000000 0.000000
#
# Coordination Sequence:
#
# PCOD9052230 Si02
#       8
#     2   2   2   2   2   2   2   2
#     4  11  27  44  71 101 141 184 240 286 361 432
#     4  11  25  44  67 107 135 191 234 288 352 432
#     4  11  26  45  72  99 141 189 238 299 353 426
#     4  11  25  43  72 100 144 181 233 299 354 425
#     4  11  26  46  68 104 142 185 229 295 361 421
#     4  12  24  45  74 102 143 183 238 291 361 423
#     4  11  26  44  70 101 143 185 233 294 364 424
#     4  10  26  44  65 106 133 182 241 286 364 419
#
# _framework density 23.222190999999999
#
# number of rings (size 3 to 8) (size 9 to 14) (size 15 to 20)
#    0.000    1.000    2.500    1.875   10.500    2.000 
#    0.000    0.000    0.000    0.000    0.000    0.000 
#    0.000    0.000    0.000    0.000    0.000    0.000 
#
# Total GULP energy -89344.895887 kJ/mol
# GULP energy per Si atom -5584.055993 kJ/mol
# Density = 2.316934 g / cm^3
# Si number density = 23.222191 Si / 1000 Ang^3
#
#
#
# Elastic Constant Matrix: (Units=GPa)
#
#
# Indices 1 2 3 4 5 6 
#
# 1 77.6314 13.1532 14.8070 -6.3665 0.8480 -15.5346
# 2 13.1532 91.8060 -5.4349 -17.5991 -3.4281 -15.9107
# 3 14.8070 -5.4349 66.6383 -18.5153 6.4041 -4.6328
# 4 -6.3665 -17.5991 -18.5153 34.3698 -0.8099 1.6473
# 5 0.8480 -3.4281 6.4041 -0.8099 44.7525 -14.1139
# 6 -15.5346 -15.9107 -4.6328 1.6473 -14.1139 39.9782
#
#
#
# Elastic Compliance Matrix: (Units=1/GPa)
#
#
# Indices 1 2 3 4 5 6 
#
# 1 0.014789 -0.001240 -0.003122 0.000201 0.001818 0.005525
# 2 -0.001240 0.014224 0.004125 0.009041 0.002648 0.006220
# 3 -0.003122 0.004125 0.019647 0.012001 -0.001713 0.001606
# 4 0.000201 0.009041 0.012001 0.040069 0.000871 0.003723
# 5 0.001818 0.002648 -0.001713 0.000871 0.026169 0.010765
# 6 0.005525 0.006220 0.001606 0.003723 0.010765 0.033469
#
#
# Mechanical properties :
#
#
# Convention : Reuss Voigt Hill
#
# Bulk Modulus (GPa) = 20.75215 31.23625 25.99420
# Shear Modulus (GPa) = 30.32085 38.05679 34.18882
#
# Velocity S-wave (km/s) = 3.61735 4.05262 3.84115
# Velocity P-wave (km/s) = 5.13835 5.94798 5.55793
#
# Compressibility (1/GPa) = 0.04818778
#
# Stress axis : x y z
#
# Youngs Moduli (GPa) = 67.61729 70.30244 50.89766
#
# Poissons Ratio (x) = 0.08716 0.15891
# Poissons Ratio (y) = 0.08383 -0.20998
# Poissons Ratio (z) = 0.21110 -0.29003
#
# Static dielectric constant tensor:
#      x y z
#    x 2.121930 -0.151130 0.031470 
#    y -0.151130 1.980220 -0.022310 
#    z 0.031470 -0.022310 1.874070 
# 
# From -- ./inp_files/364219.got.cif
#   From: 2010.05.17/outbox.cif.g08.bks.cpg/sg2_183_cif.got.tgz:364219.got - 2010.06.03 11:33:40.
