data_PCOD9052373
_publ_section_title
;
Structure prediction by ZEFSAII (Michael W. Deem and Ramdas Pophale) SiO2 
 PCOD9052373
Probable space group: P -1
;
_chemical_formula_sum "Si O2"
_cell_formula_units_Z 16
_cell_length_a 21.859362
_cell_length_b 8.194304
_cell_length_c 9.136187
_cell_angle_alpha 134.300057
_cell_angle_beta 44.641514
_cell_angle_gamma 136.542490
_cell_volume 732.749136
_symmetry_space_group_name_H-M "P -1"
_symmetry_group_IT_number 2
_symmetry_cell_setting 'triclinic'
loop_
_space_group_symop_operation_xyz
x,y,z
-x,-y,-z
loop_
_atom_site_type_symbol
_atom_site_label
_atom_site_fract_x
_atom_site_fract_y
_atom_site_fract_z
Si Si1 0.928486 0.518596 0.755280
Si Si2 0.833724 0.630974 0.469288
Si Si3 0.666745 0.183936 0.316564
Si Si4 0.818456 0.708602 0.852053
Si Si5 0.255839 0.004883 0.196099
Si Si6 0.395898 0.389701 0.419705
Si Si7 0.386018 0.328813 0.748965
Si Si8 0.987656 0.241177 0.931456
O O1 0.859334 0.629833 0.874569
O O2 0.000000 0.500000 0.500000
O O3 0.849519 0.236283 0.759544
O O4 0.987442 0.695564 0.901573
O O5 0.772249 0.375121 0.323671
O O6 0.848883 0.588834 0.586114
O O7 0.766526 0.772472 0.687757
O O8 0.929747 0.806121 0.323392
O O9 0.619164 0.371989 0.472493
O O10 0.621349 0.945917 0.358368
O O11 0.681146 0.066013 0.067757
O O12 0.705493 0.638402 0.013101
O O13 0.883247 0.013762 0.930179
O O14 0.317612 0.128396 0.314299
O O15 0.382264 0.358322 0.598295
O O16 0.508615 0.459209 0.242627
O O17 0.000000 0.500000 0.000000
#
# Coordination Sequence:
#
# PCOD9052373 Si02
#       8
#     2   2   2   2   2   2   2   2
#     4  12  26  42  66 104 138 178 226 286 346 409
#     4  11  23  43  66 100 135 179 225 279 339 410
#     4  11  22  46  71 101 138 185 230 283 346 408
#     4  12  25  41  68  99 135 179 230 281 342 414
#     4  11  23  45  70  98 137 180 230 283 340 411
#     4  10  26  45  71 101 142 181 232 291 341 414
#     4  11  24  47  68 104 139 181 235 286 348 407
#     4  12  24  43  69  97 137 181 224 278 344 414
#
# _framework density 21.835574999999999
#
# number of rings (size 3 to 8) (size 9 to 14) (size 15 to 20)
#    0.000    0.750    2.500    4.875    5.250    0.500 
#    2.250    1.875    0.000    0.000    0.000    0.000 
#    0.000    0.000    0.000    0.000    0.000    0.000 
#
# Total GULP energy -89408.305729 kJ/mol
# GULP energy per Si atom -5588.019108 kJ/mol
# Density = 2.178588 g / cm^3
# Si number density = 21.835575 Si / 1000 Ang^3
#
#
#
# Elastic Constant Matrix: (Units=GPa)
#
#
# Indices 1 2 3 4 5 6 
#
# 1 82.6633 0.4810 46.0898 -9.6412 11.3354 0.2206
# 2 0.4810 47.9002 9.1244 -12.9198 -4.9914 0.0619
# 3 46.0898 9.1244 100.7460 -12.2117 -0.2390 13.0970
# 4 -9.6412 -12.9198 -12.2117 33.7139 1.4977 -6.0929
# 5 11.3354 -4.9914 -0.2390 1.4977 30.4821 -0.7030
# 6 0.2206 0.0619 13.0970 -6.0929 -0.7030 42.7290
#
#
#
# Elastic Compliance Matrix: (Units=1/GPa)
#
#
# Indices 1 2 3 4 5 6 
#
# 1 0.018078 0.001691 -0.008377 0.003597 -0.006622 0.002876
# 2 0.001691 0.024026 -0.002086 0.009159 0.002884 0.001949
# 3 -0.008377 -0.002086 0.014652 0.001227 0.002731 -0.004225
# 4 0.003597 0.009159 0.001227 0.035548 -0.001468 0.004637
# 5 -0.006622 0.002884 0.002731 -0.001468 0.035825 -0.000427
# 6 0.002876 0.001949 -0.004225 0.004637 -0.000427 0.025335
#
#
# Mechanical properties :
#
#
# Convention : Reuss Voigt Hill
#
# Bulk Modulus (GPa) = 25.50304 38.07775 31.79040
# Shear Modulus (GPa) = 27.16252 33.09263 30.12757
#
# Velocity S-wave (km/s) = 3.53080 3.89721 3.71852
# Velocity P-wave (km/s) = 5.32232 6.14225 5.74693
#
# Compressibility (1/GPa) = 0.03921100
#
# Stress axis : x y z
#
# Youngs Moduli (GPa) = 55.31539 41.62241 68.25123
#
# Poissons Ratio (x) = -0.07037 0.57175
# Poissons Ratio (y) = -0.09352 0.14236
# Poissons Ratio (z) = 0.46339 0.08682
#
# Static dielectric constant tensor:
#      x y z
#    x 1.848040 -0.040970 -0.040070 
#    y -0.040970 1.842180 0.019650 
#    z -0.040070 0.019650 1.965070 
# 
# From -- ./inp_files/110972.got.cif
#   From: 2010.05.17/outbox.cif.g08.bks.cpg/sg2_56_cif.got.tgz:110972.got - 2010.06.03 11:33:40.
