data_PCOD9052620
_publ_section_title
;
Structure prediction by ZEFSAII (Michael W. Deem and Ramdas Pophale) SiO2 
 PCOD9052620
Probable space group: P -1
;
_chemical_formula_sum "Si O2"
_cell_formula_units_Z 14
_cell_length_a 9.170677
_cell_length_b 9.678562
_cell_length_c 13.637366
_cell_angle_alpha 35.035776
_cell_angle_beta 113.112596
_cell_angle_gamma 92.193513
_cell_volume 539.465123
_symmetry_space_group_name_H-M "P -1"
_symmetry_group_IT_number 2
_symmetry_cell_setting 'triclinic'
loop_
_space_group_symop_operation_xyz
x,y,z
-x,-y,-z
loop_
_atom_site_type_symbol
_atom_site_label
_atom_site_fract_x
_atom_site_fract_y
_atom_site_fract_z
Si Si1 0.231937 0.027141 0.259153
Si Si2 0.116743 0.609614 0.191252
Si Si3 0.402939 0.937479 0.678867
Si Si4 0.517169 0.373532 0.717504
Si Si5 0.567004 0.074004 0.085111
Si Si6 0.100158 0.370843 0.702530
Si Si7 0.842539 0.167444 0.445400
O O1 0.389313 0.114412 0.253306
O O2 0.357094 0.690772 0.455670
O O3 0.152115 0.012855 0.353135
O O4 0.052722 0.230805 0.024730
O O5 0.244011 0.264177 0.418360
O O6 0.282048 0.668191 0.200215
O O7 0.019155 0.702251 0.217463
O O8 0.347949 0.752023 0.708891
O O9 0.373340 0.897740 0.808652
O O10 0.464812 0.354027 0.828280
O O11 0.282795 0.111333 0.851726
O O12 0.484980 0.872561 0.201446
O O13 0.118999 0.593657 0.644163
O O14 0.000000 0.500000 0.500000
O O15 0.000000 0.000000 0.500000
#
# Coordination Sequence:
#
# PCOD9052620 Si02
#       7
#     2   2   2   2   2   2   2
#     4  11  27  49  77 114 153 203 250 313 383 452
#     4  11  26  47  75 113 153 200 248 313 381 442
#     4  11  26  51  76 110 157 197 254 313 377 451
#     4  10  26  47  76 110 157 193 256 310 380 438
#     4  11  24  49  77 113 153 195 259 314 373 455
#     4  12  25  48  77 116 151 199 256 310 377 453
#     4  12  25  50  77 109 155 202 254 313 372 454
#
# _framework density 25.951630000000002
#
# number of rings (size 3 to 8) (size 9 to 14) (size 15 to 20)
#    0.000    0.857    4.286    0.429    8.000    4.571 
#    0.000    5.000    0.000    0.000    0.000    0.000 
#    0.000    0.000    0.000    0.000    0.000    0.000 
#
# Total GULP energy -78241.361123 kJ/mol
# GULP energy per Si atom -5588.668652 kJ/mol
# Density = 2.589256 g / cm^3
# Si number density = 25.951630 Si / 1000 Ang^3
#
#
#
# Elastic Constant Matrix: (Units=GPa)
#
#
# Indices 1 2 3 4 5 6 
#
# 1 172.6911 35.9706 53.7770 7.4861 1.8003 -21.6849
# 2 35.9706 108.9364 49.0559 16.0963 -5.2568 -3.4362
# 3 53.7770 49.0559 165.4976 22.4608 11.5895 -6.2947
# 4 7.4861 16.0963 22.4608 42.8522 -12.7521 -3.9322
# 5 1.8003 -5.2568 11.5895 -12.7521 48.0501 5.0869
# 6 -21.6849 -3.4362 -6.2947 -3.9322 5.0869 43.7144
#
#
#
# Elastic Compliance Matrix: (Units=1/GPa)
#
#
# Indices 1 2 3 4 5 6 
#
# 1 0.007037 -0.001509 -0.001771 0.000496 -0.000207 0.003186
# 2 -0.001509 0.011254 -0.002669 -0.002200 0.001412 -0.000611
# 3 -0.001771 -0.002669 0.008174 -0.003930 -0.003252 0.000114
# 4 0.000496 -0.002200 -0.003930 0.028674 0.008178 0.001135
# 5 -0.000207 0.001412 -0.003252 0.008178 0.024198 -0.002540
# 6 0.003186 -0.000611 0.000114 0.001135 -0.002540 0.024822
#
#
# Mechanical properties :
#
#
# Convention : Reuss Voigt Hill
#
# Bulk Modulus (GPa) = 68.64605 80.52580 74.58592
# Shear Modulus (GPa) = 41.35206 47.47812 44.41509
#
# Velocity S-wave (km/s) = 3.99611 4.28189 4.14146
# Velocity P-wave (km/s) = 6.91381 7.45269 7.18830
#
# Compressibility (1/GPa) = 0.01456748
#
# Stress axis : x y z
#
# Youngs Moduli (GPa) = 142.10133 88.85868 122.33219
#
# Poissons Ratio (x) = 0.13409 0.21666
# Poissons Ratio (y) = 0.21443 0.32650
# Poissons Ratio (z) = 0.25168 0.23716
#
# Static dielectric constant tensor:
#      x y z
#    x 4.566250 0.013980 4.761340 
#    y 0.013980 1.985770 0.029710 
#    z 4.761340 0.029710 10.997870 
# 
# From -- ./inp_files/90024.got.cif
#   From: 2010.05.17/outbox.cif.g08.bks.cpg/sg2_46_cif.got.tgz:90024.got - 2010.06.03 11:33:40.
