data_PCOD9052623
_publ_section_title
;
Structure prediction by ZEFSAII (Michael W. Deem and Ramdas Pophale) SiO2 
 PCOD9052623
Probable space group: P -1
;
_chemical_formula_sum "Si O2"
_cell_formula_units_Z 14
_cell_length_a 15.989081
_cell_length_b 5.337616
_cell_length_c 9.487972
_cell_angle_alpha 111.041654
_cell_angle_beta 54.410026
_cell_angle_gamma 116.671355
_cell_volume 583.060878
_symmetry_space_group_name_H-M "P -1"
_symmetry_group_IT_number 2
_symmetry_cell_setting 'triclinic'
loop_
_space_group_symop_operation_xyz
x,y,z
-x,-y,-z
loop_
_atom_site_type_symbol
_atom_site_label
_atom_site_fract_x
_atom_site_fract_y
_atom_site_fract_z
Si Si1 0.580865 0.523657 0.557855
Si Si2 0.333508 0.876685 0.732700
Si Si3 0.908689 0.256530 0.115319
Si Si4 0.201720 0.165111 0.485767
Si Si5 0.614529 0.461706 0.122286
Si Si6 0.982846 0.869546 0.763157
Si Si7 0.218384 0.553114 0.284115
O O1 0.500000 0.500000 0.500000
O O2 0.600285 0.219540 0.475386
O O3 0.702276 0.741174 0.472633
O O4 0.516158 0.608703 0.766454
O O5 0.208663 0.726797 0.789553
O O6 0.358262 0.737378 0.825171
O O7 0.351135 0.206404 0.801206
O O8 0.941346 0.261637 0.245840
O O9 0.000000 0.500000 0.000000
O O10 0.916444 0.979860 0.968829
O O11 0.076663 0.113356 0.641373
O O12 0.234041 0.409156 0.385928
O O13 0.206696 0.863717 0.365158
O O14 0.681487 0.437984 0.914425
O O15 0.894390 0.656266 0.710835
#
# Coordination Sequence:
#
# PCOD9052623 Si02
#       7
#     2   2   2   2   2   2   2
#     4  10  26  47  77 106 141 179 239 306 364 408
#     4  11  23  43  73 106 141 176 234 300 363 410
#     4  11  24  39  75 106 142 182 234 298 360 411
#     4  12  29  46  72 104 142 195 240 283 350 435
#     4  11  24  46  73 103 141 187 236 291 356 418
#     4  11  26  45  69 106 146 185 238 292 354 419
#     4  12  27  48  71 101 147 197 237 281 350 426
#
# _framework density 24.011215
#
# number of rings (size 3 to 8) (size 9 to 14) (size 15 to 20)
#    0.000    0.857    1.429    3.857   12.000    3.429 
#    0.000    0.000    0.000    0.000    0.000    0.000 
#    0.000    0.000    0.000    0.000    0.000    0.000 
#
# Total GULP energy -78289.664283 kJ/mol
# GULP energy per Si atom -5592.118877 kJ/mol
# Density = 2.395656 g / cm^3
# Si number density = 24.011215 Si / 1000 Ang^3
#
#
#
# Elastic Constant Matrix: (Units=GPa)
#
#
# Indices 1 2 3 4 5 6 
#
# 1 81.7947 22.5299 28.9831 14.6374 -19.3374 10.5958
# 2 22.5299 82.8729 7.7835 5.1843 0.7360 -8.3307
# 3 28.9831 7.7835 118.0819 -5.3955 -29.0943 -14.1838
# 4 14.6374 5.1843 -5.3955 37.5518 -2.0007 2.8918
# 5 -19.3374 0.7360 -29.0943 -2.0007 49.5014 -5.3270
# 6 10.5958 -8.3307 -14.1838 2.8918 -5.3270 49.5238
#
#
#
# Elastic Compliance Matrix: (Units=1/GPa)
#
#
# Indices 1 2 3 4 5 6 
#
# 1 0.017502 -0.004525 -0.003920 -0.006183 0.003828 -0.004856
# 2 -0.004525 0.013637 0.000198 -0.000417 -0.001529 0.003179
# 3 -0.003920 0.000198 0.011569 0.003120 0.005890 0.004637
# 4 -0.006183 -0.000417 0.003120 0.029543 0.000672 0.000493
# 5 0.003828 -0.001529 0.005890 0.000672 0.025566 0.003322
# 6 -0.004856 0.003179 0.004637 0.000493 0.003322 0.023422
#
#
# Mechanical properties :
#
#
# Convention : Reuss Voigt Hill
#
# Bulk Modulus (GPa) = 38.14935 44.59361 41.37148
# Shear Modulus (GPa) = 34.13626 42.21226 38.17426
#
# Velocity S-wave (km/s) = 3.77461 4.19743 3.99162
# Velocity P-wave (km/s) = 5.90927 6.48872 6.20576
#
# Compressibility (1/GPa) = 0.02621277
#
# Stress axis : x y z
#
# Youngs Moduli (GPa) = 57.13787 73.32729 86.44067
#
# Poissons Ratio (x) = 0.33182 0.33886
# Poissons Ratio (y) = 0.25856 -0.01710
# Poissons Ratio (z) = 0.22399 -0.01450
#
# Static dielectric constant tensor:
#      x y z
#    x 1.840710 -0.091670 0.083940 
#    y -0.091670 1.817050 0.156820 
#    z 0.083940 0.156820 1.834020 
# 
# From -- ./inp_files/108418.got.cif
#   From: 2010.05.17/outbox.cif.g08.bks.cpg/sg2_55_cif.got.tgz:108418.got - 2010.06.03 11:33:40.
