data_PCOD9052309
_publ_section_title
;
Structure prediction by ZEFSAII (Michael W. Deem and Ramdas Pophale) SiO2 
 PCOD9052309
Probable space group: P -1
;
_chemical_formula_sum "Si O2"
_cell_formula_units_Z 14
_cell_length_a 23.140183
_cell_length_b 9.851064
_cell_length_c 8.644467
_cell_angle_alpha 57.821216
_cell_angle_beta 47.129554
_cell_angle_gamma 27.165791
_cell_volume 643.612514
_symmetry_space_group_name_H-M "P -1"
_symmetry_group_IT_number 2
_symmetry_cell_setting 'triclinic'
loop_
_space_group_symop_operation_xyz
x,y,z
-x,-y,-z
loop_
_atom_site_type_symbol
_atom_site_label
_atom_site_fract_x
_atom_site_fract_y
_atom_site_fract_z
Si Si1 0.400767 0.224068 0.189520
Si Si2 0.644944 0.351425 0.868676
Si Si3 0.209186 0.183349 0.896343
Si Si4 0.673879 0.741327 0.175032
Si Si5 0.170124 0.850038 0.636465
Si Si6 0.111571 0.248595 0.716449
Si Si7 0.858408 0.485062 0.687149
O O1 0.390628 0.432694 0.094515
O O2 0.237252 0.435253 0.322986
O O3 0.502990 0.995916 0.287203
O O4 0.500000 0.000000 0.000000
O O5 0.719214 0.285527 0.617237
O O6 0.500000 0.500000 0.000000
O O7 0.755021 0.043618 0.945098
O O8 0.317039 0.135375 0.789767
O O9 0.215537 0.137762 0.730788
O O10 0.044053 0.518131 0.053466
O O11 0.770369 0.421023 0.243502
O O12 0.753532 0.675309 0.914956
O O13 0.165401 0.994411 0.689714
O O14 0.005160 0.134389 0.686666
O O15 0.097008 0.415909 0.515413
#
# Coordination Sequence:
#
# PCOD9052309 Si02
#       7
#     2   2   2   2   2   2   2
#     4  10  26  44  72  98 143 182 232 285 353 409
#     4  12  26  47  72 101 139 189 234 288 352 420
#     4  11  24  44  71 104 143 176 236 288 350 413
#     4  11  24  46  70 104 142 185 228 294 347 420
#     4  12  26  43  75 105 140 187 237 285 352 410
#     4  11  25  43  72 106 138 184 232 293 344 414
#     4  11  23  45  73 100 141 185 233 282 350 413
#
# _framework density 21.752219
#
# number of rings (size 3 to 8) (size 9 to 14) (size 15 to 20)
#    0.000    0.857    4.286    1.714    8.000    3.429 
#    0.000    1.429    0.000    0.000    0.000    0.000 
#    0.000    0.000    0.000    0.000    0.000    0.000 
#
# Total GULP energy -78312.895013 kJ/mol
# GULP energy per Si atom -5593.778215 kJ/mol
# Density = 2.170271 g / cm^3
# Si number density = 21.752219 Si / 1000 Ang^3
#
#
#
# Elastic Constant Matrix: (Units=GPa)
#
#
# Indices 1 2 3 4 5 6 
#
# 1 161.5087 57.1703 34.6164 7.2662 2.7772 2.3842
# 2 57.1703 91.0322 13.8573 -13.5856 9.7926 21.0377
# 3 34.6164 13.8573 80.5042 -8.8476 7.8130 3.5938
# 4 7.2662 -13.5856 -8.8476 34.5880 -7.1876 -3.3071
# 5 2.7772 9.7926 7.8130 -7.1876 25.2040 2.9984
# 6 2.3842 21.0377 3.5938 -3.3071 2.9984 49.0447
#
#
#
# Elastic Compliance Matrix: (Units=1/GPa)
#
#
# Indices 1 2 3 4 5 6 
#
# 1 0.009621 -0.006911 -0.003728 -0.005256 0.001002 0.002354
# 2 -0.006911 0.018233 0.001332 0.007514 -0.003778 -0.006845
# 3 -0.003728 0.001332 0.014629 0.004268 -0.003309 -0.000972
# 4 -0.005256 0.007514 0.004268 0.035297 0.006557 -0.001301
# 5 0.001002 -0.003778 -0.003309 0.006557 0.043981 -0.000432
# 6 0.002354 -0.006845 -0.000972 -0.001301 -0.000432 0.023221
#
#
# Mechanical properties :
#
#
# Convention : Reuss Voigt Hill
#
# Bulk Modulus (GPa) = 41.89665 60.48146 51.18905
# Shear Modulus (GPa) = 29.14547 36.92741 33.03644
#
# Velocity S-wave (km/s) = 3.66441 4.12471 3.90136
# Velocity P-wave (km/s) = 6.09972 7.10981 6.62405
#
# Compressibility (1/GPa) = 0.02386826
#
# Stress axis : x y z
#
# Youngs Moduli (GPa) = 103.93391 54.84668 68.35809
#
# Poissons Ratio (x) = 0.37907 0.25480
# Poissons Ratio (y) = 0.71833 -0.09102
# Poissons Ratio (z) = 0.38741 -0.07303
#
# Static dielectric constant tensor:
#      x y z
#    x 1.817610 -0.049750 0.010730 
#    y -0.049750 1.777600 -0.000130 
#    z 0.010730 -0.000130 1.710160 
# 
# From -- ./inp_files/189822.got.cif
#   From: 2010.05.17/outbox.cif.g08.bks.cpg/sg2_95_cif.got.tgz:189822.got - 2010.06.03 11:33:40.
