data_PCOD9052597
_publ_section_title
;
Structure prediction by ZEFSAII (Michael W. Deem and Ramdas Pophale) SiO2 
 PCOD9052597
Probable space group: P -1
;
_chemical_formula_sum "Si O2"
_cell_formula_units_Z 16
_cell_length_a 11.755939
_cell_length_b 14.998450
_cell_length_c 5.003842
_cell_angle_alpha 127.815867
_cell_angle_beta 88.057028
_cell_angle_gamma 111.848943
_cell_volume 623.802736
_symmetry_space_group_name_H-M "P -1"
_symmetry_group_IT_number 2
_symmetry_cell_setting 'triclinic'
loop_
_space_group_symop_operation_xyz
x,y,z
-x,-y,-z
loop_
_atom_site_type_symbol
_atom_site_label
_atom_site_fract_x
_atom_site_fract_y
_atom_site_fract_z
Si Si1 0.516027 0.764337 0.494664
Si Si2 0.159255 0.967266 0.778608
Si Si3 0.077099 0.283811 0.862055
Si Si4 0.618381 0.100699 0.503908
Si Si5 0.552283 0.396332 0.302727
Si Si6 0.030355 0.403875 0.600366
Si Si7 0.209981 0.121386 0.548509
Si Si8 0.787523 0.357655 0.276776
O O1 0.434989 0.842428 0.622569
O O2 0.531704 0.718131 0.700264
O O3 0.648544 0.845064 0.488374
O O4 0.450404 0.646266 0.081106
O O5 0.290007 0.954386 0.722115
O O6 0.048102 0.838994 0.445451
O O7 0.174919 0.075001 0.765047
O O8 0.131082 0.007187 0.142815
O O9 0.082696 0.389159 0.851840
O O10 0.189232 0.244605 0.740264
O O11 0.063215 0.321223 0.231102
O O12 0.500000 0.000000 0.500000
O O13 0.704323 0.220541 0.904881
O O14 0.500000 0.500000 0.500000
O O15 0.691610 0.420628 0.445178
O O16 0.107087 0.547182 0.760092
O O17 0.877947 0.351950 0.494537
#
# Coordination Sequence:
#
# PCOD9052597 Si02
#       8
#     2   2   2   2   2   2   2   2
#     4  11  26  44  69 107 139 186 238 287 353 434
#     4  12  25  45  71 104 144 191 236 294 355 417
#     4  12  26  45  75 102 142 188 241 290 362 411
#     4  11  24  47  75 106 145 191 237 296 358 426
#     4  11  26  45  73 101 144 183 233 293 359 423
#     4  11  26  47  74 105 138 192 234 301 349 420
#     4  12  26  44  70 103 150 182 241 292 351 431
#     4  10  26  47  73 106 145 180 246 290 353 425
#
# _framework density 25.649131000000001
#
# number of rings (size 3 to 8) (size 9 to 14) (size 15 to 20)
#    0.000    0.750    2.500    3.375    7.000    5.500 
#    0.000    0.000    0.000    0.000    0.000    0.000 
#    0.000    0.000    0.000    0.000    0.000    0.000 
#
# Total GULP energy -89722.874510 kJ/mol
# GULP energy per Si atom -5607.679657 kJ/mol
# Density = 2.559075 g / cm^3
# Si number density = 25.649131 Si / 1000 Ang^3
#
#
#
# Elastic Constant Matrix: (Units=GPa)
#
#
# Indices 1 2 3 4 5 6 
#
# 1 86.5109 10.6461 42.9737 -2.7043 -10.7169 -12.1894
# 2 10.6461 99.0615 15.3073 -1.0465 -0.1083 -17.4043
# 3 42.9737 15.3073 108.3599 2.2347 -15.3273 -4.6532
# 4 -2.7043 -1.0465 2.2347 33.4297 9.0003 2.1895
# 5 -10.7169 -0.1083 -15.3273 9.0003 42.4404 16.4806
# 6 -12.1894 -17.4043 -4.6532 2.1895 16.4806 36.6854
#
#
#
# Elastic Compliance Matrix: (Units=1/GPa)
#
#
# Indices 1 2 3 4 5 6 
#
# 1 0.015091 0.000066 -0.005879 0.001412 -0.000301 0.004351
# 2 0.000066 0.011576 -0.001882 0.000985 -0.003474 0.006777
# 3 -0.005879 -0.001882 0.012412 -0.002437 0.004782 -0.003275
# 4 0.001412 0.000985 -0.002437 0.032301 -0.008317 0.002436
# 5 -0.000301 -0.003474 0.004782 -0.008317 0.032971 -0.015457
# 6 0.004351 0.006777 -0.003275 0.002436 -0.015457 0.038303
#
#
# Mechanical properties :
#
#
# Convention : Reuss Voigt Hill
#
# Bulk Modulus (GPa) = 42.21536 47.97630 45.09583
# Shear Modulus (GPa) = 30.13124 37.51143 33.82133
#
# Velocity S-wave (km/s) = 3.43118 3.82839 3.63521
# Velocity P-wave (km/s) = 5.67378 6.18769 5.93630
#
# Compressibility (1/GPa) = 0.02368806
#
# Stress axis : x y z
#
# Youngs Moduli (GPa) = 66.26250 86.38776 80.56755
#
# Poissons Ratio (x) = -0.00567 0.47367
# Poissons Ratio (y) = -0.00435 0.15162
# Poissons Ratio (z) = 0.38957 0.16258
#
# Static dielectric constant tensor:
#      x y z
#    x 2.029290 0.009740 0.056780 
#    y 0.009740 1.995890 0.013770 
#    z 0.056780 0.013770 2.024370 
# 
# From -- ./inp_files/78801.got.cif
#   From: 2010.05.17/outbox.cif.g08.bks.cpg/sg2_40_cif.got.tgz:78801.got - 2010.06.03 11:33:40.
