data_PCOD9052772
_publ_section_title
;
Structure prediction by ZEFSAII (Michael W. Deem and Ramdas Pophale) SiO2 
 PCOD9052772
Probable space group: P -1
;
_chemical_formula_sum "Si O2"
_cell_formula_units_Z 16
_cell_length_a 5.787968
_cell_length_b 11.867402
_cell_length_c 14.550098
_cell_angle_alpha 71.492272
_cell_angle_beta 128.894196
_cell_angle_gamma 83.626695
_cell_volume 669.257469
_symmetry_space_group_name_H-M "P -1"
_symmetry_group_IT_number 2
_symmetry_cell_setting 'triclinic'
loop_
_space_group_symop_operation_xyz
x,y,z
-x,-y,-z
loop_
_atom_site_type_symbol
_atom_site_label
_atom_site_fract_x
_atom_site_fract_y
_atom_site_fract_z
Si Si1 0.879728 0.475799 0.077636
Si Si2 0.925276 0.808494 0.845245
Si Si3 0.859321 0.319092 0.871035
Si Si4 0.685665 0.938007 0.298529
Si Si5 0.018418 0.791543 0.263952
Si Si6 0.905952 0.543102 0.360932
Si Si7 0.109168 0.078746 0.377240
Si Si8 0.728163 0.742285 0.504595
O O1 0.098474 0.317598 0.178656
O O2 0.944268 0.589596 0.116831
O O3 0.500000 0.500000 0.000000
O O4 0.000000 0.500000 0.000000
O O5 0.052070 0.865058 0.776663
O O6 0.629017 0.941307 0.772383
O O7 0.092120 0.747340 0.999117
O O8 0.942788 0.216063 0.834380
O O9 0.478323 0.413738 0.750276
O O10 0.747467 0.798927 0.394087
O O11 0.716211 0.911112 0.204204
O O12 0.960887 0.980015 0.393886
O O13 0.336496 0.790542 0.396390
O O14 0.996506 0.657161 0.319120
O O15 0.000000 0.500000 0.500000
O O16 0.112597 0.409585 0.394481
O O17 0.069297 0.198669 0.399916
O O18 0.500000 0.000000 0.500000
#
# Coordination Sequence:
#
# PCOD9052772 Si02
#       8
#     2   2   2   2   2   2   2   2
#     4  10  26  49  78 112 161 209 266 323 398 477
#     4  11  28  47  74 113 153 200 259 318 402 471
#     4  11  28  48  75 114 156 207 261 329 398 474
#     4  12  25  47  74 112 155 198 262 319 399 478
#     4  12  25  46  77 111 154 204 258 321 404 473
#     4  12  26  46  79 111 154 201 262 327 392 472
#     4  12  26  44  78 107 150 205 254 327 393 469
#     4  12  26  47  72 117 150 198 262 327 399 470
#
# _framework density 23.907093
#
# number of rings (size 3 to 8) (size 9 to 14) (size 15 to 20)
#    0.000    0.500    5.000    0.750   10.500    0.500 
#    0.000    4.375    0.000    0.000    0.000    0.000 
#    0.000    0.000    0.000    0.000    0.000    0.000 
#
# Total GULP energy -89190.892073 kJ/mol
# GULP energy per Si atom -5574.430755 kJ/mol
# Density = 2.385268 g / cm^3
# Si number density = 23.907093 Si / 1000 Ang^3
#
#
#
# Elastic Constant Matrix: (Units=GPa)
#
#
# Indices 1 2 3 4 5 6 
#
# 1 71.6558 17.7097 30.2976 10.5030 -6.2042 5.7231
# 2 17.7097 110.7613 15.9035 1.2905 -8.5115 -8.4544
# 3 30.2976 15.9035 90.0050 6.6860 -15.4102 2.9867
# 4 10.5030 1.2905 6.6860 35.3749 -0.8597 -8.3086
# 5 -6.2042 -8.5115 -15.4102 -0.8597 26.5668 7.4477
# 6 5.7231 -8.4544 2.9867 -8.3086 7.4477 57.9941
#
#
#
# Elastic Compliance Matrix: (Units=1/GPa)
#
#
# Indices 1 2 3 4 5 6 
#
# 1 0.017573 -0.002164 -0.004891 -0.004805 0.001157 -0.002635
# 2 -0.002164 0.009734 -0.000811 0.000852 0.001729 0.001574
# 3 -0.004891 -0.000811 0.014298 -0.001398 0.007269 -0.001506
# 4 -0.004805 0.000852 -0.001398 0.031147 -0.002169 0.005411
# 5 0.001157 0.001729 0.007269 -0.002169 0.044362 -0.006244
# 6 -0.002635 0.001574 -0.001506 0.005411 -0.006244 0.019387
#
#
# Mechanical properties :
#
#
# Convention : Reuss Voigt Hill
#
# Bulk Modulus (GPa) = 38.64833 44.47152 41.55992
# Shear Modulus (GPa) = 31.08347 37.88791 34.48569
#
# Velocity S-wave (km/s) = 3.60971 3.98527 3.80213
# Velocity P-wave (km/s) = 5.79435 6.31021 6.05777
#
# Compressibility (1/GPa) = 0.02587434
#
# Stress axis : x y z
#
# Youngs Moduli (GPa) = 56.90487 102.73306 69.93756
#
# Poissons Ratio (x) = 0.22229 0.34205
# Poissons Ratio (y) = 0.12313 0.05673
# Poissons Ratio (z) = 0.27831 0.08333
#
# Static dielectric constant tensor:
#      x y z
#    x 1.953830 -0.071260 -0.050780 
#    y -0.071260 2.112010 0.109830 
#    z -0.050780 0.109830 1.947460 
# 
# From -- ./inp_files/482801.got.cif
#   From: 2010.05.17/outbox.cif.g08.bks.cpg/sg2_242_cif.got.tgz:482801.got - 2010.06.03 11:33:40.
