data_PCOD9052462
_publ_section_title
;
Structure prediction by ZEFSAII (Michael W. Deem and Ramdas Pophale) SiO2 
 PCOD9052462
Probable space group: P -1
;
_chemical_formula_sum "Si O2"
_cell_formula_units_Z 14
_cell_length_a 9.036287
_cell_length_b 9.618955
_cell_length_c 11.364758
_cell_angle_alpha 126.114505
_cell_angle_beta 75.471715
_cell_angle_gamma 68.602371
_cell_volume 583.302017
_symmetry_space_group_name_H-M "P -1"
_symmetry_group_IT_number 2
_symmetry_cell_setting 'triclinic'
loop_
_space_group_symop_operation_xyz
x,y,z
-x,-y,-z
loop_
_atom_site_type_symbol
_atom_site_label
_atom_site_fract_x
_atom_site_fract_y
_atom_site_fract_z
Si Si1 0.008915 0.620780 0.230941
Si Si2 0.467941 0.336826 0.984046
Si Si3 0.089505 0.943542 0.584523
Si Si4 0.508784 0.629403 0.457720
Si Si5 0.416056 0.054257 0.409467
Si Si6 0.045507 0.713571 0.906164
Si Si7 0.869755 0.988605 0.859295
O O1 0.827008 0.761672 0.433142
O O2 0.997278 0.433608 0.094476
O O3 0.957640 0.821210 0.258839
O O4 0.241305 0.482109 0.149546
O O5 0.635452 0.187668 0.976944
O O6 0.509263 0.164007 0.787802
O O7 0.500000 0.500000 0.000000
O O8 0.325612 0.742888 0.459405
O O9 0.000000 0.000000 0.500000
O O10 0.975882 0.891857 0.664008
O O11 0.500000 0.500000 0.500000
O O12 0.506360 0.826549 0.605142
O O13 0.719668 0.458778 0.263250
O O14 0.500000 0.000000 0.500000
O O15 0.019949 0.917222 0.072440
O O16 0.915788 0.814970 0.862017
#
# Coordination Sequence:
#
# PCOD9052462 Si02
#       7
#     2   2   2   2   2   2   2
#     4  11  26  44  72 104 145 188 244 306 372 430
#     4  12  28  44  73 109 146 195 241 310 377 432
#     4  12  25  43  71 106 142 186 245 307 361 442
#     4  11  24  46  74 105 144 199 241 303 376 445
#     4  11  26  45  72 109 145 188 257 301 362 456
#     4  10  26  46  71 107 140 200 239 307 373 443
#     4  11  25  46  70 104 150 183 256 295 369 456
#
# _framework density 24.001287999999999
#
# number of rings (size 3 to 8) (size 9 to 14) (size 15 to 20)
#    0.000    0.857    4.286    0.857    8.000    1.714 
#    2.571    2.143    0.000    0.000    0.000    0.000 
#    0.000    0.000    0.000    0.000    0.000    0.000 
#
# Total GULP energy -78314.322901 kJ/mol
# GULP energy per Si atom -5593.880207 kJ/mol
# Density = 2.394666 g / cm^3
# Si number density = 24.001288 Si / 1000 Ang^3
#
#
#
# Elastic Constant Matrix: (Units=GPa)
#
#
# Indices 1 2 3 4 5 6 
#
# 1 137.1854 69.5170 55.2658 5.7492 -17.4590 -7.3238
# 2 69.5170 163.0635 38.7167 4.8448 -1.8818 -8.1969
# 3 55.2658 38.7167 62.4538 13.2776 -1.5155 -14.3275
# 4 5.7492 4.8448 13.2776 30.2259 -2.7458 -4.8524
# 5 -17.4590 -1.8818 -1.5155 -2.7458 69.0308 20.3573
# 6 -7.3238 -8.1969 -14.3275 -4.8524 20.3573 59.5992
#
#
#
# Elastic Compliance Matrix: (Units=1/GPa)
#
#
# Indices 1 2 3 4 5 6 
#
# 1 0.013759 -0.003381 -0.011171 0.002779 0.004022 -0.002607
# 2 -0.003381 0.008045 -0.001942 0.000216 -0.000824 0.000523
# 3 -0.011171 -0.001942 0.030682 -0.010420 -0.004515 0.006430
# 4 0.002779 0.000216 -0.010420 0.037311 0.001888 0.000259
# 5 0.004022 -0.000824 -0.004515 0.001888 0.017369 -0.006484
# 6 -0.002607 0.000523 0.006430 0.000259 -0.006484 0.020312
#
#
# Mechanical properties :
#
#
# Convention : Reuss Voigt Hill
#
# Bulk Modulus (GPa) = 51.28408 76.63350 63.95879
# Shear Modulus (GPa) = 29.94652 45.05138 37.49895
#
# Velocity S-wave (km/s) = 3.53612 4.33718 3.95697
# Velocity P-wave (km/s) = 6.17137 7.55511 6.89803
#
# Compressibility (1/GPa) = 0.01949923
#
# Stress axis : x y z
#
# Youngs Moduli (GPa) = 72.68007 124.29792 32.59280
#
# Poissons Ratio (x) = 0.42019 0.36409
# Poissons Ratio (y) = 0.24570 0.06329
# Poissons Ratio (z) = 0.81191 0.24136
#
# Static dielectric constant tensor:
#      x y z
#    x 1.959700 0.004290 0.056770 
#    y 0.004290 1.891820 -0.009640 
#    z 0.056770 -0.009640 2.003210 
# 
# From -- ./inp_files/383170.got.cif
#   From: 2010.05.17/outbox.cif.g08.bks.cpg/sg2_192_cif.got.tgz:383170.got - 2010.06.03 11:33:40.
