data_PCOD9052434
_publ_section_title
;
Structure prediction by ZEFSAII (Michael W. Deem and Ramdas Pophale) SiO2 
 PCOD9052434
Probable space group: P -1
;
_chemical_formula_sum "Si O2"
_cell_formula_units_Z 16
_cell_length_a 13.801641
_cell_length_b 11.820148
_cell_length_c 6.412031
_cell_angle_alpha 84.148619
_cell_angle_beta 98.211168
_cell_angle_gamma 47.959153
_cell_volume 740.596835
_symmetry_space_group_name_H-M "P -1"
_symmetry_group_IT_number 2
_symmetry_cell_setting 'triclinic'
loop_
_space_group_symop_operation_xyz
x,y,z
-x,-y,-z
loop_
_atom_site_type_symbol
_atom_site_label
_atom_site_fract_x
_atom_site_fract_y
_atom_site_fract_z
Si Si1 0.418880 0.007342 0.167985
Si Si2 0.344576 0.665349 0.920478
Si Si3 0.226298 0.957267 0.082033
Si Si4 0.109709 0.506647 0.582013
Si Si5 0.780107 0.473104 0.987641
Si Si6 0.044472 0.764717 0.261861
Si Si7 0.848531 0.110921 0.538554
Si Si8 0.637844 0.738534 0.598145
O O1 0.362047 0.151883 0.273108
O O2 0.302180 0.015048 0.060738
O O3 0.514388 0.854172 0.378293
O O4 0.500000 0.000000 0.000000
O O5 0.278059 0.780137 0.677458
O O6 0.500000 0.500000 0.000000
O O7 0.320531 0.776018 0.075913
O O8 0.257934 0.618987 0.917999
O O9 0.171491 0.978393 0.294764
O O10 0.095490 0.063827 0.872864
O O11 0.041542 0.682426 0.470172
O O12 0.232672 0.379727 0.487996
O O13 0.000000 0.500000 0.500000
O O14 0.174672 0.472442 0.835715
O O15 0.905961 0.350149 0.895314
O O16 0.652433 0.621772 0.784427
O O17 0.153173 0.774525 0.340474
O O18 0.000000 0.000000 0.500000
#
# Coordination Sequence:
#
# PCOD9052434 Si02
#       8
#     2   2   2   2   2   2   2   2
#     4  11  27  48  73  99 145 191 242 304 348 425
#     4  12  28  43  73 106 148 190 238 290 364 435
#     4  12  28  44  74 108 138 189 249 288 360 437
#     4  11  26  42  72 104 141 184 239 293 368 429
#     4  11  24  46  70 101 147 184 231 304 359 426
#     4  11  24  43  70 101 139 186 237 301 355 423
#     4  12  24  47  71 105 144 186 234 301 360 426
#     4  10  26  46  70 100 140 186 239 292 368 415
#
# _framework density 21.604199000000001
#
# number of rings (size 3 to 8) (size 9 to 14) (size 15 to 20)
#    0.000    0.750    3.750    1.875   10.500    2.500 
#    0.000    0.000    0.000    0.000    0.000    0.000 
#    0.000    0.000    0.000    0.000    0.000    0.000 
#
# Total GULP energy -89354.856212 kJ/mol
# GULP energy per Si atom -5584.678513 kJ/mol
# Density = 2.155503 g / cm^3
# Si number density = 21.604199 Si / 1000 Ang^3
#
#
#
# Elastic Constant Matrix: (Units=GPa)
#
#
# Indices 1 2 3 4 5 6 
#
# 1 57.0723 -16.2822 18.3324 10.8628 -1.6972 7.5394
# 2 -16.2822 81.8824 16.6812 2.7598 -5.6023 -20.5959
# 3 18.3324 16.6812 106.3912 -2.2532 -2.7125 -10.9241
# 4 10.8628 2.7598 -2.2532 49.1156 8.9316 0.8544
# 5 -1.6972 -5.6023 -2.7125 8.9316 22.8882 -1.4624
# 6 7.5394 -20.5959 -10.9241 0.8544 -1.4624 27.1919
#
#
#
# Elastic Compliance Matrix: (Units=1/GPa)
#
#
# Indices 1 2 3 4 5 6 
#
# 1 0.022426 0.004991 -0.005080 -0.006212 0.004448 -0.004044
# 2 0.004991 0.016997 -0.002307 -0.003507 0.006329 0.011014
# 3 -0.005080 -0.002307 0.011089 0.001697 -0.000030 0.004061
# 4 -0.006212 -0.003507 0.001697 0.023958 -0.010568 -0.001574
# 5 0.004448 0.006329 -0.000030 -0.010568 0.050110 0.006576
# 6 -0.004044 0.011014 0.004061 -0.001574 0.006576 0.048274
#
#
# Mechanical properties :
#
#
# Convention : Reuss Voigt Hill
#
# Bulk Modulus (GPa) = 21.87295 31.42319 26.64807
# Shear Modulus (GPa) = 25.92215 34.94678 30.43447
#
# Velocity S-wave (km/s) = 3.46767 4.02629 3.75738
# Velocity P-wave (km/s) = 5.11657 6.01592 5.58438
#
# Compressibility (1/GPa) = 0.04571857
#
# Stress axis : x y z
#
# Youngs Moduli (GPa) = 44.59071 58.83546 90.18337
#
# Poissons Ratio (x) = -0.29364 0.45815
# Poissons Ratio (y) = -0.22254 0.20805
# Poissons Ratio (z) = 0.22653 0.13573
#
# Static dielectric constant tensor:
#      x y z
#    x 1.778090 -0.015730 -0.015890 
#    y -0.015730 1.814040 -0.006140 
#    z -0.015890 -0.006140 1.855910 
# 
# From -- ./inp_files/70838.got.cif
#   From: 2010.05.17/outbox.cif.g08.bks.cpg/sg2_36_cif.got.tgz:70838.got - 2010.06.03 11:33:40.
