data_PCOD9052265
_publ_section_title
;
Structure prediction by ZEFSAII (Michael W. Deem and Ramdas Pophale) SiO2 
 PCOD9052265
Probable space group: P -1
;
_chemical_formula_sum "Si O2"
_cell_formula_units_Z 16
_cell_length_a 7.869069
_cell_length_b 11.277681
_cell_length_c 11.027769
_cell_angle_alpha 83.512712
_cell_angle_beta 138.100631
_cell_angle_gamma 108.688375
_cell_volume 606.804466
_symmetry_space_group_name_H-M "P -1"
_symmetry_group_IT_number 2
_symmetry_cell_setting 'triclinic'
loop_
_space_group_symop_operation_xyz
x,y,z
-x,-y,-z
loop_
_atom_site_type_symbol
_atom_site_label
_atom_site_fract_x
_atom_site_fract_y
_atom_site_fract_z
Si Si1 0.146218 0.477578 0.454587
Si Si2 0.801391 0.600684 0.116494
Si Si3 0.340155 0.083039 0.339088
Si Si4 0.905997 0.872296 0.232744
Si Si5 0.313611 0.949731 0.663967
Si Si6 0.967343 0.783189 0.705453
Si Si7 0.398249 0.780476 0.111563
Si Si8 0.697082 0.501596 0.833580
O O1 0.473983 0.526240 0.627349
O O2 0.000000 0.500000 0.500000
O O3 0.018284 0.535530 0.273379
O O4 0.070401 0.331238 0.393992
O O5 0.927405 0.737720 0.226705
O O6 0.500000 0.500000 0.000000
O O7 0.746168 0.612377 0.946299
O O8 0.492569 0.117821 0.288439
O O9 0.297665 0.188365 0.392832
O O10 0.500000 0.000000 0.500000
O O11 0.034737 0.978707 0.187828
O O12 0.589260 0.833174 0.090360
O O13 0.065024 0.917457 0.439443
O O14 0.177522 0.899429 0.726697
O O15 0.496068 0.100583 0.754065
O O16 0.101831 0.755526 0.903294
O O17 0.446620 0.651022 0.190306
O O18 0.000000 0.500000 0.000000
#
# Coordination Sequence:
#
# PCOD9052265 Si02
#       8
#     2   2   2   2   2   2   2   2
#     4  12  25  48  83 110 147 213 260 308 400 470
#     4  12  23  49  73 112 149 193 263 315 370 472
#     4  10  26  44  69 111 144 193 253 312 376 457
#     4  11  23  45  75 101 150 196 249 316 377 458
#     4  11  25  44  74 107 144 197 252 300 397 446
#     4  12  25  48  75 108 156 196 253 322 384 461
#     4  12  24  47  73 105 151 197 248 318 380 463
#     4  12  29  47  73 114 156 202 256 327 388 454
#
# _framework density 26.367636999999998
#
# number of rings (size 3 to 8) (size 9 to 14) (size 15 to 20)
#    0.000    0.500    5.000    2.250    7.000    2.000 
#    6.750    0.000    0.000    0.000    0.000    0.000 
#    0.000    0.000    0.000    0.000    0.000    0.000 
#
# Total GULP energy -89302.731852 kJ/mol
# GULP energy per Si atom -5581.420741 kJ/mol
# Density = 2.630762 g / cm^3
# Si number density = 26.367637 Si / 1000 Ang^3
#
#
#
# Elastic Constant Matrix: (Units=GPa)
#
#
# Indices 1 2 3 4 5 6 
#
# 1 117.2872 31.0399 14.6071 -7.5873 14.2012 -13.3739
# 2 31.0399 122.7838 31.8088 1.9003 -9.1886 -29.0628
# 3 14.6071 31.8088 158.8895 -15.9882 -4.0449 -4.2368
# 4 -7.5873 1.9003 -15.9882 37.5766 -5.7575 0.7990
# 5 14.2012 -9.1886 -4.0449 -5.7575 42.4386 -0.2623
# 6 -13.3739 -29.0628 -4.2368 0.7990 -0.2623 43.7316
#
#
#
# Elastic Compliance Matrix: (Units=1/GPa)
#
#
# Indices 1 2 3 4 5 6 
#
# 1 0.009888 -0.002383 -0.000350 0.001378 -0.003663 0.001359
# 2 -0.002383 0.010998 -0.001895 -0.001547 0.002828 0.006442
# 3 -0.000350 -0.001895 0.007023 0.003151 0.000799 -0.000739
# 4 0.001378 -0.001547 0.003151 0.028850 0.003413 -0.000808
# 5 -0.003663 0.002828 0.000799 0.003413 0.025946 0.000930
# 6 0.001359 0.006442 -0.000739 -0.000808 0.000930 0.027512
#
#
# Mechanical properties :
#
#
# Convention : Reuss Voigt Hill
#
# Bulk Modulus (GPa) = 53.60882 61.54135 57.57508
# Shear Modulus (GPa) = 39.78036 46.18302 42.98169
#
# Velocity S-wave (km/s) = 3.88839 4.18964 4.04182
# Velocity P-wave (km/s) = 6.36670 6.84065 6.60792
#
# Compressibility (1/GPa) = 0.01865365
#
# Stress axis : x y z
#
# Youngs Moduli (GPa) = 101.13388 90.92658 142.39043
#
# Poissons Ratio (x) = 0.21664 0.04989
# Poissons Ratio (y) = 0.24096 0.26977
# Poissons Ratio (z) = 0.03544 0.17227
#
# Static dielectric constant tensor:
#      x y z
#    x 2.061220 0.307360 -0.137210 
#    y 0.307360 1.956410 0.140130 
#    z -0.137210 0.140130 1.920360 
# 
# From -- ./inp_files/500436.got.cif
#   From: 2010.05.17/outbox.cif.g08.bks.cpg/sg2_251_cif.got.tgz:500436.got - 2010.06.03 11:33:40.
