data_PCOD9052748
_publ_section_title
;
Structure prediction by ZEFSAII (Michael W. Deem and Ramdas Pophale) SiO2 
 PCOD9052748
Probable space group: P -1
;
_chemical_formula_sum "Si O2"
_cell_formula_units_Z 12
_cell_length_a 9.269358
_cell_length_b 8.562160
_cell_length_c 12.634263
_cell_angle_alpha 120.856299
_cell_angle_beta 143.726900
_cell_angle_gamma 77.107714
_cell_volume 472.148177
_symmetry_space_group_name_H-M "P -1"
_symmetry_group_IT_number 2
_symmetry_cell_setting 'triclinic'
loop_
_space_group_symop_operation_xyz
x,y,z
-x,-y,-z
loop_
_atom_site_type_symbol
_atom_site_label
_atom_site_fract_x
_atom_site_fract_y
_atom_site_fract_z
Si Si1 0.308321 0.295947 0.076771
Si Si2 0.883249 0.593370 0.583101
Si Si3 0.322579 0.267843 0.307266
Si Si4 0.136201 0.933761 0.711949
Si Si5 0.270854 0.533547 0.944597
Si Si6 0.386615 0.023317 0.659740
O O1 0.600600 0.453505 0.326357
O O2 0.184562 0.244073 0.102448
O O3 0.306052 0.100753 0.951184
O O4 0.194065 0.400002 0.957034
O O5 0.851806 0.758355 0.701102
O O6 0.028439 0.489146 0.706682
O O7 0.064808 0.717693 0.640438
O O8 0.500000 0.500000 0.500000
O O9 0.493187 0.132785 0.362117
O O10 0.856929 0.961703 0.544251
O O11 0.272397 0.968003 0.691057
O O12 0.500000 0.500000 0.000000
O O13 0.389183 0.760211 0.126660
#
# Coordination Sequence:
#
# PCOD9052748 Si02
#       6
#     2   2   2   2   2   2
#     4  11  25  47  73 111 141 192 241 297 366 424
#     4  11  27  50  73 105 151 193 243 297 362 436
#     4  10  26  49  70 107 147 197 242 294 360 441
#     4  11  25  46  78 110 144 194 239 310 359 426
#     4  12  26  46  75 113 144 187 244 306 364 428
#     4  11  25  47  75 111 150 185 251 296 365 433
#
# _framework density 25.415749999999999
#
# number of rings (size 3 to 8) (size 9 to 14) (size 15 to 20)
#    0.000    1.000    3.333    1.000    7.000    6.000 
#    3.000    0.000    0.000    0.000    0.000    0.000 
#    0.000    0.000    0.000    0.000    0.000    0.000 
#
# Total GULP energy -67329.838200 kJ/mol
# GULP energy per Si atom -5610.819850 kJ/mol
# Density = 2.535790 g / cm^3
# Si number density = 25.415750 Si / 1000 Ang^3
#
#
#
# Elastic Constant Matrix: (Units=GPa)
#
#
# Indices 1 2 3 4 5 6 
#
# 1 87.6482 7.9839 5.4839 -8.5822 -19.7163 -10.4344
# 2 7.9839 120.7385 44.1290 -10.4712 -6.3816 -5.0982
# 3 5.4839 44.1290 126.6313 -2.9185 -16.1548 8.1960
# 4 -8.5822 -10.4712 -2.9185 63.7536 4.1199 -8.1883
# 5 -19.7163 -6.3816 -16.1548 4.1199 35.7133 1.7397
# 6 -10.4344 -5.0982 8.1960 -8.1883 1.7397 51.0411
#
#
#
# Elastic Compliance Matrix: (Units=1/GPa)
#
#
# Indices 1 2 3 4 5 6 
#
# 1 0.013532 -0.000377 0.000331 0.001654 0.007231 0.002694
# 2 -0.000377 0.009789 -0.003511 0.001640 -0.000321 0.001739
# 3 0.000331 -0.003511 0.009755 -0.000622 0.004142 -0.002090
# 4 0.001654 0.001640 -0.000622 0.016649 -0.001157 0.003312
# 5 0.007231 -0.000321 0.004142 -0.001157 0.033970 -0.000562
# 6 0.002694 0.001739 -0.002090 0.003312 -0.000562 0.021203
#
#
# Mechanical properties :
#
#
# Convention : Reuss Voigt Hill
#
# Bulk Modulus (GPa) = 38.51326 50.02352 44.26839
# Shear Modulus (GPa) = 41.43692 48.59634 45.01663
#
# Velocity S-wave (km/s) = 4.04216 4.37745 4.21314
# Velocity P-wave (km/s) = 6.08043 6.72861 6.41271
#
# Compressibility (1/GPa) = 0.02596508
#
# Stress axis : x y z
#
# Youngs Moduli (GPa) = 73.89799 102.15418 102.50753
#
# Poissons Ratio (x) = 0.03847 -0.03398
# Poissons Ratio (y) = 0.02783 0.35987
# Poissons Ratio (z) = -0.02449 0.35863
#
# Static dielectric constant tensor:
#      x y z
#    x 2.082010 -0.012260 -0.016670 
#    y -0.012260 2.008340 -0.022150 
#    z -0.016670 -0.022150 1.991870 
# 
# From -- ./inp_files/383426.got.cif
#   From: 2010.05.17/outbox.cif.g08.bks.cpg/sg2_192_cif.got.tgz:383426.got - 2010.06.03 11:33:40.
