data_PCOD9052981
_publ_section_title
;
Structure prediction by ZEFSAII (Michael W. Deem and Ramdas Pophale) SiO2 
 PCOD9052981
Probable space group: P -1
;
_chemical_formula_sum "Si O2"
_cell_formula_units_Z 16
_cell_length_a 16.644366
_cell_length_b 9.423196
_cell_length_c 5.757320
_cell_angle_alpha 51.889364
_cell_angle_beta 67.111190
_cell_angle_gamma 73.610542
_cell_volume 653.446580
_symmetry_space_group_name_H-M "P -1"
_symmetry_group_IT_number 2
_symmetry_cell_setting 'triclinic'
loop_
_space_group_symop_operation_xyz
x,y,z
-x,-y,-z
loop_
_atom_site_type_symbol
_atom_site_label
_atom_site_fract_x
_atom_site_fract_y
_atom_site_fract_z
Si Si1 0.254843 0.162160 0.906274
Si Si2 0.529248 0.716438 0.859052
Si Si3 0.724719 0.308133 0.357822
Si Si4 0.595581 0.598442 0.399040
Si Si5 0.102661 0.677244 0.586583
Si Si6 0.088955 0.280505 0.232560
Si Si7 0.642220 0.063099 0.327759
Si Si8 0.179989 0.460626 0.337578
O O1 0.340487 0.233118 0.858618
O O2 0.229358 0.328690 0.594335
O O3 0.283530 0.991047 0.890339
O O4 0.169872 0.156499 0.169501
O O5 0.555880 0.614811 0.688436
O O6 0.432680 0.803225 0.831913
O O7 0.593564 0.882317 0.621642
O O8 0.539919 0.624891 0.194743
O O9 0.750400 0.464602 0.991427
O O10 0.656112 0.415020 0.492365
O O11 0.815944 0.254873 0.433688
O O12 0.682743 0.151923 0.418590
O O13 0.131582 0.635400 0.333261
O O14 0.008996 0.780902 0.612648
O O15 0.091627 0.472255 0.900109
O O16 0.111461 0.340157 0.406833
#
# Coordination Sequence:
#
# PCOD9052981 Si02
#       8
#     2   2   2   2   2   2   2   2
#     4  10  20  37  61  87 117 167 203 246 298 382
#     4  10  25  46  64  90 121 166 206 259 296 388
#     4  11  21  37  60  90 123 157 197 264 305 362
#     4  11  21  42  68  89 124 156 213 251 313 357
#     4   9  18  32  53  93 118 151 203 256 300 351
#     4   9  17  31  59  85 118 157 206 246 296 362
#     4  10  24  42  59  89 121 159 203 248 322 359
#     4  10  17  35  58  88 117 164 200 252 299 358
#
# _framework density 24.485551000000001
#
# number of rings (size 3 to 8) (size 9 to 14) (size 15 to 20)
#    0.000    2.000    3.750    1.875    0.000    6.500 
#    6.750    0.625    0.000    1.500    0.000    0.000 
#    0.000    0.000    0.000    0.000    0.000    0.000 
#
# Total GULP energy -89518.882892 kJ/mol
# GULP energy per Si atom -5594.930181 kJ/mol
# Density = 2.442982 g / cm^3
# Si number density = 24.485551 Si / 1000 Ang^3
#
#
#
# Elastic Constant Matrix: (Units=GPa)
#
#
# Indices 1 2 3 4 5 6 
#
# 1 150.9473 80.7163 65.8022 35.1546 -2.5633 5.3372
# 2 80.7163 161.5738 44.1132 36.3160 -1.5387 10.6794
# 3 65.8022 44.1132 114.1086 20.9266 4.5219 4.5227
# 4 35.1546 36.3160 20.9266 34.2015 4.0029 -5.1633
# 5 -2.5633 -1.5387 4.5219 4.0029 20.0672 8.8529
# 6 5.3372 10.6794 4.5227 -5.1633 8.8529 33.6076
#
#
#
# Elastic Compliance Matrix: (Units=1/GPa)
#
#
# Indices 1 2 3 4 5 6 
#
# 1 0.012119 -0.002826 -0.004569 -0.007719 0.005211 -0.002970
# 2 -0.002826 0.010153 -0.000654 -0.008815 0.004648 -0.005268
# 3 -0.004569 -0.000654 0.012084 -0.001684 -0.002943 -0.000176
# 4 -0.007719 -0.008815 -0.001684 0.052471 -0.019441 0.017436
# 5 0.005211 0.004648 -0.002943 -0.019441 0.065123 -0.022050
# 6 -0.002970 -0.005268 -0.000176 0.017436 -0.022050 0.040412
#
#
# Mechanical properties :
#
#
# Convention : Reuss Voigt Hill
#
# Bulk Modulus (GPa) = 54.77272 89.76591 72.26932
# Shear Modulus (GPa) = 23.30493 33.30845 28.30669
#
# Velocity S-wave (km/s) = 3.08844 3.69227 3.40377
# Velocity P-wave (km/s) = 5.92756 7.41063 6.71019
#
# Compressibility (1/GPa) = 0.01825726
#
# Stress axis : x y z
#
# Youngs Moduli (GPa) = 82.51559 98.49041 82.75389
#
# Poissons Ratio (x) = 0.27832 0.37813
# Poissons Ratio (y) = 0.23317 0.05415
# Poissons Ratio (z) = 0.37704 0.06444
#
# Static dielectric constant tensor:
#      x y z
#    x 1.957100 0.021780 -0.014180 
#    y 0.021780 1.973310 0.021360 
#    z -0.014180 0.021360 1.993000 
# 
# From -- ./inp_files/89803.got.cif
#   From: 2010.05.17/outbox.cif.g08.bks.cpg/sg2_45_cif.got.tgz:89803.got - 2010.06.03 11:33:40.
