data_PCOD9052285
_publ_section_title
;
Structure prediction by ZEFSAII (Michael W. Deem and Ramdas Pophale) SiO2 
 PCOD9052285
Probable space group: P -1
;
_chemical_formula_sum "Si O2"
_cell_formula_units_Z 16
_cell_length_a 14.714160
_cell_length_b 9.443143
_cell_length_c 11.446747
_cell_angle_alpha 64.181546
_cell_angle_beta 29.922774
_cell_angle_gamma 74.119187
_cell_volume 694.841561
_symmetry_space_group_name_H-M "P -1"
_symmetry_group_IT_number 2
_symmetry_cell_setting 'triclinic'
loop_
_space_group_symop_operation_xyz
x,y,z
-x,-y,-z
loop_
_atom_site_type_symbol
_atom_site_label
_atom_site_fract_x
_atom_site_fract_y
_atom_site_fract_z
Si Si1 0.712421 0.489626 0.152937
Si Si2 0.123684 0.879838 0.179647
Si Si3 0.862325 0.777697 0.036087
Si Si4 0.698477 0.693989 0.712611
Si Si5 0.457692 0.948846 0.933085
Si Si6 0.167481 0.544119 0.203215
Si Si7 0.679536 0.565500 0.518270
Si Si8 0.728596 0.264232 0.437870
O O1 0.519917 0.428579 0.319572
O O2 0.730581 0.366235 0.279526
O O3 0.724055 0.659666 0.143119
O O4 0.868417 0.513377 0.869104
O O5 0.207278 0.737101 0.082626
O O6 0.901581 0.814868 0.464965
O O7 0.163303 0.042002 0.002071
O O8 0.239048 0.917481 0.157564
O O9 0.070419 0.777676 0.762018
O O10 0.829067 0.691792 0.228916
O O11 0.540445 0.793053 0.870075
O O12 0.685916 0.549042 0.871027
O O13 0.702876 0.622052 0.604478
O O14 0.570923 0.099527 0.676471
O O15 0.500000 0.000000 0.000000
O O16 0.000000 0.500000 0.500000
O O17 0.701258 0.385542 0.528576
#
# Coordination Sequence:
#
# PCOD9052285 Si02
#       8
#     2   2   2   2   2   2   2   2
#     4  11  23  44  73 104 138 187 242 293 349 424
#     4  11  25  47  69 101 143 184 233 291 356 411
#     4  11  24  44  73 103 142 188 241 294 356 414
#     4  11  27  48  68 108 141 189 237 282 367 425
#     4  12  28  47  74 107 145 184 235 299 352 427
#     4  10  26  44  71 101 143 186 232 288 355 423
#     4  11  24  43  74 103 144 186 238 295 350 430
#     4  11  25  45  71 106 140 188 243 291 356 417
#
# _framework density 23.026831999999999
#
# number of rings (size 3 to 8) (size 9 to 14) (size 15 to 20)
#    0.000    1.000    1.250    5.250   12.250    4.000 
#    0.000    2.500    0.000    0.000    0.000    0.000 
#    0.000    0.000    0.000    0.000    0.000    0.000 
#
# Total GULP energy -89555.997535 kJ/mol
# GULP energy per Si atom -5597.249846 kJ/mol
# Density = 2.297442 g / cm^3
# Si number density = 23.026832 Si / 1000 Ang^3
#
#
#
# Elastic Constant Matrix: (Units=GPa)
#
#
# Indices 1 2 3 4 5 6 
#
# 1 107.2914 44.4949 34.7633 1.1279 -2.4056 15.8130
# 2 44.4949 152.2251 21.0694 -14.3307 22.6830 -21.8228
# 3 34.7633 21.0694 77.9452 -1.9152 -6.6991 6.4414
# 4 1.1279 -14.3307 -1.9152 32.8869 0.7473 6.3770
# 5 -2.4056 22.6830 -6.6991 0.7473 48.9375 7.5826
# 6 15.8130 -21.8228 6.4414 6.3770 7.5826 38.8785
#
#
#
# Elastic Compliance Matrix: (Units=1/GPa)
#
#
# Indices 1 2 3 4 5 6 
#
# 1 0.014378 -0.005760 -0.003779 -0.001569 0.004283 -0.009033
# 2 -0.005760 0.011343 -0.001871 0.003275 -0.007385 0.009923
# 3 -0.003779 -0.001871 0.015551 0.000696 0.003239 -0.002836
# 4 -0.001569 0.003275 0.000696 0.032480 -0.001584 -0.002657
# 5 0.004283 -0.007385 0.003239 -0.001584 0.026285 -0.011290
# 6 -0.009033 0.009923 -0.002836 -0.002657 -0.011290 0.038073
#
#
# Mechanical properties :
#
#
# Convention : Reuss Voigt Hill
#
# Bulk Modulus (GPa) = 54.20136 59.79074 56.99605
# Shear Modulus (GPa) = 29.92575 39.94952 34.93763
#
# Velocity S-wave (km/s) = 3.60891 4.16975 3.89942
# Velocity P-wave (km/s) = 6.39962 7.01459 6.71415
#
# Compressibility (1/GPa) = 0.01844972
#
# Stress axis : x y z
#
# Youngs Moduli (GPa) = 69.55274 88.15882 64.30558
#
# Poissons Ratio (x) = 0.50782 0.24303
# Poissons Ratio (y) = 0.40064 0.12034
# Poissons Ratio (z) = 0.26286 0.16498
#
# Static dielectric constant tensor:
#      x y z
#    x 1.839450 -0.004690 -0.034350 
#    y -0.004690 1.840050 0.007060 
#    z -0.034350 0.007060 1.924010 
# 
# From -- ./inp_files/447048.got.cif
#   From: 2010.05.17/outbox.cif.g08.bks.cpg/sg2_224_cif.got.tgz:447048.got - 2010.06.03 11:33:40.
