data_PCOD9052500
_publ_section_title
;
Structure prediction by ZEFSAII (Michael W. Deem and Ramdas Pophale) SiO2 
 PCOD9052500
Probable space group: P -1
;
_chemical_formula_sum "Si O2"
_cell_formula_units_Z 15
_cell_length_a 18.701503
_cell_length_b 5.196538
_cell_length_c 9.031097
_cell_angle_alpha 130.632936
_cell_angle_beta 86.912962
_cell_angle_gamma 99.906626
_cell_volume 654.139458
_symmetry_space_group_name_H-M "P -1"
_symmetry_group_IT_number 2
_symmetry_cell_setting 'triclinic'
loop_
_space_group_symop_operation_xyz
x,y,z
-x,-y,-z
loop_
_atom_site_type_symbol
_atom_site_label
_atom_site_fract_x
_atom_site_fract_y
_atom_site_fract_z
Si Si1 0.569692 0.372486 0.513370
Si Si2 0.331162 0.656471 0.033479
Si Si3 0.689117 0.159545 0.231277
Si Si4 0.170788 0.556298 0.517153
Si Si5 0.000000 0.500000 0.500000
Si Si6 0.533201 0.286485 0.794791
Si Si7 0.031073 0.399783 0.117651
Si Si8 0.189438 0.773721 0.266253
O O1 0.500000 0.500000 0.500000
O O2 0.644309 0.392713 0.424133
O O3 0.574872 0.477504 0.722201
O O4 0.536803 0.962051 0.355834
O O5 0.402776 0.859696 0.184246
O O6 0.259705 0.722482 0.149458
O O7 0.329111 0.766704 0.906440
O O8 0.331818 0.247575 0.888119
O O9 0.774483 0.273293 0.298664
O O10 0.087567 0.600258 0.553550
O O11 0.201769 0.724051 0.421006
O O12 0.170937 0.147267 0.369922
O O13 0.987508 0.427918 0.660484
O O14 0.500000 0.500000 0.000000
O O15 0.118258 0.491995 0.128784
O O16 0.000000 0.500000 0.000000
O O17 0.000000 0.000000 0.000000
#
# Coordination Sequence:
#
# PCOD9052500 Si02
#       8
#     2   2   2   2   1   2   2   2
#     4  11  26  42  74 102 143 190 237 294 358 420
#     4  12  27  44  73 101 147 188 239 295 360 425
#     4  12  27  45  70 108 140 192 241 293 364 424
#     4  11  25  46  72 101 146 184 246 298 361 441
#     4  10  26  46  74 106 144 194 238 304 378 428
#     4  11  24  46  69 103 143 186 239 292 352 430
#     4  11  25  43  73 104 143 183 242 296 367 438
#     4  11  25  46  69 104 139 189 239 294 365 426
#
# _framework density 22.930890000000002
#
# number of rings (size 3 to 8) (size 9 to 14) (size 15 to 20)
#    0.000    0.800    1.333    4.800    9.333    5.867 
#    0.000    0.000    0.000    0.000    0.000    0.000 
#    0.000    0.000    0.000    0.000    0.000    0.000 
#
# Total GULP energy -83596.419300 kJ/mol
# GULP energy per Si atom -5573.094620 kJ/mol
# Density = 2.287870 g / cm^3
# Si number density = 22.930890 Si / 1000 Ang^3
#
#
#
# Elastic Constant Matrix: (Units=GPa)
#
#
# Indices 1 2 3 4 5 6 
#
# 1 120.5551 19.0090 40.3126 -24.6047 17.9782 16.0900
# 2 19.0090 115.1253 32.7783 -27.8741 9.4303 -9.1883
# 3 40.3126 32.7783 75.0085 -38.1140 9.2926 3.9466
# 4 -24.6047 -27.8741 -38.1140 54.2162 0.2382 9.2439
# 5 17.9782 9.4303 9.2926 0.2382 40.4813 -14.4103
# 6 16.0900 -9.1883 3.9466 9.2439 -14.4103 30.6370
#
#
#
# Elastic Compliance Matrix: (Units=1/GPa)
#
#
# Indices 1 2 3 4 5 6 
#
# 1 0.014075 -0.000330 -0.001131 0.008049 -0.011340 -0.015108
# 2 -0.000330 0.010535 -0.003171 0.002588 -0.000650 0.002655
# 3 -0.001131 -0.003171 0.027370 0.019650 -0.010390 -0.014699
# 4 0.008049 0.002588 0.019650 0.042005 -0.018709 -0.027456
# 5 -0.011340 -0.000650 -0.010390 -0.018709 0.044347 0.033603
# 6 -0.015108 0.002655 -0.014699 -0.027456 0.033603 0.067354
#
#
# Mechanical properties :
#
#
# Convention : Reuss Voigt Hill
#
# Bulk Modulus (GPa) = 23.40951 54.98765 39.19858
# Shear Modulus (GPa) = 21.81602 39.63951 30.72776
#
# Velocity S-wave (km/s) = 3.08779 4.16222 3.66459
# Velocity P-wave (km/s) = 4.78994 6.86517 5.91921
#
# Compressibility (1/GPa) = 0.04271767
#
# Stress axis : x y z
#
# Youngs Moduli (GPa) = 71.04641 94.92067 36.53588
#
# Poissons Ratio (x) = 0.03135 0.04131
# Poissons Ratio (y) = 0.02346 0.11584
# Poissons Ratio (z) = 0.08034 0.30095
#
# Static dielectric constant tensor:
#      x y z
#    x 1.831600 0.006240 -0.007350 
#    y 0.006240 1.938880 0.061860 
#    z -0.007350 0.061860 1.900120 
# 
# From -- ./inp_files/324253.got.cif
#   From: 2010.05.17/outbox.cif.g08.bks.cpg/sg2_163_cif.got.tgz:324253.got - 2010.06.03 11:33:40.
