data_PCOD9052843
_publ_section_title
;
Structure prediction by ZEFSAII (Michael W. Deem and Ramdas Pophale) SiO2 
 PCOD9052843
Probable space group: P -1
;
_chemical_formula_sum "Si O2"
_cell_formula_units_Z 14
_cell_length_a 18.843377
_cell_length_b 8.845934
_cell_length_c 4.844422
_cell_angle_alpha 113.970339
_cell_angle_beta 92.954392
_cell_angle_gamma 53.149141
_cell_volume 569.692576
_symmetry_space_group_name_H-M "P -1"
_symmetry_group_IT_number 2
_symmetry_cell_setting 'triclinic'
loop_
_space_group_symop_operation_xyz
x,y,z
-x,-y,-z
loop_
_atom_site_type_symbol
_atom_site_label
_atom_site_fract_x
_atom_site_fract_y
_atom_site_fract_z
Si Si1 0.359540 0.506479 0.317396
Si Si2 0.500000 0.500000 0.000000
Si Si3 0.705952 0.723065 0.129574
Si Si4 0.935141 0.936916 0.500343
Si Si5 0.804773 0.096116 0.076262
Si Si6 0.522456 0.136580 0.460109
Si Si7 0.794366 0.737988 0.673067
Si Si8 0.000000 0.500000 0.500000
O O1 0.406483 0.587531 0.226693
O O2 0.278342 0.685563 0.635722
O O3 0.441064 0.311027 0.373574
O O4 0.321284 0.423534 0.044959
O O5 0.475970 0.728056 0.205730
O O6 0.728996 0.733852 0.453918
O O7 0.619423 0.965239 0.205597
O O8 0.789361 0.655578 0.904214
O O9 0.983127 0.704830 0.471919
O O10 0.884413 0.957460 0.221954
O O11 0.000000 0.000000 0.500000
O O12 0.855318 0.102573 0.828811
O O13 0.769951 0.966728 0.880447
O O14 0.500000 0.000000 0.500000
O O15 0.896844 0.593757 0.471984
#
# Coordination Sequence:
#
# PCOD9052843 Si02
#       8
#     2   1   2   2   2   2   2   1
#     4  12  29  51  80 120 166 226 274 346 427 492
#     4  12  28  46  80 112 160 222 270 354 400 510
#     4  12  27  47  81 115 162 214 279 338 408 500
#     4  11  26  51  84 126 167 217 278 360 422 516
#     4  11  27  51  82 121 169 215 287 345 424 512
#     4  12  27  51  78 116 164 216 282 341 420 495
#     4  11  26  49  79 116 158 215 271 345 406 509
#     4  10  26  52  84 116 166 216 276 330 442 486
#
# _framework density 24.574657999999999
#
# number of rings (size 3 to 8) (size 9 to 14) (size 15 to 20)
#    0.000    0.571    1.429    4.714    8.000    5.143 
#    0.000    0.000    0.000    0.000    0.000    0.000 
#    0.000    0.000    0.000    0.000    0.000    0.000 
#
# Total GULP energy -77948.786491 kJ/mol
# GULP energy per Si atom -5567.770464 kJ/mol
# Density = 2.451873 g / cm^3
# Si number density = 24.574658 Si / 1000 Ang^3
#
#
#
# Elastic Constant Matrix: (Units=GPa)
#
#
# Indices 1 2 3 4 5 6 
#
# 1 240.6921 56.5886 152.1772 21.2049 51.0350 41.3368
# 2 56.5886 113.3697 49.0346 4.8304 30.2435 3.4895
# 3 152.1772 49.0346 224.5692 3.8318 77.5260 14.5398
# 4 21.2049 4.8304 3.8318 26.0814 16.1876 -0.3653
# 5 51.0350 30.2435 77.5260 16.1876 84.4787 4.6136
# 6 41.3368 3.4895 14.5398 -0.3653 4.6136 46.5591
#
#
#
# Elastic Compliance Matrix: (Units=1/GPa)
#
#
# Indices 1 2 3 4 5 6 
#
# 1 0.010677 -0.002459 -0.007154 -0.009248 0.003174 -0.007448
# 2 -0.002459 0.010609 0.000242 0.001872 -0.002982 0.001622
# 3 -0.007154 0.000242 0.011835 0.009438 -0.008629 0.003567
# 4 -0.009248 0.001872 0.009438 0.053100 -0.014299 0.006957
# 5 0.003174 -0.002982 -0.008629 -0.014299 0.021765 -0.002169
# 6 -0.007448 0.001622 0.003567 0.006957 -0.002169 0.027125
#
#
# Mechanical properties :
#
#
# Convention : Reuss Voigt Hill
#
# Bulk Modulus (GPa) = 69.54169 121.58130 95.56150
# Shear Modulus (GPa) = 31.51723 52.81255 42.16489
#
# Velocity S-wave (km/s) = 3.58510 4.64083 4.14670
# Velocity P-wave (km/s) = 6.74513 8.84862 7.86749
#
# Compressibility (1/GPa) = 0.01437986
#
# Stress axis : x y z
#
# Youngs Moduli (GPa) = 93.66328 94.25911 84.49650
#
# Poissons Ratio (x) = 0.23174 0.60448
# Poissons Ratio (y) = 0.23027 -0.02046
# Poissons Ratio (z) = 0.67005 -0.02282
#
# Static dielectric constant tensor:
#      x y z
#    x 1.910090 -0.026580 -0.035570 
#    y -0.026580 1.941800 -0.001460 
#    z -0.035570 -0.001460 1.997110 
# 
# From -- ./inp_files/107623.got.cif
#   From: 2010.05.17/outbox.cif.g08.bks.cpg/sg2_54_cif.got.tgz:107623.got - 2010.06.03 11:33:40.
