data_PCOD9052646
_publ_section_title
;
Structure prediction by ZEFSAII (Michael W. Deem and Ramdas Pophale) SiO2 
 PCOD9052646
Probable space group: P -1
;
_chemical_formula_sum "Si O2"
_cell_formula_units_Z 14
_cell_length_a 8.954760
_cell_length_b 12.068313
_cell_length_c 16.955985
_cell_angle_alpha 140.554591
_cell_angle_beta 113.121934
_cell_angle_gamma 38.934212
_cell_volume 624.496720
_symmetry_space_group_name_H-M "P -1"
_symmetry_group_IT_number 2
_symmetry_cell_setting 'triclinic'
loop_
_space_group_symop_operation_xyz
x,y,z
-x,-y,-z
loop_
_atom_site_type_symbol
_atom_site_label
_atom_site_fract_x
_atom_site_fract_y
_atom_site_fract_z
Si Si1 0.395138 0.390262 0.409359
Si Si2 0.730769 0.360966 0.639476
Si Si3 0.165486 0.627851 0.650295
Si Si4 0.876826 0.304402 0.142367
Si Si5 0.563859 0.111790 0.025405
Si Si6 0.306525 0.218384 0.874017
Si Si7 0.553089 0.276503 0.841068
O O1 0.500000 0.500000 0.500000
O O2 0.233763 0.544194 0.377483
O O3 0.235877 0.460344 0.492953
O O4 0.635329 0.038585 0.258543
O O5 0.445720 0.498907 0.645783
O O6 0.638701 0.560033 0.803757
O O7 0.000000 0.000000 0.500000
O O8 0.116370 0.618120 0.726087
O O9 0.881885 0.964889 0.748107
O O10 0.572098 0.586814 0.196972
O O11 0.000000 0.000000 0.000000
O O12 0.102667 0.175043 0.056154
O O13 0.503545 0.134613 0.934255
O O14 0.500000 0.000000 0.000000
O O15 0.390500 0.253261 0.832954
O O16 0.000000 0.500000 0.000000
O O17 0.500000 0.500000 0.000000
#
# Coordination Sequence:
#
# PCOD9052646 Si02
#       7
#     2   2   2   2   2   2   2
#     4  10  26  48  70 101 152 194 243 306 368 434
#     4  11  25  44  75 109 147 197 239 301 376 436
#     4  11  25  46  73 102 151 188 253 289 368 441
#     4  12  23  46  71 108 143 192 241 301 364 434
#     4  12  23  44  73 107 150 177 249 309 353 436
#     4  12  27  45  73 110 147 194 253 301 367 439
#     4  12  25  43  77 107 147 195 237 306 374 428
#
# _framework density 22.418051999999999
#
# number of rings (size 3 to 8) (size 9 to 14) (size 15 to 20)
#    0.000    0.571    5.714    0.857   10.000    0.571 
#    0.000    0.714    0.000    0.000    0.000    0.000 
#    0.000    0.000    0.000    0.000    0.000    0.000 
#
# Total GULP energy -77981.420429 kJ/mol
# GULP energy per Si atom -5570.101459 kJ/mol
# Density = 2.236703 g / cm^3
# Si number density = 22.418052 Si / 1000 Ang^3
#
#
#
# Elastic Constant Matrix: (Units=GPa)
#
#
# Indices 1 2 3 4 5 6 
#
# 1 86.1236 13.4698 30.5207 17.3815 -8.4766 8.4353
# 2 13.4698 126.4216 49.9869 19.6480 -13.6576 10.7561
# 3 30.5207 49.9869 162.1543 26.4998 -16.1915 6.6130
# 4 17.3815 19.6480 26.4998 48.4035 1.9038 -14.1921
# 5 -8.4766 -13.6576 -16.1915 1.9038 30.6256 4.5907
# 6 8.4353 10.7561 6.6130 -14.1921 4.5907 36.1299
#
#
#
# Elastic Compliance Matrix: (Units=1/GPa)
#
#
# Indices 1 2 3 4 5 6 
#
# 1 0.014559 0.001247 -0.001046 -0.007503 0.005584 -0.007236
# 2 0.001247 0.010438 -0.001745 -0.005697 0.005331 -0.005995
# 3 -0.001046 -0.001745 0.008134 -0.004390 0.003948 -0.002951
# 4 -0.007503 -0.005697 -0.004390 0.034165 -0.011938 0.019189
# 5 0.005584 0.005331 0.003948 -0.011938 0.041438 -0.013568
# 6 -0.007236 -0.005995 -0.002951 0.019189 -0.013568 0.040953
#
#
# Mechanical properties :
#
#
# Convention : Reuss Voigt Hill
#
# Bulk Modulus (GPa) = 33.28411 62.51715 47.90063
# Shear Modulus (GPa) = 30.71438 41.74661 36.23049
#
# Velocity S-wave (km/s) = 3.70547 4.31999 4.02447
# Velocity P-wave (km/s) = 5.76078 7.26846 6.55809
#
# Compressibility (1/GPa) = 0.03004437
#
# Stress axis : x y z
#
# Youngs Moduli (GPa) = 68.68416 95.80054 122.94650
#
# Poissons Ratio (x) = -0.11949 0.12861
# Poissons Ratio (y) = -0.08567 0.21452
# Poissons Ratio (z) = 0.07185 0.16715
#
# Static dielectric constant tensor:
#      x y z
#    x 1.833250 -0.103040 0.031830 
#    y -0.103040 1.883970 0.032250 
#    z 0.031830 0.032250 1.821600 
# 
# From -- ./inp_files/560042.got.cif
#   From: 2010.05.17/outbox.cif.g08.bks.cpg/sg2_281_cif.got.tgz:560042.got - 2010.06.03 11:33:40.
