data_PCOD9052031
_publ_section_title
;
Structure prediction by ZEFSAII (Michael W. Deem and Ramdas Pophale) SiO2 
 PCOD9052031
Probable space group: P -1
;
_chemical_formula_sum "Si O2"
_cell_formula_units_Z 12
_cell_length_a 9.597649
_cell_length_b 9.444648
_cell_length_c 5.211586
_cell_angle_alpha 72.332921
_cell_angle_beta 97.334576
_cell_angle_gamma 99.845478
_cell_volume 442.054650
_symmetry_space_group_name_H-M "P -1"
_symmetry_group_IT_number 2
_symmetry_cell_setting 'triclinic'
loop_
_space_group_symop_operation_xyz
x,y,z
-x,-y,-z
loop_
_atom_site_type_symbol
_atom_site_label
_atom_site_fract_x
_atom_site_fract_y
_atom_site_fract_z
Si Si1 0.554526 0.332427 0.858062
Si Si2 0.142910 0.915587 0.079880
Si Si3 0.856841 0.889220 0.441597
Si Si4 0.614824 0.147263 0.472679
Si Si5 0.706464 0.636910 0.882973
Si Si6 0.034817 0.364990 0.747347
O O1 0.617926 0.246629 0.160814
O O2 0.395976 0.340524 0.916740
O O3 0.568309 0.246581 0.644576
O O4 0.371811 0.495150 0.237453
O O5 0.236365 0.899510 0.362516
O O6 0.239401 0.202214 0.316123
O O7 0.909025 0.255960 0.914267
O O8 0.000000 0.000000 0.000000
O O9 0.772496 0.984648 0.174788
O O10 0.907707 0.751169 0.372481
O O11 0.000000 0.000000 0.500000
O O12 0.500000 0.000000 0.500000
O O13 0.846860 0.580151 0.051107
O O14 0.000000 0.500000 0.500000
#
# Coordination Sequence:
#
# PCOD9052031 Si02
#       6
#     2   2   2   2   2   2
#     4  11  30  52  83 123 166 225 283 345 422 511
#     4  10  25  49  77 122 163 212 280 343 427 497
#     4  11  25  47  79 116 166 220 280 347 431 498
#     4  12  29  54  84 120 170 220 287 347 419 507
#     4  11  27  49  81 114 167 220 280 348 427 503
#     4  11  25  45  78 117 161 214 279 353 422 497
#
# _framework density 27.145965
#
# number of rings (size 3 to 8) (size 9 to 14) (size 15 to 20)
#    0.000    1.000    1.667    1.500   11.667    7.333 
#    0.000    0.000    0.000    0.000    0.000    0.000 
#    0.000    0.000    0.000    0.000    0.000    0.000 
#
# Total GULP energy -67285.348037 kJ/mol
# GULP energy per Si atom -5607.112336 kJ/mol
# Density = 2.708418 g / cm^3
# Si number density = 27.145965 Si / 1000 Ang^3
#
#
#
# Elastic Constant Matrix: (Units=GPa)
#
#
# Indices 1 2 3 4 5 6 
#
# 1 122.0788 56.4552 33.0617 -11.7478 14.3734 27.8290
# 2 56.4552 192.5146 54.9868 -14.2694 -7.2909 22.2336
# 3 33.0617 54.9868 137.4140 -21.1192 6.3905 2.2908
# 4 -11.7478 -14.2694 -21.1192 77.4286 -9.5813 3.1025
# 5 14.3734 -7.2909 6.3905 -9.5813 47.1462 -3.7867
# 6 27.8290 22.2336 2.2908 3.1025 -3.7867 45.5417
#
#
#
# Elastic Compliance Matrix: (Units=1/GPa)
#
#
# Indices 1 2 3 4 5 6 
#
# 1 0.011667 -0.002386 -0.001453 0.000679 -0.004095 -0.006278
# 2 -0.002386 0.006815 -0.002124 0.000636 0.002067 -0.001634
# 3 -0.001453 -0.002124 0.008736 0.001640 -0.000630 0.001321
# 4 0.000679 0.000636 0.001640 0.013939 0.002377 -0.001560
# 5 -0.004095 0.002067 -0.000630 0.002377 0.023614 0.003326
# 6 -0.006278 -0.001634 0.001321 -0.001560 0.003326 0.026908
#
#
# Mechanical properties :
#
#
# Convention : Reuss Voigt Hill
#
# Bulk Modulus (GPa) = 65.39367 82.33498 73.86432
# Shear Modulus (GPa) = 45.99681 54.52354 50.26018
#
# Velocity S-wave (km/s) = 4.12081 4.48653 4.30755
# Velocity P-wave (km/s) = 6.83983 7.56537 7.21173
#
# Compressibility (1/GPa) = 0.01529200
#
# Stress axis : x y z
#
# Youngs Moduli (GPa) = 85.71193 146.73676 114.46701
#
# Poissons Ratio (x) = 0.35013 0.16630
# Poissons Ratio (y) = 0.20452 0.24314
# Poissons Ratio (z) = 0.12452 0.31169
#
# Static dielectric constant tensor:
#      x y z
#    x 2.298250 -0.121430 -0.176130 
#    y -0.121430 2.094030 0.104190 
#    z -0.176130 0.104190 2.358930 
# 
# From -- ./inp_files/87647.got.cif
#   From: 2010.05.17/outbox.cif.g08.bks.cpg/sg2_44_cif.got.tgz:87647.got - 2010.06.03 11:33:40.
