data_PCOD9052141
_publ_section_title
;
Structure prediction by ZEFSAII (Michael W. Deem and Ramdas Pophale) SiO2 
 PCOD9052141
Probable space group: P -1
;
_chemical_formula_sum "Si O2"
_cell_formula_units_Z 15
_cell_length_a 9.135576
_cell_length_b 8.895001
_cell_length_c 14.887265
_cell_angle_alpha 105.983854
_cell_angle_beta 37.687761
_cell_angle_gamma 114.514014
_cell_volume 669.866363
_symmetry_space_group_name_H-M "P -1"
_symmetry_group_IT_number 2
_symmetry_cell_setting 'triclinic'
loop_
_space_group_symop_operation_xyz
x,y,z
-x,-y,-z
loop_
_atom_site_type_symbol
_atom_site_label
_atom_site_fract_x
_atom_site_fract_y
_atom_site_fract_z
Si Si1 0.270806 0.678285 0.706671
Si Si2 0.938316 0.811359 0.026780
Si Si3 0.037083 0.615740 0.089760
Si Si4 0.947778 0.202236 0.339767
Si Si5 0.398303 0.763721 0.238381
Si Si6 0.250105 0.040568 0.447890
Si Si7 0.000000 0.500000 0.500000
Si Si8 0.521656 0.820944 0.981590
O O1 0.160104 0.482915 0.753934
O O2 0.216443 0.738940 0.644956
O O3 0.564657 0.769447 0.605125
O O4 0.097424 0.744274 0.868423
O O5 0.638298 0.717925 0.148892
O O6 0.001839 0.780976 0.093086
O O7 0.000000 0.000000 0.000000
O O8 0.323413 0.676904 0.995522
O O9 0.000000 0.500000 0.000000
O O10 0.814863 0.033037 0.432360
O O11 0.014185 0.341029 0.407330
O O12 0.198616 0.186175 0.169775
O O13 0.409958 0.936738 0.306440
O O14 0.430486 0.783912 0.121105
O O15 0.143270 0.626639 0.370353
O O16 0.000000 0.000000 0.500000
O O17 0.500000 0.000000 0.000000
#
# Coordination Sequence:
#
# PCOD9052141 Si02
#       8
#     2   2   2   2   2   2   1   2
#     4  11  23  44  69 104 142 190 248 303 363 432
#     4  11  21  41  70 102 139 184 237 299 361 436
#     4  10  26  39  66 109 145 181 233 309 368 417
#     4  11  25  44  73 102 142 199 245 304 364 447
#     4  11  23  43  68 103 136 191 241 292 366 431
#     4  11  25  43  70 101 150 195 238 296 376 448
#     4  10  26  42  66  98 144 184 242 290 368 436
#     4  12  25  43  75 109 144 185 253 303 365 436
#
# _framework density 22.392527000000001
#
# number of rings (size 3 to 8) (size 9 to 14) (size 15 to 20)
#    0.000    1.067    2.667    2.800    9.333    2.133 
#    0.000    0.000    0.000    8.800    0.000    0.000 
#    0.000    0.000    0.000    0.000    0.000    0.000 
#
# Total GULP energy -83553.686472 kJ/mol
# GULP energy per Si atom -5570.245765 kJ/mol
# Density = 2.234156 g / cm^3
# Si number density = 22.392527 Si / 1000 Ang^3
#
#
#
# Elastic Constant Matrix: (Units=GPa)
#
#
# Indices 1 2 3 4 5 6 
#
# 1 110.8090 4.2095 53.6681 -25.7214 2.6451 -12.1630
# 2 4.2095 58.3263 27.9310 -10.9134 -2.0515 -2.4561
# 3 53.6681 27.9310 106.6811 -3.9757 21.3816 -3.0803
# 4 -25.7214 -10.9134 -3.9757 -8.4355 2.9681 0.1411
# 5 2.6451 -2.0515 21.3816 2.9681 30.0001 -8.5929
# 6 -12.1630 -2.4561 -3.0803 0.1411 -8.5929 30.5613
#
#
#
# Elastic Compliance Matrix: (Units=1/GPa)
#
#
# Indices 1 2 3 4 5 6 
#
# 1 0.007878 -0.000896 -0.005517 -0.018009 0.006199 0.004334
# 2 -0.000896 0.017903 -0.006311 -0.014582 0.008039 0.002774
# 3 -0.005517 -0.006311 0.017040 0.011688 -0.014730 -0.005181
# 4 -0.018009 -0.014582 0.011688 -0.052162 -0.004960 -0.008315
# 5 0.006199 0.008039 -0.014730 -0.004960 0.048723 0.015351
# 6 0.004334 0.002774 -0.005181 -0.008315 0.015351 0.038501
#
#
# Mechanical properties :
#
#
# Convention : Reuss Voigt Hill
#
# Bulk Modulus (GPa) = 57.56096 49.71484 53.63790
# Shear Modulus (GPa) = 45.82006 23.09235 34.45621
#
# Velocity S-wave (km/s) = 4.52842 3.21480 3.92693
# Velocity P-wave (km/s) = 7.28721 6.00247 6.67582
#
# Compressibility (1/GPa) = 0.01737289
#
# Stress axis : x y z
#
# Youngs Moduli (GPa) = 126.93341 55.85652 58.68536
#
# Poissons Ratio (x) = 0.05002 0.32379
# Poissons Ratio (y) = 0.11368 0.37038
# Poissons Ratio (z) = 0.70033 0.35252
#
# Static dielectric constant tensor:
#      x y z
#    x 1.946800 -0.086520 -0.029030 
#    y -0.086520 2.056440 -0.032390 
#    z -0.029030 -0.032390 1.794680 
# 
# From -- ./inp_files/191009.got.cif
#   From: 2010.05.17/outbox.cif.g08.bks.cpg/sg2_96_cif.got.tgz:191009.got - 2010.06.03 11:33:40.
