data_PCOD9052286
_publ_section_title
;
Structure prediction by ZEFSAII (Michael W. Deem and Ramdas Pophale) SiO2 
 PCOD9052286
Probable space group: P -1
;
_chemical_formula_sum "Si O2"
_cell_formula_units_Z 16
_cell_length_a 13.749293
_cell_length_b 10.701203
_cell_length_c 14.612517
_cell_angle_alpha 121.658841
_cell_angle_beta 140.295109
_cell_angle_gamma 31.338466
_cell_volume 655.319491
_symmetry_space_group_name_H-M "P -1"
_symmetry_group_IT_number 2
_symmetry_cell_setting 'triclinic'
loop_
_space_group_symop_operation_xyz
x,y,z
-x,-y,-z
loop_
_atom_site_type_symbol
_atom_site_label
_atom_site_fract_x
_atom_site_fract_y
_atom_site_fract_z
Si Si1 0.858536 0.024513 0.697590
Si Si2 0.003377 0.719223 0.403904
Si Si3 0.363231 0.412188 0.367595
Si Si4 0.574299 0.672160 0.814522
Si Si5 0.880780 0.704049 0.868672
Si Si6 0.352368 0.818054 0.031753
Si Si7 0.949415 0.415723 0.257174
Si Si8 0.500541 0.435250 0.763025
O O1 0.660539 0.211605 0.541965
O O2 0.698258 0.197569 0.741018
O O3 0.910866 0.807763 0.657547
O O4 0.140293 0.886918 0.850245
O O5 0.988684 0.557848 0.354446
O O6 0.153736 0.619559 0.375933
O O7 0.195844 0.639304 0.588290
O O8 0.706146 0.024276 0.294256
O O9 0.333786 0.488366 0.272177
O O10 0.320757 0.271129 0.269357
O O11 0.539137 0.576896 0.829129
O O12 0.820838 0.580115 0.987734
O O13 0.923501 0.718353 0.801034
O O14 0.780390 0.920729 0.937550
O O15 0.632777 0.629708 0.112837
O O16 0.421706 0.681476 0.125267
#
# Coordination Sequence:
#
# PCOD9052286 Si02
#       8
#     2   2   2   2   2   2   2   2
#     4  11  23  45  67 106 140 174 228 284 346 399
#     4  10  26  45  67 107 137 180 229 282 341 404
#     4  10  26  44  71 103 136 185 225 282 341 405
#     4  12  24  47  69  99 143 184 229 272 342 414
#     4  11  24  46  73 100 139 179 230 285 335 409
#     4  12  24  45  72 104 136 181 229 281 349 399
#     4  11  25  43  71 104 136 179 227 290 340 401
#     4  11  24  44  72  99 140 182 226 284 335 412
#
# _framework density 24.415569999999999
#
# number of rings (size 3 to 8) (size 9 to 14) (size 15 to 20)
#    0.000    1.000    2.500    3.000    3.500    7.000 
#    4.500    0.000    0.000    0.000    0.000    0.000 
#    0.000    0.000    0.000    0.000    0.000    0.000 
#
# Total GULP energy -89705.114566 kJ/mol
# GULP energy per Si atom -5606.569660 kJ/mol
# Density = 2.436000 g / cm^3
# Si number density = 24.415570 Si / 1000 Ang^3
#
#
#
# Elastic Constant Matrix: (Units=GPa)
#
#
# Indices 1 2 3 4 5 6 
#
# 1 90.0216 6.4055 7.9356 10.8830 6.5804 -7.6905
# 2 6.4055 73.8615 -3.3493 -2.2285 11.1391 8.8036
# 3 7.9356 -3.3493 92.6389 14.8539 6.4004 -0.4319
# 4 10.8830 -2.2285 14.8539 29.4834 -0.8866 5.8760
# 5 6.5804 11.1391 6.4004 -0.8866 34.4976 4.5418
# 6 -7.6905 8.8036 -0.4319 5.8760 4.5418 28.8816
#
#
#
# Elastic Compliance Matrix: (Units=1/GPa)
#
#
# Indices 1 2 3 4 5 6 
#
# 1 0.012604 -0.001500 0.000041 -0.005960 -0.002800 0.005467
# 2 -0.001500 0.014927 0.000561 0.002232 -0.003952 -0.004774
# 3 0.000041 0.000561 0.012055 -0.006487 -0.002827 0.001784
# 4 -0.005960 0.002232 -0.006487 0.041987 0.004222 -0.011571
# 5 -0.002800 -0.003952 -0.002827 0.004222 0.032155 -0.005499
# 6 0.005467 -0.004774 0.001784 -0.011571 -0.005499 0.040780
#
#
# Mechanical properties :
#
#
# Convention : Reuss Voigt Hill
#
# Bulk Modulus (GPa) = 26.46305 30.94508 28.70406
# Shear Modulus (GPa) = 29.60314 34.94120 32.27217
#
# Velocity S-wave (km/s) = 3.48583 3.78710 3.63958
# Velocity P-wave (km/s) = 5.20226 5.64133 5.42624
#
# Compressibility (1/GPa) = 0.03778854
#
# Stress axis : x y z
#
# Youngs Moduli (GPa) = 79.34073 66.99409 82.95218
#
# Poissons Ratio (x) = 0.10051 -0.00337
# Poissons Ratio (y) = 0.11904 -0.04654
# Poissons Ratio (z) = -0.00323 -0.03759
#
# Static dielectric constant tensor:
#      x y z
#    x 1.934750 -0.005330 -0.000100 
#    y -0.005330 1.949540 0.004420 
#    z -0.000100 0.004420 1.878640 
# 
# From -- ./inp_files/532614.got.cif
#   From: 2010.05.17/outbox.cif.g08.bks.cpg/sg2_267_cif.got.tgz:532614.got - 2010.06.03 11:33:40.
