data_PCOD9052755
_publ_section_title
;
Structure prediction by ZEFSAII (Michael W. Deem and Ramdas Pophale) SiO2 
 PCOD9052755
Probable space group: P -1
;
_chemical_formula_sum "Si O2"
_cell_formula_units_Z 12
_cell_length_a 22.119938
_cell_length_b 11.550841
_cell_length_c 4.897575
_cell_angle_alpha 71.207211
_cell_angle_beta 85.235025
_cell_angle_gamma 25.927067
_cell_volume 448.783143
_symmetry_space_group_name_H-M "P -1"
_symmetry_group_IT_number 2
_symmetry_cell_setting 'triclinic'
loop_
_space_group_symop_operation_xyz
x,y,z
-x,-y,-z
loop_
_atom_site_type_symbol
_atom_site_label
_atom_site_fract_x
_atom_site_fract_y
_atom_site_fract_z
Si Si1 0.688992 0.517817 0.908381
Si Si2 0.930869 0.769056 0.820746
Si Si3 0.191735 0.321347 0.727816
Si Si4 0.356759 0.119762 0.341478
Si Si5 0.376812 0.737249 0.117925
Si Si6 0.896460 0.094040 0.636113
O O1 0.639648 0.745673 0.852975
O O2 0.822013 0.277779 0.806044
O O3 0.533844 0.749648 0.648194
O O4 0.755339 0.326340 0.294411
O O5 0.767305 0.067991 0.823324
O O6 0.988647 0.796386 0.882528
O O7 0.000000 0.500000 0.000000
O O8 0.001232 0.665349 0.565905
O O9 0.282002 0.175525 0.093590
O O10 0.269809 0.050235 0.810373
O O11 0.255135 0.304773 0.515307
O O12 0.500000 0.500000 0.500000
O O13 0.500000 0.500000 0.000000
O O14 0.000000 0.000000 0.500000
#
# Coordination Sequence:
#
# PCOD9052755 Si02
#       6
#     2   2   2   2   2   2
#     4  11  25  41  67 105 144 188 244 299 353 435
#     4  10  26  49  73 107 149 193 240 302 370 435
#     4  11  24  44  72  98 142 191 239 294 373 429
#     4  11  23  43  69 103 145 190 238 298 372 427
#     4  11  26  45  71 105 139 186 246 306 357 426
#     4  12  25  44  73 105 146 190 249 293 364 433
#
# _framework density 26.738969999999998
#
# number of rings (size 3 to 8) (size 9 to 14) (size 15 to 20)
#    0.000    1.000    0.000    5.500    7.000    5.333 
#    0.000    9.167    0.000    0.000    0.000    0.000 
#    0.000    0.000    0.000    0.000    0.000    0.000 
#
# Total GULP energy -66834.567405 kJ/mol
# GULP energy per Si atom -5569.547284 kJ/mol
# Density = 2.667811 g / cm^3
# Si number density = 26.738970 Si / 1000 Ang^3
#
#
#
# Elastic Constant Matrix: (Units=GPa)
#
#
# Indices 1 2 3 4 5 6 
#
# 1 71.6333 39.5595 22.3001 -0.0570 -19.3879 -16.4301
# 2 39.5595 215.7118 32.8480 23.2065 6.3905 -15.0211
# 3 22.3001 32.8480 112.1214 16.3423 21.9817 -4.0361
# 4 -0.0570 23.2065 16.3423 46.7048 -2.8828 -4.6240
# 5 -19.3879 6.3905 21.9817 -2.8828 50.4169 0.7638
# 6 -16.4301 -15.0211 -4.0361 -4.6240 0.7638 39.1816
#
#
#
# Elastic Compliance Matrix: (Units=1/GPa)
#
#
# Indices 1 2 3 4 5 6 
#
# 1 0.023272 -0.003694 -0.006534 0.005722 0.012470 0.008102
# 2 -0.003694 0.005729 -0.000053 -0.002941 -0.002297 0.000340
# 3 -0.006534 -0.000053 0.012514 -0.005057 -0.008222 -0.001907
# 4 0.005722 -0.002941 -0.005057 0.025389 0.006175 0.003627
# 5 0.012470 -0.002297 -0.008222 0.006175 0.028804 0.003669
# 6 0.008102 0.000340 -0.001907 0.003627 0.003669 0.029210
#
#
# Mechanical properties :
#
#
# Convention : Reuss Voigt Hill
#
# Bulk Modulus (GPa) = 47.72044 65.43129 56.57586
# Shear Modulus (GPa) = 32.79487 47.57793 40.18640
#
# Velocity S-wave (km/s) = 3.50592 4.22281 3.88095
# Velocity P-wave (km/s) = 5.85441 6.94980 6.42549
#
# Compressibility (1/GPa) = 0.02095538
#
# Stress axis : x y z
#
# Youngs Moduli (GPa) = 42.97049 174.54044 79.90901
#
# Poissons Ratio (x) = 0.64470 0.52210
# Poissons Ratio (y) = 0.15872 0.00420
# Poissons Ratio (z) = 0.28075 0.00918
#
# Static dielectric constant tensor:
#      x y z
#    x 2.205730 0.024280 0.081350 
#    y 0.024280 2.171320 -0.040060 
#    z 0.081350 -0.040060 2.097410 
# 
# From -- ./inp_files/127073.got.cif
#   From: 2010.05.17/outbox.cif.g08.bks.cpg/sg2_64_cif.got.tgz:127073.got - 2010.06.03 11:33:40.
