data_PCOD9052036
_publ_section_title
;
Structure prediction by ZEFSAII (Michael W. Deem and Ramdas Pophale) SiO2 
 PCOD9052036
Probable space group: P -1
;
_chemical_formula_sum "Si O2"
_cell_formula_units_Z 10
_cell_length_a 5.237025
_cell_length_b 14.725529
_cell_length_c 14.439434
_cell_angle_alpha 20.803444
_cell_angle_beta 78.653530
_cell_angle_gamma 79.320577
_cell_volume 387.755502
_symmetry_space_group_name_H-M "P -1"
_symmetry_group_IT_number 2
_symmetry_cell_setting 'triclinic'
loop_
_space_group_symop_operation_xyz
x,y,z
-x,-y,-z
loop_
_atom_site_type_symbol
_atom_site_label
_atom_site_fract_x
_atom_site_fract_y
_atom_site_fract_z
Si Si1 0.466340 0.629009 0.479764
Si Si2 0.078263 0.373205 0.878172
Si Si3 0.658318 0.789991 0.809516
Si Si4 0.311000 0.277195 0.338772
Si Si5 0.968624 0.950710 0.158268
O O1 0.500000 0.500000 0.500000
O O2 0.346229 0.438445 0.744955
O O3 0.734993 0.752779 0.372720
O O4 0.242167 0.840535 0.279505
O O5 0.933516 0.631844 0.671423
O O6 0.130425 0.220718 0.114543
O O7 0.917592 0.206090 0.976248
O O8 0.768839 0.785164 0.701911
O O9 0.473933 0.037763 0.593126
O O10 0.494303 0.528389 0.081663
O O11 0.000000 0.000000 0.000000
#
# Coordination Sequence:
#
# PCOD9052036 Si02
#       5
#     2   2   2   2   2
#     4  12  29  51  78 115 162 218 275 343 414 488
#     4  12  29  44  82 114 164 212 285 328 420 492
#     4  10  25  49  78 116 164 214 273 343 416 492
#     4  10  25  49  78 116 164 214 273 343 416 492
#     4  12  29  51  78 115 162 218 275 343 414 488
#
# _framework density 25.789444
#
# number of rings (size 3 to 8) (size 9 to 14) (size 15 to 20)
#    0.000    0.800    2.000    1.800   11.200    0.000 
#    0.000    6.000    0.000    3.600    0.000    0.000 
#    0.000    0.000    0.000    0.000    0.000    0.000 
#
# Total GULP energy -56204.233113 kJ/mol
# GULP energy per Si atom -5620.423311 kJ/mol
# Density = 2.573075 g / cm^3
# Si number density = 25.789444 Si / 1000 Ang^3
#
#
#
# Elastic Constant Matrix: (Units=GPa)
#
#
# Indices 1 2 3 4 5 6 
#
# 1 76.3231 64.5019 42.7800 -16.8598 1.8970 -1.3343
# 2 64.5019 205.3622 62.5780 -15.6588 17.3261 -2.1769
# 3 42.7800 62.5780 133.8270 -28.3734 13.0311 7.8878
# 4 -16.8598 -15.6588 -28.3734 43.0581 4.2858 9.2370
# 5 1.8970 17.3261 13.0311 4.2858 55.9575 3.4851
# 6 -1.3343 -2.1769 7.8878 9.2370 3.4851 40.6994
#
#
#
# Elastic Compliance Matrix: (Units=1/GPa)
#
#
# Indices 1 2 3 4 5 6 
#
# 1 0.020102 -0.005117 -0.003415 0.003595 0.001416 0.000110
# 2 -0.005117 0.007096 -0.001685 -0.000542 -0.001640 0.000802
# 3 -0.003415 -0.001685 0.011135 0.006385 -0.002219 -0.003619
# 4 0.003595 -0.000542 0.006385 0.030649 -0.003301 -0.007822
# 5 0.001416 -0.001640 -0.002219 -0.003301 0.019131 -0.000500
# 6 0.000110 0.000802 -0.003619 -0.007822 -0.000500 0.027136
#
#
# Mechanical properties :
#
#
# Convention : Reuss Voigt Hill
#
# Bulk Modulus (GPa) = 55.87162 83.91467 69.89315
# Shear Modulus (GPa) = 35.29842 44.31983 39.80912
#
# Velocity S-wave (km/s) = 3.70363 4.15001 3.93316
# Velocity P-wave (km/s) = 6.32461 7.45469 6.91278
#
# Compressibility (1/GPa) = 0.01789817
#
# Stress axis : x y z
#
# Youngs Moduli (GPa) = 49.74599 140.93297 89.80779
#
# Poissons Ratio (x) = 0.72120 0.30672
# Poissons Ratio (y) = 0.25457 0.15129
# Poissons Ratio (z) = 0.16989 0.23742
#
# Static dielectric constant tensor:
#      x y z
#    x 1.994920 -0.005040 0.007820 
#    y -0.005040 1.994390 -0.007960 
#    z 0.007820 -0.007960 2.066190 
# 
# From -- ./inp_files/85993.got.cif
#   From: 2010.05.17/outbox.cif.g08.bks.cpg/sg2_43_cif.got.tgz:85993.got - 2010.06.03 11:33:40.
