data_PCOD9052970
_publ_section_title
;
Structure prediction by ZEFSAII (Michael W. Deem and Ramdas Pophale) SiO2 
 PCOD9052970
Probable space group: P -1
;
_chemical_formula_sum "Si O2"
_cell_formula_units_Z 14
_cell_length_a 7.366355
_cell_length_b 12.687229
_cell_length_c 12.723745
_cell_angle_alpha 82.890083
_cell_angle_beta 82.613707
_cell_angle_gamma 27.757166
_cell_volume 549.089702
_symmetry_space_group_name_H-M "P -1"
_symmetry_group_IT_number 2
_symmetry_cell_setting 'triclinic'
loop_
_space_group_symop_operation_xyz
x,y,z
-x,-y,-z
loop_
_atom_site_type_symbol
_atom_site_label
_atom_site_fract_x
_atom_site_fract_y
_atom_site_fract_z
Si Si1 0.895974 0.085406 0.149312
Si Si2 0.287037 0.115472 0.113533
Si Si3 0.717562 0.122599 0.374048
Si Si4 0.325387 0.694121 0.289855
Si Si5 0.688108 0.522853 0.988465
Si Si6 0.030423 0.306469 0.770029
Si Si7 0.583135 0.726539 0.405250
O O1 0.604533 0.216463 0.254533
O O2 0.646496 0.219760 0.044115
O O3 0.093280 0.099335 0.144974
O O4 0.214746 0.832433 0.186345
O O5 0.619717 0.956924 0.194945
O O6 0.966006 0.372275 0.087790
O O7 0.500000 0.000000 0.000000
O O8 0.405785 0.285760 0.468500
O O9 0.936975 0.897482 0.368856
O O10 0.110730 0.988736 0.390060
O O11 0.643820 0.584803 0.354254
O O12 0.339356 0.571432 0.257583
O O13 0.948299 0.397794 0.878959
O O14 0.500000 0.500000 0.000000
O O15 0.190170 0.300507 0.669958
#
# Coordination Sequence:
#
# PCOD9052970 Si02
#       7
#     2   2   2   2   2   2   2
#     4   8  15  34  47  65 105 124 150 202 240 277
#     4   9  16  28  49  70  86 127 166 190 235 287
#     4   7  14  30  50  70 100 127 149 192 246 275
#     4   8  17  28  52  75  97 119 165 197 231 275
#     4   9  19  32  51  67  96 135 156 193 257 282
#     4  11  17  30  55  73  93 126 166 200 226 284
#     4   8  15  30  48  77  97 127 150 198 237 282
#
# _framework density 25.496745000000001
#
# number of rings (size 3 to 8) (size 9 to 14) (size 15 to 20)
#    1.714    1.429    2.857    0.000    0.000    0.571 
#    0.000    7.857    6.286    0.857    0.000    0.000 
#    0.000    0.000    0.000    0.000    0.000    0.000 
#
# Total GULP energy -77962.288146 kJ/mol
# GULP energy per Si atom -5568.734868 kJ/mol
# Density = 2.543871 g / cm^3
# Si number density = 25.496745 Si / 1000 Ang^3
#
#
#
# Elastic Constant Matrix: (Units=GPa)
#
#
# Indices 1 2 3 4 5 6 
#
# 1 85.3770 2.7432 31.1114 13.1728 -3.3824 -4.0430
# 2 2.7432 88.0923 17.8411 3.6741 -11.9613 9.2803
# 3 31.1114 17.8411 112.8680 11.9218 -27.9385 -18.9446
# 4 13.1728 3.6741 11.9218 34.9343 -13.6850 -2.5299
# 5 -3.3824 -11.9613 -27.9385 -13.6850 33.1892 3.0955
# 6 -4.0430 9.2803 -18.9446 -2.5299 3.0955 16.8589
#
#
#
# Elastic Compliance Matrix: (Units=1/GPa)
#
#
# Indices 1 2 3 4 5 6 
#
# 1 0.014059 0.000402 -0.004884 -0.005669 -0.004653 -0.002334
# 2 0.000402 0.013744 -0.003517 -0.000037 0.003138 -0.012003
# 3 -0.004884 -0.003517 0.016186 0.002329 0.011211 0.017244
# 4 -0.005669 -0.000037 0.002329 0.036548 0.016084 0.003809
# 5 -0.004653 0.003138 0.011211 0.016084 0.046518 0.003628
# 6 -0.002334 -0.012003 0.017244 0.003809 0.003628 0.084646
#
#
# Mechanical properties :
#
#
# Convention : Reuss Voigt Hill
#
# Bulk Modulus (GPa) = 35.72699 43.30319 39.51509
# Shear Modulus (GPa) = 21.09437 32.63925 26.86681
#
# Velocity S-wave (km/s) = 2.87947 3.58178 3.24965
# Velocity P-wave (km/s) = 5.00978 5.84176 5.44169
#
# Compressibility (1/GPa) = 0.02799004
#
# Stress axis : x y z
#
# Youngs Moduli (GPa) = 71.12781 72.76083 61.78314
#
# Poissons Ratio (x) = -0.02923 0.30172
# Poissons Ratio (y) = -0.02857 0.21731
# Poissons Ratio (z) = 0.34736 0.25593
#
# Static dielectric constant tensor:
#      x y z
#    x 1.991990 0.025550 0.059480 
#    y 0.025550 2.240630 0.018830 
#    z 0.059480 0.018830 2.015190 
# 
# From -- ./inp_files/401206.got.cif
#   From: 2010.05.17/outbox.cif.g08.bks.cpg/sg2_201_cif.got.tgz:401206.got - 2010.06.03 11:33:40.
