data_PCOD9052630
_publ_section_title
;
Structure prediction by ZEFSAII (Michael W. Deem and Ramdas Pophale) SiO2 
 PCOD9052630
Probable space group: P -1
;
_chemical_formula_sum "Si O2"
_cell_formula_units_Z 16
_cell_length_a 10.484527
_cell_length_b 12.330365
_cell_length_c 11.755507
_cell_angle_alpha 37.044643
_cell_angle_beta 79.978992
_cell_angle_gamma 106.271031
_cell_volume 638.144646
_symmetry_space_group_name_H-M "P -1"
_symmetry_group_IT_number 2
_symmetry_cell_setting 'triclinic'
loop_
_space_group_symop_operation_xyz
x,y,z
-x,-y,-z
loop_
_atom_site_type_symbol
_atom_site_label
_atom_site_fract_x
_atom_site_fract_y
_atom_site_fract_z
Si Si1 0.783478 0.245084 0.735817
Si Si2 0.529712 0.316803 0.734003
Si Si3 0.824585 0.194791 0.517027
Si Si4 0.392132 0.521112 0.661433
Si Si5 0.083205 0.363582 0.988641
Si Si6 0.665617 0.053388 0.283755
Si Si7 0.336026 0.209379 0.297377
Si Si8 0.820760 0.583462 0.805745
O O1 0.660775 0.282477 0.777203
O O2 0.752929 0.197629 0.644108
O O3 0.000000 0.500000 0.500000
O O4 0.675109 0.959385 0.032636
O O5 0.500567 0.441121 0.728400
O O6 0.631673 0.494531 0.457733
O O7 0.824606 0.354025 0.291330
O O8 0.035029 0.341759 0.372088
O O9 0.735379 0.937475 0.686591
O O10 0.207728 0.351504 0.905445
O O11 0.524406 0.817177 0.421356
O O12 0.096584 0.347666 0.135202
O O13 0.875864 0.189908 0.123968
O O14 0.614487 0.909144 0.531854
O O15 0.670436 0.274744 0.088624
O O16 0.210240 0.235008 0.357714
O O17 0.500000 0.500000 0.000000
#
# Coordination Sequence:
#
# PCOD9052630 Si02
#       8
#     2   2   2   2   2   2   2   2
#     4  11  26  47  74  99 138 186 238 295 352 410
#     4  10  26  48  66 104 136 177 243 295 350 411
#     4  11  23  45  67 100 140 184 231 288 350 419
#     4  11  25  44  73  98 140 181 230 299 346 414
#     4  11  22  44  71  96 138 190 223 284 354 417
#     4  11  25  44  68 106 140 186 235 277 351 432
#     4  12  26  40  67 107 145 184 233 279 352 431
#     4  11  24  43  70  97 145 184 227 286 344 423
#
# _framework density 25.072685
#
# number of rings (size 3 to 8) (size 9 to 14) (size 15 to 20)
#    0.000    1.000    3.750    1.875    8.750    3.000 
#    0.000    2.500    0.000    0.000    0.000    0.000 
#    0.000    0.000    0.000    0.000    0.000    0.000 
#
# Total GULP energy -89416.040416 kJ/mol
# GULP energy per Si atom -5588.502526 kJ/mol
# Density = 2.501562 g / cm^3
# Si number density = 25.072685 Si / 1000 Ang^3
#
#
#
# Elastic Constant Matrix: (Units=GPa)
#
#
# Indices 1 2 3 4 5 6 
#
# 1 81.9816 33.7604 25.2885 -14.1142 -7.9864 -35.0502
# 2 33.7604 76.0175 29.4886 -2.6471 -6.4682 -18.4254
# 3 25.2885 29.4886 120.5786 -15.6968 -5.7911 -8.8144
# 4 -14.1142 -2.6471 -15.6968 47.5854 -8.5470 2.4971
# 5 -7.9864 -6.4682 -5.7911 -8.5470 45.9477 8.1032
# 6 -35.0502 -18.4254 -8.8144 2.4971 8.1032 36.7220
#
#
#
# Elastic Compliance Matrix: (Units=1/GPa)
#
#
# Indices 1 2 3 4 5 6 
#
# 1 0.024208 -0.005102 -0.001643 0.005478 0.000846 0.019592
# 2 -0.005102 0.017372 -0.003156 -0.001701 0.000291 0.003141
# 3 -0.001643 -0.003156 0.009747 0.002845 0.001254 -0.001283
# 4 0.005478 -0.001701 0.002845 0.024297 0.005192 0.002260
# 5 0.000846 0.000291 0.001254 0.005192 0.023845 -0.004360
# 6 0.019592 0.003141 -0.001283 0.002260 -0.004360 0.048008
#
#
# Mechanical properties :
#
#
# Convention : Reuss Voigt Hill
#
# Bulk Modulus (GPa) = 31.72272 50.62806 41.17539
# Shear Modulus (GPa) = 28.12351 38.72036 33.42194
#
# Velocity S-wave (km/s) = 3.35278 3.93405 3.65499
# Velocity P-wave (km/s) = 5.26003 6.39312 5.85406
#
# Compressibility (1/GPa) = 0.03152315
#
# Stress axis : x y z
#
# Youngs Moduli (GPa) = 41.30924 57.56447 102.59949
#
# Poissons Ratio (x) = 0.29369 0.16860
# Poissons Ratio (y) = 0.21076 0.32383
# Poissons Ratio (z) = 0.06788 0.18169
#
# Static dielectric constant tensor:
#      x y z
#    x 2.450570 -0.209060 -0.194120 
#    y -0.209060 2.096840 0.114820 
#    z -0.194120 0.114820 2.109360 
# 
# From -- ./inp_files/427393.got.cif
#   From: 2010.05.17/outbox.cif.g08.bks.cpg/sg2_214_cif.got.tgz:427393.got - 2010.06.03 11:33:40.
