data_PCOD9052497
_publ_section_title
;
Structure prediction by ZEFSAII (Michael W. Deem and Ramdas Pophale) SiO2 
 PCOD9052497
Probable space group: P -1
;
_chemical_formula_sum "Si O2"
_cell_formula_units_Z 12
_cell_length_a 8.283462
_cell_length_b 17.224959
_cell_length_c 9.396056
_cell_angle_alpha 136.593601
_cell_angle_beta 31.049490
_cell_angle_gamma 140.375119
_cell_volume 431.857506
_symmetry_space_group_name_H-M "P -1"
_symmetry_group_IT_number 2
_symmetry_cell_setting 'triclinic'
loop_
_space_group_symop_operation_xyz
x,y,z
-x,-y,-z
loop_
_atom_site_type_symbol
_atom_site_label
_atom_site_fract_x
_atom_site_fract_y
_atom_site_fract_z
Si Si1 0.736706 0.081446 0.180438
Si Si2 0.715884 0.512914 0.532463
Si Si3 0.500000 0.500000 0.000000
Si Si4 0.141767 0.804523 0.253268
Si Si5 0.000000 0.500000 0.000000
Si Si6 0.773817 0.772221 0.765274
Si Si7 0.722555 0.775873 0.253588
O O1 0.564494 0.178773 0.418115
O O2 0.946505 0.112069 0.210018
O O3 0.445954 0.942841 0.206568
O O4 0.030649 0.111561 0.882078
O O5 0.944052 0.476585 0.199743
O O6 0.855022 0.660024 0.605992
O O7 0.670587 0.480679 0.690158
O O8 0.321358 0.463590 0.711901
O O9 0.604286 0.648471 0.086486
O O10 0.855572 0.796649 0.571438
O O11 0.963949 0.771829 0.193875
O O12 0.360174 0.726661 0.037940
#
# Coordination Sequence:
#
# PCOD9052497 Si02
#       7
#     2   2   1   2   1   2   2
#     4  12  25  51  75 112 152 200 256 323 383 464
#     4  11  26  48  74 108 157 201 262 319 387 465
#     4  12  30  50  78 112 160 210 260 316 396 466
#     4  12  26  47  80 111 151 200 257 319 394 458
#     4  10  26  46  74 104 148 206 254 324 368 458
#     4  12  25  46  74 116 148 196 251 328 390 459
#     4  12  28  48  76 110 154 203 260 313 387 463
#
# _framework density 27.786943000000001
#
# number of rings (size 3 to 8) (size 9 to 14) (size 15 to 20)
#    0.000    0.333    1.667    6.000    9.333    2.667 
#    0.000    0.000    0.000    0.000    0.000    0.000 
#    0.000    0.000    0.000    0.000    0.000    0.000 
#
# Total GULP energy -66880.561046 kJ/mol
# GULP energy per Si atom -5573.380087 kJ/mol
# Density = 2.772370 g / cm^3
# Si number density = 27.786943 Si / 1000 Ang^3
#
#
#
# Elastic Constant Matrix: (Units=GPa)
#
#
# Indices 1 2 3 4 5 6 
#
# 1 96.6090 10.6371 50.8693 -0.6329 13.3085 22.3914
# 2 10.6371 57.6415 45.9473 -14.1094 19.0846 14.3483
# 3 50.8693 45.9473 151.0110 -8.9792 4.7050 -0.8180
# 4 -0.6329 -14.1094 -8.9792 44.2360 -4.0153 6.9038
# 5 13.3085 19.0846 4.7050 -4.0153 63.1734 -18.5060
# 6 22.3914 14.3483 -0.8180 6.9038 -18.5060 45.6975
#
#
#
# Elastic Compliance Matrix: (Units=1/GPa)
#
#
# Indices 1 2 3 4 5 6 
#
# 1 0.023557 0.019960 -0.013226 0.006515 -0.017210 -0.026001
# 2 0.019960 0.056994 -0.022260 0.017884 -0.031365 -0.043478
# 3 -0.013226 -0.022260 0.017191 -0.005704 0.013793 0.020225
# 4 0.006515 0.017884 -0.005704 0.029059 -0.009530 -0.017159
# 5 -0.017210 -0.031365 0.013793 -0.009530 0.037608 0.035197
# 6 -0.026001 -0.043478 0.020225 -0.017159 0.035197 0.065483
#
#
# Mechanical properties :
#
#
# Convention : Reuss Voigt Hill
#
# Bulk Modulus (GPa) = 14.99454 57.79657 36.39555
# Shear Modulus (GPa) = 17.65709 43.80858 30.73284
#
# Velocity S-wave (km/s) = 2.52354 3.97494 3.32929
# Velocity P-wave (km/s) = 3.72813 6.47394 5.28256
#
# Compressibility (1/GPa) = 0.06669095
#
# Stress axis : x y z
#
# Youngs Moduli (GPa) = 42.45005 17.54574 58.17043
#
# Poissons Ratio (x) = -0.35022 0.76936
# Poissons Ratio (y) = -0.84732 1.29487
# Poissons Ratio (z) = 0.56144 0.39057
#
# Static dielectric constant tensor:
#      x y z
#    x -5.318070 0.626810 -1.149170 
#    y 0.626810 2.121780 0.046320 
#    z -1.149170 0.046320 1.883120 
# 
# From -- ./inp_files/206627.got.cif
#   From: 2010.05.17/outbox.cif.g08.bks.cpg/sg2_104_cif.got.tgz:206627.got - 2010.06.03 11:33:40.
