data_PCOD9052263
_publ_section_title
;
Structure prediction by ZEFSAII (Michael W. Deem and Ramdas Pophale) SiO2 
 PCOD9052263
Probable space group: P -1
;
_chemical_formula_sum "Si O2"
_cell_formula_units_Z 9
_cell_length_a 7.582337
_cell_length_b 5.408831
_cell_length_c 11.580065
_cell_angle_alpha 61.472603
_cell_angle_beta 55.468314
_cell_angle_gamma 57.139401
_cell_volume 318.569546
_symmetry_space_group_name_H-M "P -1"
_symmetry_group_IT_number 2
_symmetry_cell_setting 'triclinic'
loop_
_space_group_symop_operation_xyz
x,y,z
-x,-y,-z
loop_
_atom_site_type_symbol
_atom_site_label
_atom_site_fract_x
_atom_site_fract_y
_atom_site_fract_z
Si Si1 0.613450 0.274142 0.111421
Si Si2 0.625065 0.103974 0.607263
Si Si3 0.000000 0.500000 0.000000
Si Si4 0.875826 0.657490 0.227617
Si Si5 0.963126 0.208236 0.631613
O O1 0.427083 0.198575 0.274240
O O2 0.786577 0.916513 0.098040
O O3 0.500000 0.500000 0.000000
O O4 0.769167 0.409846 0.094723
O O5 0.361987 0.326248 0.631778
O O6 0.740609 0.184424 0.658954
O O7 0.806920 0.048125 0.450395
O O8 0.968388 0.613467 0.847354
O O9 0.013846 0.761163 0.247643
O O10 0.000000 0.500000 0.500000
#
# Coordination Sequence:
#
# PCOD9052263 Si02
#       5
#     2   2   1   2   2
#     4  10  26  44  69  99 139 187 229 281 341 412
#     4   9  25  45  69 104 138 175 237 283 342 414
#     4  12  26  44  68 100 146 186 224 280 344 410
#     4  10  26  44  69 102 140 181 233 281 341 413
#     4  11  24  45  74 102 137 181 229 290 349 406
#
# _framework density 28.251284999999999
#
# number of rings (size 3 to 8) (size 9 to 14) (size 15 to 20)
#    1.333    0.444    0.000    1.333    9.333    3.556 
#    0.000    0.000    0.000    0.000    0.000    0.000 
#    0.000    0.000    0.000    0.000    0.000    0.000 
#
# Total GULP energy -50161.520596 kJ/mol
# GULP energy per Si atom -5573.502288 kJ/mol
# Density = 2.818698 g / cm^3
# Si number density = 28.251285 Si / 1000 Ang^3
#
#
#
# Elastic Constant Matrix: (Units=GPa)
#
#
# Indices 1 2 3 4 5 6 
#
# 1 175.3890 63.8561 43.9519 5.2071 -18.7738 62.4523
# 2 63.8561 74.1292 9.2962 -20.3617 8.0726 22.0148
# 3 43.9519 9.2962 99.5157 5.1914 -12.8078 14.8933
# 4 5.2071 -20.3617 5.1914 59.1649 0.3791 11.1119
# 5 -18.7738 8.0726 -12.8078 0.3791 75.3034 -6.8638
# 6 62.4523 22.0148 14.8933 11.1119 -6.8638 76.6240
#
#
#
# Elastic Compliance Matrix: (Units=1/GPa)
#
#
# Indices 1 2 3 4 5 6 
#
# 1 0.012765 -0.009960 -0.003213 -0.003129 0.003156 -0.006181
# 2 -0.009960 0.025630 0.001017 0.009894 -0.005230 -0.001347
# 3 -0.003213 0.001017 0.011495 -0.000430 0.001070 0.000250
# 4 -0.003129 0.009894 -0.000430 0.021294 -0.002341 -0.003507
# 5 0.003156 -0.005230 0.001070 -0.002341 0.014857 0.000393
# 6 -0.006181 -0.001347 0.000250 -0.003507 0.000393 0.018971
#
#
# Mechanical properties :
#
#
# Convention : Reuss Voigt Hill
#
# Bulk Modulus (GPa) = 39.09638 64.80467 51.95053
# Shear Modulus (GPa) = 36.27164 57.68046 46.97605
#
# Velocity S-wave (km/s) = 3.58703 4.52341 4.08216
# Velocity P-wave (km/s) = 5.56997 7.09014 6.37553
#
# Compressibility (1/GPa) = 0.02557781
#
# Stress axis : x y z
#
# Youngs Moduli (GPa) = 78.34005 39.01751 86.99203
#
# Poissons Ratio (x) = 0.38862 0.27949
# Poissons Ratio (y) = 0.78029 -0.08848
# Poissons Ratio (z) = 0.25169 -0.03969
#
# Static dielectric constant tensor:
#      x y z
#    x 2.069780 -0.190900 0.034480 
#    y -0.190900 0.286940 -0.829010 
#    z 0.034480 -0.829010 1.940620 
# 
# From -- ./inp_files/371646.got.cif
#   From: 2010.05.17/outbox.cif.g08.bks.cpg/sg2_186_cif.got.tgz:371646.got - 2010.06.03 11:33:40.
