data_PCOD9052423
_publ_section_title
;
Structure prediction by ZEFSAII (Michael W. Deem and Ramdas Pophale) SiO2 
 PCOD9052423
Probable space group: P -1
;
_chemical_formula_sum "Si O2"
_cell_formula_units_Z 15
_cell_length_a 5.326585
_cell_length_b 11.022306
_cell_length_c 9.939419
_cell_angle_alpha 95.420359
_cell_angle_beta 95.975606
_cell_angle_gamma 93.247630
_cell_volume 576.485544
_symmetry_space_group_name_H-M "P -1"
_symmetry_group_IT_number 2
_symmetry_cell_setting 'triclinic'
loop_
_space_group_symop_operation_xyz
x,y,z
-x,-y,-z
loop_
_atom_site_type_symbol
_atom_site_label
_atom_site_fract_x
_atom_site_fract_y
_atom_site_fract_z
Si Si1 0.476074 0.599005 0.353442
Si Si2 0.212278 0.815069 0.298701
Si Si3 0.427974 0.068097 0.364986
Si Si4 0.720687 0.034126 0.123159
Si Si5 0.069588 0.201543 0.965755
Si Si6 0.734848 0.543769 0.927240
Si Si7 0.093814 0.274628 0.472234
Si Si8 0.000000 0.500000 0.500000
O O1 0.461002 0.742331 0.330868
O O2 0.373047 0.511026 0.223574
O O3 0.772267 0.605626 0.417810
O O4 0.265191 0.571641 0.450772
O O5 0.060352 0.801886 0.429814
O O6 0.259352 0.956099 0.278229
O O7 0.100939 0.744604 0.154686
O O8 0.645956 0.089863 0.268143
O O9 0.278012 0.185850 0.401490
O O10 0.500000 0.000000 0.500000
O O11 0.919623 0.124728 0.065045
O O12 0.500000 0.000000 0.000000
O O13 0.800684 0.896733 0.130139
O O14 0.240101 0.309163 0.051580
O O15 0.500000 0.500000 0.000000
O O16 0.000000 0.500000 0.000000
O O17 0.987876 0.373185 0.377743
#
# Coordination Sequence:
#
# PCOD9052423 Si02
#       8
#     2   2   2   2   2   2   2   1
#     4  11  24  46  71 101 143 192 249 311 377 451
#     4  11  22  43  72 101 142 180 245 311 377 447
#     4  12  24  43  76 109 138 189 248 308 382 457
#     4  11  26  46  72 104 148 194 241 316 391 448
#     4  11  25  47  73 103 149 192 249 317 381 462
#     4  12  28  46  78 113 145 203 257 310 383 458
#     4  11  24  44  71 104 143 191 240 316 375 461
#     4  10  26  46  68  96 146 188 246 296 390 444
#
# _framework density 26.019734
#
# number of rings (size 3 to 8) (size 9 to 14) (size 15 to 20)
#    0.000    0.800    4.000    2.400    5.600    2.133 
#    0.000    0.000    0.000    0.000    0.000    0.000 
#    0.000    0.000    0.000    0.000    0.000    0.000 
#
# Total GULP energy -83571.839497 kJ/mol
# GULP energy per Si atom -5571.455966 kJ/mol
# Density = 2.596051 g / cm^3
# Si number density = 26.019734 Si / 1000 Ang^3
#
#
#
# Elastic Constant Matrix: (Units=GPa)
#
#
# Indices 1 2 3 4 5 6 
#
# 1 102.2387 33.5724 15.5679 -0.7335 -6.4827 7.7983
# 2 33.5724 162.4211 12.5918 18.9543 -25.6355 0.7554
# 3 15.5679 12.5918 90.9368 10.6661 -18.3263 2.1065
# 4 -0.7335 18.9543 10.6661 42.5594 12.7791 -0.5929
# 5 -6.4827 -25.6355 -18.3263 12.7791 58.5816 3.4142
# 6 7.7983 0.7554 2.1065 -0.5929 3.4142 50.0716
#
#
#
# Elastic Compliance Matrix: (Units=1/GPa)
#
#
# Indices 1 2 3 4 5 6 
#
# 1 0.010959 -0.002470 -0.001894 0.001984 -0.000806 -0.001511
# 2 -0.002470 0.007932 0.000863 -0.005177 0.004606 -0.000147
# 3 -0.001894 0.000863 0.012928 -0.005290 0.005407 -0.000693
# 4 0.001984 -0.005177 -0.005290 0.030290 -0.010370 0.001057
# 5 -0.000806 0.004606 0.005407 -0.010370 0.023059 -0.001867
# 6 -0.001511 -0.000147 -0.000693 0.001057 -0.001867 0.020378
#
#
# Mechanical properties :
#
#
# Convention : Reuss Voigt Hill
#
# Bulk Modulus (GPa) = 40.29556 53.22899 46.76227
# Shear Modulus (GPa) = 41.38387 49.83350 45.60868
#
# Velocity S-wave (km/s) = 3.99241 4.38107 4.19125
# Velocity P-wave (km/s) = 6.06404 6.78920 6.43684
#
# Compressibility (1/GPa) = 0.02481663
#
# Stress axis : x y z
#
# Youngs Moduli (GPa) = 91.24914 126.06886 77.35430
#
# Poissons Ratio (x) = 0.31140 0.14652
# Poissons Ratio (y) = 0.22539 -0.06677
# Poissons Ratio (z) = 0.17284 -0.10883
#
# Static dielectric constant tensor:
#      x y z
#    x 2.012890 -0.116310 0.361960 
#    y -0.116310 2.140400 -0.089710 
#    z 0.361960 -0.089710 2.272010 
# 
# From -- ./inp_files/94619.got.cif
#   From: 2010.05.17/outbox.cif.g08.bks.cpg/sg2_48_cif.got.tgz:94619.got - 2010.06.03 11:33:40.
