data_PCOD9052512
_publ_section_title
;
Structure prediction by ZEFSAII (Michael W. Deem and Ramdas Pophale) SiO2 
 PCOD9052512
Probable space group: P -1
;
_chemical_formula_sum "Si O2"
_cell_formula_units_Z 11
_cell_length_a 5.281865
_cell_length_b 9.674912
_cell_length_c 9.468307
_cell_angle_alpha 69.662682
_cell_angle_beta 71.594602
_cell_angle_gamma 85.596293
_cell_volume 430.180907
_symmetry_space_group_name_H-M "P -1"
_symmetry_group_IT_number 2
_symmetry_cell_setting 'triclinic'
loop_
_space_group_symop_operation_xyz
x,y,z
-x,-y,-z
loop_
_atom_site_type_symbol
_atom_site_label
_atom_site_fract_x
_atom_site_fract_y
_atom_site_fract_z
Si Si1 0.000000 0.000000 0.000000
Si Si2 0.896296 0.028643 0.671101
Si Si3 0.202280 0.636383 0.453676
Si Si4 0.464076 0.233946 0.141465
Si Si5 0.318917 0.305687 0.847148
Si Si6 0.098349 0.612531 0.798233
O O1 0.150929 0.158716 0.896294
O O2 0.996027 0.974982 0.828118
O O3 0.902070 0.203761 0.624090
O O4 0.611227 0.936430 0.753049
O O5 0.000000 0.000000 0.500000
O O6 0.486566 0.632381 0.329716
O O7 0.228683 0.643258 0.612873
O O8 0.000000 0.500000 0.500000
O O9 0.706407 0.300277 0.161941
O O10 0.198094 0.326455 0.183964
O O11 0.511678 0.258893 0.958389
O O12 0.129744 0.437976 0.877386
#
# Coordination Sequence:
#
# PCOD9052512 Si02
#       6
#     1   2   2   2   2   2
#     4  10  26  46  74 110 160 210 270 332 410 472
#     4  11  25  48  77 115 164 211 274 333 407 492
#     4  12  27  48  78 115 161 210 269 334 413 486
#     4  11  27  48  78 116 154 214 268 336 407 484
#     4  11  26  46  75 113 159 209 268 337 405 488
#     4  12  25  48  79 113 161 206 269 333 408 489
#
# _framework density 25.570637000000001
#
# number of rings (size 3 to 8) (size 9 to 14) (size 15 to 20)
#    0.000    0.727    1.818    3.818    2.545   10.909 
#    0.000    0.000    0.000    0.000    0.000    0.000 
#    0.000    0.000    0.000    0.000    0.000    0.000 
#
# Total GULP energy -61312.011116 kJ/mol
# GULP energy per Si atom -5573.819192 kJ/mol
# Density = 2.551244 g / cm^3
# Si number density = 25.570637 Si / 1000 Ang^3
#
#
#
# Elastic Constant Matrix: (Units=GPa)
#
#
# Indices 1 2 3 4 5 6 
#
# 1 130.5875 98.6312 57.6800 1.2155 -12.5338 28.4227
# 2 98.6312 190.9682 46.4916 -22.0929 -22.2117 31.3340
# 3 57.6800 46.4916 167.8494 1.0410 1.1935 13.2005
# 4 1.2155 -22.0929 1.0410 58.3331 13.7788 -5.4812
# 5 -12.5338 -22.2117 1.1935 13.7788 37.6723 7.1419
# 6 28.4227 31.3340 13.2005 -5.4812 7.1419 46.0573
#
#
#
# Elastic Compliance Matrix: (Units=1/GPa)
#
#
# Indices 1 2 3 4 5 6 
#
# 1 0.015420 -0.006318 -0.003124 -0.004125 0.004045 -0.005441
# 2 -0.006318 0.009730 -0.000346 0.002821 0.003140 -0.002773
# 3 -0.003124 -0.000346 0.007105 0.000231 -0.001630 0.000407
# 4 -0.004125 0.002821 0.000231 0.020597 -0.008058 0.004261
# 5 0.004045 0.003140 -0.001630 -0.008058 0.034733 -0.010510
# 6 -0.005441 -0.002773 0.000407 0.004261 -0.010510 0.028976
#
#
# Mechanical properties :
#
#
# Convention : Reuss Voigt Hill
#
# Bulk Modulus (GPa) = 78.86531 99.44564 89.15548
# Shear Modulus (GPa) = 35.62170 47.51936 41.57053
#
# Velocity S-wave (km/s) = 3.73644 4.31554 4.03639
# Velocity P-wave (km/s) = 7.03731 7.98792 7.52763
#
# Compressibility (1/GPa) = 0.01267985
#
# Stress axis : x y z
#
# Youngs Moduli (GPa) = 64.85050 102.77364 140.73952
#
# Poissons Ratio (x) = 0.64928 0.43973
# Poissons Ratio (y) = 0.40970 0.04867
# Poissons Ratio (z) = 0.20262 0.03554
#
# Static dielectric constant tensor:
#      x y z
#    x 2.044720 -0.172220 -0.026370 
#    y -0.172220 2.052830 0.089710 
#    z -0.026370 0.089710 2.147040 
# 
# From -- ./inp_files/45504.got.cif
#   From: 2010.05.17/outbox.cif.g08.bks.cpg/sg2_23_cif.got.tgz:45504.got - 2010.06.03 11:33:40.
