data_PCOD9052397
_publ_section_title
;
Structure prediction by ZEFSAII (Michael W. Deem and Ramdas Pophale) SiO2 
 PCOD9052397
Probable space group: P -1
;
_chemical_formula_sum "Si O2"
_cell_formula_units_Z 14
_cell_length_a 9.021450
_cell_length_b 11.773715
_cell_length_c 9.349223
_cell_angle_alpha 71.774802
_cell_angle_beta 145.114214
_cell_angle_gamma 102.469790
_cell_volume 537.957482
_symmetry_space_group_name_H-M "P -1"
_symmetry_group_IT_number 2
_symmetry_cell_setting 'triclinic'
loop_
_space_group_symop_operation_xyz
x,y,z
-x,-y,-z
loop_
_atom_site_type_symbol
_atom_site_label
_atom_site_fract_x
_atom_site_fract_y
_atom_site_fract_z
Si Si1 0.891824 0.131913 0.915965
Si Si2 0.552195 0.245188 0.102725
Si Si3 0.304427 0.481594 0.219707
Si Si4 0.262089 0.659752 0.507648
Si Si5 0.281788 0.391003 0.618237
Si Si6 0.541757 0.987457 0.208456
Si Si7 0.034893 0.197916 0.305670
O O1 0.856300 0.229900 0.723208
O O2 0.629999 0.100628 0.804078
O O3 0.036021 0.192230 0.138073
O O4 0.000000 0.000000 0.000000
O O5 0.709382 0.317549 0.311680
O O6 0.754911 0.204509 0.155354
O O7 0.485544 0.121255 0.171443
O O8 0.298257 0.317100 0.807922
O O9 0.435591 0.362862 0.297311
O O10 0.411004 0.583580 0.162835
O O11 0.183709 0.306340 0.450555
O O12 0.000000 0.500000 0.000000
O O13 0.153386 0.527183 0.455533
O O14 0.500000 0.500000 0.500000
O O15 0.826186 0.928200 0.485104
O O16 0.500000 0.000000 0.000000
#
# Coordination Sequence:
#
# PCOD9052397 Si02
#       7
#     2   2   2   2   2   2   2
#     4  12  29  52  79 119 164 218 279 355 425 500
#     4  12  25  49  79 111 162 213 274 346 414 505
#     4  10  26  49  76 117 169 219 274 342 425 502
#     4  10  28  49  75 121 164 209 280 345 421 504
#     4  10  26  45  77 117 154 214 273 329 424 496
#     4  12  26  49  77 115 148 212 289 331 421 492
#     4  12  26  46  82 113 161 218 277 342 420 508
#
# _framework density 26.024360999999999
#
# number of rings (size 3 to 8) (size 9 to 14) (size 15 to 20)
#    0.857    0.000    2.857    1.714    8.000    3.429 
#    5.143    0.000    0.000    0.000    0.000    0.000 
#    0.000    0.000    0.000    0.000    0.000    0.000 
#
# Total GULP energy -78243.942196 kJ/mol
# GULP energy per Si atom -5588.853014 kJ/mol
# Density = 2.596513 g / cm^3
# Si number density = 26.024361 Si / 1000 Ang^3
#
#
#
# Elastic Constant Matrix: (Units=GPa)
#
#
# Indices 1 2 3 4 5 6 
#
# 1 81.6659 26.4053 33.6467 -5.0288 6.8192 -15.9613
# 2 26.4053 189.6358 65.3973 -14.1191 -10.8344 -11.4875
# 3 33.6467 65.3973 163.9463 -29.4359 -13.2999 -24.2452
# 4 -5.0288 -14.1191 -29.4359 51.2615 -2.9735 -8.0886
# 5 6.8192 -10.8344 -13.2999 -2.9735 40.6913 10.8477
# 6 -15.9613 -11.4875 -24.2452 -8.0886 10.8477 50.7490
#
#
#
# Elastic Compliance Matrix: (Units=1/GPa)
#
#
# Indices 1 2 3 4 5 6 
#
# 1 0.014836 -0.001285 -0.002227 0.000237 -0.004700 0.004354
# 2 -0.001285 0.006264 -0.002076 0.000453 0.001286 -0.000181
# 3 -0.002227 -0.002076 0.008978 0.005038 0.002203 0.003451
# 4 0.000237 0.000453 0.005038 0.023595 0.001867 0.005946
# 5 -0.004700 0.001286 0.002203 0.001867 0.028121 -0.005848
# 6 0.004354 -0.000181 0.003451 0.005946 -0.005848 0.024880
#
#
# Mechanical properties :
#
#
# Convention : Reuss Voigt Hill
#
# Bulk Modulus (GPa) = 52.90322 76.23852 64.57087
# Shear Modulus (GPa) = 40.27347 49.19360 44.73353
#
# Velocity S-wave (km/s) = 3.93813 4.35246 4.15047
# Velocity P-wave (km/s) = 6.40711 7.39035 6.91622
#
# Compressibility (1/GPa) = 0.01890244
#
# Stress axis : x y z
#
# Youngs Moduli (GPa) = 67.40383 159.63140 111.37882
#
# Poissons Ratio (x) = 0.20511 0.24805
# Poissons Ratio (y) = 0.08661 0.23124
# Poissons Ratio (z) = 0.15012 0.33142
#
# Static dielectric constant tensor:
#      x y z
#    x 2.732950 -0.362190 -0.051340 
#    y -0.362190 2.676990 0.021770 
#    z -0.051340 0.021770 2.056190 
# 
# From -- ./inp_files/185478.got.cif
#   From: 2010.05.17/outbox.cif.g08.bks.cpg/sg2_93_cif.got.tgz:185478.got - 2010.06.03 11:33:40.
