data_PCOD9052037
_publ_section_title
;
Structure prediction by ZEFSAII (Michael W. Deem and Ramdas Pophale) SiO2 
 PCOD9052037
Probable space group: P -1
;
_chemical_formula_sum "Si O2"
_cell_formula_units_Z 12
_cell_length_a 12.309921
_cell_length_b 9.083649
_cell_length_c 9.311658
_cell_angle_alpha 135.169413
_cell_angle_beta 47.900836
_cell_angle_gamma 101.247682
_cell_volume 459.810227
_symmetry_space_group_name_H-M "P -1"
_symmetry_group_IT_number 2
_symmetry_cell_setting 'triclinic'
loop_
_space_group_symop_operation_xyz
x,y,z
-x,-y,-z
loop_
_atom_site_type_symbol
_atom_site_label
_atom_site_fract_x
_atom_site_fract_y
_atom_site_fract_z
Si Si1 0.724935 0.728869 0.330328
Si Si2 0.331962 0.756974 0.158048
Si Si3 0.353458 0.966818 0.760364
Si Si4 0.214937 0.743316 0.941075
Si Si5 0.960290 0.778790 0.985459
Si Si6 0.717906 0.507963 0.711688
O O1 0.700623 0.975962 0.589213
O O2 0.556909 0.814878 0.440009
O O3 0.731098 0.541131 0.310197
O O4 0.900059 0.611383 0.000931
O O5 0.228317 0.783603 0.124249
O O6 0.286854 0.631593 0.238819
O O7 0.541723 0.583581 0.833876
O O8 0.217455 0.013022 0.789078
O O9 0.300211 0.236662 0.048960
O O10 0.329363 0.820976 0.808841
O O11 0.032993 0.876845 0.111169
O O12 0.109778 0.641934 0.640650
#
# Coordination Sequence:
#
# PCOD9052037 Si02
#       6
#     2   2   2   2   2   2
#     4  11  27  49  76 108 149 197 244 304 367 439
#     4  10  26  50  76 109 149 198 243 302 373 438
#     4  11  26  48  78 108 150 197 245 301 370 440
#     4  12  28  47  77 112 151 190 247 308 369 433
#     4  12  27  48  74 114 147 193 252 303 362 439
#     4  10  25  49  79 108 148 196 251 300 365 443
#
# _framework density 26.097722999999998
#
# number of rings (size 3 to 8) (size 9 to 14) (size 15 to 20)
#    0.000    1.000    0.000    3.500   11.667    3.333 
#    0.000    0.000    0.000    0.000    0.000    0.000 
#    0.000    0.000    0.000    0.000    0.000    0.000 
#
# Total GULP energy -67319.986528 kJ/mol
# GULP energy per Si atom -5609.998877 kJ/mol
# Density = 2.603832 g / cm^3
# Si number density = 26.097723 Si / 1000 Ang^3
#
#
#
# Elastic Constant Matrix: (Units=GPa)
#
#
# Indices 1 2 3 4 5 6 
#
# 1 208.5602 59.7473 79.1327 -22.6276 -7.9210 -1.6239
# 2 59.7473 221.3904 64.7483 -2.6142 12.5544 17.4722
# 3 79.1327 64.7483 126.4608 -15.1480 -16.9610 11.9333
# 4 -22.6276 -2.6142 -15.1480 40.3366 7.9858 1.6331
# 5 -7.9210 12.5544 -16.9610 7.9858 46.2250 -5.1433
# 6 -1.6239 17.4722 11.9333 1.6331 -5.1433 45.7980
#
#
#
# Elastic Compliance Matrix: (Units=1/GPa)
#
#
# Indices 1 2 3 4 5 6 
#
# 1 0.006658 -0.000802 -0.003640 0.002304 -0.000221 0.001383
# 2 -0.000802 0.005841 -0.002754 -0.000465 -0.002859 -0.001844
# 3 -0.003640 -0.002754 0.012551 0.001737 0.004214 -0.001938
# 4 0.002304 -0.000465 0.001737 0.027518 -0.003773 -0.001599
# 5 -0.000221 -0.002859 0.004214 -0.003773 0.024894 0.002915
# 6 0.001383 -0.001844 -0.001938 -0.001599 0.002915 0.023477
#
#
# Mechanical properties :
#
#
# Convention : Reuss Voigt Hill
#
# Bulk Modulus (GPa) = 93.81845 107.07423 100.44634
# Shear Modulus (GPa) = 42.05810 49.99079 46.02444
#
# Velocity S-wave (km/s) = 4.01878 4.38142 4.20401
# Velocity P-wave (km/s) = 7.58690 8.16780 7.88271
#
# Compressibility (1/GPa) = 0.01065888
#
# Stress axis : x y z
#
# Youngs Moduli (GPa) = 150.19947 171.20783 79.67215
#
# Poissons Ratio (x) = 0.13725 0.29000
# Poissons Ratio (y) = 0.12041 0.21942
# Poissons Ratio (z) = 0.54671 0.47151
#
# Static dielectric constant tensor:
#      x y z
#    x 2.055990 -0.008530 -0.012200 
#    y -0.008530 2.061720 0.020430 
#    z -0.012200 0.020430 2.055460 
# 
# From -- ./inp_files/245734.got.cif
#   From: 2010.05.17/outbox.cif.g08.bks.cpg/sg2_123_cif.got.tgz:245734.got - 2010.06.03 11:33:40.
