data_PCOD9052220
_publ_section_title
;
Structure prediction by ZEFSAII (Michael W. Deem and Ramdas Pophale) SiO2 
 PCOD9052220
Probable space group: P -1
;
_chemical_formula_sum "Si O2"
_cell_formula_units_Z 16
_cell_length_a 9.348874
_cell_length_b 24.420946
_cell_length_c 13.617022
_cell_angle_alpha 148.324334
_cell_angle_beta 153.337534
_cell_angle_gamma 42.482651
_cell_volume 729.043995
_symmetry_space_group_name_H-M "P -1"
_symmetry_group_IT_number 2
_symmetry_cell_setting 'triclinic'
loop_
_space_group_symop_operation_xyz
x,y,z
-x,-y,-z
loop_
_atom_site_type_symbol
_atom_site_label
_atom_site_fract_x
_atom_site_fract_y
_atom_site_fract_z
Si Si1 0.256206 0.098290 0.817192
Si Si2 0.943028 0.388850 0.738749
Si Si3 0.830253 0.213191 0.845674
Si Si4 0.788226 0.604978 0.748352
Si Si5 0.743937 0.948401 0.840375
Si Si6 0.265291 0.266930 0.908200
Si Si7 0.184444 0.425024 0.720030
Si Si8 0.917258 0.234029 0.152423
O O1 0.193264 0.173599 0.801126
O O2 0.154157 0.155904 0.939864
O O3 0.586771 0.046807 0.940614
O O4 0.000000 0.000000 0.500000
O O5 0.558728 0.371559 0.466127
O O6 0.059416 0.292526 0.726161
O O7 0.124384 0.396625 0.755480
O O8 0.000000 0.500000 0.000000
O O9 0.532933 0.132557 0.504368
O O10 0.804806 0.247439 0.993554
O O11 0.918782 0.317215 0.995229
O O12 0.881360 0.489880 0.608192
O O13 0.761464 0.629556 0.884449
O O14 0.935029 0.876218 0.917544
O O15 0.000000 0.000000 0.000000
O O16 0.613678 0.244080 0.050783
O O17 0.170386 0.324335 0.488044
O O18 0.500000 0.500000 0.000000
#
# Coordination Sequence:
#
# PCOD9052220 Si02
#       8
#     2   2   2   2   2   2   2   2
#     4   9  21  47  71  99 139 180 228 295 350 421
#     4  12  25  43  73  99 136 196 241 281 350 420
#     4  10  26  43  71 107 138 184 233 290 361 425
#     4  11  24  48  68 102 146 183 238 286 343 429
#     4  11  23  47  74 100 140 181 234 297 359 418
#     4  11  23  44  72 102 138 184 236 290 347 420
#     4  12  27  46  70 104 149 189 234 297 350 415
#     4  12  26  43  69 105 144 183 237 295 352 422
#
# _framework density 21.946548
#
# number of rings (size 3 to 8) (size 9 to 14) (size 15 to 20)
#    0.000    1.000    3.750    1.875    5.250    4.500 
#    0.000    0.000    0.000    0.000    0.000    0.000 
#    0.000    0.000    0.000    0.000    0.000    0.000 
#
# Total GULP energy -89287.776461 kJ/mol
# GULP energy per Si atom -5580.486029 kJ/mol
# Density = 2.189660 g / cm^3
# Si number density = 21.946548 Si / 1000 Ang^3
#
#
#
# Elastic Constant Matrix: (Units=GPa)
#
#
# Indices 1 2 3 4 5 6 
#
# 1 82.6609 12.7051 25.8812 4.4161 10.3426 11.3645
# 2 12.7051 119.2101 11.3484 -6.4580 12.7281 -7.4750
# 3 25.8812 11.3484 65.8408 -1.7743 16.6324 21.5903
# 4 4.4161 -6.4580 -1.7743 32.6158 -4.3967 -0.3209
# 5 10.3426 12.7281 16.6324 -4.3967 37.1516 4.0106
# 6 11.3645 -7.4750 21.5903 -0.3209 4.0106 30.6591
#
#
#
# Elastic Compliance Matrix: (Units=1/GPa)
#
#
# Indices 1 2 3 4 5 6 
#
# 1 0.014309 -0.001232 -0.004263 -0.002667 -0.001708 -0.002406
# 2 -0.001232 0.009313 -0.001955 0.001644 -0.002254 0.004416
# 3 -0.004263 -0.001955 0.023868 0.000374 -0.007191 -0.014759
# 4 -0.002667 0.001644 0.000374 0.031872 0.003678 0.000979
# 5 -0.001708 -0.002254 -0.007191 0.003678 0.031707 0.001038
# 6 -0.002406 0.004416 -0.014759 0.000979 0.001038 0.044853
#
#
# Mechanical properties :
#
#
# Convention : Reuss Voigt Hill
#
# Bulk Modulus (GPa) = 30.68649 40.84236 35.76442
# Shear Modulus (GPa) = 27.51997 34.60379 31.06188
#
# Velocity S-wave (km/s) = 3.54496 3.97511 3.76619
# Velocity P-wave (km/s) = 5.54693 6.30230 5.93664
#
# Compressibility (1/GPa) = 0.03258763
#
# Stress axis : x y z
#
# Youngs Moduli (GPa) = 69.88613 107.38069 41.89796
#
# Poissons Ratio (x) = 0.13231 0.17863
# Poissons Ratio (y) = 0.08611 0.08192
# Poissons Ratio (z) = 0.29796 0.20995
#
# Static dielectric constant tensor:
#      x y z
#    x 1.798830 -0.048710 0.002180 
#    y -0.048710 1.908230 0.022380 
#    z 0.002180 0.022380 1.825780 
# 
# From -- ./inp_files/52194.got.cif
#   From: 2010.05.17/outbox.cif.g08.bks.cpg/sg2_27_cif.got.tgz:52194.got - 2010.06.03 11:33:40.
