data_PCOD9052600
_publ_section_title
;
Structure prediction by ZEFSAII (Michael W. Deem and Ramdas Pophale) SiO2 
 PCOD9052600
Probable space group: P -1
;
_chemical_formula_sum "Si O2"
_cell_formula_units_Z 16
_cell_length_a 8.782297
_cell_length_b 10.000457
_cell_length_c 12.054340
_cell_angle_alpha 56.774940
_cell_angle_beta 44.101173
_cell_angle_gamma 61.603529
_cell_volume 610.172218
_symmetry_space_group_name_H-M "P -1"
_symmetry_group_IT_number 2
_symmetry_cell_setting 'triclinic'
loop_
_space_group_symop_operation_xyz
x,y,z
-x,-y,-z
loop_
_atom_site_type_symbol
_atom_site_label
_atom_site_fract_x
_atom_site_fract_y
_atom_site_fract_z
Si Si1 0.274032 0.333594 0.980541
Si Si2 0.257768 0.575931 0.045752
Si Si3 0.805328 0.921094 0.695652
Si Si4 0.259486 0.868413 0.160168
Si Si5 0.334024 0.932608 0.855154
Si Si6 0.233915 0.090048 0.597560
Si Si7 0.433350 0.739756 0.554871
Si Si8 0.216710 0.425691 0.730863
O O1 0.699123 0.042856 0.789281
O O2 0.195783 0.328275 0.899691
O O3 0.253660 0.515165 0.950294
O O4 0.533195 0.268852 0.891640
O O5 0.015539 0.539972 0.230336
O O6 0.500000 0.500000 0.000000
O O7 0.243714 0.764466 0.971518
O O8 0.851904 0.761746 0.819516
O O9 0.601550 0.897789 0.733959
O O10 0.000000 0.000000 0.500000
O O11 0.282933 0.918162 0.579147
O O12 0.258362 0.977354 0.000624
O O13 0.015035 0.827608 0.324777
O O14 0.259571 0.029937 0.739869
O O15 0.298216 0.590641 0.662341
O O16 0.394737 0.230061 0.448485
O O17 0.603844 0.690805 0.383261
#
# Coordination Sequence:
#
# PCOD9052600 Si02
#       8
#     2   2   2   2   2   2   2   2
#     4  11  25  48  74 108 147 200 256 300 375 458
#     4  12  24  46  75 110 146 196 260 313 371 443
#     4  11  27  44  69 105 147 190 243 310 380 438
#     4  11  25  44  72 111 147 194 247 308 371 454
#     4  11  24  46  72 109 146 193 252 306 377 455
#     4  11  25  43  78 110 157 194 249 315 385 442
#     4  10  26  47  73 118 151 197 253 313 382 446
#     4  11  26  48  81 104 155 209 256 304 376 462
#
# _framework density 26.222103000000001
#
# number of rings (size 3 to 8) (size 9 to 14) (size 15 to 20)
#    0.000    1.000    2.500    3.750   10.500    0.000 
#    2.250    0.625    0.000    0.000    0.000    0.000 
#    0.000    0.000    0.000    0.000    0.000    0.000 
#
# Total GULP energy -89082.417062 kJ/mol
# GULP energy per Si atom -5567.651066 kJ/mol
# Density = 2.616242 g / cm^3
# Si number density = 26.222103 Si / 1000 Ang^3
#
#
#
# Elastic Constant Matrix: (Units=GPa)
#
#
# Indices 1 2 3 4 5 6 
#
# 1 135.3617 61.0299 69.5976 6.5615 -21.0495 19.5822
# 2 61.0299 105.3907 57.6673 15.6936 -10.4251 30.5181
# 3 69.5976 57.6673 117.6314 1.7613 -9.5464 8.9119
# 4 6.5615 15.6936 1.7613 25.0875 24.2999 -9.4782
# 5 -21.0495 -10.4251 -9.5464 24.2999 47.9591 2.9454
# 6 19.5822 30.5181 8.9119 -9.4782 2.9454 59.3869
#
#
#
# Elastic Compliance Matrix: (Units=1/GPa)
#
#
# Indices 1 2 3 4 5 6 
#
# 1 0.039362 0.065180 -0.034705 -0.212595 0.137291 -0.082006
# 2 0.065180 0.192071 -0.080733 -0.543447 0.342651 -0.211809
# 3 -0.034705 -0.080733 0.046316 0.233143 -0.147248 0.090493
# 4 -0.212595 -0.543447 0.233143 1.682378 -1.056476 0.635291
# 5 0.137291 0.342651 -0.147248 -1.056476 0.686261 -0.401908
# 6 -0.082006 -0.211809 0.090493 0.635291 -0.401908 0.260471
#
#
# Mechanical properties :
#
#
# Convention : Reuss Voigt Hill
#
# Bulk Modulus (GPa) = 5.64226 81.66374 43.65300
# Shear Modulus (GPa) = 1.63055 37.82597 19.72826
#
# Velocity S-wave (km/s) = 0.78941 3.80218 2.74588
# Velocity P-wave (km/s) = 1.72838 7.10536 5.17075
#
# Compressibility (1/GPa) = 0.17723409
#
# Stress axis : x y z
#
# Youngs Moduli (GPa) = 25.40509 5.20640 21.59079
#
# Poissons Ratio (x) = -0.33935 0.74930
# Poissons Ratio (y) = -1.65590 1.74309
# Poissons Ratio (z) = 0.88168 0.42033
#
# Static dielectric constant tensor:
#      x y z
#    x 2.127490 0.073780 -0.071040 
#    y 0.073780 2.239100 -0.089080 
#    z -0.071040 -0.089080 2.284650 
# 
# From -- ./inp_files/502872.got.cif
#   From: 2010.05.17/outbox.cif.g08.bks.cpg/sg2_252_cif.got.tgz:502872.got - 2010.06.03 11:33:40.
