data_PCOD9052444
_publ_section_title
;
Structure prediction by ZEFSAII (Michael W. Deem and Ramdas Pophale) SiO2 
 PCOD9052444
Probable space group: P -1
;
_chemical_formula_sum "Si O2"
_cell_formula_units_Z 15
_cell_length_a 4.996819
_cell_length_b 8.018533
_cell_length_c 24.351160
_cell_angle_alpha 49.768367
_cell_angle_beta 51.012562
_cell_angle_gamma 64.941619
_cell_volume 578.735749
_symmetry_space_group_name_H-M "P -1"
_symmetry_group_IT_number 2
_symmetry_cell_setting 'triclinic'
loop_
_space_group_symop_operation_xyz
x,y,z
-x,-y,-z
loop_
_atom_site_type_symbol
_atom_site_label
_atom_site_fract_x
_atom_site_fract_y
_atom_site_fract_z
Si Si1 0.171209 0.857153 0.331554
Si Si2 0.997850 0.591799 0.043066
Si Si3 0.951840 0.331525 0.213599
Si Si4 0.853589 0.862684 0.478982
Si Si5 0.260932 0.758354 0.122016
Si Si6 0.920683 0.708599 0.285731
Si Si7 0.000000 0.000000 0.000000
Si Si8 0.194198 0.297669 0.363698
O O1 0.553311 0.824993 0.312166
O O2 0.909172 0.777173 0.428759
O O3 0.143117 0.722280 0.308513
O O4 0.077148 0.098652 0.270091
O O5 0.969658 0.397790 0.132548
O O6 0.675767 0.774583 0.061246
O O7 0.000000 0.500000 0.000000
O O8 0.267632 0.772420 0.988288
O O9 0.561867 0.365273 0.278399
O O10 0.198410 0.506692 0.171391
O O11 0.866555 0.704866 0.562558
O O12 0.500000 0.000000 0.500000
O O13 0.145028 0.044483 0.408615
O O14 0.127673 0.809531 0.188185
O O15 0.032594 0.889380 0.080498
O O16 0.904869 0.446551 0.338402
#
# Coordination Sequence:
#
# PCOD9052444 Si02
#       8
#     2   2   2   2   2   2   1   2
#     4  12  28  44  71 116 146 198 255 317 380 461
#     4  11  26  46  76 110 145 202 255 322 390 475
#     4  11  24  47  75 104 147 197 261 302 380 466
#     4  11  25  45  77 101 149 200 256 310 379 457
#     4  11  25  47  75 102 147 203 248 316 391 458
#     4  12  28  45  74 109 154 192 250 319 390 452
#     4  10  26  46  70 108 154 186 254 324 396 450
#     4  11  24  48  75 104 148 204 247 312 384 457
#
# _framework density 25.918564
#
# number of rings (size 3 to 8) (size 9 to 14) (size 15 to 20)
#    0.000    0.800    2.667    2.800    9.333    4.267 
#    0.000    0.000    0.000    0.000    0.000    0.000 
#    0.000    0.000    0.000    0.000    0.000    0.000 
#
# Total GULP energy -83772.433582 kJ/mol
# GULP energy per Si atom -5584.828905 kJ/mol
# Density = 2.585957 g / cm^3
# Si number density = 25.918564 Si / 1000 Ang^3
#
#
#
# Elastic Constant Matrix: (Units=GPa)
#
#
# Indices 1 2 3 4 5 6 
#
# 1 56.5856 17.5838 55.4839 -6.8659 3.9835 -13.0622
# 2 17.5838 102.0344 77.8740 -1.3426 16.5692 -17.8513
# 3 55.4839 77.8740 177.1596 15.5121 47.5245 -3.0376
# 4 -6.8659 -1.3426 15.5121 46.5839 -7.5826 9.8225
# 5 3.9835 16.5692 47.5245 -7.5826 49.9289 0.5051
# 6 -13.0622 -17.8513 -3.0376 9.8225 0.5051 49.8936
#
#
#
# Elastic Compliance Matrix: (Units=1/GPa)
#
#
# Indices 1 2 3 4 5 6 
#
# 1 0.038475 0.008761 -0.021334 0.013781 0.016331 0.009030
# 2 0.008761 0.018392 -0.012884 0.005672 0.006253 0.006910
# 3 -0.021334 -0.012884 0.024158 -0.013409 -0.018994 -0.005892
# 4 0.013781 0.005672 -0.013409 0.030773 0.014469 -0.001384
# 5 0.016331 0.006253 -0.018994 0.014469 0.036905 0.002134
# 6 0.009030 0.006910 -0.005892 -0.001384 0.002134 0.024771
#
#
# Mechanical properties :
#
#
# Convention : Reuss Voigt Hill
#
# Bulk Modulus (GPa) = 33.20966 70.85144 52.03055
# Shear Modulus (GPa) = 21.32868 41.60381 31.46625
#
# Velocity S-wave (km/s) = 2.87176 4.01081 3.48809
# Velocity P-wave (km/s) = 4.88230 6.98887 6.02832
#
# Compressibility (1/GPa) = 0.03011172
#
# Stress axis : x y z
#
# Youngs Moduli (GPa) = 25.99062 54.37076 41.39456
#
# Poissons Ratio (x) = -0.47634 0.88310
# Poissons Ratio (y) = -0.22770 0.53333
# Poissons Ratio (z) = 0.55448 0.70051
#
# Static dielectric constant tensor:
#      x y z
#    x -6.163520 -3.395010 4.537250 
#    y -3.395010 0.866560 1.829810 
#    z 4.537250 1.829810 -0.408430 
# 
# From -- ./inp_files/56387.got.cif
#   From: 2010.05.17/outbox.cif.g08.bks.cpg/sg2_29_cif.got.tgz:56387.got - 2010.06.03 11:33:40.
