data_PCOD9052839
_publ_section_title
;
Structure prediction by ZEFSAII (Michael W. Deem and Ramdas Pophale) SiO2 
 PCOD9052839
Probable space group: P -1
;
_chemical_formula_sum "Si O2"
_cell_formula_units_Z 12
_cell_length_a 9.967806
_cell_length_b 8.213148
_cell_length_c 7.984274
_cell_angle_alpha 49.698092
_cell_angle_beta 117.530480
_cell_angle_gamma 110.868456
_cell_volume 440.468477
_symmetry_space_group_name_H-M "P -1"
_symmetry_group_IT_number 2
_symmetry_cell_setting 'triclinic'
loop_
_space_group_symop_operation_xyz
x,y,z
-x,-y,-z
loop_
_atom_site_type_symbol
_atom_site_label
_atom_site_fract_x
_atom_site_fract_y
_atom_site_fract_z
Si Si1 0.870211 0.065527 0.755094
Si Si2 0.212959 0.519218 0.469269
Si Si3 0.531358 0.009203 0.713289
Si Si4 0.209234 0.097463 0.549522
Si Si5 0.476244 0.566492 0.130112
Si Si6 0.160290 0.637548 0.000306
O O1 0.870490 0.326592 0.553896
O O2 0.711552 0.008309 0.796132
O O3 0.860529 0.942441 0.652153
O O4 0.000000 0.000000 0.000000
O O5 0.160913 0.280761 0.528525
O O6 0.387070 0.518104 0.629892
O O7 0.204895 0.656054 0.205767
O O8 0.500000 0.000000 0.500000
O O9 0.392101 0.146699 0.598946
O O10 0.499545 0.821484 0.957484
O O11 0.830651 0.135139 0.235755
O O12 0.299163 0.509961 0.098974
O O13 0.500000 0.500000 0.000000
O O14 0.000000 0.500000 0.000000
#
# Coordination Sequence:
#
# PCOD9052839 Si02
#       6
#     2   2   2   2   2   2
#     4  11  27  49  77 119 163 210 270 339 408 479
#     4  12  28  47  84 115 158 217 272 327 409 483
#     4   9  21  43  74 109 156 203 258 328 387 477
#     4  10  26  52  78 114 160 210 271 326 405 495
#     4  11  25  47  81 118 158 214 277 325 398 496
#     4  11  28  49  78 122 166 207 267 345 407 473
#
# _framework density 27.243721000000001
#
# number of rings (size 3 to 8) (size 9 to 14) (size 15 to 20)
#    0.000    1.333    0.000    3.500   14.000    3.333 
#    0.000    2.500    0.000    0.000    0.000    0.000 
#    0.000    0.000    0.000    0.000    0.000    0.000 
#
# Total GULP energy -66977.623491 kJ/mol
# GULP energy per Si atom -5581.468624 kJ/mol
# Density = 2.718171 g / cm^3
# Si number density = 27.243721 Si / 1000 Ang^3
#
#
#
# Elastic Constant Matrix: (Units=GPa)
#
#
# Indices 1 2 3 4 5 6 
#
# 1 164.2892 67.0053 72.2621 7.3311 51.0504 16.7240
# 2 67.0053 179.6007 83.9342 -4.6618 20.2080 -12.5738
# 3 72.2621 83.9342 213.8713 15.1347 34.3141 25.4087
# 4 7.3311 -4.6618 15.1347 57.3193 1.5210 0.1300
# 5 51.0504 20.2080 34.3141 1.5210 55.5201 -9.7603
# 6 16.7240 -12.5738 25.4087 0.1300 -9.7603 37.9916
#
#
#
# Elastic Compliance Matrix: (Units=1/GPa)
#
#
# Indices 1 2 3 4 5 6 
#
# 1 0.012523 -0.004528 0.000930 -0.001865 -0.012286 -0.010783
# 2 -0.004528 0.009355 -0.004170 0.002291 0.004876 0.009123
# 3 0.000930 -0.004170 0.008144 -0.002434 -0.005838 -0.008728
# 4 -0.001865 0.002291 -0.002434 0.018437 0.002548 0.003798
# 5 -0.012286 0.004876 -0.005838 0.002548 0.034552 0.019795
# 6 -0.010783 0.009123 -0.008728 0.003798 0.019795 0.044997
#
#
# Mechanical properties :
#
#
# Convention : Reuss Voigt Hill
#
# Bulk Modulus (GPa) = 69.02911 111.57381 90.30146
# Shear Modulus (GPa) = 33.69866 52.47016 43.08441
#
# Velocity S-wave (km/s) = 3.52082 4.39333 3.98105
# Velocity P-wave (km/s) = 6.47463 8.17178 7.37221
#
# Compressibility (1/GPa) = 0.01448664
#
# Stress axis : x y z
#
# Youngs Moduli (GPa) = 79.85273 106.88936 122.79111
#
# Poissons Ratio (x) = 0.48395 -0.11418
# Poissons Ratio (y) = 0.36154 0.51206
# Poissons Ratio (z) = -0.07426 0.44575
#
# Static dielectric constant tensor:
#      x y z
#    x 1.998990 0.157570 -0.019640 
#    y 0.157570 2.434840 -0.082270 
#    z -0.019640 -0.082270 2.108030 
# 
# From -- ./inp_files/148977.got.cif
#   From: 2010.05.17/outbox.cif.g08.bks.cpg/sg2_75_cif.got.tgz:148977.got - 2010.06.03 11:33:40.
