data_PCOD9052559
_publ_section_title
;
Structure prediction by ZEFSAII (Michael W. Deem and Ramdas Pophale) SiO2 
 PCOD9052559
Probable space group: P -1
;
_chemical_formula_sum "Si O2"
_cell_formula_units_Z 14
_cell_length_a 11.735458
_cell_length_b 14.083368
_cell_length_c 9.946469
_cell_angle_alpha 141.809734
_cell_angle_beta 107.781347
_cell_angle_gamma 45.135424
_cell_volume 592.728708
_symmetry_space_group_name_H-M "P -1"
_symmetry_group_IT_number 2
_symmetry_cell_setting 'triclinic'
loop_
_space_group_symop_operation_xyz
x,y,z
-x,-y,-z
loop_
_atom_site_type_symbol
_atom_site_label
_atom_site_fract_x
_atom_site_fract_y
_atom_site_fract_z
Si Si1 0.486865 0.337389 0.851554
Si Si2 0.946532 0.231361 0.771266
Si Si3 0.434175 0.927431 0.988356
Si Si4 0.203812 0.637710 0.575190
Si Si5 0.613623 0.846630 0.507355
Si Si6 0.056832 0.128247 0.008142
Si Si7 0.889666 0.787814 0.444981
O O1 0.449192 0.266660 0.628887
O O2 0.687448 0.089564 0.721358
O O3 0.500000 0.500000 0.000000
O O4 0.285139 0.517316 0.058161
O O5 0.054788 0.240331 0.721482
O O6 0.998809 0.195379 0.906409
O O7 0.000000 0.000000 0.500000
O O8 0.580343 0.638998 0.689050
O O9 0.213227 0.098919 0.071763
O O10 0.500000 0.000000 0.000000
O O11 0.449042 0.985305 0.205677
O O12 0.161609 0.858480 0.775268
O O13 0.058135 0.689864 0.484978
O O14 0.130105 0.676943 0.743563
O O15 0.832176 0.678220 0.357432
O O16 0.500000 0.000000 0.500000
#
# Coordination Sequence:
#
# PCOD9052559 Si02
#       7
#     2   2   2   2   2   2   2
#     4  11  24  45  73 104 149 178 245 307 354 431
#     4  12  25  42  75 113 139 191 245 300 368 427
#     4  12  29  48  72 107 150 193 244 298 374 437
#     4  11  25  49  76 104 148 195 242 302 362 439
#     4  10  26  47  69 105 144 191 238 301 371 426
#     4  11  26  47  72 110 146 192 248 296 367 428
#     4  11  24  47  70 107 146 187 242 296 370 426
#
# _framework density 23.619575999999999
#
# number of rings (size 3 to 8) (size 9 to 14) (size 15 to 20)
#    0.000    0.857    4.286    0.429   10.000    2.286 
#    5.143    0.000    0.000    0.000    0.000    0.000 
#    0.000    0.000    0.000    0.000    0.000    0.000 
#
# Total GULP energy -78320.626302 kJ/mol
# GULP energy per Si atom -5594.330450 kJ/mol
# Density = 2.356582 g / cm^3
# Si number density = 23.619576 Si / 1000 Ang^3
#
#
#
# Elastic Constant Matrix: (Units=GPa)
#
#
# Indices 1 2 3 4 5 6 
#
# 1 126.1903 23.2723 33.5567 -20.5550 -3.4551 2.7022
# 2 23.2723 100.8388 37.4994 -20.3060 -12.2879 7.4185
# 3 33.5567 37.4994 122.1198 -11.8266 -14.7085 14.4234
# 4 -20.5550 -20.3060 -11.8266 51.8839 -1.8003 -10.3505
# 5 -3.4551 -12.2879 -14.7085 -1.8003 44.0802 -9.3763
# 6 2.7022 7.4185 14.4234 -10.3505 -9.3763 38.2793
#
#
#
# Elastic Compliance Matrix: (Units=1/GPa)
#
#
# Indices 1 2 3 4 5 6 
#
# 1 0.009100 -0.000772 -0.002083 0.003067 0.000176 0.001164
# 2 -0.000772 0.012274 -0.002906 0.004030 0.002665 0.000513
# 3 -0.002083 -0.002906 0.010184 -0.000117 0.001844 -0.002707
# 4 0.003067 0.004030 -0.000117 0.023414 0.003613 0.006263
# 5 0.000176 0.002665 0.001844 0.003613 0.025481 0.005995
# 6 0.001164 0.000513 -0.002707 0.006263 0.005995 0.030124
#
#
# Mechanical properties :
#
#
# Convention : Reuss Voigt Hill
#
# Bulk Modulus (GPa) = 49.91057 59.75618 54.83338
# Shear Modulus (GPa) = 38.82638 43.83672 41.33155
#
# Velocity S-wave (km/s) = 4.05881 4.31275 4.18770
# Velocity P-wave (km/s) = 6.56826 7.08195 6.82994
#
# Compressibility (1/GPa) = 0.02003583
#
# Stress axis : x y z
#
# Youngs Moduli (GPa) = 109.88714 81.47036 98.19440
#
# Poissons Ratio (x) = 0.06293 0.20452
# Poissons Ratio (y) = 0.08487 0.28537
# Poissons Ratio (z) = 0.22887 0.23677
#
# Static dielectric constant tensor:
#      x y z
#    x 1.958720 0.025510 0.031210 
#    y 0.025510 1.852730 0.018630 
#    z 0.031210 0.018630 2.029370 
# 
# From -- ./inp_files/305514.got.cif
#   From: 2010.05.17/outbox.cif.g08.bks.cpg/sg2_153_cif.got.tgz:305514.got - 2010.06.03 11:33:40.
