data_PCOD9052165
_publ_section_title
;
Structure prediction by ZEFSAII (Michael W. Deem and Ramdas Pophale) SiO2 
 PCOD9052165
Probable space group: P -1
;
_chemical_formula_sum "Si O2"
_cell_formula_units_Z 13
_cell_length_a 12.148322
_cell_length_b 8.699690
_cell_length_c 24.523476
_cell_angle_alpha 28.112517
_cell_angle_beta 153.489040
_cell_angle_gamma 145.068618
_cell_volume 539.352140
_symmetry_space_group_name_H-M "P -1"
_symmetry_group_IT_number 2
_symmetry_cell_setting 'triclinic'
loop_
_space_group_symop_operation_xyz
x,y,z
-x,-y,-z
loop_
_atom_site_type_symbol
_atom_site_label
_atom_site_fract_x
_atom_site_fract_y
_atom_site_fract_z
Si Si1 0.500000 0.500000 0.500000
Si Si2 0.334864 0.237355 0.080499
Si Si3 0.009462 0.167764 0.862573
Si Si4 0.657603 0.710218 0.382325
Si Si5 0.129418 0.154244 0.400847
Si Si6 0.295847 0.206441 0.870289
Si Si7 0.918488 0.240187 0.593848
O O1 0.633811 0.644139 0.455522
O O2 0.407699 0.111303 0.552568
O O3 0.551186 0.475754 0.131612
O O4 0.436864 0.910709 0.206412
O O5 0.214988 0.366037 0.932677
O O6 0.129978 0.122786 0.071706
O O7 0.122318 0.061707 0.889734
O O8 0.826753 0.450517 0.685947
O O9 0.671360 0.366571 0.466208
O O10 0.909412 0.952226 0.400550
O O11 0.090792 0.098446 0.337123
O O12 0.113765 0.270038 0.720390
O O13 0.500000 0.000000 0.000000
O O14 0.000000 0.500000 0.500000
#
# Coordination Sequence:
#
# PCOD9052165 Si02
#       7
#     1   2   2   2   2   2   2
#     4  12  24  40  68 100 130 184 222 280 344 400
#     4  11  25  43  73  99 136 182 230 284 340 408
#     4  11  24  45  70 103 133 177 239 280 337 416
#     4  11  24  42  70  98 137 180 226 279 343 404
#     4  11  23  44  69  97 137 177 229 279 340 412
#     4  12  26  45  73  98 137 186 225 286 348 401
#     4  10  26  42  66 104 140 172 229 283 335 408
#
# _framework density 24.102989000000001
#
# number of rings (size 3 to 8) (size 9 to 14) (size 15 to 20)
#    0.000    0.923    3.077    2.769    8.615    1.231 
#    0.000    3.077    0.000    0.000    0.000    0.000 
#    0.000    0.000    0.000    0.000    0.000    0.000 
#
# Total GULP energy -72444.831328 kJ/mol
# GULP energy per Si atom -5572.679333 kJ/mol
# Density = 2.404813 g / cm^3
# Si number density = 24.102989 Si / 1000 Ang^3
#
#
#
# Elastic Constant Matrix: (Units=GPa)
#
#
# Indices 1 2 3 4 5 6 
#
# 1 201.2742 56.6267 62.8840 11.8824 -5.2454 -5.1208
# 2 56.6267 79.3446 17.6481 26.4054 -3.9883 6.2320
# 3 62.8840 17.6481 113.0474 10.8649 6.1420 -23.5601
# 4 11.8824 26.4054 10.8649 31.0147 -11.4015 -0.5314
# 5 -5.2454 -3.9883 6.1420 -11.4015 46.3992 -1.5951
# 6 -5.1208 6.2320 -23.5601 -0.5314 -1.5951 48.6806
#
#
#
# Elastic Compliance Matrix: (Units=1/GPa)
#
#
# Indices 1 2 3 4 5 6 
#
# 1 0.007617 -0.005821 -0.003867 0.004074 0.001866 -0.000219
# 2 -0.005821 0.022968 0.000968 -0.019049 -0.003610 -0.003410
# 3 -0.003867 0.000968 0.012596 -0.004768 -0.003007 0.005415
# 4 0.004074 -0.019049 -0.004768 0.053224 0.012586 0.001553
# 5 0.001866 -0.003610 -0.003007 0.012586 0.024949 0.000158
# 6 -0.000219 -0.003410 0.005415 0.001553 0.000158 0.023598
#
#
# Mechanical properties :
#
#
# Convention : Reuss Voigt Hill
#
# Bulk Modulus (GPa) = 38.84697 74.22041 56.53369
# Shear Modulus (GPa) = 29.24500 42.31941 35.78221
#
# Velocity S-wave (km/s) = 3.48707 4.19474 3.85717
# Velocity P-wave (km/s) = 5.68902 7.37028 6.58354
#
# Compressibility (1/GPa) = 0.02574203
#
# Stress axis : x y z
#
# Youngs Moduli (GPa) = 131.29299 43.53944 79.39197
#
# Poissons Ratio (x) = 0.25343 0.30700
# Poissons Ratio (y) = 0.76420 -0.07689
# Poissons Ratio (z) = 0.50769 -0.04217
#
# Static dielectric constant tensor:
#      x y z
#    x 1.898360 -0.027740 0.032550 
#    y -0.027740 2.149480 0.035590 
#    z 0.032550 0.035590 2.117710 
# 
# From -- ./inp_files/609466.got.cif
#   From: 2010.05.17/outbox.cif.g08.bks.cpg/sg2_305_cif.got.tgz:609466.got - 2010.06.03 11:33:40.
