data_PCOD9052146
_publ_section_title
;
Structure prediction by ZEFSAII (Michael W. Deem and Ramdas Pophale) SiO2 
 PCOD9052146
Probable space group: P -1
;
_chemical_formula_sum "Si O2"
_cell_formula_units_Z 15
_cell_length_a 18.000916
_cell_length_b 14.454218
_cell_length_c 5.327289
_cell_angle_alpha 72.709397
_cell_angle_beta 94.884249
_cell_angle_gamma 151.467934
_cell_volume 583.197340
_symmetry_space_group_name_H-M "P -1"
_symmetry_group_IT_number 2
_symmetry_cell_setting 'triclinic'
loop_
_space_group_symop_operation_xyz
x,y,z
-x,-y,-z
loop_
_atom_site_type_symbol
_atom_site_label
_atom_site_fract_x
_atom_site_fract_y
_atom_site_fract_z
Si Si1 0.530156 0.821970 0.516227
Si Si2 0.135710 0.814412 0.374404
Si Si3 0.693634 0.711739 0.474767
Si Si4 0.103924 0.522288 0.041345
Si Si5 0.654764 0.088791 0.944738
Si Si6 0.500000 0.000000 0.500000
Si Si7 0.255371 0.347542 0.948369
Si Si8 0.038739 0.838305 0.944753
O O1 0.462891 0.836798 0.631494
O O2 0.420148 0.601647 0.719639
O O3 0.722132 0.029182 0.496393
O O4 0.535061 0.864347 0.195714
O O5 0.192794 0.797405 0.212852
O O6 0.952245 0.577914 0.619538
O O7 0.127406 0.909309 0.171087
O O8 0.500000 0.500000 0.500000
O O9 0.777693 0.755639 0.224133
O O10 0.806321 0.939753 0.352072
O O11 0.709603 0.670577 0.770978
O O12 0.294271 0.787587 0.885077
O O13 0.051406 0.368068 0.993444
O O14 0.000000 0.500000 0.000000
O O15 0.611386 0.115315 0.702888
O O16 0.104160 0.247304 0.021166
#
# Coordination Sequence:
#
# PCOD9052146 Si02
#       8
#     2   2   2   2   2   1   2   2
#     4  11  25  44  73 106 160 204 271 325 400 483
#     4  11  24  43  72 107 156 208 270 319 400 480
#     4  12  30  57  88 117 156 213 277 339 413 492
#     4  12  25  43  75 113 159 210 269 321 396 483
#     4  11  24  45  68 110 158 213 271 327 389 484
#     4  10  26  40  68 102 158 202 266 316 404 458
#     4  12  31  51  83 122 162 208 273 342 414 478
#     4  12  29  48  81 116 162 207 265 343 409 477
#
# _framework density 25.720282999999998
#
# number of rings (size 3 to 8) (size 9 to 14) (size 15 to 20)
#    0.000    0.533    2.667    2.800   14.933    0.000 
#    0.000    0.000    0.000    0.000    0.000    0.000 
#    0.000    0.000    0.000    0.000    0.000    0.000 
#
# Total GULP energy -83738.084112 kJ/mol
# GULP energy per Si atom -5582.538941 kJ/mol
# Density = 2.566174 g / cm^3
# Si number density = 25.720283 Si / 1000 Ang^3
#
#
#
# Elastic Constant Matrix: (Units=GPa)
#
#
# Indices 1 2 3 4 5 6 
#
# 1 122.4799 42.3500 40.5176 14.1895 17.7549 1.2218
# 2 42.3500 121.1241 56.0730 -11.3942 15.0852 -1.6512
# 3 40.5176 56.0730 189.3107 12.6079 50.4282 0.3381
# 4 14.1895 -11.3942 12.6079 50.5454 0.2541 0.3459
# 5 17.7549 15.0852 50.4282 0.2541 46.6939 5.9314
# 6 1.2218 -1.6512 0.3381 0.3459 5.9314 48.6545
#
#
#
# Elastic Compliance Matrix: (Units=1/GPa)
#
#
# Indices 1 2 3 4 5 6 
#
# 1 0.010228 -0.003485 -0.000266 -0.003578 -0.002451 -0.000049
# 2 -0.003485 0.011203 -0.003130 0.004277 0.001020 0.000335
# 3 -0.000266 -0.003130 0.008673 -0.002758 -0.008351 0.000878
# 4 -0.003578 0.004277 -0.002758 0.022428 0.002868 -0.000255
# 5 -0.002451 0.001020 -0.008351 0.002868 0.031492 -0.003705
# 6 -0.000049 0.000335 0.000878 -0.000255 -0.003705 0.021013
#
#
# Mechanical properties :
#
#
# Convention : Reuss Voigt Hill
#
# Bulk Modulus (GPa) = 61.18771 78.97731 70.08251
# Shear Modulus (GPa) = 40.24300 48.77703 44.51002
#
# Velocity S-wave (km/s) = 3.95984 4.35954 4.16449
# Velocity P-wave (km/s) = 6.68943 7.49091 7.10148
#
# Compressibility (1/GPa) = 0.01634315
#
# Stress axis : x y z
#
# Youngs Moduli (GPa) = 97.77304 89.25998 115.30445
#
# Poissons Ratio (x) = 0.31108 0.03062
# Poissons Ratio (y) = 0.34075 0.36085
# Poissons Ratio (z) = 0.02597 0.27934
#
# Static dielectric constant tensor:
#      x y z
#    x 1.900240 -0.043130 0.115070 
#    y -0.043130 2.144410 0.046490 
#    z 0.115070 0.046490 1.739600 
# 
# From -- ./inp_files/110237.got.cif
#   From: 2010.05.17/outbox.cif.g08.bks.cpg/sg2_56_cif.got.tgz:110237.got - 2010.06.03 11:33:40.
