data_PCOD9052269
_publ_section_title
;
Structure prediction by ZEFSAII (Michael W. Deem and Ramdas Pophale) SiO2 
 PCOD9052269
Probable space group: P -1
;
_chemical_formula_sum "Si O2"
_cell_formula_units_Z 16
_cell_length_a 9.769495
_cell_length_b 8.491214
_cell_length_c 12.694322
_cell_angle_alpha 134.747437
_cell_angle_beta 117.364981
_cell_angle_gamma 84.025944
_cell_volume 622.683391
_symmetry_space_group_name_H-M "P -1"
_symmetry_group_IT_number 2
_symmetry_cell_setting 'triclinic'
loop_
_space_group_symop_operation_xyz
x,y,z
-x,-y,-z
loop_
_atom_site_type_symbol
_atom_site_label
_atom_site_fract_x
_atom_site_fract_y
_atom_site_fract_z
Si Si1 0.711765 0.685675 0.254685
Si Si2 0.942149 0.573122 0.623267
Si Si3 0.568497 0.677258 0.706465
Si Si4 0.467256 0.148293 0.908657
Si Si5 0.854882 0.199858 0.838620
Si Si6 0.326849 0.268044 0.504854
Si Si7 0.005478 0.610380 0.233447
Si Si8 0.824690 0.924774 0.055939
O O1 0.601613 0.798257 0.201879
O O2 0.747594 0.790943 0.433621
O O3 0.882475 0.746833 0.281934
O O4 0.617133 0.399300 0.099694
O O5 0.784464 0.627530 0.556032
O O6 0.000000 0.500000 0.500000
O O7 0.911379 0.406243 0.634246
O O8 0.093670 0.803208 0.817303
O O9 0.500000 0.500000 0.500000
O O10 0.497108 0.476258 0.676163
O O11 0.508349 0.904211 0.802890
O O12 0.758440 0.785844 0.858288
O O13 0.322887 0.111314 0.928986
O O14 0.866991 0.314459 0.781981
O O15 0.021389 0.134186 0.870994
O O16 0.690677 0.972544 0.674251
O O17 0.875668 0.370353 0.023665
#
# Coordination Sequence:
#
# PCOD9052269 Si02
#       8
#     2   2   2   2   2   2   2   2
#     4  11  23  44  73 102 138 185 235 286 344 423
#     4  11  23  38  72 104 134 175 235 289 347 407
#     4  12  28  45  69 102 143 185 232 288 355 415
#     4  11  24  45  71 101 138 187 229 284 351 420
#     4  10  26  44  70 102 143 182 232 289 357 413
#     4  11  25  43  65 108 135 180 237 288 346 418
#     4  11  23  45  69 101 143 185 228 289 355 413
#     4  11  23  46  68 100 140 181 227 290 347 420
#
# _framework density 25.695240999999999
#
# number of rings (size 3 to 8) (size 9 to 14) (size 15 to 20)
#    0.000    1.000    3.750    1.875    5.250    3.500 
#    2.250    0.625    0.000    0.000    0.000    0.000 
#    0.000    0.000    0.000    0.000    0.000    0.000 
#
# Total GULP energy -89413.312355 kJ/mol
# GULP energy per Si atom -5588.332022 kJ/mol
# Density = 2.563676 g / cm^3
# Si number density = 25.695241 Si / 1000 Ang^3
#
#
#
# Elastic Constant Matrix: (Units=GPa)
#
#
# Indices 1 2 3 4 5 6 
#
# 1 63.8408 -1.6417 9.1265 -1.3423 -11.4008 13.9908
# 2 -1.6417 62.3679 21.2882 -17.7877 -8.5639 -5.6154
# 3 9.1265 21.2882 142.3380 0.4658 -5.2727 -2.7601
# 4 -1.3423 -17.7877 0.4658 59.8659 10.7237 -3.5680
# 5 -11.4008 -8.5639 -5.2727 10.7237 34.9905 -2.8001
# 6 13.9908 -5.6154 -2.7601 -3.5680 -2.8001 21.0164
#
#
#
# Elastic Compliance Matrix: (Units=1/GPa)
#
#
# Indices 1 2 3 4 5 6 
#
# 1 0.019602 0.000253 -0.001327 -0.001233 0.005617 -0.012617
# 2 0.000253 0.019565 -0.002723 0.005626 0.003223 0.006086
# 3 -0.001327 -0.002723 0.007556 -0.000907 0.000402 0.001048
# 4 -0.001233 0.005626 -0.000907 0.019496 -0.004746 0.004882
# 5 0.005617 0.003223 0.000402 -0.004746 0.032772 0.000735
# 6 -0.012617 0.006086 0.001048 0.004882 0.000735 0.058672
#
#
# Mechanical properties :
#
#
# Convention : Reuss Voigt Hill
#
# Bulk Modulus (GPa) = 25.55733 36.23252 30.89492
# Shear Modulus (GPa) = 28.04219 39.15946 33.60083
#
# Velocity S-wave (km/s) = 3.30712 3.90808 3.62009
# Velocity P-wave (km/s) = 4.95486 5.87329 5.43352
#
# Compressibility (1/GPa) = 0.03912772
#
# Stress axis : x y z
#
# Youngs Moduli (GPa) = 51.01392 51.11128 132.34348
#
# Poissons Ratio (x) = -0.01291 0.17565
# Poissons Ratio (y) = -0.01288 0.36042
# Poissons Ratio (z) = 0.06771 0.13919
#
# Static dielectric constant tensor:
#      x y z
#    x 2.310380 0.249510 -0.141450 
#    y 0.249510 2.247090 -0.033310 
#    z -0.141450 -0.033310 2.082590 
# 
# From -- ./inp_files/420108.got.cif
#   From: 2010.05.17/outbox.cif.g08.bks.cpg/sg2_211_cif.got.tgz:420108.got - 2010.06.03 11:33:40.
