data_PCOD9052045
_publ_section_title
;
Structure prediction by ZEFSAII (Michael W. Deem and Ramdas Pophale) SiO2 
 PCOD9052045
Probable space group: P -1
;
_chemical_formula_sum "Si O2"
_cell_formula_units_Z 10
_cell_length_a 4.971502
_cell_length_b 11.749106
_cell_length_c 10.560889
_cell_angle_alpha 48.973470
_cell_angle_beta 123.731342
_cell_angle_gamma 104.699820
_cell_volume 380.947393
_symmetry_space_group_name_H-M "P -1"
_symmetry_group_IT_number 2
_symmetry_cell_setting 'triclinic'
loop_
_space_group_symop_operation_xyz
x,y,z
-x,-y,-z
loop_
_atom_site_type_symbol
_atom_site_label
_atom_site_fract_x
_atom_site_fract_y
_atom_site_fract_z
Si Si1 0.791608 0.911957 0.253582
Si Si2 0.650084 0.146927 0.393180
Si Si3 0.222876 0.122900 0.071053
Si Si4 0.551941 0.359000 0.713404
Si Si5 0.388763 0.475911 0.131884
O O1 0.707245 0.750988 0.306140
O O2 0.961087 0.888171 0.455583
O O3 0.058358 0.988126 0.191096
O O4 0.540294 0.963308 0.911036
O O5 0.527127 0.299097 0.331464
O O6 0.483175 0.183032 0.187187
O O7 0.500000 0.000000 0.500000
O O8 0.916055 0.256554 0.866935
O O9 0.500000 0.500000 0.500000
O O10 0.522486 0.419876 0.805779
O O11 0.500000 0.500000 0.000000
O O12 0.000000 0.500000 0.000000
#
# Coordination Sequence:
#
# PCOD9052045 Si02
#       5
#     2   2   2   2   2
#     4  11  27  49  81 119 159 211 271 335 404 477
#     4  10  25  49  83 115 160 212 275 321 403 483
#     4  11  25  52  80 114 163 217 266 328 403 491
#     4  12  30  53  84 123 167 212 272 342 408 476
#     4  12  30  54  82 115 166 219 268 333 410 482
#
# _framework density 26.250340999999999
#
# number of rings (size 3 to 8) (size 9 to 14) (size 15 to 20)
#    0.000    0.800    2.000    1.800   11.200    2.400 
#    0.000    0.000    0.000    0.000    0.000    0.000 
#    0.000    0.000    0.000    0.000    0.000    0.000 
#
# Total GULP energy -56068.695713 kJ/mol
# GULP energy per Si atom -5606.869571 kJ/mol
# Density = 2.619059 g / cm^3
# Si number density = 26.250341 Si / 1000 Ang^3
#
#
#
# Elastic Constant Matrix: (Units=GPa)
#
#
# Indices 1 2 3 4 5 6 
#
# 1 154.9500 83.7930 70.0283 8.1365 -3.9026 -3.5856
# 2 83.7930 244.4385 83.3880 3.4543 -2.7409 23.2556
# 3 70.0283 83.3880 171.1520 -12.2905 2.9120 11.2266
# 4 8.1365 3.4543 -12.2905 60.6738 -0.1743 11.2231
# 5 -3.9026 -2.7409 2.9120 -0.1743 56.3961 11.4194
# 6 -3.5856 23.2556 11.2266 11.2231 11.4194 56.7246
#
#
#
# Elastic Compliance Matrix: (Units=1/GPa)
#
#
# Indices 1 2 3 4 5 6 
#
# 1 0.009248 -0.002372 -0.002954 -0.002173 0.000156 0.002540
# 2 -0.002372 0.005696 -0.001658 0.000087 0.000666 -0.002308
# 3 -0.002954 -0.001658 0.008139 0.002419 -0.000390 -0.001518
# 4 -0.002173 0.000087 0.002419 0.018067 0.000668 -0.004361
# 5 0.000156 0.000666 -0.000390 0.000668 0.018621 -0.004067
# 6 0.002540 -0.002308 -0.001518 -0.004361 -0.004067 0.020718
#
#
# Mechanical properties :
#
#
# Convention : Reuss Voigt Hill
#
# Bulk Modulus (GPa) = 109.70541 116.10656 112.90598
# Shear Modulus (GPa) = 51.28580 56.98098 54.13339
#
# Velocity S-wave (km/s) = 4.42488 4.66411 4.54607
# Velocity P-wave (km/s) = 8.24554 8.56339 8.40597
#
# Compressibility (1/GPa) = 0.00911532
#
# Stress axis : x y z
#
# Youngs Moduli (GPa) = 108.13200 175.57532 122.86417
#
# Poissons Ratio (x) = 0.41642 0.36289
# Poissons Ratio (y) = 0.25646 0.20374
# Poissons Ratio (z) = 0.31938 0.29115
#
# Static dielectric constant tensor:
#      x y z
#    x 2.016370 -0.000720 0.016830 
#    y -0.000720 2.088930 0.076770 
#    z 0.016830 0.076770 2.193970 
# 
# From -- ./inp_files/129509.got.cif
#   From: 2010.05.17/outbox.cif.g08.bks.cpg/sg2_65_cif.got.tgz:129509.got - 2010.06.03 11:33:40.
