data_PCOD9052973
_publ_section_title
;
Structure prediction by ZEFSAII (Michael W. Deem and Ramdas Pophale) SiO2 
 PCOD9052973
Probable space group: P -1
;
_chemical_formula_sum "Si O2"
_cell_formula_units_Z 14
_cell_length_a 25.133493
_cell_length_b 9.050863
_cell_length_c 15.010987
_cell_angle_alpha 156.416558
_cell_angle_beta 29.099627
_cell_angle_gamma 142.672672
_cell_volume 664.130701
_symmetry_space_group_name_H-M "P -1"
_symmetry_group_IT_number 2
_symmetry_cell_setting 'triclinic'
loop_
_space_group_symop_operation_xyz
x,y,z
-x,-y,-z
loop_
_atom_site_type_symbol
_atom_site_label
_atom_site_fract_x
_atom_site_fract_y
_atom_site_fract_z
Si Si1 0.798632 0.242839 0.129786
Si Si2 0.788732 0.950345 0.646726
Si Si3 0.009597 0.277344 0.453755
Si Si4 0.393404 0.892882 0.543212
Si Si5 0.205706 0.333449 0.320701
Si Si6 0.553306 0.977023 0.005908
Si Si7 0.588502 0.171666 0.711819
O O1 0.788224 0.669337 0.407445
O O2 0.718841 0.031171 0.197939
O O3 0.923933 0.103973 0.878044
O O4 0.764382 0.073333 0.990631
O O5 0.805123 0.717623 0.586000
O O6 0.671070 0.158873 0.938863
O O7 0.891507 0.206290 0.626897
O O8 0.092496 0.443659 0.497389
O O9 0.000000 0.500000 0.500000
O O10 0.407409 0.449695 0.273651
O O11 0.396688 0.039284 0.519383
O O12 0.500000 0.000000 0.500000
O O13 0.299239 0.619700 0.318006
O O14 0.463386 0.053500 0.255932
O O15 0.500000 0.000000 0.000000
O O16 0.500000 0.500000 0.000000
#
# Coordination Sequence:
#
# PCOD9052973 Si02
#       7
#     2   2   2   2   2   2   2
#     4   9  20  35  63  82 113 152 200 235 282 344
#     4  11  20  41  60  86 113 156 205 229 286 357
#     4  10  24  38  61  87 117 153 190 250 302 331
#     4  10  19  34  61  85 115 153 202 229 282 356
#     4  10  20  36  64  81 115 152 201 230 288 347
#     4  10  22  34  59  86 120 152 182 248 297 332
#     4  10  17  35  58  88 112 154 194 229 288 358
#
# _framework density 21.080188
#
# number of rings (size 3 to 8) (size 9 to 14) (size 15 to 20)
#    0.857    1.143    4.286    2.571    2.000    0.000 
#    0.000    1.429    6.286    0.000    0.000    0.000 
#    0.000    0.000    0.000    0.000    0.000    0.000 
#
# Total GULP energy -77970.076365 kJ/mol
# GULP energy per Si atom -5569.291169 kJ/mol
# Density = 2.103221 g / cm^3
# Si number density = 21.080188 Si / 1000 Ang^3
#
#
#
# Elastic Constant Matrix: (Units=GPa)
#
#
# Indices 1 2 3 4 5 6 
#
# 1 129.8301 60.6610 17.7847 -27.2507 -6.4574 13.2665
# 2 60.6610 108.8754 39.9322 -52.9335 -16.6248 19.2323
# 3 17.7847 39.9322 34.5897 -10.5574 -0.4624 3.3651
# 4 -27.2507 -52.9335 -10.5574 44.1412 9.5769 -3.1849
# 5 -6.4574 -16.6248 -0.4624 9.5769 29.9689 -6.4870
# 6 13.2665 19.2323 3.3651 -3.1849 -6.4870 41.1387
#
#
#
# Elastic Compliance Matrix: (Units=1/GPa)
#
#
# Indices 1 2 3 4 5 6 
#
# 1 0.010746 -0.009495 0.004397 -0.003302 -0.001813 0.000072
# 2 -0.009495 0.066945 -0.052861 0.057912 0.011972 -0.017539
# 3 0.004397 -0.052861 0.074288 -0.039424 -0.011974 0.012277
# 4 -0.003302 0.057912 -0.039424 0.079017 0.002017 -0.016349
# 5 -0.001813 0.011972 -0.011974 0.002017 0.039292 0.002319
# 6 0.000072 -0.017539 0.012277 -0.016349 0.002319 0.030580
#
#
# Mechanical properties :
#
#
# Convention : Reuss Voigt Hill
#
# Bulk Modulus (GPa) = 27.73060 56.67235 42.20147
# Shear Modulus (GPa) = 11.66034 33.37758 22.51896
#
# Velocity S-wave (km/s) = 2.35445 3.98347 3.27196
# Velocity P-wave (km/s) = 4.53592 6.93541 5.85980
#
# Compressibility (1/GPa) = 0.03606124
#
# Stress axis : x y z
#
# Youngs Moduli (GPa) = 93.06066 14.93768 13.46119
#
# Poissons Ratio (x) = 0.14183 -0.05919
# Poissons Ratio (y) = 0.88358 0.71157
# Poissons Ratio (z) = -0.40920 0.78962
#
# Static dielectric constant tensor:
#      x y z
#    x 1.927700 0.054820 0.098540 
#    y 0.054820 1.877720 0.000670 
#    z 0.098540 0.000670 1.821670 
# 
# From -- ./inp_files/542469.got.cif
#   From: 2010.05.17/outbox.cif.g08.bks.cpg/sg2_272_cif.got.tgz:542469.got - 2010.06.03 11:33:40.
