data_PCOD9052884
_publ_section_title
;
Structure prediction by ZEFSAII (Michael W. Deem and Ramdas Pophale) SiO2 
 PCOD9052884
Probable space group: P -1
;
_chemical_formula_sum "Si O2"
_cell_formula_units_Z 15
_cell_length_a 6.421968
_cell_length_b 13.087364
_cell_length_c 21.574079
_cell_angle_alpha 19.840446
_cell_angle_beta 105.093143
_cell_angle_gamma 108.106032
_cell_volume 582.065911
_symmetry_space_group_name_H-M "P -1"
_symmetry_group_IT_number 2
_symmetry_cell_setting 'triclinic'
loop_
_space_group_symop_operation_xyz
x,y,z
-x,-y,-z
loop_
_atom_site_type_symbol
_atom_site_label
_atom_site_fract_x
_atom_site_fract_y
_atom_site_fract_z
Si Si1 0.500000 0.500000 0.500000
Si Si2 0.220913 0.817715 0.716373
Si Si3 0.058804 0.249147 0.559558
Si Si4 0.301208 0.364568 0.325231
Si Si5 0.921269 0.284164 0.058325
Si Si6 0.992348 0.827262 0.032747
Si Si7 0.688324 0.598041 0.318373
Si Si8 0.508092 0.569714 0.093846
O O1 0.252410 0.514651 0.446437
O O2 0.593174 0.530490 0.417785
O O3 0.441402 0.676642 0.812353
O O4 0.035535 0.508893 0.885337
O O5 0.170493 0.047390 0.634484
O O6 0.235350 0.015750 0.542382
O O7 0.855010 0.369746 0.448423
O O8 0.998247 0.023043 0.742883
O O9 0.098401 0.532744 0.222416
O O10 0.496488 0.535141 0.288299
O O11 0.389876 0.397425 0.243299
O O12 0.657279 0.232931 0.061135
O O13 0.000000 0.500000 0.000000
O O14 0.741056 0.758352 0.028617
O O15 0.166506 0.058207 0.871723
O O16 0.000000 0.000000 0.000000
#
# Coordination Sequence:
#
# PCOD9052884 Si02
#       8
#     1   2   2   2   2   2   2   2
#     4  12  28  46  78 110 154 206 264 324 390 464
#     4  11  26  50  77 110 158 201 263 316 390 468
#     4  11  27  49  78 112 151 206 262 325 389 466
#     4  12  27  50  78 118 156 204 261 325 396 473
#     4  10  27  49  74 110 158 200 264 314 382 466
#     4  12  28  50  80 117 160 205 260 329 398 472
#     4  12  28  51  79 114 160 206 263 327 399 465
#     4  12  28  46  81 114 155 211 254 325 397 468
#
# _framework density 25.770274000000001
#
# number of rings (size 3 to 8) (size 9 to 14) (size 15 to 20)
#    0.000    0.533    2.667    2.800    9.333    5.333 
#    0.000    0.000    0.000    0.000    0.000    0.000 
#    0.000    0.000    0.000    0.000    0.000    0.000 
#
# Total GULP energy -83761.928499 kJ/mol
# GULP energy per Si atom -5584.128567 kJ/mol
# Density = 2.571162 g / cm^3
# Si number density = 25.770274 Si / 1000 Ang^3
#
#
#
# Elastic Constant Matrix: (Units=GPa)
#
#
# Indices 1 2 3 4 5 6 
#
# 1 105.7637 43.2246 41.8497 -0.6587 -2.7834 6.3569
# 2 43.2246 78.4454 4.0828 16.1660 3.2475 6.4961
# 3 41.8497 4.0828 95.8825 -10.2939 10.3232 11.3153
# 4 -0.6587 16.1660 -10.2939 33.5107 -0.1625 -0.9627
# 5 -2.7834 3.2475 10.3232 -0.1625 47.4498 4.0163
# 6 6.3569 6.4961 11.3153 -0.9627 4.0163 60.8043
#
#
#
# Elastic Compliance Matrix: (Units=1/GPa)
#
#
# Indices 1 2 3 4 5 6 
#
# 1 0.015867 -0.009111 -0.006613 0.002701 0.002969 0.000392
# 2 -0.009111 0.019705 0.002623 -0.008938 -0.002347 -0.001627
# 3 -0.006613 0.002623 0.014114 0.002868 -0.003464 -0.001941
# 4 0.002701 -0.008938 0.002868 0.035107 0.000209 0.000681
# 5 0.002969 -0.002347 -0.003464 0.000209 0.022239 -0.000881
# 6 0.000392 -0.001627 -0.001941 0.000681 -0.000881 0.017009
#
#
# Mechanical properties :
#
#
# Convention : Reuss Voigt Hill
#
# Bulk Modulus (GPa) = 42.58353 50.93399 46.75876
# Shear Modulus (GPa) = 31.63123 41.08192 36.35658
#
# Velocity S-wave (km/s) = 3.50727 3.99702 3.76013
# Velocity P-wave (km/s) = 5.74120 6.41164 6.08566
#
# Compressibility (1/GPa) = 0.02348326
#
# Stress axis : x y z
#
# Youngs Moduli (GPa) = 63.02519 50.74843 70.85072
#
# Poissons Ratio (x) = 0.46235 0.46856
# Poissons Ratio (y) = 0.57420 -0.18581
# Poissons Ratio (z) = 0.41680 -0.13309
#
# Static dielectric constant tensor:
#      x y z
#    x 2.032690 -0.054890 -0.064370 
#    y -0.054890 2.142680 -0.014360 
#    z -0.064370 -0.014360 2.015980 
# 
# From -- ./inp_files/604613.got.cif
#   From: 2010.05.17/outbox.cif.g08.bks.cpg/sg2_303_cif.got.tgz:604613.got - 2010.06.03 11:33:40.
