data_PCOD9052134
_publ_section_title
;
Structure prediction by ZEFSAII (Michael W. Deem and Ramdas Pophale) SiO2 
 PCOD9052134
Probable space group: P -1
;
_chemical_formula_sum "Si O2"
_cell_formula_units_Z 12
_cell_length_a 20.218410
_cell_length_b 5.352261
_cell_length_c 4.912657
_cell_angle_alpha 89.287591
_cell_angle_beta 67.174096
_cell_angle_gamma 109.412039
_cell_volume 455.980928
_symmetry_space_group_name_H-M "P -1"
_symmetry_group_IT_number 2
_symmetry_cell_setting 'triclinic'
loop_
_space_group_symop_operation_xyz
x,y,z
-x,-y,-z
loop_
_atom_site_type_symbol
_atom_site_label
_atom_site_fract_x
_atom_site_fract_y
_atom_site_fract_z
Si Si1 0.586248 0.014356 0.422235
Si Si2 0.585349 0.700677 0.929176
Si Si3 0.948297 0.349566 0.832754
Si Si4 0.160251 0.616206 0.610236
Si Si5 0.861141 0.886472 0.672064
Si Si6 0.295817 0.530612 0.127616
O O1 0.500000 0.000000 0.500000
O O2 0.595172 0.956892 0.722828
O O3 0.650383 0.270555 0.182565
O O4 0.591520 0.770150 0.236584
O O5 0.651053 0.582324 0.775476
O O6 0.500000 0.500000 0.000000
O O7 0.920243 0.033183 0.814214
O O8 0.000000 0.500000 0.500000
O O9 0.867255 0.387984 0.034725
O O10 0.000000 0.500000 0.000000
O O11 0.142719 0.863897 0.503061
O O12 0.247599 0.658885 0.394407
O O13 0.117381 0.323304 0.544964
O O14 0.773306 0.715753 0.900363
#
# Coordination Sequence:
#
# PCOD9052134 Si02
#       6
#     2   2   2   2   2   2
#     4  12  26  49  77 116 160 217 288 353 420 488
#     4  12  26  49  77 116 160 217 288 353 420 488
#     4  12  26  54  88 123 166 218 276 348 415 520
#     4  10  25  54  78 123 168 221 279 338 435 494
#     4  10  25  54  78 123 168 221 279 338 435 494
#     4  10  26  52  76 119 170 224 282 358 409 520
#
# _framework density 26.316887000000001
#
# number of rings (size 3 to 8) (size 9 to 14) (size 15 to 20)
#    1.000    0.000    3.333    2.000    0.000    2.667 
#   18.000    0.000    0.000    0.000    0.000    0.000 
#    0.000    0.000    0.000    0.000    0.000    0.000 
#
# Total GULP energy -67171.045849 kJ/mol
# GULP energy per Si atom -5597.587154 kJ/mol
# Density = 2.625699 g / cm^3
# Si number density = 26.316887 Si / 1000 Ang^3
#
#
#
# Elastic Constant Matrix: (Units=GPa)
#
#
# Indices 1 2 3 4 5 6 
#
# 1 90.7758 30.9789 31.2206 -18.6118 -11.0271 -1.7411
# 2 30.9789 161.0456 52.9009 -8.6355 -11.3509 22.5923
# 3 31.2206 52.9009 170.2382 -10.6409 -13.7425 4.6063
# 4 -18.6118 -8.6355 -10.6409 57.0603 9.0324 -13.3067
# 5 -11.0271 -11.3509 -13.7425 9.0324 44.0762 2.7834
# 6 -1.7411 22.5923 4.6063 -13.3067 2.7834 63.1937
#
#
#
# Elastic Compliance Matrix: (Units=1/GPa)
#
#
# Indices 1 2 3 4 5 6 
#
# 1 0.013241 -0.002023 -0.001493 0.003975 0.001387 0.001973
# 2 -0.002023 0.007665 -0.001880 -0.000709 0.001208 -0.002861
# 3 -0.001493 -0.001880 0.006846 0.000352 0.001195 0.000153
# 4 0.003975 -0.000709 0.000352 0.020467 -0.003576 0.004804
# 5 0.001387 0.001208 0.001195 -0.003576 0.024598 -0.002317
# 6 0.001973 -0.002861 0.000153 0.004804 -0.002317 0.018004
#
#
# Mechanical properties :
#
#
# Convention : Reuss Voigt Hill
#
# Bulk Modulus (GPa) = 58.95831 72.47337 65.71584
# Shear Modulus (GPa) = 46.61325 53.32998 49.97161
#
# Velocity S-wave (km/s) = 4.21316 4.50650 4.36230
# Velocity P-wave (km/s) = 6.79114 7.39436 7.09916
#
# Compressibility (1/GPa) = 0.01696114
#
# Stress axis : x y z
#
# Youngs Moduli (GPa) = 75.52232 130.46989 146.06033
#
# Poissons Ratio (x) = 0.26388 0.21803
# Poissons Ratio (y) = 0.15275 0.27463
# Poissons Ratio (z) = 0.11274 0.24531
#
# Static dielectric constant tensor:
#      x y z
#    x 2.135850 0.004180 0.027350 
#    y 0.004180 2.093150 0.030270 
#    z 0.027350 0.030270 2.061600 
# 
# From -- ./inp_files/121704.got.cif
#   From: 2010.05.17/outbox.cif.g08.bks.cpg/sg2_61_cif.got.tgz:121704.got - 2010.06.03 11:33:40.
