data_PCOD9052920
_publ_section_title
;
Structure prediction by ZEFSAII (Michael W. Deem and Ramdas Pophale) SiO2 
 PCOD9052920
Probable space group: P -1
;
_chemical_formula_sum "Si O2"
_cell_formula_units_Z 14
_cell_length_a 12.060492
_cell_length_b 17.922845
_cell_length_c 9.104906
_cell_angle_alpha 152.668207
_cell_angle_beta 131.106936
_cell_angle_gamma 41.428559
_cell_volume 597.684796
_symmetry_space_group_name_H-M "P -1"
_symmetry_group_IT_number 2
_symmetry_cell_setting 'triclinic'
loop_
_space_group_symop_operation_xyz
x,y,z
-x,-y,-z
loop_
_atom_site_type_symbol
_atom_site_label
_atom_site_fract_x
_atom_site_fract_y
_atom_site_fract_z
Si Si1 0.499785 0.178709 0.243784
Si Si2 0.846020 0.402297 0.953752
Si Si3 0.812807 0.130978 0.254645
Si Si4 0.662082 0.263068 0.772706
Si Si5 0.145229 0.796446 0.900434
Si Si6 0.104374 0.325701 0.679654
Si Si7 0.227246 0.164896 0.807515
O O1 0.670861 0.111784 0.184315
O O2 0.503781 0.311307 0.610446
O O3 0.347793 0.243665 0.110644
O O4 0.500000 0.000000 0.000000
O O5 0.798247 0.323819 0.630858
O O6 0.774452 0.327758 0.888969
O O7 0.046584 0.293800 0.947410
O O8 0.797135 0.614163 0.247287
O O9 0.800425 0.133981 0.074738
O O10 0.000972 0.969409 0.168787
O O11 0.718864 0.044357 0.461703
O O12 0.691204 0.315709 0.054187
O O13 0.031392 0.709769 0.587497
O O14 0.214493 0.177920 0.641327
O O15 0.000000 0.500000 0.000000
#
# Coordination Sequence:
#
# PCOD9052920 Si02
#       7
#     2   2   2   2   2   2   2
#     4   9  21  34  56  87 118 149 186 230 285 344
#     4  10  19  35  62  82 112 149 197 230 275 341
#     4  10  19  35  57  89 108 151 194 231 279 335
#     4  10  20  33  57  87 109 149 190 229 282 329
#     4  11  19  33  60  85 116 140 193 247 275 321
#     4  10  20  36  57  86 111 149 194 237 279 335
#     4  10  17  35  58  83 111 148 187 233 273 337
#
# _framework density 23.423718000000001
#
# number of rings (size 3 to 8) (size 9 to 14) (size 15 to 20)
#    0.000    2.000    4.286    1.286    4.000    0.571 
#    0.000    9.286    0.000    3.429    0.000    0.000 
#    0.000    0.000    0.000    0.000    0.000    0.000 
#
# Total GULP energy -77995.700710 kJ/mol
# GULP energy per Si atom -5571.121479 kJ/mol
# Density = 2.337040 g / cm^3
# Si number density = 23.423718 Si / 1000 Ang^3
#
#
#
# Elastic Constant Matrix: (Units=GPa)
#
#
# Indices 1 2 3 4 5 6 
#
# 1 101.7119 27.8887 29.4182 1.7800 29.1119 13.8251
# 2 27.8887 112.8706 46.0015 -19.1408 9.8934 15.1753
# 3 29.4182 46.0015 112.9297 -47.3792 20.4743 6.3327
# 4 1.7800 -19.1408 -47.3792 50.0036 0.0769 8.9198
# 5 29.1119 9.8934 20.4743 0.0769 29.5020 3.8687
# 6 13.8251 15.1753 6.3327 8.9198 3.8687 28.8575
#
#
#
# Elastic Compliance Matrix: (Units=1/GPa)
#
#
# Indices 1 2 3 4 5 6 
#
# 1 0.014875 -0.001829 -0.001488 -0.001989 -0.012563 -0.003539
# 2 -0.001829 0.011659 -0.002930 0.002741 0.000648 -0.005546
# 3 -0.001488 -0.002930 0.021719 0.020846 -0.011707 -0.007386
# 4 -0.001989 0.002741 0.020846 0.043944 -0.011291 -0.017132
# 5 -0.012563 0.000648 -0.011707 -0.011291 0.053634 0.004547
# 6 -0.003539 -0.005546 -0.007386 -0.017132 0.004547 0.045572
#
#
# Mechanical properties :
#
#
# Convention : Reuss Voigt Hill
#
# Bulk Modulus (GPa) = 27.96505 59.34767 43.65636
# Shear Modulus (GPa) = 23.16779 36.61954 29.89367
#
# Velocity S-wave (km/s) = 3.14837 3.95822 3.57629
# Velocity P-wave (km/s) = 5.01806 6.80305 5.97756
#
# Compressibility (1/GPa) = 0.03575892
#
# Stress axis : x y z
#
# Youngs Moduli (GPa) = 67.22519 85.76879 46.04307
#
# Poissons Ratio (x) = 0.15690 0.06853
# Poissons Ratio (y) = 0.12297 0.13488
# Poissons Ratio (z) = 0.10006 0.25126
#
# Static dielectric constant tensor:
#      x y z
#    x 1.892400 0.002880 -0.001940 
#    y 0.002880 2.031230 0.003830 
#    z -0.001940 0.003830 1.977220 
# 
# From -- ./inp_files/177840.got.cif
#   From: 2010.05.17/outbox.cif.g08.bks.cpg/sg2_89_cif.got.tgz:177840.got - 2010.06.03 11:33:40.
