data_PCOD9052212
_publ_section_title
;
Structure prediction by ZEFSAII (Michael W. Deem and Ramdas Pophale) SiO2 
 PCOD9052212
Probable space group: P -1
;
_chemical_formula_sum "Si O2"
_cell_formula_units_Z 16
_cell_length_a 16.290554
_cell_length_b 20.669965
_cell_length_c 6.756571
_cell_angle_alpha 78.556433
_cell_angle_beta 63.827536
_cell_angle_gamma 23.488517
_cell_volume 665.103840
_symmetry_space_group_name_H-M "P -1"
_symmetry_group_IT_number 2
_symmetry_cell_setting 'triclinic'
loop_
_space_group_symop_operation_xyz
x,y,z
-x,-y,-z
loop_
_atom_site_type_symbol
_atom_site_label
_atom_site_fract_x
_atom_site_fract_y
_atom_site_fract_z
Si Si1 0.914322 0.190026 0.618590
Si Si2 0.317658 0.541163 0.992202
Si Si3 0.418237 0.815027 0.537529
Si Si4 0.207009 0.191281 0.296870
Si Si5 0.526661 0.071177 0.490697
Si Si6 0.087514 0.503022 0.036270
Si Si7 0.919171 0.826967 0.873313
Si Si8 0.718774 0.583816 0.736266
O O1 0.813132 0.318569 0.793597
O O2 0.063338 0.118998 0.310102
O O3 0.638619 0.340395 0.757803
O O4 0.129874 0.998292 0.627934
O O5 0.294024 0.481109 0.120737
O O6 0.157302 0.662744 0.884280
O O7 0.440922 0.879250 0.473703
O O8 0.469105 0.761640 0.742405
O O9 0.685313 0.610017 0.256344
O O10 0.050426 0.250033 0.276516
O O11 0.007183 0.388581 0.426434
O O12 0.283501 0.105435 0.475243
O O13 0.500000 0.000000 0.000000
O O14 0.210564 0.264385 0.733672
O O15 0.642711 0.001477 0.188978
O O16 0.243842 0.388001 0.148756
O O17 0.000000 0.500000 0.000000
#
# Coordination Sequence:
#
# PCOD9052212 Si02
#       8
#     2   2   2   2   2   2   2   2
#     4  11  24  48  72 100 132 183 238 284 354 406
#     4  11  25  45  74 102 132 177 238 300 342 400
#     4  11  24  44  67  97 143 186 225 281 337 423
#     4  12  25  40  68 104 141 182 226 289 346 407
#     4  11  23  43  66 102 135 186 230 277 340 418
#     4  10  26  43  67  97 141 186 224 271 338 418
#     4  12  21  43  74 100 138 177 233 287 348 405
#     4  12  25  43  66 105 142 177 225 290 342 404
#
# _framework density 24.056394000000001
#
# number of rings (size 3 to 8) (size 9 to 14) (size 15 to 20)
#    0.000    0.750    5.000    1.875    5.250    3.500 
#    0.000    0.625    0.000    0.000    0.000    0.000 
#    0.000    0.000    0.000    0.000    0.000    0.000 
#
# Total GULP energy -89482.593889 kJ/mol
# GULP energy per Si atom -5592.662118 kJ/mol
# Density = 2.400164 g / cm^3
# Si number density = 24.056394 Si / 1000 Ang^3
#
#
#
# Elastic Constant Matrix: (Units=GPa)
#
#
# Indices 1 2 3 4 5 6 
#
# 1 76.3077 34.2836 32.7809 -2.1292 9.3907 -19.8828
# 2 34.2836 177.7342 54.8045 -20.2539 -1.3042 -30.2893
# 3 32.7809 54.8045 122.6004 -4.7957 13.2371 -15.0430
# 4 -2.1292 -20.2539 -4.7957 35.7429 -7.1968 -0.2103
# 5 9.3907 -1.3042 13.2371 -7.1968 25.6590 -7.2076
# 6 -19.8828 -30.2893 -15.0430 -0.2103 -7.2076 35.3546
#
#
#
# Elastic Compliance Matrix: (Units=1/GPa)
#
#
# Indices 1 2 3 4 5 6 
#
# 1 0.017017 -0.001429 -0.002794 -0.000789 -0.003258 0.006488
# 2 -0.001429 0.008668 -0.003115 0.005655 0.005997 0.006553
# 3 -0.002794 -0.003115 0.010714 -0.001570 -0.005321 -0.000775
# 4 -0.000789 0.005655 -0.001570 0.033501 0.012609 0.006503
# 5 -0.003258 0.005997 -0.005321 0.012609 0.049924 0.011295
# 6 0.006488 0.006553 -0.000775 0.006503 0.011295 0.039559
#
#
# Mechanical properties :
#
#
# Convention : Reuss Voigt Hill
#
# Bulk Modulus (GPa) = 46.03533 68.93113 57.48323
# Shear Modulus (GPa) = 27.57875 36.33618 31.95747
#
# Velocity S-wave (km/s) = 3.38956 3.89068 3.64873
# Velocity P-wave (km/s) = 5.87339 6.99281 6.45740
#
# Compressibility (1/GPa) = 0.02172245
#
# Stress axis : x y z
#
# Youngs Moduli (GPa) = 58.76633 115.37213 93.33563
#
# Poissons Ratio (x) = 0.16485 0.26080
# Poissons Ratio (y) = 0.08397 0.29072
# Poissons Ratio (z) = 0.16421 0.35936
#
# Static dielectric constant tensor:
#      x y z
#    x 1.928260 0.010510 0.002650 
#    y 0.010510 1.927810 0.012920 
#    z 0.002650 0.012920 2.008990 
# 
# From -- ./inp_files/112820.got.cif
#   From: 2010.05.17/outbox.cif.g08.bks.cpg/sg2_57_cif.got.tgz:112820.got - 2010.06.03 11:33:40.
