data_PCOD9052602
_publ_section_title
;
Structure prediction by ZEFSAII (Michael W. Deem and Ramdas Pophale) SiO2 
 PCOD9052602
Probable space group: P -1
;
_chemical_formula_sum "Si O2"
_cell_formula_units_Z 12
_cell_length_a 11.262944
_cell_length_b 5.198544
_cell_length_c 14.529544
_cell_angle_alpha 94.074027
_cell_angle_beta 51.915069
_cell_angle_gamma 123.208206
_cell_volume 512.214169
_symmetry_space_group_name_H-M "P -1"
_symmetry_group_IT_number 2
_symmetry_cell_setting 'triclinic'
loop_
_space_group_symop_operation_xyz
x,y,z
-x,-y,-z
loop_
_atom_site_type_symbol
_atom_site_label
_atom_site_fract_x
_atom_site_fract_y
_atom_site_fract_z
Si Si1 0.091089 0.566303 0.807309
Si Si2 0.821577 0.607535 0.058134
Si Si3 0.997884 0.131522 0.660396
Si Si4 0.695847 0.276742 0.588590
Si Si5 0.322117 0.108616 0.568065
Si Si6 0.399556 0.315793 0.254163
O O1 0.027657 0.315687 0.746661
O O2 0.209264 0.553126 0.830987
O O3 0.903731 0.487287 0.944699
O O4 0.226415 0.931119 0.705993
O O5 0.620335 0.513209 0.118733
O O6 0.000000 0.000000 0.000000
O O7 0.086109 0.393867 0.539685
O O8 0.140929 0.042996 0.597883
O O9 0.772206 0.821543 0.741009
O O10 0.598969 0.432358 0.675001
O O11 0.616766 0.071542 0.525632
O O12 0.664366 0.015330 0.670278
O O13 0.500000 0.500000 0.500000
#
# Coordination Sequence:
#
# PCOD9052602 Si02
#       6
#     2   2   2   2   2   2
#     4  10  26  47  74 104 146 192 250 302 368 431
#     4  11  27  48  72 103 145 198 250 305 355 440
#     4  11  25  45  74 109 150 189 242 308 364 437
#     4  11  26  45  72 110 149 193 238 298 372 439
#     4  11  26  44  76 114 151 191 239 308 369 439
#     4  12  28  45  76 107 149 197 244 298 370 433
#
# _framework density 23.427700999999999
#
# number of rings (size 3 to 8) (size 9 to 14) (size 15 to 20)
#    0.000    1.000    1.667    2.000   16.333    2.000 
#    0.000    5.833    0.000    0.000    0.000    0.000 
#    0.000    0.000    0.000    0.000    0.000    0.000 
#
# Total GULP energy -67219.799505 kJ/mol
# GULP energy per Si atom -5601.649959 kJ/mol
# Density = 2.337438 g / cm^3
# Si number density = 23.427701 Si / 1000 Ang^3
#
#
#
# Elastic Constant Matrix: (Units=GPa)
#
#
# Indices 1 2 3 4 5 6 
#
# 1 106.9148 39.2913 44.6283 -16.6768 -20.6480 7.0318
# 2 39.2913 85.1707 34.2119 -3.3525 -22.9022 -7.1220
# 3 44.6283 34.2119 93.9065 1.6585 -16.4515 6.3927
# 4 -16.6768 -3.3525 1.6585 47.1198 -8.4003 -6.6817
# 5 -20.6480 -22.9022 -16.4515 -8.4003 52.3692 -16.4685
# 6 7.0318 -7.1220 6.3927 -6.6817 -16.4685 42.7706
#
#
#
# Elastic Compliance Matrix: (Units=1/GPa)
#
#
# Indices 1 2 3 4 5 6 
#
# 1 0.014237 -0.003392 -0.005026 0.005600 0.003467 0.000056
# 2 -0.003392 0.017841 -0.004049 0.002730 0.008038 0.007655
# 3 -0.005026 -0.004049 0.014665 -0.003053 -0.000485 -0.002704
# 4 0.005600 0.002730 -0.003053 0.026185 0.009019 0.007553
# 5 0.003467 0.008038 -0.000485 0.009019 0.029558 0.013631
# 6 0.000056 0.007655 -0.002704 0.007553 0.013631 0.031479
#
#
# Mechanical properties :
#
#
# Convention : Reuss Voigt Hill
#
# Bulk Modulus (GPa) = 45.84891 58.02833 51.93862
# Shear Modulus (GPa) = 30.08973 39.64261 34.86617
#
# Velocity S-wave (km/s) = 3.58769 4.11801 3.86196
# Velocity P-wave (km/s) = 6.06423 6.88720 6.48878
#
# Compressibility (1/GPa) = 0.02181077
#
# Stress axis : x y z
#
# Youngs Moduli (GPa) = 70.23951 56.04927 68.18748
#
# Poissons Ratio (x) = 0.19011 0.34268
# Poissons Ratio (y) = 0.23824 0.27610
# Poissons Ratio (z) = 0.35300 0.22695
#
# Static dielectric constant tensor:
#      x y z
#    x 1.937890 -0.018530 -0.005890 
#    y -0.018530 1.900300 -0.018330 
#    z -0.005890 -0.018330 1.872030 
# 
# From -- ./inp_files/510426.got.cif
#   From: 2010.05.17/outbox.cif.g08.bks.cpg/sg2_256_cif.got.tgz:510426.got - 2010.06.03 11:33:40.
