data_PCOD9052505
_publ_section_title
;
Structure prediction by ZEFSAII (Michael W. Deem and Ramdas Pophale) SiO2 
 PCOD9052505
Probable space group: P -1
;
_chemical_formula_sum "Si O2"
_cell_formula_units_Z 10
_cell_length_a 7.583186
_cell_length_b 11.264292
_cell_length_c 7.772995
_cell_angle_alpha 138.643859
_cell_angle_beta 120.638862
_cell_angle_gamma 57.807949
_cell_volume 364.043369
_symmetry_space_group_name_H-M "P -1"
_symmetry_group_IT_number 2
_symmetry_cell_setting 'triclinic'
loop_
_space_group_symop_operation_xyz
x,y,z
-x,-y,-z
loop_
_atom_site_type_symbol
_atom_site_label
_atom_site_fract_x
_atom_site_fract_y
_atom_site_fract_z
Si Si1 0.000000 0.000000 0.000000
Si Si2 0.308891 0.608514 0.149111
Si Si3 0.443147 0.179675 0.050331
Si Si4 0.734060 0.970975 0.509024
Si Si5 0.931847 0.639419 0.769511
Si Si6 0.500000 0.500000 0.500000
O O1 0.889315 0.921688 0.692150
O O2 0.935087 0.842769 0.926574
O O3 0.369080 0.561440 0.322444
O O4 0.265161 0.830251 0.351174
O O5 0.500000 0.500000 0.000000
O O6 0.095860 0.568538 0.926961
O O7 0.634505 0.265450 0.197747
O O8 0.314299 0.354635 0.297678
O O9 0.279515 0.161384 0.802725
O O10 0.500000 0.000000 0.000000
O O11 0.500000 0.000000 0.500000
O O12 0.000000 0.500000 0.500000
#
# Coordination Sequence:
#
# PCOD9052505 Si02
#       6
#     1   2   2   2   2   1
#     4  10  26  46  74 108 148 194 258 316 374 460
#     4  11  25  47  72 110 151 200 256 313 385 459
#     4  12  26  48  77 107 150 202 254 311 386 458
#     4  11  24  48  76 106 151 204 253 315 391 452
#     4  11  27  48  73 109 151 197 256 313 385 455
#     4  12  26  46  74 112 152 194 260 316 372 466
#
# _framework density 27.469252999999998
#
# number of rings (size 3 to 8) (size 9 to 14) (size 15 to 20)
#    0.000    0.800    2.000    3.600    5.600    8.800 
#   10.800    0.000    0.000    0.000    0.000    0.000 
#    0.000    0.000    0.000    0.000    0.000    0.000 
#
# Total GULP energy -55676.547530 kJ/mol
# GULP energy per Si atom -5567.654753 kJ/mol
# Density = 2.740673 g / cm^3
# Si number density = 27.469253 Si / 1000 Ang^3
#
#
#
# Elastic Constant Matrix: (Units=GPa)
#
#
# Indices 1 2 3 4 5 6 
#
# 1 91.0923 33.8809 31.1034 -14.8656 16.5149 -3.5038
# 2 33.8809 210.7425 99.2811 -55.2762 10.7678 41.0738
# 3 31.1034 99.2811 265.5444 -48.9037 14.8081 2.8247
# 4 -14.8656 -55.2762 -48.9037 74.9306 2.6001 1.0214
# 5 16.5149 10.7678 14.8081 2.6001 47.2488 -0.9081
# 6 -3.5038 41.0738 2.8247 1.0214 -0.9081 49.4818
#
#
#
# Elastic Compliance Matrix: (Units=1/GPa)
#
#
# Indices 1 2 3 4 5 6 
#
# 1 0.012778 -0.001857 -0.000427 0.000990 -0.003918 0.002378
# 2 -0.001857 0.008802 -0.002019 0.004948 -0.001140 -0.007446
# 3 -0.000427 -0.002019 0.004917 0.001651 -0.000997 0.001313
# 4 0.000990 0.004948 0.001651 0.018440 -0.003094 -0.004569
# 5 -0.003918 -0.001140 -0.000997 -0.003094 0.023300 0.001217
# 6 0.002378 -0.007446 0.001313 -0.004569 0.001217 0.026600
#
#
# Mechanical properties :
#
#
# Convention : Reuss Voigt Hill
#
# Bulk Modulus (GPa) = 55.89621 99.54555 77.72088
# Shear Modulus (GPa) = 45.70147 61.20649 53.45398
#
# Velocity S-wave (km/s) = 4.08331 4.72548 4.41609
# Velocity P-wave (km/s) = 6.52871 8.12965 7.37276
#
# Compressibility (1/GPa) = 0.01789030
#
# Stress axis : x y z
#
# Youngs Moduli (GPa) = 78.26189 113.60691 203.39281
#
# Poissons Ratio (x) = 0.21093 0.08683
# Poissons Ratio (y) = 0.14531 0.41075
# Poissons Ratio (z) = 0.03341 0.22943
#
# Static dielectric constant tensor:
#      x y z
#    x 2.370520 -0.035330 0.011040 
#    y -0.035330 2.087160 -0.207110 
#    z 0.011040 -0.207110 2.137770 
# 
# From -- ./inp_files/183649.got.cif
#   From: 2010.05.17/outbox.cif.g08.bks.cpg/sg2_92_cif.got.tgz:183649.got - 2010.06.03 11:33:40.
