data_PCOD9052638
_publ_section_title
;
Structure prediction by ZEFSAII (Michael W. Deem and Ramdas Pophale) SiO2 
 PCOD9052638
Probable space group: P -1
;
_chemical_formula_sum "Si O2"
_cell_formula_units_Z 15
_cell_length_a 15.180967
_cell_length_b 12.317833
_cell_length_c 9.350371
_cell_angle_alpha 32.912392
_cell_angle_beta 117.950713
_cell_angle_gamma 132.452316
_cell_volume 679.749504
_symmetry_space_group_name_H-M "P -1"
_symmetry_group_IT_number 2
_symmetry_cell_setting 'triclinic'
loop_
_space_group_symop_operation_xyz
x,y,z
-x,-y,-z
loop_
_atom_site_type_symbol
_atom_site_label
_atom_site_fract_x
_atom_site_fract_y
_atom_site_fract_z
Si Si1 0.969684 0.293046 0.816473
Si Si2 0.733846 0.573309 0.709039
Si Si3 0.943805 0.555939 0.765473
Si Si4 0.139081 0.140438 0.217612
Si Si5 0.516851 0.953226 0.896239
Si Si6 0.289807 0.148059 0.868907
Si Si7 0.378629 0.273074 0.087235
Si Si8 0.500000 0.000000 0.500000
O O1 0.935333 0.378875 0.834829
O O2 0.000000 0.500000 0.500000
O O3 0.077288 0.261311 0.963366
O O4 0.846241 0.031854 0.970898
O O5 0.814573 0.499975 0.772798
O O6 0.811280 0.733758 0.728224
O O7 0.717206 0.734494 0.409155
O O8 0.599838 0.330454 0.910967
O O9 0.036023 0.846421 0.475245
O O10 0.000000 0.500000 0.000000
O O11 0.258018 0.199672 0.160287
O O12 0.514052 0.071732 0.611710
O O13 0.644981 0.984643 0.963872
O O14 0.500000 0.000000 0.000000
O O15 0.369379 0.338644 0.844869
O O16 0.398142 0.057167 0.340053
O O17 0.500000 0.500000 0.000000
#
# Coordination Sequence:
#
# PCOD9052638 Si02
#       8
#     2   2   2   2   2   2   2   1
#     4  12  27  46  73 107 148 192 247 305 371 447
#     4  12  25  45  73 105 147 186 250 300 372 443
#     4  12  25  44  72 104 146 194 238 303 368 439
#     4  12  26  46  72 108 145 194 246 303 373 445
#     4  11  26  45  74 107 144 198 248 307 378 446
#     4  11  25  47  69 108 144 188 247 307 364 451
#     4  11  27  46  74 100 144 192 239 304 376 436
#     4  10  26  48  68 106 146 182 250 300 366 450
#
# _framework density 22.066953999999999
#
# number of rings (size 3 to 8) (size 9 to 14) (size 15 to 20)
#    0.000    0.533    2.667    4.800    7.467    6.400 
#    0.000    0.000    0.000    0.000    0.000    0.000 
#    0.000    0.000    0.000    0.000    0.000    0.000 
#
# Total GULP energy -83560.458906 kJ/mol
# GULP energy per Si atom -5570.697260 kJ/mol
# Density = 2.201673 g / cm^3
# Si number density = 22.066954 Si / 1000 Ang^3
#
#
#
# Elastic Constant Matrix: (Units=GPa)
#
#
# Indices 1 2 3 4 5 6 
#
# 1 138.8375 29.6093 28.3856 19.5861 20.8334 7.9397
# 2 29.6093 115.8676 27.3805 18.6272 3.3848 4.7491
# 3 28.3856 27.3805 95.2151 29.0314 22.0244 16.3673
# 4 19.5861 18.6272 29.0314 47.5103 9.6453 -3.5758
# 5 20.8334 3.3848 22.0244 9.6453 31.0210 3.4859
# 6 7.9397 4.7491 16.3673 -3.5758 3.4859 44.5640
#
#
#
# Elastic Compliance Matrix: (Units=1/GPa)
#
#
# Indices 1 2 3 4 5 6 
#
# 1 0.008646 -0.001668 -0.000248 -0.001874 -0.004748 -0.001051
# 2 -0.001668 0.009884 -0.002081 -0.002413 0.002310 -0.000366
# 3 -0.000248 -0.002081 0.016480 -0.007924 -0.008194 -0.005782
# 4 -0.001874 -0.002413 -0.007924 0.028546 -0.002400 0.005980
# 5 -0.004748 0.002310 -0.008194 -0.002400 0.041719 0.000153
# 6 -0.001051 -0.000366 -0.005782 0.005980 0.000153 0.025257
#
#
# Mechanical properties :
#
#
# Convention : Reuss Voigt Hill
#
# Bulk Modulus (GPa) = 37.01348 57.85235 47.43292
# Shear Modulus (GPa) = 33.89137 42.25538 38.07338
#
# Velocity S-wave (km/s) = 3.92323 4.38067 4.15825
# Velocity P-wave (km/s) = 6.10999 7.20144 6.67805
#
# Compressibility (1/GPa) = 0.02701718
#
# Stress axis : x y z
#
# Youngs Moduli (GPa) = 115.66143 101.17517 60.67978
#
# Poissons Ratio (x) = 0.16874 0.01502
# Poissons Ratio (y) = 0.19290 0.12627
# Poissons Ratio (z) = 0.02863 0.21053
#
# Static dielectric constant tensor:
#      x y z
#    x 1.750530 -0.075290 -0.047200 
#    y -0.075290 1.799220 -0.023210 
#    z -0.047200 -0.023210 1.790570 
# 
# From -- ./inp_files/306114.got.cif
#   From: 2010.05.17/outbox.cif.g08.bks.cpg/sg2_154_cif.got.tgz:306114.got - 2010.06.03 11:33:40.
