data_PCOD9052179
_publ_section_title
;
Structure prediction by ZEFSAII (Michael W. Deem and Ramdas Pophale) SiO2 
 PCOD9052179
Probable space group: P -1
;
_chemical_formula_sum "Si O2"
_cell_formula_units_Z 16
_cell_length_a 9.175986
_cell_length_b 23.978987
_cell_length_c 18.105210
_cell_angle_alpha 161.626117
_cell_angle_beta 34.926628
_cell_angle_gamma 142.103009
_cell_volume 717.595300
_symmetry_space_group_name_H-M "P -1"
_symmetry_group_IT_number 2
_symmetry_cell_setting 'triclinic'
loop_
_space_group_symop_operation_xyz
x,y,z
-x,-y,-z
loop_
_atom_site_type_symbol
_atom_site_label
_atom_site_fract_x
_atom_site_fract_y
_atom_site_fract_z
Si Si1 0.353987 0.618776 0.596082
Si Si2 0.230929 0.559444 0.156246
Si Si3 0.833970 0.779474 0.669783
Si Si4 0.022438 0.324733 0.822147
Si Si5 0.933893 0.895102 0.093305
Si Si6 0.464697 0.647123 0.418817
Si Si7 0.904411 0.773035 0.790632
Si Si8 0.439370 0.750507 0.169422
O O1 0.560443 0.682395 0.649859
O O2 0.118184 0.743737 0.849982
O O3 0.494740 0.641648 0.487314
O O4 0.248217 0.417908 0.392786
O O5 0.304433 0.708154 0.250360
O O6 0.054693 0.642093 0.394828
O O7 0.500000 0.500000 0.000000
O O8 0.068239 0.401577 0.981890
O O9 0.850060 0.865625 0.852245
O O10 0.892080 0.926387 0.767231
O O11 0.771206 0.211263 0.757856
O O12 0.290907 0.253362 0.595842
O O13 0.000000 0.500000 0.000000
O O14 0.830201 0.852400 0.999614
O O15 0.686079 0.885265 0.235347
O O16 0.200891 0.731961 0.619919
O O17 0.455524 0.443196 0.138624
#
# Coordination Sequence:
#
# PCOD9052179 Si02
#       8
#     2   2   2   2   2   2   2   2
#     4  11  20  37  60  87 109 154 197 234 274 341
#     4  10  21  35  58  84 115 146 183 241 288 330
#     4  12  24  37  55  90 121 145 184 247 298 323
#     4   8  16  29  55  83 102 141 193 234 258 330
#     4  11  23  38  59  82 121 154 186 233 287 347
#     4   9  15  33  59  81 104 142 201 230 266 329
#     4  11  21  37  60  82 112 155 195 230 278 344
#     4  10  17  35  56  81 107 147 195 223 274 340
#
# _framework density 22.296690000000002
#
# number of rings (size 3 to 8) (size 9 to 14) (size 15 to 20)
#    0.000    2.000    2.500    5.625    0.000    0.500 
#    0.000    0.000    0.000    3.000    0.000    0.000 
#    0.000    0.000    0.000    0.000    0.000    0.000 
#
# Total GULP energy -89362.703442 kJ/mol
# GULP energy per Si atom -5585.168965 kJ/mol
# Density = 2.224594 g / cm^3
# Si number density = 22.296690 Si / 1000 Ang^3
#
#
#
# Elastic Constant Matrix: (Units=GPa)
#
#
# Indices 1 2 3 4 5 6 
#
# 1 78.8043 8.5522 4.5619 0.4951 15.1182 3.3818
# 2 8.5522 79.1027 15.6850 -4.3467 -4.6489 15.4544
# 3 4.5619 15.6850 27.2046 -3.5323 5.1134 1.3490
# 4 0.4951 -4.3467 -3.5323 30.9199 -9.2943 6.8746
# 5 15.1182 -4.6489 5.1134 -9.2943 10.2653 -2.5521
# 6 3.3818 15.4544 1.3490 6.8746 -2.5521 28.1166
#
#
#
# Elastic Compliance Matrix: (Units=1/GPa)
#
#
# Indices 1 2 3 4 5 6 
#
# 1 0.026469 -0.010653 0.011804 -0.021534 -0.068907 0.001116
# 2 -0.010653 0.023425 -0.018068 0.018691 0.049536 -0.010801
# 3 0.011804 -0.018068 0.055535 -0.017827 -0.068377 0.003999
# 4 -0.021534 0.018691 -0.017827 0.068792 0.107900 -0.013854
# 5 -0.068907 0.049536 -0.068377 0.107900 0.350543 -0.010223
# 6 0.001116 -0.010801 0.003999 -0.013854 -0.010223 0.043636
#
#
# Mechanical properties :
#
#
# Convention : Reuss Voigt Hill
#
# Bulk Modulus (GPa) = 13.96740 26.96777 20.46759
# Shear Modulus (GPa) = 7.98595 24.28119 16.13357
#
# Velocity S-wave (km/s) = 1.89458 3.30359 2.69287
# Velocity P-wave (km/s) = 3.32624 5.16457 4.34377
#
# Compressibility (1/GPa) = 0.07159528
#
# Stress axis : x y z
#
# Youngs Moduli (GPa) = 37.77950 42.68992 18.00665
#
# Poissons Ratio (x) = 0.45480 -0.21255
# Poissons Ratio (y) = 0.40248 0.32534
# Poissons Ratio (z) = -0.44595 0.77130
#
# Static dielectric constant tensor:
#      x y z
#    x 1.829480 0.002530 0.021020 
#    y 0.002530 1.855390 0.025870 
#    z 0.021020 0.025870 1.852690 
# 
# From -- ./inp_files/508047.got.cif
#   From: 2010.05.17/outbox.cif.g08.bks.cpg/sg2_255_cif.got.tgz:508047.got - 2010.06.03 11:33:40.
