data_PCOD9052687
_publ_section_title
;
Structure prediction by ZEFSAII (Michael W. Deem and Ramdas Pophale) SiO2 
 PCOD9052687
Probable space group: P -1
;
_chemical_formula_sum "Si O2"
_cell_formula_units_Z 15
_cell_length_a 11.985539
_cell_length_b 8.737238
_cell_length_c 9.360012
_cell_angle_alpha 130.789290
_cell_angle_beta 80.012375
_cell_angle_gamma 119.861064
_cell_volume 626.145189
_symmetry_space_group_name_H-M "P -1"
_symmetry_group_IT_number 2
_symmetry_cell_setting 'triclinic'
loop_
_space_group_symop_operation_xyz
x,y,z
-x,-y,-z
loop_
_atom_site_type_symbol
_atom_site_label
_atom_site_fract_x
_atom_site_fract_y
_atom_site_fract_z
Si Si1 0.949224 0.448074 0.815009
Si Si2 0.779680 0.643286 0.858539
Si Si3 0.309898 0.393871 0.432806
Si Si4 0.540602 0.885896 0.793025
Si Si5 0.463536 0.826787 0.268753
Si Si6 0.759515 0.983218 0.238495
Si Si7 0.000000 0.500000 0.500000
Si Si8 0.849193 0.929961 0.476569
O O1 0.878894 0.595559 0.892073
O O2 0.028556 0.496936 0.675128
O O3 0.851313 0.166516 0.662075
O O4 0.000000 0.500000 0.000000
O O5 0.793039 0.626049 0.675659
O O6 0.633524 0.436755 0.813631
O O7 0.801340 0.895755 0.038883
O O8 0.415945 0.665457 0.606211
O O9 0.375292 0.241106 0.270137
O O10 0.239891 0.276776 0.523019
O O11 0.601703 0.094932 0.790801
O O12 0.500000 0.000000 0.000000
O O13 0.500000 0.000000 0.500000
O O14 0.604569 0.884117 0.212569
O O15 0.858675 0.258135 0.402361
O O16 0.789994 0.863365 0.291747
O O17 0.000000 0.000000 0.500000
#
# Coordination Sequence:
#
# PCOD9052687 Si02
#       8
#     2   2   2   2   2   2   1   2
#     4  11  26  49  75 106 149 201 251 320 380 457
#     4  12  26  45  75 108 148 195 246 317 387 465
#     4  11  26  45  72 109 149 191 254 310 381 462
#     4  11  25  44  72 108 147 197 242 311 378 461
#     4  12  23  46  71 104 148 189 240 308 390 449
#     4  11  26  44  75 105 143 196 254 314 378 464
#     4  10  26  48  74 106 146 194 264 304 386 450
#     4  11  26  47  69 102 144 193 249 313 373 447
#
# _framework density 23.956105000000001
#
# number of rings (size 3 to 8) (size 9 to 14) (size 15 to 20)
#    0.000    0.800    1.333    5.200    9.333    0.533 
#    4.800    0.000    0.000    0.000    0.000    0.000 
#    0.000    0.000    0.000    0.000    0.000    0.000 
#
# Total GULP energy -83598.857131 kJ/mol
# GULP energy per Si atom -5573.257142 kJ/mol
# Density = 2.390158 g / cm^3
# Si number density = 23.956105 Si / 1000 Ang^3
#
#
#
# Elastic Constant Matrix: (Units=GPa)
#
#
# Indices 1 2 3 4 5 6 
#
# 1 74.5822 1.3137 19.2197 -17.9046 -4.2398 -14.7844
# 2 1.3137 98.7370 -0.2419 -26.4441 6.2128 -7.6353
# 3 19.2197 -0.2419 111.0492 -24.1390 -6.4505 -23.4514
# 4 -17.9046 -26.4441 -24.1390 41.2708 -16.7850 6.8321
# 5 -4.2398 6.2128 -6.4505 -16.7850 41.1982 -7.9224
# 6 -14.7844 -7.6353 -23.4514 6.8321 -7.9224 32.6029
#
#
#
# Elastic Compliance Matrix: (Units=1/GPa)
#
#
# Indices 1 2 3 4 5 6 
#
# 1 0.018748 0.003806 0.002689 0.014305 0.009657 0.010676
# 2 0.003806 0.014126 0.004294 0.014633 0.006156 0.006552
# 3 0.002689 0.004294 0.015020 0.014889 0.010440 0.012446
# 4 0.014305 0.014633 0.014889 0.057324 0.027912 0.015393
# 5 0.009657 0.006156 0.010440 0.027912 0.040685 0.017368
# 6 0.010676 0.006552 0.012446 0.015393 0.017368 0.046995
#
#
# Mechanical properties :
#
#
# Convention : Reuss Voigt Hill
#
# Bulk Modulus (GPa) = 14.39428 36.10570 25.24999
# Shear Modulus (GPa) = 25.70997 40.61951 33.16474
#
# Velocity S-wave (km/s) = 3.27954 4.12221 3.72478
# Velocity P-wave (km/s) = 4.51245 6.14501 5.39089
#
# Compressibility (1/GPa) = 0.06947204
#
# Stress axis : x y z
#
# Youngs Moduli (GPa) = 53.34034 70.79017 66.57693
#
# Poissons Ratio (x) = -0.26945 -0.17900
# Poissons Ratio (y) = -0.20303 -0.28589
# Poissons Ratio (z) = -0.14341 -0.30398
#
# Static dielectric constant tensor:
#      x y z
#    x 1.998290 -0.045230 -0.016670 
#    y -0.045230 1.900840 -0.062550 
#    z -0.016670 -0.062550 1.912550 
# 
# From -- ./inp_files/245909.got.cif
#   From: 2010.05.17/outbox.cif.g08.bks.cpg/sg2_123_cif.got.tgz:245909.got - 2010.06.03 11:33:40.
