data_PCOD9052637
_publ_section_title
;
Structure prediction by ZEFSAII (Michael W. Deem and Ramdas Pophale) SiO2 
 PCOD9052637
Probable space group: P -1
;
_chemical_formula_sum "Si O2"
_cell_formula_units_Z 15
_cell_length_a 8.755366
_cell_length_b 12.881257
_cell_length_c 16.135694
_cell_angle_alpha 142.243230
_cell_angle_beta 32.701576
_cell_angle_gamma 124.516832
_cell_volume 574.609416
_symmetry_space_group_name_H-M "P -1"
_symmetry_group_IT_number 2
_symmetry_cell_setting 'triclinic'
loop_
_space_group_symop_operation_xyz
x,y,z
-x,-y,-z
loop_
_atom_site_type_symbol
_atom_site_label
_atom_site_fract_x
_atom_site_fract_y
_atom_site_fract_z
Si Si1 0.943321 0.263839 0.545222
Si Si2 0.627691 0.235832 0.216473
Si Si3 0.000000 0.000000 0.500000
Si Si4 0.722206 0.344766 0.513833
Si Si5 0.621164 0.263883 0.054866
Si Si6 0.059697 0.343001 0.781794
Si Si7 0.119787 0.403766 0.116923
Si Si8 0.766822 0.862995 0.972987
O O1 0.279370 0.273891 0.401863
O O2 0.913179 0.100128 0.509451
O O3 0.844316 0.260975 0.493721
O O4 0.786670 0.456143 0.779300
O O5 0.720335 0.174553 0.041152
O O6 0.784263 0.384622 0.260376
O O7 0.751371 0.066546 0.111100
O O8 0.052788 0.182286 0.623879
O O9 0.648380 0.558176 0.690086
O O10 0.400348 0.325748 0.629692
O O11 0.948186 0.260068 0.283404
O O12 0.502347 0.149123 0.971452
O O13 0.879526 0.325009 0.933731
O O14 0.879826 0.523565 0.929642
O O15 0.290846 0.214913 0.961042
#
# Coordination Sequence:
#
# PCOD9052637 Si02
#       8
#     2   2   1   2   2   2   2   2
#     4  11  24  48  73 104 142 193 233 296 351 427
#     4  12  25  44  74 105 147 183 240 297 351 415
#     4  10  26  48  68 106 146 182 226 294 364 414
#     4  12  25  46  74 106 134 189 245 283 352 423
#     4  12  24  48  73 102 143 188 241 290 352 427
#     4  11  27  48  74 104 144 192 230 295 360 419
#     4  11  25  45  70 105 146 189 236 291 358 421
#     4  12  26  44  73 108 140 186 240 299 347 418
#
# _framework density 26.104689
#
# number of rings (size 3 to 8) (size 9 to 14) (size 15 to 20)
#    0.000    0.533    4.000    3.600    5.600    1.067 
#    4.800    0.000    0.000    0.000    0.000    0.000 
#    0.000    0.000    0.000    0.000    0.000    0.000 
#
# Total GULP energy -83817.866165 kJ/mol
# GULP energy per Si atom -5587.857744 kJ/mol
# Density = 2.604527 g / cm^3
# Si number density = 26.104689 Si / 1000 Ang^3
#
#
#
# Elastic Constant Matrix: (Units=GPa)
#
#
# Indices 1 2 3 4 5 6 
#
# 1 156.5957 42.5823 19.6971 -4.0892 -16.6919 -23.2777
# 2 42.5823 144.1685 22.5233 4.5296 -6.8893 -33.0281
# 3 19.6971 22.5233 77.1347 -20.2524 -5.0661 8.2128
# 4 -4.0892 4.5296 -20.2524 42.1133 0.8822 -5.6321
# 5 -16.6919 -6.8893 -5.0661 0.8822 17.3888 6.0347
# 6 -23.2777 -33.0281 8.2128 -5.6321 6.0347 57.3616
#
#
#
# Elastic Compliance Matrix: (Units=1/GPa)
#
#
# Indices 1 2 3 4 5 6 
#
# 1 0.007867 -0.001391 -0.001317 0.000424 0.005901 0.002001
# 2 -0.001391 0.009064 -0.003387 -0.002066 -0.000352 0.004973
# 3 -0.001317 -0.003387 0.017040 0.007750 0.003539 -0.004535
# 4 0.000424 -0.002066 0.007750 0.027808 0.000235 0.000579
# 5 0.005901 -0.000352 0.003539 0.000235 0.065865 -0.005221
# 6 0.002001 0.004973 -0.004535 0.000579 -0.005221 0.022364
#
#
# Mechanical properties :
#
#
# Convention : Reuss Voigt Hill
#
# Bulk Modulus (GPa) = 45.90943 60.83379 53.37161
# Shear Modulus (GPa) = 29.50594 42.91249 36.20922
#
# Velocity S-wave (km/s) = 3.36563 4.05885 3.72839
# Velocity P-wave (km/s) = 5.72085 6.73202 6.24693
#
# Compressibility (1/GPa) = 0.02178202
#
# Stress axis : x y z
#
# Youngs Moduli (GPa) = 127.10837 110.33060 58.68639
#
# Poissons Ratio (x) = 0.15345 0.07729
# Poissons Ratio (y) = 0.17679 0.19874
# Poissons Ratio (z) = 0.16740 0.37364
#
# Static dielectric constant tensor:
#      x y z
#    x 2.132750 -0.092050 -0.034310 
#    y -0.092050 2.101760 -0.046510 
#    z -0.034310 -0.046510 2.173720 
# 
# From -- ./inp_files/559985.got.cif
#   From: 2010.05.17/outbox.cif.g08.bks.cpg/sg2_280_cif.got.tgz:559985.got - 2010.06.03 11:33:40.
