data_PCOD9052063
_publ_section_title
;
Structure prediction by ZEFSAII (Michael W. Deem and Ramdas Pophale) SiO2 
 PCOD9052063
Probable space group: P -1
;
_chemical_formula_sum "Si O2"
_cell_formula_units_Z 16
_cell_length_a 9.353447
_cell_length_b 5.630525
_cell_length_c 28.825920
_cell_angle_alpha 124.344163
_cell_angle_beta 29.591428
_cell_angle_gamma 124.289551
_cell_volume 609.022435
_symmetry_space_group_name_H-M "P -1"
_symmetry_group_IT_number 2
_symmetry_cell_setting 'triclinic'
loop_
_space_group_symop_operation_xyz
x,y,z
-x,-y,-z
loop_
_atom_site_type_symbol
_atom_site_label
_atom_site_fract_x
_atom_site_fract_y
_atom_site_fract_z
Si Si1 0.676443 0.076263 0.657554
Si Si2 0.588652 0.939794 0.411437
Si Si3 0.711299 0.622102 0.515121
Si Si4 0.259165 0.292896 0.174371
Si Si5 0.801771 0.710929 0.236648
Si Si6 0.224621 0.282763 0.073827
Si Si7 0.198143 0.899554 0.269656
Si Si8 0.293222 0.917450 0.929186
O O1 0.374668 0.195932 0.746853
O O2 0.714301 0.000829 0.692162
O O3 0.951717 0.319655 0.590426
O O4 0.688600 0.810456 0.589357
O O5 0.418023 0.713519 0.472364
O O6 0.598359 0.731433 0.340392
O O7 0.926002 0.030740 0.341825
O O8 0.450894 0.207022 0.458976
O O9 0.289216 0.283268 0.109699
O O10 0.081458 0.548085 0.264628
O O11 0.551622 0.357069 0.130771
O O12 0.079447 0.967737 0.196880
O O13 0.930461 0.416536 0.163276
O O14 0.500000 0.500000 0.000000
O O15 0.242051 0.006022 0.007211
O O16 0.465841 0.940607 0.161933
O O17 0.000000 0.000000 0.000000
#
# Coordination Sequence:
#
# PCOD9052063 Si02
#       8
#     2   2   2   2   2   2   2   2
#     4  10  26  45  69 106 143 180 236 299 368 415
#     4  11  22  47  78 102 146 185 244 285 368 434
#     4  10  25  50  74 108 141 193 236 301 351 454
#     4  12  23  46  68  94 138 192 237 289 350 435
#     4  11  24  42  71 102 132 197 237 288 351 443
#     4  12  23  44  70  96 132 192 245 285 351 434
#     4  12  25  45  67 105 140 187 231 304 359 423
#     4  12  29  43  64 107 140 180 238 306 358 410
#
# _framework density 26.271609000000002
#
# number of rings (size 3 to 8) (size 9 to 14) (size 15 to 20)
#    0.000    0.750    5.000    1.875    3.500    6.000 
#    4.500    0.000    0.000    0.000    0.000    0.000 
#    0.000    0.000    0.000    0.000    0.000    0.000 
#
# Total GULP energy -89462.550490 kJ/mol
# GULP energy per Si atom -5591.409406 kJ/mol
# Density = 2.621181 g / cm^3
# Si number density = 26.271609 Si / 1000 Ang^3
#
#
#
# Elastic Constant Matrix: (Units=GPa)
#
#
# Indices 1 2 3 4 5 6 
#
# 1 192.2940 27.0342 47.3335 -0.6539 1.1889 -18.0188
# 2 27.0342 107.9579 39.4084 -2.9073 4.7065 -8.8272
# 3 47.3335 39.4084 113.9997 -2.0008 -4.9757 -0.5178
# 4 -0.6539 -2.9073 -2.0008 37.1772 -1.4842 8.9203
# 5 1.1889 4.7065 -4.9757 -1.4842 57.1425 0.5085
# 6 -18.0188 -8.8272 -0.5178 8.9203 0.5085 24.4384
#
#
#
# Elastic Compliance Matrix: (Units=1/GPa)
#
#
# Indices 1 2 3 4 5 6 
#
# 1 0.006332 -0.000261 -0.002556 -0.001260 -0.000410 0.004989
# 2 -0.000261 0.011064 -0.003760 -0.000321 -0.001276 0.003868
# 3 -0.002556 -0.003760 0.011199 0.001148 0.001399 -0.003454
# 4 -0.001260 -0.000321 0.001148 0.029815 0.001033 -0.011925
# 5 -0.000410 -0.001276 0.001399 0.001033 0.017776 -0.001481
# 6 0.004989 0.003868 -0.003454 -0.011925 -0.001481 0.050305
#
#
# Mechanical properties :
#
#
# Convention : Reuss Voigt Hill
#
# Bulk Modulus (GPa) = 64.76542 71.31154 68.03848
# Shear Modulus (GPa) = 34.53228 43.78330 39.15779
#
# Velocity S-wave (km/s) = 3.62944 4.08679 3.86489
# Velocity P-wave (km/s) = 6.50151 7.03363 6.77280
#
# Compressibility (1/GPa) = 0.01544034
#
# Stress axis : x y z
#
# Youngs Moduli (GPa) = 157.92832 90.38294 89.29564
#
# Poissons Ratio (x) = 0.02355 0.22827
# Poissons Ratio (y) = 0.04116 0.33578
# Poissons Ratio (z) = 0.40372 0.33986
#
# Static dielectric constant tensor:
#      x y z
#    x 2.011280 0.029520 -0.066720 
#    y 0.029520 2.083720 -0.036950 
#    z -0.066720 -0.036950 1.996590 
# 
# From -- ./inp_files/124646.got.cif
#   From: 2010.05.17/outbox.cif.g08.bks.cpg/sg2_63_cif.got.tgz:124646.got - 2010.06.03 11:33:40.
