data_PCOD9052943
_publ_section_title
;
Structure prediction by ZEFSAII (Michael W. Deem and Ramdas Pophale) SiO2 
 PCOD9052943
Probable space group: P -1
;
_chemical_formula_sum "Si O2"
_cell_formula_units_Z 16
_cell_length_a 13.425230
_cell_length_b 13.947445
_cell_length_c 19.569746
_cell_angle_alpha 31.090632
_cell_angle_beta 155.359929
_cell_angle_gamma 137.431475
_cell_volume 773.826824
_symmetry_space_group_name_H-M "P -1"
_symmetry_group_IT_number 2
_symmetry_cell_setting 'triclinic'
loop_
_space_group_symop_operation_xyz
x,y,z
-x,-y,-z
loop_
_atom_site_type_symbol
_atom_site_label
_atom_site_fract_x
_atom_site_fract_y
_atom_site_fract_z
Si Si1 0.008221 0.578650 0.035143
Si Si2 0.587687 0.773885 0.465851
Si Si3 0.987224 0.018127 0.365482
Si Si4 0.142126 0.334012 0.738254
Si Si5 0.258468 0.578689 0.461604
Si Si6 0.840314 0.020728 0.125695
Si Si7 0.651795 0.788032 0.346066
Si Si8 0.407922 0.597661 0.093876
O O1 0.230887 0.431522 0.295646
O O2 0.758040 0.557037 0.928324
O O3 0.000000 0.500000 0.000000
O O4 0.053434 0.789724 0.935122
O O5 0.375558 0.748858 0.400599
O O6 0.517716 0.806673 0.323671
O O7 0.751902 0.925647 0.496769
O O8 0.952225 0.936068 0.318708
O O9 0.893244 0.877932 0.445181
O O10 0.788771 0.213905 0.126601
O O11 0.421072 0.354497 0.889300
O O12 0.000000 0.500000 0.500000
O O13 0.010876 0.359515 0.713584
O O14 0.107961 0.137666 0.803110
O O15 0.276195 0.422358 0.509108
O O16 0.427939 0.477259 0.691744
O O17 0.548231 0.091678 0.902395
#
# Coordination Sequence:
#
# PCOD9052943 Si02
#       8
#     2   2   2   2   2   2   2   2
#     4  11  18  35  62  88 116 147 193 247 287 332
#     4  11  22  36  57  89 121 150 183 245 298 334
#     4  11  19  35  60  88 116 141 197 244 282 337
#     4  10  23  36  56  89 120 150 191 245 290 339
#     4  11  20  38  55  84 121 147 189 243 288 336
#     4  12  20  36  64  91 107 157 199 236 286 343
#     4  12  22  34  61  90 115 149 199 236 288 346
#     4  10  17  35  58  84 114 149 185 242 293 327
#
# _framework density 20.676459000000001
#
# number of rings (size 3 to 8) (size 9 to 14) (size 15 to 20)
#    0.000    1.000    7.500    2.625    0.000    0.000 
#    0.000    7.500    0.000    3.000    0.000    0.000 
#    0.000    0.000    0.000    0.000    0.000    0.000 
#
# Total GULP energy -89342.746656 kJ/mol
# GULP energy per Si atom -5583.921666 kJ/mol
# Density = 2.062940 g / cm^3
# Si number density = 20.676459 Si / 1000 Ang^3
#
#
#
# Elastic Constant Matrix: (Units=GPa)
#
#
# Indices 1 2 3 4 5 6 
#
# 1 117.9447 42.3467 13.2976 21.7777 17.1563 18.2056
# 2 42.3467 117.3025 14.2494 1.9263 16.1051 24.9256
# 3 13.2976 14.2494 18.3358 1.3739 3.4843 -1.9550
# 4 21.7777 1.9263 1.3739 20.3174 5.8733 6.6265
# 5 17.1563 16.1051 3.4843 5.8733 26.6145 3.7142
# 6 18.2056 24.9256 -1.9550 6.6265 3.7142 36.2971
#
#
#
# Elastic Compliance Matrix: (Units=1/GPa)
#
#
# Indices 1 2 3 4 5 6 
#
# 1 0.013207 -0.002876 -0.006157 -0.011773 -0.003017 -0.002523
# 2 -0.002876 0.013041 -0.008490 0.006754 -0.005206 -0.008670
# 3 -0.006157 -0.008490 0.067287 -0.000966 -0.001283 0.012850
# 4 -0.011773 0.006754 -0.000966 0.067395 -0.009837 -0.010082
# 5 -0.003017 -0.005206 -0.001283 -0.009837 0.044695 0.002242
# 6 -0.002523 -0.008670 0.012850 -0.010082 0.002242 0.037073
#
#
# Mechanical properties :
#
#
# Convention : Reuss Voigt Hill
#
# Bulk Modulus (GPa) = 17.09693 43.70781 30.40237
# Shear Modulus (GPa) = 16.82148 28.89176 22.85662
#
# Velocity S-wave (km/s) = 2.85539 3.74214 3.32843
# Velocity P-wave (km/s) = 4.37695 6.31318 5.43203
#
# Compressibility (1/GPa) = 0.05849005
#
# Stress axis : x y z
#
# Youngs Moduli (GPa) = 75.71479 76.68235 14.86175
#
# Poissons Ratio (x) = 0.22057 0.09150
# Poissons Ratio (y) = 0.21779 0.12617
# Poissons Ratio (z) = 0.46614 0.65100
#
# Static dielectric constant tensor:
#      x y z
#    x 1.820760 0.036010 -0.042140 
#    y 0.036010 1.762900 0.024890 
#    z -0.042140 0.024890 1.757320 
# 
# From -- ./inp_files/257132.got.cif
#   From: 2010.05.17/outbox.cif.g08.bks.cpg/sg2_129_cif.got.tgz:257132.got - 2010.06.03 11:33:40.
