data_PCOD9052658
_publ_section_title
;
Structure prediction by ZEFSAII (Michael W. Deem and Ramdas Pophale) SiO2 
 PCOD9052658
Probable space group: P -1
;
_chemical_formula_sum "Si O2"
_cell_formula_units_Z 15
_cell_length_a 8.554695
_cell_length_b 11.854445
_cell_length_c 10.754577
_cell_angle_alpha 39.523058
_cell_angle_beta 108.554747
_cell_angle_gamma 89.695554
_cell_volume 598.454933
_symmetry_space_group_name_H-M "P -1"
_symmetry_group_IT_number 2
_symmetry_cell_setting 'triclinic'
loop_
_space_group_symop_operation_xyz
x,y,z
-x,-y,-z
loop_
_atom_site_type_symbol
_atom_site_label
_atom_site_fract_x
_atom_site_fract_y
_atom_site_fract_z
Si Si1 0.190696 0.795070 0.582327
Si Si2 0.425452 0.231027 0.303429
Si Si3 0.174227 0.613024 0.238340
Si Si4 0.168176 0.872298 0.804275
Si Si5 0.000000 0.000000 0.000000
Si Si6 0.335213 0.192331 0.567423
Si Si7 0.345527 0.079284 0.997656
Si Si8 0.198641 0.409768 0.852756
O O1 0.398183 0.732354 0.654520
O O2 0.181672 0.801311 0.725584
O O3 0.129579 0.639588 0.638973
O O4 0.045925 0.005871 0.322216
O O5 0.289972 0.280566 0.342650
O O6 0.500000 0.000000 0.500000
O O7 0.332571 0.337233 0.064808
O O8 0.278585 0.381165 0.480096
O O9 0.972186 0.639970 0.126929
O O10 0.249707 0.698056 0.070835
O O11 0.138223 0.765894 0.210017
O O12 0.252613 0.032328 0.696374
O O13 0.839202 0.938381 0.061858
O O14 0.551093 0.066041 0.739308
O O15 0.298543 0.294195 0.854268
O O16 0.500000 0.000000 0.000000
#
# Coordination Sequence:
#
# PCOD9052658 Si02
#       8
#     2   2   2   2   1   2   2   2
#     4  11  23  38  64 104 139 187 226 274 348 423
#     4  12  22  38  64 102 146 180 220 280 343 422
#     4  11  25  46  70 102 137 185 234 294 346 411
#     4  11  23  41  67 100 143 178 228 280 344 421
#     4  10  26  48  70  98 134 180 242 296 346 408
#     4  12  25  45  73 103 139 184 228 286 357 418
#     4  11  25  48  73 100 141 182 239 302 348 413
#     4  11  23  43  70 103 144 186 230 283 353 418
#
# _framework density 25.064544000000001
#
# number of rings (size 3 to 8) (size 9 to 14) (size 15 to 20)
#    0.000    0.800    4.000    2.800    3.733    3.733 
#    2.400    2.000    0.000    0.000    0.000    0.000 
#    0.000    0.000    0.000    0.000    0.000    0.000 
#
# Total GULP energy -83683.533003 kJ/mol
# GULP energy per Si atom -5578.902200 kJ/mol
# Density = 2.500750 g / cm^3
# Si number density = 25.064544 Si / 1000 Ang^3
#
#
#
# Elastic Constant Matrix: (Units=GPa)
#
#
# Indices 1 2 3 4 5 6 
#
# 1 92.8786 24.1787 7.9258 2.5750 -12.9933 -4.6047
# 2 24.1787 118.4279 36.2878 -40.3584 -17.0965 -13.4463
# 3 7.9258 36.2878 62.1466 -20.4015 -7.6425 -10.6221
# 4 2.5750 -40.3584 -20.4015 50.8884 2.8557 3.8098
# 5 -12.9933 -17.0965 -7.6425 2.8557 27.9984 -5.9458
# 6 -4.6047 -13.4463 -10.6221 3.8098 -5.9458 27.7749
#
#
#
# Elastic Compliance Matrix: (Units=1/GPa)
#
#
# Indices 1 2 3 4 5 6 
#
# 1 0.012339 -0.002609 -0.000111 -0.003179 0.004900 0.002225
# 2 -0.002609 0.015094 -0.003331 0.009922 0.007318 0.005807
# 3 -0.000111 -0.003331 0.021520 0.005210 0.004721 0.006895
# 4 -0.003179 0.009922 0.005210 0.029337 0.003656 0.003027
# 5 0.004900 0.007318 0.004721 0.003656 0.046700 0.015656
# 6 0.002225 0.005807 0.006895 0.003027 0.015656 0.044757
#
#
# Mechanical properties :
#
#
# Convention : Reuss Voigt Hill
#
# Bulk Modulus (GPa) = 27.13652 45.58196 36.35924
# Shear Modulus (GPa) = 25.75553 35.00306 30.37930
#
# Velocity S-wave (km/s) = 3.20905 3.74105 3.48522
# Velocity P-wave (km/s) = 4.95790 6.07338 5.54377
#
# Compressibility (1/GPa) = 0.03685070
#
# Stress axis : x y z
#
# Youngs Moduli (GPa) = 81.04201 66.25025 46.46906
#
# Poissons Ratio (x) = 0.17282 0.00517
# Poissons Ratio (y) = 0.21140 0.15481
# Poissons Ratio (z) = 0.00902 0.22070
#
# Static dielectric constant tensor:
#      x y z
#    x 1.972640 -0.001770 -0.034820 
#    y -0.001770 2.030720 0.071030 
#    z -0.034820 0.071030 2.011950 
# 
# From -- ./inp_files/388767.got.cif
#   From: 2010.05.17/outbox.cif.g08.bks.cpg/sg2_195_cif.got.tgz:388767.got - 2010.06.03 11:33:40.
