data_PCOD9052339
_publ_section_title
;
Structure prediction by ZEFSAII (Michael W. Deem and Ramdas Pophale) SiO2 
 PCOD9052339
Probable space group: P -1
;
_chemical_formula_sum "Si O2"
_cell_formula_units_Z 12
_cell_length_a 5.041528
_cell_length_b 5.661039
_cell_length_c 14.843079
_cell_angle_alpha 100.373488
_cell_angle_beta 103.156420
_cell_angle_gamma 86.738508
_cell_volume 405.708099
_symmetry_space_group_name_H-M "P -1"
_symmetry_group_IT_number 2
_symmetry_cell_setting 'triclinic'
loop_
_space_group_symop_operation_xyz
x,y,z
-x,-y,-z
loop_
_atom_site_type_symbol
_atom_site_label
_atom_site_fract_x
_atom_site_fract_y
_atom_site_fract_z
Si Si1 0.754167 0.548447 0.949613
Si Si2 0.606463 0.236315 0.755035
Si Si3 0.374625 0.905473 0.854828
Si Si4 0.000000 0.000000 0.000000
Si Si5 0.000000 0.000000 0.500000
Si Si6 0.392189 0.633859 0.414492
Si Si7 0.984610 0.788352 0.682514
O O1 0.737737 0.448940 0.837317
O O2 0.650637 0.839503 0.926352
O O3 0.500000 0.500000 0.000000
O O4 0.955554 0.307663 0.984885
O O5 0.433156 0.278913 0.651479
O O6 0.421838 0.135331 0.813456
O O7 0.818341 0.020392 0.727113
O O8 0.254485 0.733231 0.758111
O O9 0.141518 0.938179 0.910403
O O10 0.761484 0.137483 0.543736
O O11 0.948936 0.170502 0.414304
O O12 0.500000 0.500000 0.500000
O O13 0.194830 0.446275 0.340440
#
# Coordination Sequence:
#
# PCOD9052339 Si02
#       7
#     2   2   2   1   1   2   2
#     4  12  27  49  80 115 155 209 273 337 409 481
#     4  11  27  48  75 115 158 214 270 337 402 485
#     4  12  27  48  78 111 165 208 270 338 403 489
#     4  12  28  50  76 114 154 212 266 334 408 482
#     4  10  26  44  78 116 158 208 270 326 398 478
#     4  11  26  49  82 117 166 215 275 334 403 486
#     4  11  26  49  74 117 162 212 272 329 405 483
#
# _framework density 29.577918
#
# number of rings (size 3 to 8) (size 9 to 14) (size 15 to 20)
#    0.000    0.667    0.000    6.000    7.000    8.000 
#    0.000    0.000    0.000    0.000    0.000    0.000 
#    0.000    0.000    0.000    0.000    0.000    0.000 
#
# Total GULP energy -66910.647346 kJ/mol
# GULP energy per Si atom -5575.887279 kJ/mol
# Density = 2.951060 g / cm^3
# Si number density = 29.577918 Si / 1000 Ang^3
#
#
#
# Elastic Constant Matrix: (Units=GPa)
#
#
# Indices 1 2 3 4 5 6 
#
# 1 126.0614 38.6328 59.1354 -18.1274 -15.9445 -13.6992
# 2 38.6328 134.6896 39.0555 -0.5691 -18.3982 -6.1602
# 3 59.1354 39.0555 240.8109 -63.4250 -50.2846 -13.6802
# 4 -18.1274 -0.5691 -63.4250 80.3697 -3.5524 4.5301
# 5 -15.9445 -18.3982 -50.2846 -3.5524 64.9652 -7.3206
# 6 -13.6992 -6.1602 -13.6802 4.5301 -7.3206 65.5891
#
#
#
# Elastic Compliance Matrix: (Units=1/GPa)
#
#
# Indices 1 2 3 4 5 6 
#
# 1 0.009715 -0.002156 -0.001542 0.000908 0.000802 0.001532
# 2 -0.002156 0.008466 -0.000856 -0.001070 0.001189 0.000373
# 3 -0.001542 -0.000856 0.007401 0.005656 0.005572 0.001372
# 4 0.000908 -0.001070 0.005656 0.017300 0.005319 0.000667
# 5 0.000802 0.001189 0.005572 0.005319 0.020914 0.003408
# 6 0.001532 0.000373 0.001372 0.000667 0.003408 0.016222
#
#
# Mechanical properties :
#
#
# Convention : Reuss Voigt Hill
#
# Bulk Modulus (GPa) = 60.70146 86.13436 73.41791
# Shear Modulus (GPa) = 52.84330 66.50069 59.67199
#
# Velocity S-wave (km/s) = 4.23138 4.74679 4.49648
# Velocity P-wave (km/s) = 6.66632 7.69591 7.19955
#
# Compressibility (1/GPa) = 0.01647407
#
# Stress axis : x y z
#
# Youngs Moduli (GPa) = 102.92932 118.11861 135.11186
#
# Poissons Ratio (x) = 0.25465 0.20841
# Poissons Ratio (y) = 0.22191 0.11565
# Poissons Ratio (z) = 0.15877 0.10110
#
# Static dielectric constant tensor:
#      x y z
#    x -1.054310 -2.835000 -1.710190 
#    y -2.835000 -0.162390 -1.752420 
#    z -1.710190 -1.752420 1.153360 
# 
# From -- ./inp_files/3844.got.cif
#   From: 2010.05.17/outbox.cif.g08.bks.cpg/sg2_2_cif.got.tgz:3844.got - 2010.06.03 11:33:40.
