data_PCOD9052394
_publ_section_title
;
Structure prediction by ZEFSAII (Michael W. Deem and Ramdas Pophale) SiO2 
 PCOD9052394
Probable space group: P -1
;
_chemical_formula_sum "Si O2"
_cell_formula_units_Z 12
_cell_length_a 8.772454
_cell_length_b 7.386370
_cell_length_c 13.958716
_cell_angle_alpha 34.109552
_cell_angle_beta 104.696885
_cell_angle_gamma 109.026223
_cell_volume 479.276622
_symmetry_space_group_name_H-M "P -1"
_symmetry_group_IT_number 2
_symmetry_cell_setting 'triclinic'
loop_
_space_group_symop_operation_xyz
x,y,z
-x,-y,-z
loop_
_atom_site_type_symbol
_atom_site_label
_atom_site_fract_x
_atom_site_fract_y
_atom_site_fract_z
Si Si1 0.529092 0.140326 0.179748
Si Si2 0.012713 0.339352 0.467713
Si Si3 0.891495 0.182479 0.173906
Si Si4 0.791869 0.739659 0.164146
Si Si5 0.724017 0.310655 0.784411
Si Si6 0.549099 0.734197 0.692696
O O1 0.721796 0.199165 0.189002
O O2 0.426347 0.060104 0.295429
O O3 0.447984 0.882417 0.200242
O O4 0.500000 0.500000 0.000000
O O5 0.113776 0.556533 0.672283
O O6 0.179870 0.487122 0.376007
O O7 0.000000 0.500000 0.500000
O O8 0.010103 0.967586 0.663344
O O9 0.831226 0.936309 0.183612
O O10 0.000000 0.500000 0.000000
O O11 0.608450 0.559119 0.196305
O O12 0.818249 0.032465 0.959934
O O13 0.685080 0.554209 0.753761
O O14 0.500000 0.000000 0.500000
#
# Coordination Sequence:
#
# PCOD9052394 Si02
#       6
#     2   2   2   2   2   2
#     4  12  26  44  81 110 146 196 252 304 379 436
#     4  10  26  45  75 104 145 203 243 302 377 437
#     4  11  26  48  75 110 152 196 247 307 375 447
#     4  11  24  48  72 108 151 195 248 305 374 443
#     4  12  25  51  76 109 153 195 249 318 363 447
#     4  12  27  44  76 114 148 193 254 309 371 446
#
# _framework density 25.037732999999999
#
# number of rings (size 3 to 8) (size 9 to 14) (size 15 to 20)
#    0.000    0.667    3.333    3.000    9.333    4.000 
#    0.000    2.500    0.000    0.000    0.000    0.000 
#    0.000    0.000    0.000    0.000    0.000    0.000 
#
# Total GULP energy -67050.558377 kJ/mol
# GULP energy per Si atom -5587.546531 kJ/mol
# Density = 2.498075 g / cm^3
# Si number density = 25.037733 Si / 1000 Ang^3
#
#
#
# Elastic Constant Matrix: (Units=GPa)
#
#
# Indices 1 2 3 4 5 6 
#
# 1 141.7753 47.9682 56.9724 -11.3927 6.3934 4.9734
# 2 47.9682 100.0267 15.6584 3.4411 3.6797 -2.9682
# 3 56.9724 15.6584 208.5804 7.2201 4.0158 -2.7862
# 4 -11.3927 3.4411 7.2201 27.7841 0.1116 -4.6021
# 5 6.3934 3.6797 4.0158 0.1116 36.5836 0.8240
# 6 4.9734 -2.9682 -2.7862 -4.6021 0.8240 33.2855
#
#
#
# Elastic Compliance Matrix: (Units=1/GPa)
#
#
# Indices 1 2 3 4 5 6 
#
# 1 0.010196 -0.004664 -0.002614 0.005208 -0.001010 -0.001413
# 2 -0.004664 0.012331 0.000492 -0.003335 -0.000500 0.001389
# 3 -0.002614 0.000492 0.005569 -0.002486 -0.000209 0.000562
# 4 0.005208 -0.003335 -0.002486 0.039892 -0.000519 0.004245
# 5 -0.001010 -0.000500 -0.000209 -0.000519 0.027601 -0.000666
# 6 -0.001413 0.001389 0.000562 0.004245 -0.000666 0.031028
#
#
# Mechanical properties :
#
#
# Convention : Reuss Voigt Hill
#
# Bulk Modulus (GPa) = 68.85692 76.84230 72.84961
# Shear Modulus (GPa) = 34.47533 41.51621 37.99577
#
# Velocity S-wave (km/s) = 3.71473 4.07645 3.89979
# Velocity P-wave (km/s) = 6.77938 7.27419 7.03114
#
# Compressibility (1/GPa) = 0.01452287
#
# Stress axis : x y z
#
# Youngs Moduli (GPa) = 98.08120 81.09416 179.56224
#
# Poissons Ratio (x) = 0.37823 0.46945
# Poissons Ratio (y) = 0.45745 -0.08832
# Poissons Ratio (z) = 0.25643 -0.03989
#
# Static dielectric constant tensor:
#      x y z
#    x 2.064620 -0.045010 -0.024100 
#    y -0.045010 1.987430 0.011550 
#    z -0.024100 0.011550 2.052530 
# 
# From -- ./inp_files/488800.got.cif
#   From: 2010.05.17/outbox.cif.g08.bks.cpg/sg2_245_cif.got.tgz:488800.got - 2010.06.03 11:33:40.
