data_PCOD9052491
_publ_section_title
;
Structure prediction by ZEFSAII (Michael W. Deem and Ramdas Pophale) SiO2 
 PCOD9052491
Probable space group: P -1
;
_chemical_formula_sum "Si O2"
_cell_formula_units_Z 16
_cell_length_a 18.770338
_cell_length_b 25.654844
_cell_length_c 5.107571
_cell_angle_alpha 86.465100
_cell_angle_beta 77.424424
_cell_angle_gamma 18.647539
_cell_volume 680.143587
_symmetry_space_group_name_H-M "P -1"
_symmetry_group_IT_number 2
_symmetry_cell_setting 'triclinic'
loop_
_space_group_symop_operation_xyz
x,y,z
-x,-y,-z
loop_
_atom_site_type_symbol
_atom_site_label
_atom_site_fract_x
_atom_site_fract_y
_atom_site_fract_z
Si Si1 0.445892 0.979654 0.437619
Si Si2 0.471322 0.649464 0.665913
Si Si3 0.546908 0.172732 0.748893
Si Si4 0.767961 0.968971 0.133015
Si Si5 0.010670 0.593372 0.119241
Si Si6 0.724760 0.164909 0.733325
Si Si7 0.668185 0.369734 0.156910
Si Si8 0.003827 0.321714 0.391249
O O1 0.729257 0.760632 0.260102
O O2 0.500000 0.000000 0.500000
O O3 0.271539 0.063299 0.734944
O O4 0.278186 0.106257 0.276417
O O5 0.454225 0.680035 0.371888
O O6 0.311354 0.706948 0.825523
O O7 0.772795 0.438592 0.556261
O O8 0.355938 0.770774 0.922666
O O9 0.699688 0.121814 0.695193
O O10 0.602416 0.115785 0.430012
O O11 0.249311 0.390678 0.968376
O O12 0.660298 0.054396 0.904825
O O13 0.059698 0.788229 0.991744
O O14 0.027855 0.614334 0.368282
O O15 0.022531 0.627199 0.865849
O O16 0.000000 0.000000 0.500000
O O17 0.500000 0.500000 0.500000
O O18 0.500000 0.500000 0.000000
#
# Coordination Sequence:
#
# PCOD9052491 Si02
#       8
#     2   2   2   2   2   2   2   2
#     4  10  26  46  73  99 134 180 240 296 343 413
#     4  12  22  40  68  98 133 183 225 274 337 398
#     4  12  24  44  69 100 149 179 226 284 346 421
#     4  12  27  46  69 103 141 184 225 287 358 409
#     4  11  23  43  69 102 134 181 229 287 346 398
#     4  12  23  40  65 100 135 182 229 270 329 410
#     4  12  26  45  67 101 142 183 231 281 344 410
#     4  11  21  42  68 102 134 173 239 286 336 397
#
# _framework density 23.524446000000001
#
# number of rings (size 3 to 8) (size 9 to 14) (size 15 to 20)
#    0.000    0.500    2.500    6.000    0.000    7.000 
#    0.000    0.000    0.000    0.000    0.000    0.000 
#    0.000    0.000    0.000    0.000    0.000    0.000 
#
# Total GULP energy -89653.344222 kJ/mol
# GULP energy per Si atom -5603.334014 kJ/mol
# Density = 2.347090 g / cm^3
# Si number density = 23.524446 Si / 1000 Ang^3
#
#
#
# Elastic Constant Matrix: (Units=GPa)
#
#
# Indices 1 2 3 4 5 6 
#
# 1 91.3821 12.8014 18.4177 14.7774 -21.1220 3.8350
# 2 12.8014 120.1637 23.0615 13.1446 -19.2001 -23.5366
# 3 18.4177 23.0615 87.5904 3.0176 -2.0629 -15.0930
# 4 14.7774 13.1446 3.0176 48.0196 -4.9460 -18.5681
# 5 -21.1220 -19.2001 -2.0629 -4.9460 55.4468 6.3482
# 6 3.8350 -23.5366 -15.0930 -18.5681 6.3482 36.4047
#
#
#
# Elastic Compliance Matrix: (Units=1/GPa)
#
#
# Indices 1 2 3 4 5 6 
#
# 1 0.014455 -0.000768 -0.003841 -0.006478 0.005420 -0.007861
# 2 -0.000768 0.010196 -0.001499 -0.000038 0.002539 0.005590
# 3 -0.003841 -0.001499 0.013688 0.003285 -0.001997 0.007134
# 4 -0.006478 -0.000038 0.003285 0.029077 -0.001729 0.017152
# 5 0.005420 0.002539 -0.001997 -0.001729 0.021248 -0.004344
# 6 -0.007861 0.005590 0.007134 0.017152 -0.004344 0.044375
#
#
# Mechanical properties :
#
#
# Convention : Reuss Voigt Hill
#
# Bulk Modulus (GPa) = 38.27905 45.29972 41.78938
# Shear Modulus (GPa) = 32.47561 44.29792 38.38677
#
# Velocity S-wave (km/s) = 3.71955 4.34413 4.04391
# Velocity P-wave (km/s) = 5.89526 6.66785 6.29342
#
# Compressibility (1/GPa) = 0.02612395
#
# Stress axis : x y z
#
# Youngs Moduli (GPa) = 69.18024 98.07684 73.05573
#
# Poissons Ratio (x) = 0.07531 0.28061
# Poissons Ratio (y) = 0.05312 0.10950
# Poissons Ratio (z) = 0.26572 0.14700
#
# Static dielectric constant tensor:
#      x y z
#    x 1.921740 0.006720 0.022660 
#    y 0.006720 1.915510 0.048690 
#    z 0.022660 0.048690 1.876370 
# 
# From -- ./inp_files/112817.got.cif
#   From: 2010.05.17/outbox.cif.g08.bks.cpg/sg2_57_cif.got.tgz:112817.got - 2010.06.03 11:33:40.
