data_PCOD9052613
_publ_section_title
;
Structure prediction by ZEFSAII (Michael W. Deem and Ramdas Pophale) SiO2 
 PCOD9052613
Probable space group: P -1
;
_chemical_formula_sum "Si O2"
_cell_formula_units_Z 12
_cell_length_a 8.549187
_cell_length_b 9.403872
_cell_length_c 12.874579
_cell_angle_alpha 38.986952
_cell_angle_beta 72.699030
_cell_angle_gamma 52.555145
_cell_volume 484.166961
_symmetry_space_group_name_H-M "P -1"
_symmetry_group_IT_number 2
_symmetry_cell_setting 'triclinic'
loop_
_space_group_symop_operation_xyz
x,y,z
-x,-y,-z
loop_
_atom_site_type_symbol
_atom_site_label
_atom_site_fract_x
_atom_site_fract_y
_atom_site_fract_z
Si Si1 0.116285 0.621298 0.877415
Si Si2 0.839860 0.594534 0.231759
Si Si3 0.421286 0.847550 0.895260
Si Si4 0.538011 0.838988 0.474877
Si Si5 0.183512 0.660403 0.150067
Si Si6 0.735808 0.241316 0.559990
O O1 0.188317 0.525732 0.798605
O O2 0.334132 0.414940 0.009029
O O3 0.934361 0.961112 0.739558
O O4 0.000000 0.500000 0.000000
O O5 0.832271 0.400382 0.425056
O O6 0.057191 0.544437 0.208236
O O7 0.661738 0.924979 0.119984
O O8 0.378969 0.045867 0.690230
O O9 0.333332 0.674280 0.037428
O O10 0.702257 0.503548 0.671159
O O11 0.333082 0.885659 0.442350
O O12 0.500000 0.000000 0.500000
O O13 0.000000 0.000000 0.000000
O O14 0.500000 0.500000 0.500000
#
# Coordination Sequence:
#
# PCOD9052613 Si02
#       6
#     2   2   2   2   2   2
#     4  12  24  44  76 114 149 197 261 320 386 460
#     4  11  24  49  75 113 153 199 266 320 384 456
#     4  11  25  51  77 111 157 207 254 326 383 461
#     4  12  26  50  75 112 159 198 259 320 390 458
#     4  10  26  47  75 109 153 204 253 309 389 460
#     4  12  25  50  79 114 151 200 256 329 384 457
#
# _framework density 24.784838000000001
#
# number of rings (size 3 to 8) (size 9 to 14) (size 15 to 20)
#    0.000    0.667    3.333    3.000    0.000    8.667 
#    6.000    0.000    0.000    0.000    0.000    0.000 
#    0.000    0.000    0.000    0.000    0.000    0.000 
#
# Total GULP energy -66889.616641 kJ/mol
# GULP energy per Si atom -5574.134720 kJ/mol
# Density = 2.472843 g / cm^3
# Si number density = 24.784838 Si / 1000 Ang^3
#
#
#
# Elastic Constant Matrix: (Units=GPa)
#
#
# Indices 1 2 3 4 5 6 
#
# 1 101.8391 13.7357 62.7032 -4.3694 -40.6971 -29.8507
# 2 13.7357 112.9598 47.0809 -15.5190 5.6060 -15.4617
# 3 62.7032 47.0809 200.9844 -22.9569 -19.0768 -34.0297
# 4 -4.3694 -15.5190 -22.9569 40.4525 -8.4866 -0.4751
# 5 -40.6971 5.6060 -19.0768 -8.4866 55.3013 -0.6472
# 6 -29.8507 -15.4617 -34.0297 -0.4751 -0.6472 38.6020
#
#
#
# Elastic Compliance Matrix: (Units=1/GPa)
#
#
# Indices 1 2 3 4 5 6 
#
# 1 0.022975 0.000220 -0.002283 0.005040 0.017061 0.016190
# 2 0.000220 0.010397 -0.001821 0.002788 -0.001061 0.002745
# 3 -0.002283 -0.001821 0.007378 0.003637 0.001656 0.004082
# 4 0.005040 0.002788 0.003637 0.030486 0.009462 0.008754
# 5 0.017061 -0.001061 0.001656 0.009462 0.032943 0.014896
# 6 0.016190 0.002745 0.004082 0.008754 0.014896 0.043480
#
#
# Mechanical properties :
#
#
# Convention : Reuss Voigt Hill
#
# Bulk Modulus (GPa) = 30.32131 73.64698 51.98415
# Shear Modulus (GPa) = 30.04408 46.35540 38.19974
#
# Velocity S-wave (km/s) = 3.48544 4.32940 3.93014
# Velocity P-wave (km/s) = 5.33461 7.40072 6.45092
#
# Compressibility (1/GPa) = 0.03298011
#
# Stress axis : x y z
#
# Youngs Moduli (GPa) = 43.52536 96.18568 135.53661
#
# Poissons Ratio (x) = -0.02111 0.30943
# Poissons Ratio (y) = -0.00955 0.24686
# Poissons Ratio (z) = 0.09937 0.17518
#
# Static dielectric constant tensor:
#      x y z
#    x 1.920510 0.195350 0.036860 
#    y 0.195350 3.160060 0.200600 
#    z 0.036860 0.200600 2.127630 
# 
# From -- ./inp_files/380847.got.cif
#   From: 2010.05.17/outbox.cif.g08.bks.cpg/sg2_191_cif.got.tgz:380847.got - 2010.06.03 11:33:40.
