data_PCOD9052027
_publ_section_title
;
Structure prediction by ZEFSAII (Michael W. Deem and Ramdas Pophale) SiO2 
 PCOD9052027
Probable space group: P -1
;
_chemical_formula_sum "Si O2"
_cell_formula_units_Z 12
_cell_length_a 17.772194
_cell_length_b 5.023901
_cell_length_c 5.228356
_cell_angle_alpha 94.672287
_cell_angle_beta 78.763995
_cell_angle_gamma 75.204645
_cell_volume 438.430812
_symmetry_space_group_name_H-M "P -1"
_symmetry_group_IT_number 2
_symmetry_cell_setting 'triclinic'
loop_
_space_group_symop_operation_xyz
x,y,z
-x,-y,-z
loop_
_atom_site_type_symbol
_atom_site_label
_atom_site_fract_x
_atom_site_fract_y
_atom_site_fract_z
Si Si1 0.818099 0.018133 0.530109
Si Si2 0.841289 0.535323 0.844832
Si Si3 0.010531 0.169729 0.759003
Si Si4 0.578452 0.183178 0.172551
Si Si5 0.401409 0.482338 0.304815
Si Si6 0.707059 0.756160 0.314550
O O1 0.815372 0.844089 0.774854
O O2 0.744350 0.998842 0.407007
O O3 0.898030 0.832497 0.322809
O O4 0.828454 0.312532 0.628365
O O5 0.936424 0.444428 0.827383
O O6 0.781049 0.533585 0.116060
O O7 0.000000 0.000000 0.500000
O O8 0.000000 0.000000 0.000000
O O9 0.483889 0.236680 0.199019
O O10 0.584375 0.343069 0.444984
O O11 0.635571 0.878523 0.170721
O O12 0.609443 0.326166 0.923705
O O13 0.331333 0.355708 0.428880
#
# Coordination Sequence:
#
# PCOD9052027 Si02
#       6
#     2   2   2   2   2   2
#     4  11  29  50  77 116 157 210 262 330 395 472
#     4  11  29  50  77 116 157 210 262 330 395 472
#     4  10  25  51  79 107 158 210 268 317 393 474
#     4  10  25  49  77 110 155 210 263 320 397 483
#     4  10  25  49  77 110 155 210 263 320 397 483
#     4  12  29  43  82 114 166 196 272 327 413 454
#
# _framework density 27.370342000000001
#
# number of rings (size 3 to 8) (size 9 to 14) (size 15 to 20)
#    0.000    1.333    0.000    1.000   18.667    0.667 
#    0.000    5.000    0.000    3.000    0.000    0.000 
#    0.000    0.000    0.000    0.000    0.000    0.000 
#
# Total GULP energy -67386.343017 kJ/mol
# GULP energy per Si atom -5615.528585 kJ/mol
# Density = 2.730805 g / cm^3
# Si number density = 27.370342 Si / 1000 Ang^3
#
#
#
# Elastic Constant Matrix: (Units=GPa)
#
#
# Indices 1 2 3 4 5 6 
#
# 1 154.7592 46.5975 19.7504 -4.2512 -37.9887 -30.7678
# 2 46.5975 73.1345 39.3047 -11.7011 -8.1502 -20.2944
# 3 19.7504 39.3047 160.1137 -11.9130 -30.5341 -5.9842
# 4 -4.2512 -11.7011 -11.9130 57.9326 3.2609 0.7507
# 5 -37.9887 -8.1502 -30.5341 3.2609 48.9213 -3.2700
# 6 -30.7678 -20.2944 -5.9842 0.7507 -3.2700 49.1499
#
#
#
# Elastic Compliance Matrix: (Units=1/GPa)
#
#
# Indices 1 2 3 4 5 6 
#
# 1 0.011403 -0.005804 0.002011 -0.000533 0.009555 0.005630
# 2 -0.005804 0.021198 -0.004853 0.003024 -0.003924 0.004221
# 3 0.002011 -0.004853 0.008400 0.000548 0.006004 0.000669
# 4 -0.000533 0.003024 0.000548 0.017978 -0.000722 0.000659
# 5 0.009555 -0.003924 0.006004 -0.000722 0.031483 0.007197
# 6 0.005630 0.004221 0.000669 0.000659 0.007197 0.026164
#
#
# Mechanical properties :
#
#
# Convention : Reuss Voigt Hill
#
# Bulk Modulus (GPa) = 42.18106 66.59029 54.38568
# Shear Modulus (GPa) = 35.25613 50.02442 42.64027
#
# Velocity S-wave (km/s) = 3.59292 4.27978 3.95131
# Velocity P-wave (km/s) = 5.71462 6.98600 6.38205
#
# Compressibility (1/GPa) = 0.02370732
#
# Stress axis : x y z
#
# Youngs Moduli (GPa) = 87.69890 47.17514 119.05360
#
# Poissons Ratio (x) = 0.27381 -0.23943
# Poissons Ratio (y) = 0.50902 0.57779
# Poissons Ratio (z) = -0.17637 0.22895
#
# Static dielectric constant tensor:
#      x y z
#    x 2.126460 -0.037900 -0.004230 
#    y -0.037900 2.130970 0.039490 
#    z -0.004230 0.039490 2.132850 
# 
# From -- ./inp_files/102638.got.cif
#   From: 2010.05.17/outbox.cif.g08.bks.cpg/sg2_52_cif.got.tgz:102638.got - 2010.06.03 11:33:40.
