data_PCOD9052193
_publ_section_title
;
Structure prediction by ZEFSAII (Michael W. Deem and Ramdas Pophale) SiO2 
 PCOD9052193
Probable space group: P -1
;
_chemical_formula_sum "Si O2"
_cell_formula_units_Z 15
_cell_length_a 8.775557
_cell_length_b 12.495713
_cell_length_c 12.647323
_cell_angle_alpha 138.186275
_cell_angle_beta 59.323363
_cell_angle_gamma 131.666541
_cell_volume 690.428157
_symmetry_space_group_name_H-M "P -1"
_symmetry_group_IT_number 2
_symmetry_cell_setting 'triclinic'
loop_
_space_group_symop_operation_xyz
x,y,z
-x,-y,-z
loop_
_atom_site_type_symbol
_atom_site_label
_atom_site_fract_x
_atom_site_fract_y
_atom_site_fract_z
Si Si1 0.989598 0.008008 0.636878
Si Si2 0.860372 0.335524 0.233412
Si Si3 0.722994 0.615108 0.554203
Si Si4 0.392417 0.042093 0.876822
Si Si5 0.500000 0.500000 0.000000
Si Si6 0.596257 0.900177 0.324543
Si Si7 0.761686 0.700660 0.845736
Si Si8 0.142419 0.693980 0.036286
O O1 0.835117 0.813971 0.603820
O O2 0.931149 0.162518 0.800567
O O3 0.000000 0.000000 0.500000
O O4 0.206113 0.068972 0.658906
O O5 0.849741 0.510760 0.408067
O O6 0.037070 0.308886 0.204110
O O7 0.650540 0.146942 0.192894
O O8 0.887671 0.346172 0.106518
O O9 0.500000 0.500000 0.500000
O O10 0.697418 0.619587 0.692102
O O11 0.357019 0.006794 0.738744
O O12 0.619676 0.205621 0.943005
O O13 0.233096 0.103616 0.019504
O O14 0.524959 0.318611 0.819479
O O15 0.608169 0.604766 0.927577
O O16 0.500000 0.000000 0.500000
O O17 0.000000 0.500000 0.000000
#
# Coordination Sequence:
#
# PCOD9052193 Si02
#       8
#     2   2   2   2   1   2   2   2
#     4  12  27  47  70 107 148 193 246 305 372 441
#     4  12  25  44  73 104 140 191 240 298 374 438
#     4  12  27  46  72 106 148 194 241 305 369 444
#     4  11  24  45  70 104 138 190 237 302 368 432
#     4  10  26  42  74 108 144 196 240 306 374 438
#     4  11  26  44  75 105 151 188 251 302 375 433
#     4  11  25  44  73 102 147 181 253 296 376 433
#     4  12  26  44  70 101 145 188 244 300 362 445
#
# _framework density 21.725650000000002
#
# number of rings (size 3 to 8) (size 9 to 14) (size 15 to 20)
#    0.000    0.533    0.000    7.600   13.067    0.000 
#    0.000    0.000    0.000    0.000    0.000    0.000 
#    0.000    0.000    0.000    0.000    0.000    0.000 
#
# Total GULP energy -83679.029895 kJ/mol
# GULP energy per Si atom -5578.601993 kJ/mol
# Density = 2.167620 g / cm^3
# Si number density = 21.725650 Si / 1000 Ang^3
#
#
#
# Elastic Constant Matrix: (Units=GPa)
#
#
# Indices 1 2 3 4 5 6 
#
# 1 132.5584 19.6817 45.8881 0.0049 -2.1424 7.0458
# 2 19.6817 108.0952 42.1119 29.0794 0.6742 -17.7262
# 3 45.8881 42.1119 193.3996 -3.3312 -20.8478 -10.1340
# 4 0.0049 29.0794 -3.3312 36.7815 -20.7687 -5.3300
# 5 -2.1424 0.6742 -20.8478 -20.7687 50.7132 -5.0838
# 6 7.0458 -17.7262 -10.1340 -5.3300 -5.0838 21.6285
#
#
#
# Elastic Compliance Matrix: (Units=1/GPa)
#
#
# Indices 1 2 3 4 5 6 
#
# 1 0.008805 -0.001501 -0.002204 -0.000557 -0.001301 -0.005574
# 2 -0.001501 0.017092 -0.004320 -0.018047 -0.008862 0.005942
# 3 -0.002204 -0.004320 0.007829 0.008955 0.007329 0.004775
# 4 -0.000557 -0.018047 0.008955 0.060896 0.030004 0.011646
# 5 -0.001301 -0.008862 0.007329 0.030004 0.036338 0.012530
# 6 -0.005574 0.005942 0.004775 0.011646 0.012530 0.060974
#
#
# Mechanical properties :
#
#
# Convention : Reuss Voigt Hill
#
# Bulk Modulus (GPa) = 56.57607 72.15740 64.36673
# Shear Modulus (GPa) = 23.37798 43.58274 33.48036
#
# Velocity S-wave (km/s) = 3.28389 4.48375 3.92988
# Velocity P-wave (km/s) = 6.36209 7.75181 7.09108
#
# Compressibility (1/GPa) = 0.01767532
#
# Stress axis : x y z
#
# Youngs Moduli (GPa) = 113.57188 58.50663 127.73195
#
# Poissons Ratio (x) = 0.08779 0.28157
# Poissons Ratio (y) = 0.17042 0.55185
# Poissons Ratio (z) = 0.25035 0.25277
#
# Static dielectric constant tensor:
#      x y z
#    x 1.878250 -0.006840 0.010960 
#    y -0.006840 1.825100 0.010530 
#    z 0.010960 0.010530 1.774680 
# 
# From -- ./inp_files/245581.got.cif
#   From: 2010.05.17/outbox.cif.g08.bks.cpg/sg2_123_cif.got.tgz:245581.got - 2010.06.03 11:33:40.
