data_PCOD9052451
_publ_section_title
;
Structure prediction by ZEFSAII (Michael W. Deem and Ramdas Pophale) SiO2 
 PCOD9052451
Probable space group: P -1
;
_chemical_formula_sum "Si O2"
_cell_formula_units_Z 15
_cell_length_a 9.438723
_cell_length_b 17.092836
_cell_length_c 16.643716
_cell_angle_alpha 153.107106
_cell_angle_beta 117.831064
_cell_angle_gamma 45.371484
_cell_volume 750.568293
_symmetry_space_group_name_H-M "P -1"
_symmetry_group_IT_number 2
_symmetry_cell_setting 'triclinic'
loop_
_space_group_symop_operation_xyz
x,y,z
-x,-y,-z
loop_
_atom_site_type_symbol
_atom_site_label
_atom_site_fract_x
_atom_site_fract_y
_atom_site_fract_z
Si Si1 0.730151 0.705023 0.787560
Si Si2 0.584361 0.104077 0.572860
Si Si3 0.863624 0.381648 0.118145
Si Si4 0.000000 0.500000 0.500000
Si Si5 0.950922 0.355813 0.812217
Si Si6 0.695678 0.442411 0.670801
Si Si7 0.819221 0.276541 0.173211
Si Si8 0.887653 0.150383 0.753387
O O1 0.826804 0.606718 0.632783
O O2 0.700799 0.551105 0.690088
O O3 0.924574 0.659383 0.845582
O O4 0.500000 0.000000 0.000000
O O5 0.373322 0.332754 0.674800
O O6 0.673821 0.183853 0.729435
O O7 0.500000 0.000000 0.500000
O O8 0.805421 0.891561 0.384599
O O9 0.850833 0.246004 0.057717
O O10 0.879412 0.291488 0.952046
O O11 0.891045 0.410269 0.346236
O O12 0.775809 0.494499 0.817539
O O13 0.876200 0.267516 0.775181
O O14 0.000000 0.500000 0.000000
O O15 0.440078 0.570364 0.733014
O O16 0.881986 0.143053 0.446435
O O17 0.000000 0.000000 0.000000
#
# Coordination Sequence:
#
# PCOD9052451 Si02
#       8
#     2   2   2   1   2   2   2   2
#     4  11  25  47  69 102 136 181 238 287 344 418
#     4  11  22  40  64  97 134 170 220 276 333 411
#     4  11  23  42  66  96 133 175 222 278 346 403
#     4  10  26  46  70  94 142 174 234 302 344 392
#     4  11  23  43  66 100 138 177 223 275 341 421
#     4  11  23  42  70  98 133 181 222 279 350 411
#     4  11  25  46  67 100 134 177 237 289 346 415
#     4  11  23  40  67  99 135 174 221 274 341 418
#
# _framework density 19.984857999999999
#
# number of rings (size 3 to 8) (size 9 to 14) (size 15 to 20)
#    0.000    1.067    0.000    8.400    3.733    1.600 
#   12.000    0.000    0.000    0.000    0.000    0.000 
#    0.000    0.000    0.000    0.000    0.000    0.000 
#
# Total GULP energy -83546.753741 kJ/mol
# GULP energy per Si atom -5569.783583 kJ/mol
# Density = 1.993937 g / cm^3
# Si number density = 19.984858 Si / 1000 Ang^3
#
#
#
# Elastic Constant Matrix: (Units=GPa)
#
#
# Indices 1 2 3 4 5 6 
#
# 1 122.6137 30.3106 9.0639 0.5943 -5.8526 -1.2764
# 2 30.3106 80.3076 27.4388 7.6873 -10.2579 0.4501
# 3 9.0639 27.4388 47.3997 -10.0299 -2.7612 -8.2767
# 4 0.5943 7.6873 -10.0299 49.1663 1.4847 -2.8913
# 5 -5.8526 -10.2579 -2.7612 1.4847 25.2821 -0.9217
# 6 -1.2764 0.4501 -8.2767 -2.8913 -0.9217 56.8569
#
#
#
# Elastic Compliance Matrix: (Units=1/GPa)
#
#
# Indices 1 2 3 4 5 6 
#
# 1 0.009030 -0.003568 0.000559 0.000563 0.000684 0.000352
# 2 -0.003568 0.019044 -0.011549 -0.005592 0.005892 -0.002101
# 3 0.000559 -0.011549 0.030194 0.008294 -0.001567 0.004896
# 4 0.000563 -0.005592 0.008294 0.023115 -0.002503 0.002399
# 5 0.000684 0.005892 -0.001567 -0.002503 0.042089 0.000296
# 6 0.000352 -0.002101 0.004896 0.002399 0.000296 0.018452
#
#
# Mechanical properties :
#
#
# Convention : Reuss Voigt Hill
#
# Bulk Modulus (GPa) = 34.30191 42.66083 38.48137
# Shear Modulus (GPa) = 27.66133 38.49493 33.07813
#
# Velocity S-wave (km/s) = 3.72440 4.39362 4.07278
# Velocity P-wave (km/s) = 5.97462 6.86523 6.43535
#
# Compressibility (1/GPa) = 0.02915290
#
# Stress axis : x y z
#
# Youngs Moduli (GPa) = 110.74345 52.50937 33.11877
#
# Poissons Ratio (x) = 0.18733 -0.01851
# Poissons Ratio (y) = 0.39509 0.38249
# Poissons Ratio (z) = -0.06189 0.60643
#
# Static dielectric constant tensor:
#      x y z
#    x 1.708860 0.011100 0.005790 
#    y 0.011100 1.698490 -0.018480 
#    z 0.005790 -0.018480 1.688530 
# 
# From -- ./inp_files/188838.got.cif
#   From: 2010.05.17/outbox.cif.g08.bks.cpg/sg2_95_cif.got.tgz:188838.got - 2010.06.03 11:33:40.
