data_PCOD9052382
_publ_section_title
;
Structure prediction by ZEFSAII (Michael W. Deem and Ramdas Pophale) SiO2 
 PCOD9052382
Probable space group: P -1
;
_chemical_formula_sum "Si O2"
_cell_formula_units_Z 14
_cell_length_a 7.394226
_cell_length_b 15.446093
_cell_length_c 7.574899
_cell_angle_alpha 104.948663
_cell_angle_beta 37.094753
_cell_angle_gamma 100.232826
_cell_volume 503.552600
_symmetry_space_group_name_H-M "P -1"
_symmetry_group_IT_number 2
_symmetry_cell_setting 'triclinic'
loop_
_space_group_symop_operation_xyz
x,y,z
-x,-y,-z
loop_
_atom_site_type_symbol
_atom_site_label
_atom_site_fract_x
_atom_site_fract_y
_atom_site_fract_z
Si Si1 0.007930 0.125625 0.634370
Si Si2 0.171379 0.314382 0.167734
Si Si3 0.763847 0.423604 0.115152
Si Si4 0.392537 0.955892 0.808448
Si Si5 0.284602 0.306305 0.478548
Si Si6 0.592883 0.436696 0.729310
Si Si7 0.057865 0.874276 0.720106
O O1 0.259081 0.044411 0.415066
O O2 0.205543 0.210895 0.567232
O O3 0.887817 0.141829 0.538659
O O4 0.758533 0.106776 0.960946
O O5 0.330072 0.299396 0.226872
O O6 0.922826 0.394241 0.435222
O O7 0.033290 0.220582 0.181107
O O8 0.382273 0.352722 0.873807
O O9 0.591193 0.350475 0.327335
O O10 0.476462 0.488456 0.323057
O O11 0.000000 0.500000 0.000000
O O12 0.973145 0.363489 0.787315
O O13 0.678868 0.084791 0.348942
O O14 0.218504 0.052236 0.009289
O O15 0.500000 0.500000 0.000000
#
# Coordination Sequence:
#
# PCOD9052382 Si02
#       7
#     2   2   2   2   2   2   2
#     4  11  25  44  74 100 140 187 231 283 351 410
#     4  11  23  40  67  96 125 174 226 281 330 402
#     4  12  25  39  60  90 128 168 212 276 341 393
#     4  11  25  46  71 105 145 182 231 288 345 421
#     4  11  22  42  62  91 129 169 221 275 329 404
#     4  12  22  40  66  88 125 167 225 274 328 400
#     4  10  26  45  72 106 142 184 234 286 349 414
#
# _framework density 27.802457
#
# number of rings (size 3 to 8) (size 9 to 14) (size 15 to 20)
#    0.000    0.857    2.857    3.429    0.000   12.571 
#    0.000    0.000    0.000    0.000    0.000    0.000 
#    0.000    0.000    0.000    0.000    0.000    0.000 
#
# Total GULP energy -78483.408187 kJ/mol
# GULP energy per Si atom -5605.957728 kJ/mol
# Density = 2.773918 g / cm^3
# Si number density = 27.802457 Si / 1000 Ang^3
#
#
#
# Elastic Constant Matrix: (Units=GPa)
#
#
# Indices 1 2 3 4 5 6 
#
# 1 97.9223 17.4592 33.6830 -0.1248 6.9663 -1.7582
# 2 17.4592 149.4601 30.6341 -26.3429 0.8417 10.7748
# 3 33.6830 30.6341 163.7227 -30.5209 -5.2789 0.8833
# 4 -0.1248 -26.3429 -30.5209 47.4493 0.8531 -6.7533
# 5 6.9663 0.8417 -5.2789 0.8531 39.1859 -3.3281
# 6 -1.7582 10.7748 0.8833 -6.7533 -3.3281 43.6811
#
#
#
# Elastic Compliance Matrix: (Units=1/GPa)
#
#
# Indices 1 2 3 4 5 6 
#
# 1 0.011500 -0.001208 -0.002636 -0.002253 -0.002300 0.000291
# 2 -0.001208 0.007696 -0.000489 0.003763 -0.000215 -0.001372
# 3 -0.002636 -0.000489 0.007666 0.004726 0.001469 0.000702
# 4 -0.002253 0.003763 0.004726 0.026621 0.000636 0.003050
# 5 -0.002300 -0.000215 0.001469 0.000636 0.026289 0.002032
# 6 0.000291 -0.001372 0.000702 0.003050 0.002032 0.023855
#
#
# Mechanical properties :
#
#
# Convention : Reuss Voigt Hill
#
# Bulk Modulus (GPa) = 54.95879 63.85086 59.40483
# Shear Modulus (GPa) = 42.24421 48.01852 45.13136
#
# Velocity S-wave (km/s) = 3.90223 4.16039 4.03337
# Velocity P-wave (km/s) = 6.33354 6.78927 6.56536
#
# Compressibility (1/GPa) = 0.01819545
#
# Stress axis : x y z
#
# Youngs Moduli (GPa) = 86.95530 129.94521 130.44139
#
# Poissons Ratio (x) = 0.15702 0.34379
# Poissons Ratio (y) = 0.10507 0.06383
# Poissons Ratio (z) = 0.22918 0.06359
#
# Static dielectric constant tensor:
#      x y z
#    x 2.040500 0.001270 0.078070 
#    y 0.001270 2.138420 0.003170 
#    z 0.078070 0.003170 2.102750 
# 
# From -- ./inp_files/432872.got.cif
#   From: 2010.05.17/outbox.cif.g08.bks.cpg/sg2_217_cif.got.tgz:432872.got - 2010.06.03 11:33:40.
