data_PCOD9052893
_publ_section_title
;
Structure prediction by ZEFSAII (Michael W. Deem and Ramdas Pophale) SiO2 
 PCOD9052893
Probable space group: P -1
;
_chemical_formula_sum "Si O2"
_cell_formula_units_Z 14
_cell_length_a 14.167132
_cell_length_b 9.047789
_cell_length_c 14.978107
_cell_angle_alpha 49.517313
_cell_angle_beta 151.002508
_cell_angle_gamma 112.006488
_cell_volume 603.039563
_symmetry_space_group_name_H-M "P -1"
_symmetry_group_IT_number 2
_symmetry_cell_setting 'triclinic'
loop_
_space_group_symop_operation_xyz
x,y,z
-x,-y,-z
loop_
_atom_site_type_symbol
_atom_site_label
_atom_site_fract_x
_atom_site_fract_y
_atom_site_fract_z
Si Si1 0.532156 0.454867 0.149669
Si Si2 0.208325 0.349657 0.377407
Si Si3 0.704036 0.788934 0.196130
Si Si4 0.825067 0.961921 0.666399
Si Si5 0.715984 0.030295 0.932306
Si Si6 0.981730 0.240272 0.386051
Si Si7 0.857822 0.878105 0.916968
O O1 0.651527 0.588145 0.231614
O O2 0.676742 0.191764 0.397361
O O3 0.500000 0.500000 0.000000
O O4 0.274815 0.574226 0.926718
O O5 0.165690 0.248066 0.293143
O O6 0.473533 0.266858 0.636328
O O7 0.155544 0.229212 0.461324
O O8 0.035450 0.615267 0.144466
O O9 0.938138 0.712797 0.471980
O O10 0.500000 0.000000 0.000000
O O11 0.713852 0.876480 0.071482
O O12 0.723451 0.987885 0.671236
O O13 0.075337 0.930298 0.894771
O O14 0.740394 0.912583 0.902260
O O15 0.000000 0.000000 0.500000
O O16 0.000000 0.000000 0.000000
#
# Coordination Sequence:
#
# PCOD9052893 Si02
#       7
#     2   2   2   2   2   2   2
#     4  12  27  45  73 111 155 192 249 313 371 447
#     4  12  26  47  76 107 149 198 244 306 375 434
#     4  12  24  42  75 110 147 202 238 298 389 435
#     4  11  27  49  73 108 146 197 251 303 375 437
#     4  11  25  49  75 106 153 188 251 308 365 445
#     4  12  25  45  71 113 153 187 248 304 365 455
#     4  10  27  51  74 109 146 193 259 306 363 441
#
# _framework density 23.215720999999998
#
# number of rings (size 3 to 8) (size 9 to 14) (size 15 to 20)
#    0.000    0.571    2.857    3.857    8.000    4.000 
#    2.571    0.000    0.000    0.000    0.000    0.000 
#    0.000    0.000    0.000    0.000    0.000    0.000 
#
# Total GULP energy -78456.171308 kJ/mol
# GULP energy per Si atom -5604.012236 kJ/mol
# Density = 2.316288 g / cm^3
# Si number density = 23.215721 Si / 1000 Ang^3
#
#
#
# Elastic Constant Matrix: (Units=GPa)
#
#
# Indices 1 2 3 4 5 6 
#
# 1 130.4298 21.5096 32.3391 12.2705 -15.9450 -12.2021
# 2 21.5096 126.6062 28.7094 1.3009 -3.4461 3.1219
# 3 32.3391 28.7094 85.8472 9.3088 0.6196 8.8594
# 4 12.2705 1.3009 9.3088 34.1307 0.9991 3.1971
# 5 -15.9450 -3.4461 0.6196 0.9991 46.6974 12.2031
# 6 -12.2021 3.1219 8.8594 3.1971 12.2031 35.6269
#
#
#
# Elastic Compliance Matrix: (Units=1/GPa)
#
#
# Indices 1 2 3 4 5 6 
#
# 1 0.009548 -0.000849 -0.003393 -0.002885 0.002353 0.003641
# 2 -0.000849 0.008653 -0.002589 0.000727 0.000539 -0.000655
# 3 -0.003393 -0.002589 0.014470 -0.002223 -0.000397 -0.004198
# 4 -0.002885 0.000727 -0.002223 0.031222 -0.000777 -0.003035
# 5 0.002353 0.000539 -0.000397 -0.000777 0.024204 -0.007363
# 6 0.003641 -0.000655 -0.004198 -0.003035 -0.007363 0.033212
#
#
# Mechanical properties :
#
#
# Convention : Reuss Voigt Hill
#
# Bulk Modulus (GPa) = 52.60655 56.44439 54.52547
# Shear Modulus (GPa) = 35.38421 40.64600 38.01510
#
# Velocity S-wave (km/s) = 3.90827 4.18879 4.05096
# Velocity P-wave (km/s) = 6.56317 6.91089 6.73927
#
# Compressibility (1/GPa) = 0.01900904
#
# Stress axis : x y z
#
# Youngs Moduli (GPa) = 104.73588 115.56425 69.10977
#
# Poissons Ratio (x) = 0.09810 0.23447
# Poissons Ratio (y) = 0.08891 0.17894
# Poissons Ratio (z) = 0.35534 0.29922
#
# Static dielectric constant tensor:
#      x y z
#    x 1.922810 -0.019010 0.017270 
#    y -0.019010 1.830380 0.025100 
#    z 0.017270 0.025100 1.909410 
# 
# From -- ./inp_files/529431.got.cif
#   From: 2010.05.17/outbox.cif.g08.bks.cpg/sg2_265_cif.got.tgz:529431.got - 2010.06.03 11:33:40.
