data_PCOD9052217
_publ_section_title
;
Structure prediction by ZEFSAII (Michael W. Deem and Ramdas Pophale) SiO2 
 PCOD9052217
Probable space group: P -1
;
_chemical_formula_sum "Si O2"
_cell_formula_units_Z 16
_cell_length_a 9.579267
_cell_length_b 28.207051
_cell_length_c 15.909129
_cell_angle_alpha 162.592870
_cell_angle_beta 135.349146
_cell_angle_gamma 35.453033
_cell_volume 690.066799
_symmetry_space_group_name_H-M "P -1"
_symmetry_group_IT_number 2
_symmetry_cell_setting 'triclinic'
loop_
_space_group_symop_operation_xyz
x,y,z
-x,-y,-z
loop_
_atom_site_type_symbol
_atom_site_label
_atom_site_fract_x
_atom_site_fract_y
_atom_site_fract_z
Si Si1 0.367745 0.428224 0.571208
Si Si2 0.843030 0.791224 0.885643
Si Si3 0.031381 0.972526 0.736892
Si Si4 0.767707 0.878483 0.360227
Si Si5 0.751604 0.012802 0.400209
Si Si6 0.814302 0.614318 0.265292
Si Si7 0.578310 0.571352 0.231836
Si Si8 0.054170 0.822955 0.664490
O O1 0.363061 0.241714 0.271124
O O2 0.283447 0.554332 0.836536
O O3 0.636989 0.346909 0.509466
O O4 0.129976 0.572872 0.651797
O O5 0.769658 0.922895 0.163181
O O6 0.897153 0.881930 0.985784
O O7 0.306487 0.754611 0.465368
O O8 0.925877 0.943258 0.724872
O O9 0.859398 0.008025 0.644844
O O10 0.748767 0.892676 0.275070
O O11 0.500000 0.000000 0.500000
O O12 0.975315 0.639621 0.079768
O O13 0.462282 0.247154 0.669995
O O14 0.000000 0.000000 0.500000
O O15 0.727442 0.638620 0.366087
O O16 0.945508 0.712880 0.464835
O O17 0.500000 0.500000 0.000000
O O18 0.000000 0.000000 0.000000
#
# Coordination Sequence:
#
# PCOD9052217 Si02
#       8
#     2   2   2   2   2   2   2   2
#     4  10  26  43  71 101 137 188 242 296 368 435
#     4  11  23  44  71 102 140 181 245 306 358 428
#     4  11  24  43  69  99 138 178 240 299 354 433
#     4  12  27  44  68 109 149 191 239 299 370 439
#     4  12  25  44  76 105 146 187 243 305 363 431
#     4  12  26  45  72 106 144 191 239 301 372 432
#     4  11  22  43  72 102 130 177 242 298 359 428
#     4  11  27  47  68  99 143 192 239 293 367 444
#
# _framework density 23.186160999999998
#
# number of rings (size 3 to 8) (size 9 to 14) (size 15 to 20)
#    0.000    0.750    3.750    2.250    5.250    3.000 
#    0.000    0.625    0.000    0.000    0.000    0.000 
#    0.000    0.000    0.000    0.000    0.000    0.000 
#
# Total GULP energy -89257.622259 kJ/mol
# GULP energy per Si atom -5578.601391 kJ/mol
# Density = 2.313339 g / cm^3
# Si number density = 23.186161 Si / 1000 Ang^3
#
#
#
# Elastic Constant Matrix: (Units=GPa)
#
#
# Indices 1 2 3 4 5 6 
#
# 1 184.6383 42.2013 56.6277 -4.4521 12.5212 -10.9039
# 2 42.2013 96.3348 37.7386 8.7320 1.5568 -14.7709
# 3 56.6277 37.7386 91.9630 -1.2058 11.1900 -4.4362
# 4 -4.4521 8.7320 -1.2058 40.9962 1.1316 -0.5575
# 5 12.5212 1.5568 11.1900 1.1316 39.5570 -0.2559
# 6 -10.9039 -14.7709 -4.4362 -0.5575 -0.2559 38.0802
#
#
#
# Elastic Compliance Matrix: (Units=1/GPa)
#
#
# Indices 1 2 3 4 5 6 
#
# 1 0.007011 -0.001655 -0.003430 0.001060 -0.001208 0.000973
# 2 -0.001655 0.013874 -0.004682 -0.003253 0.001423 0.004324
# 3 -0.003430 -0.004682 0.015248 0.001144 -0.003083 -0.001026
# 4 0.001060 -0.003253 0.001144 0.025262 -0.001257 -0.000464
# 5 -0.001208 0.001423 -0.003083 -0.001257 0.026514 0.000007
# 6 0.000973 0.004324 -0.001026 -0.000464 0.000007 0.028090
#
#
# Mechanical properties :
#
#
# Convention : Reuss Voigt Hill
#
# Bulk Modulus (GPa) = 60.24209 71.78570 66.01389
# Shear Modulus (GPa) = 35.44386 39.48458 37.46422
#
# Velocity S-wave (km/s) = 3.91406 4.13114 4.02406
# Velocity P-wave (km/s) = 6.81651 7.33368 7.07982
#
# Compressibility (1/GPa) = 0.01659969
#
# Stress axis : x y z
#
# Youngs Moduli (GPa) = 142.62787 72.07519 65.58175
#
# Poissons Ratio (x) = 0.11927 0.22497
# Poissons Ratio (y) = 0.23603 0.30704
# Poissons Ratio (z) = 0.48927 0.33744
#
# Static dielectric constant tensor:
#      x y z
#    x 1.871420 0.092870 0.031140 
#    y 0.092870 2.247140 0.008370 
#    z 0.031140 0.008370 1.946640 
# 
# From -- ./inp_files/509037.got.cif
#   From: 2010.05.17/outbox.cif.g08.bks.cpg/sg2_255_cif.got.tgz:509037.got - 2010.06.03 11:33:40.
