data_PCOD9052737
_publ_section_title
;
Structure prediction by ZEFSAII (Michael W. Deem and Ramdas Pophale) SiO2 
 PCOD9052737
Probable space group: P -1
;
_chemical_formula_sum "Si O2"
_cell_formula_units_Z 16
_cell_length_a 16.780861
_cell_length_b 6.731567
_cell_length_c 7.531334
_cell_angle_alpha 119.977768
_cell_angle_beta 119.161500
_cell_angle_gamma 75.919194
_cell_volume 643.529756
_symmetry_space_group_name_H-M "P -1"
_symmetry_group_IT_number 2
_symmetry_cell_setting 'triclinic'
loop_
_space_group_symop_operation_xyz
x,y,z
-x,-y,-z
loop_
_atom_site_type_symbol
_atom_site_label
_atom_site_fract_x
_atom_site_fract_y
_atom_site_fract_z
Si Si1 0.443782 0.174531 0.387934
Si Si2 0.312082 0.790795 0.059930
Si Si3 0.146395 0.348558 0.326770
Si Si4 0.659696 0.667344 0.324182
Si Si5 0.983135 0.235342 0.926826
Si Si6 0.183912 0.829839 0.482569
Si Si7 0.150239 0.061491 0.877322
Si Si8 0.374652 0.830953 0.553281
O O1 0.392162 0.339478 0.544390
O O2 0.521952 0.259261 0.377277
O O3 0.500000 0.000000 0.500000
O O4 0.368150 0.011257 0.145424
O O5 0.334964 0.782109 0.289502
O O6 0.344851 0.561297 0.897166
O O7 0.207393 0.856338 0.938770
O O8 0.233068 0.275515 0.502302
O O9 0.139315 0.620998 0.452419
O O10 0.045720 0.234980 0.173119
O O11 0.176407 0.279771 0.125813
O O12 0.619028 0.893599 0.289635
O O13 0.041620 0.071710 0.787335
O O14 0.877441 0.175458 0.763446
O O15 0.000000 0.500000 0.000000
O O16 0.289246 0.763250 0.550170
O O17 0.174538 0.052571 0.693985
#
# Coordination Sequence:
#
# PCOD9052737 Si02
#       8
#     2   2   2   2   2   2   2   2
#     4   8  17  33  52  78 103 133 179 211 250 306
#     4  10  18  34  60  74 100 145 177 203 256 314
#     4   9  18  33  56  78  98 136 181 208 240 320
#     4  10  17  35  58  75 101 143 180 203 249 323
#     4   8  17  33  54  75 103 137 176 206 251 312
#     4  11  20  34  54  81 108 132 168 223 268 286
#     4  10  18  33  58  78  96 140 180 208 247 316
#     4  10  22  34  51  83 111 126 170 229 260 294
#
# _framework density 24.862874000000001
#
# number of rings (size 3 to 8) (size 9 to 14) (size 15 to 20)
#    0.750    2.000    3.750    0.375    0.000    5.500 
#    0.000    3.750    0.000    1.500    0.000    0.000 
#    0.000    0.000    0.000    0.000    0.000    0.000 
#
# Total GULP energy -89089.899088 kJ/mol
# GULP energy per Si atom -5568.118693 kJ/mol
# Density = 2.480629 g / cm^3
# Si number density = 24.862874 Si / 1000 Ang^3
#
#
#
# Elastic Constant Matrix: (Units=GPa)
#
#
# Indices 1 2 3 4 5 6 
#
# 1 112.9217 21.0851 35.2579 12.6864 -0.7639 -14.5769
# 2 21.0851 67.3182 17.7518 21.5097 -13.7316 -27.9765
# 3 35.2579 17.7518 99.0166 23.9072 -15.4431 -4.5032
# 4 12.6864 21.5097 23.9072 29.4648 -11.8465 -9.4026
# 5 -0.7639 -13.7316 -15.4431 -11.8465 19.6239 3.5439
# 6 -14.5769 -27.9765 -4.5032 -9.4026 3.5439 36.1241
#
#
#
# Elastic Compliance Matrix: (Units=1/GPa)
#
#
# Indices 1 2 3 4 5 6 
#
# 1 0.010892 -0.001957 -0.003898 -0.001431 -0.005337 0.002544
# 2 -0.001957 0.027889 0.000613 -0.010262 0.010625 0.017172
# 3 -0.003898 0.000613 0.014374 -0.008324 0.006953 -0.002155
# 4 -0.001431 -0.010262 -0.008324 0.058284 0.020752 0.003572
# 5 -0.005337 0.010625 0.006953 0.020752 0.075289 0.004957
# 6 0.002544 0.017172 -0.002155 0.003572 0.004957 0.042182
#
#
# Mechanical properties :
#
#
# Convention : Reuss Voigt Hill
#
# Bulk Modulus (GPa) = 23.43646 47.49399 35.46523
# Shear Modulus (GPa) = 19.71462 30.72000 25.21731
#
# Velocity S-wave (km/s) = 2.81896 3.51889 3.18819
# Velocity P-wave (km/s) = 4.47685 5.97109 5.27713
#
# Compressibility (1/GPa) = 0.04266856
#
# Stress axis : x y z
#
# Youngs Moduli (GPa) = 91.81445 35.85635 69.57127
#
# Poissons Ratio (x) = 0.07018 0.27122
# Poissons Ratio (y) = 0.17972 -0.04264
# Poissons Ratio (z) = 0.35793 -0.02198
#
# Static dielectric constant tensor:
#      x y z
#    x 2.060230 0.056360 0.036290 
#    y 0.056360 2.070930 -0.050510 
#    z 0.036290 -0.050510 1.975650 
# 
# From -- ./inp_files/328124.got.cif
#   From: 2010.05.17/outbox.cif.g08.bks.cpg/sg2_165_cif.got.tgz:328124.got - 2010.06.03 11:33:40.
