data_PCOD9052290
_publ_section_title
;
Structure prediction by ZEFSAII (Michael W. Deem and Ramdas Pophale) SiO2 
 PCOD9052290
Probable space group: P -1
;
_chemical_formula_sum "Si O2"
_cell_formula_units_Z 16
_cell_length_a 14.556497
_cell_length_b 11.572172
_cell_length_c 11.296000
_cell_angle_alpha 107.776269
_cell_angle_beta 29.230677
_cell_angle_gamma 126.731922
_cell_volume 620.230646
_symmetry_space_group_name_H-M "P -1"
_symmetry_group_IT_number 2
_symmetry_cell_setting 'triclinic'
loop_
_space_group_symop_operation_xyz
x,y,z
-x,-y,-z
loop_
_atom_site_type_symbol
_atom_site_label
_atom_site_fract_x
_atom_site_fract_y
_atom_site_fract_z
Si Si1 0.100130 0.681394 0.962265
Si Si2 0.090497 0.196494 0.907604
Si Si3 0.527709 0.642640 0.852335
Si Si4 0.576000 0.821037 0.333437
Si Si5 0.704414 0.366646 0.649528
Si Si6 0.816146 0.001711 0.622360
Si Si7 0.069926 0.733576 0.274666
Si Si8 0.011717 0.752109 0.705978
O O1 0.871984 0.667907 0.169709
O O2 0.357035 0.810800 0.629523
O O3 0.000000 0.500000 0.000000
O O4 0.169711 0.742707 0.037121
O O5 0.858403 0.013488 0.045676
O O6 0.968207 0.177764 0.166658
O O7 0.346294 0.235764 0.666691
O O8 0.786233 0.675419 0.562799
O O9 0.593770 0.802871 0.767412
O O10 0.465513 0.652866 0.060860
O O11 0.273190 0.448573 0.037005
O O12 0.446738 0.698312 0.326540
O O13 0.978050 0.571368 0.397886
O O14 0.775633 0.258678 0.554762
O O15 0.957759 0.132983 0.393915
O O16 0.745413 0.083626 0.810966
O O17 0.000000 0.000000 0.500000
#
# Coordination Sequence:
#
# PCOD9052290 Si02
#       8
#     2   2   2   2   2   2   2   2
#     4  12  25  49  71 112 152 191 255 307 376 455
#     4  11  27  48  78 110 144 208 254 307 391 446
#     4  11  26  45  76 107 148 203 250 311 380 448
#     4  11  26  47  74 109 144 203 253 312 372 449
#     4  12  24  47  74 106 152 202 248 313 387 447
#     4  10  26  44  71 113 141 197 253 308 382 447
#     4  11  24  46  73 107 151 198 250 313 381 448
#     4  12  25  48  72 110 158 191 258 313 382 459
#
# _framework density 25.796854
#
# number of rings (size 3 to 8) (size 9 to 14) (size 15 to 20)
#    0.000    0.750    3.750    1.875    7.000    4.000 
#    6.750    0.000    0.000    0.000    0.000    0.000 
#    0.000    0.000    0.000    0.000    0.000    0.000 
#
# Total GULP energy -89687.811654 kJ/mol
# GULP energy per Si atom -5605.488228 kJ/mol
# Density = 2.573814 g / cm^3
# Si number density = 25.796854 Si / 1000 Ang^3
#
#
#
# Elastic Constant Matrix: (Units=GPa)
#
#
# Indices 1 2 3 4 5 6 
#
# 1 84.8078 37.8093 14.2323 -6.3704 -8.7198 -13.5159
# 2 37.8093 152.9059 35.7226 -22.0014 4.9287 -13.9000
# 3 14.2323 35.7226 54.6316 -2.1048 -16.2903 6.3874
# 4 -6.3704 -22.0014 -2.1048 52.2831 8.9201 14.5015
# 5 -8.7198 4.9287 -16.2903 8.9201 37.9345 -1.2390
# 6 -13.5159 -13.9000 6.3874 14.5015 -1.2390 46.8632
#
#
#
# Elastic Compliance Matrix: (Units=1/GPa)
#
#
# Indices 1 2 3 4 5 6 
#
# 1 0.014306 -0.003287 -0.000957 -0.001374 0.003752 0.003806
# 2 -0.003287 0.010085 -0.007639 0.004153 -0.006269 0.001634
# 3 -0.000957 -0.007639 0.028004 -0.003082 0.013358 -0.005052
# 4 -0.001374 0.004153 -0.003082 0.023682 -0.007953 -0.006283
# 5 0.003752 -0.006269 0.013358 -0.007953 0.035671 0.000806
# 6 0.003806 0.001634 -0.005052 -0.006283 0.000806 0.025575
#
#
# Mechanical properties :
#
#
# Convention : Reuss Voigt Hill
#
# Bulk Modulus (GPa) = 34.92811 51.98597 43.45704
# Shear Modulus (GPa) = 29.30269 41.05489 35.17879
#
# Velocity S-wave (km/s) = 3.37397 3.99365 3.69682
# Velocity P-wave (km/s) = 5.36165 6.43906 5.92490
#
# Compressibility (1/GPa) = 0.02863023
#
# Stress axis : x y z
#
# Youngs Moduli (GPa) = 69.89876 99.15288 35.70946
#
# Poissons Ratio (x) = 0.32588 0.03418
# Poissons Ratio (y) = 0.22973 0.27278
# Poissons Ratio (z) = 0.06690 0.75742
#
# Static dielectric constant tensor:
#      x y z
#    x 2.013730 -0.039300 -0.058730 
#    y -0.039300 2.027470 -0.044140 
#    z -0.058730 -0.044140 2.045180 
# 
# From -- ./inp_files/452445.got.cif
#   From: 2010.05.17/outbox.cif.g08.bks.cpg/sg2_227_cif.got.tgz:452445.got - 2010.06.03 11:33:40.
