data_PCOD9052936
_publ_section_title
;
Structure prediction by ZEFSAII (Michael W. Deem and Ramdas Pophale) SiO2 
 PCOD9052936
Probable space group: P -1
;
_chemical_formula_sum "Si O2"
_cell_formula_units_Z 16
_cell_length_a 9.483597
_cell_length_b 11.360230
_cell_length_c 11.491392
_cell_angle_alpha 123.145537
_cell_angle_beta 129.777614
_cell_angle_gamma 69.005471
_cell_volume 796.583382
_symmetry_space_group_name_H-M "P -1"
_symmetry_group_IT_number 2
_symmetry_cell_setting 'triclinic'
loop_
_space_group_symop_operation_xyz
x,y,z
-x,-y,-z
loop_
_atom_site_type_symbol
_atom_site_label
_atom_site_fract_x
_atom_site_fract_y
_atom_site_fract_z
Si Si1 0.566358 0.492558 0.162953
Si Si2 0.714703 0.133641 0.259870
Si Si3 0.286268 0.990789 0.221080
Si Si4 0.343550 0.268958 0.034354
Si Si5 0.268594 0.215270 0.502387
Si Si6 0.090024 0.649287 0.646279
Si Si7 0.097816 0.092439 0.940211
Si Si8 0.333059 0.095189 0.705913
O O1 0.417370 0.423839 0.133018
O O2 0.633295 0.642059 0.328949
O O3 0.738211 0.381445 0.197239
O O4 0.500000 0.500000 0.000000
O O5 0.512122 0.174771 0.126760
O O6 0.826013 0.277932 0.384800
O O7 0.817852 0.024885 0.167761
O O8 0.701326 0.055322 0.333481
O O9 0.372041 0.110118 0.413946
O O10 0.454780 0.895714 0.216039
O O11 0.193815 0.058407 0.094966
O O12 0.120208 0.918081 0.163270
O O13 0.170999 0.239695 0.009141
O O14 0.299861 0.206708 0.850604
O O15 0.222299 0.132939 0.552300
O O16 0.080383 0.253146 0.355142
O O17 0.000000 0.500000 0.500000
#
# Coordination Sequence:
#
# PCOD9052936 Si02
#       8
#     2   2   2   2   2   2   2   2
#     4  10  20  37  63  85 111 152 195 244 280 338
#     4  10  17  35  58  84 110 147 200 240 279 327
#     4  11  21  35  53  86 122 155 182 230 297 350
#     4  10  18  36  60  86 107 148 204 239 278 330
#     4  11  22  37  54  90 117 153 187 234 292 344
#     4   9  20  36  56  81 116 147 191 237 281 333
#     4  10  19  33  58  80 115 152 191 235 281 339
#     4  11  20  33  58  83 119 147 188 238 285 343
#
# _framework density 20.085781999999998
#
# number of rings (size 3 to 8) (size 9 to 14) (size 15 to 20)
#    0.000    1.750    5.000    1.125    0.000    0.500 
#    0.000    0.625    0.000    0.750    0.000    0.000 
#    0.000    0.000    0.000    0.000    0.000    0.000 
#
# Total GULP energy -89201.368749 kJ/mol
# GULP energy per Si atom -5575.085547 kJ/mol
# Density = 2.004007 g / cm^3
# Si number density = 20.085782 Si / 1000 Ang^3
#
#
#
# Elastic Constant Matrix: (Units=GPa)
#
#
# Indices 1 2 3 4 5 6 
#
# 1 107.0244 34.2580 28.6774 2.5681 13.1644 26.7795
# 2 34.2580 82.3997 32.6715 -7.2819 5.6907 34.0273
# 3 28.6774 32.6715 64.7774 -1.5186 5.0231 11.7067
# 4 2.5681 -7.2819 -1.5186 27.3118 6.3393 10.3352
# 5 13.1644 5.6907 5.0231 6.3393 26.3595 6.0114
# 6 26.7795 34.0273 11.7067 10.3352 6.0114 31.8276
#
#
#
# Elastic Compliance Matrix: (Units=1/GPa)
#
#
# Indices 1 2 3 4 5 6 
#
# 1 0.013446 0.002118 -0.004238 0.004970 -0.004651 -0.012753
# 2 0.002118 0.036665 -0.010371 0.026868 -0.003128 -0.045300
# 3 -0.004238 -0.010371 0.020963 -0.004267 -0.000535 0.008430
# 4 0.004970 0.026868 -0.004267 0.064752 -0.011600 -0.050173
# 5 -0.004651 -0.003128 -0.000535 -0.011600 0.043126 0.003076
# 6 -0.012753 -0.045300 0.008430 -0.050173 0.003076 0.103191
#
#
# Mechanical properties :
#
#
# Convention : Reuss Voigt Hill
#
# Bulk Modulus (GPa) = 21.69696 49.49061 35.59378
# Shear Modulus (GPa) = 15.50446 27.67275 21.58861
#
# Velocity S-wave (km/s) = 2.78134 3.71580 3.28200
# Velocity P-wave (km/s) = 4.59784 6.56526 5.66757
#
# Compressibility (1/GPa) = 0.04608941
#
# Stress axis : x y z
#
# Youngs Moduli (GPa) = 74.37408 27.27412 47.70416
#
# Poissons Ratio (x) = -0.05775 0.20219
# Poissons Ratio (y) = -0.15749 0.49473
# Poissons Ratio (z) = 0.31523 0.28286
#
# Static dielectric constant tensor:
#      x y z
#    x 1.727570 0.001560 0.054340 
#    y 0.001560 1.770820 -0.001180 
#    z 0.054340 -0.001180 1.735750 
# 
# From -- ./inp_files/271514.got.cif
#   From: 2010.05.17/outbox.cif.g08.bks.cpg/sg2_136_cif.got.tgz:271514.got - 2010.06.03 11:33:40.
