data_PCOD9052047
_publ_section_title
;
Structure prediction by ZEFSAII (Michael W. Deem and Ramdas Pophale) SiO2 
 PCOD9052047
Probable space group: P -1
;
_chemical_formula_sum "Si O2"
_cell_formula_units_Z 16
_cell_length_a 7.293207
_cell_length_b 7.205906
_cell_length_c 15.852951
_cell_angle_alpha 48.343160
_cell_angle_beta 114.287836
_cell_angle_gamma 110.234355
_cell_volume 564.154305
_symmetry_space_group_name_H-M "P -1"
_symmetry_group_IT_number 2
_symmetry_cell_setting 'triclinic'
loop_
_space_group_symop_operation_xyz
x,y,z
-x,-y,-z
loop_
_atom_site_type_symbol
_atom_site_label
_atom_site_fract_x
_atom_site_fract_y
_atom_site_fract_z
Si Si1 0.285495 0.473447 0.815877
Si Si2 0.334631 0.136996 0.064147
Si Si3 0.922213 0.321465 0.616178
Si Si4 0.388021 0.392209 0.297554
Si Si5 0.518037 0.175958 0.674262
Si Si6 0.868387 0.097616 0.045362
Si Si7 0.034501 0.771348 0.800383
Si Si8 0.822220 0.787392 0.535205
O O1 0.413508 0.364017 0.950341
O O2 0.417818 0.601222 0.727144
O O3 0.166502 0.202147 0.849697
O O4 0.150239 0.656527 0.781670
O O5 0.454255 0.064604 0.190203
O O6 0.296042 0.902265 0.060769
O O7 0.100100 0.159771 0.039133
O O8 0.691297 0.206959 0.626111
O O9 0.927352 0.529260 0.629008
O O10 0.000000 0.500000 0.500000
O O11 0.026718 0.068516 0.703129
O O12 0.445701 0.610185 0.312087
O O13 0.306252 0.181862 0.413869
O O14 0.191231 0.372447 0.204767
O O15 0.857463 0.249880 0.082624
O O16 0.320606 0.205125 0.574963
O O17 0.000000 0.000000 0.500000
#
# Coordination Sequence:
#
# PCOD9052047 Si02
#       8
#     2   2   2   2   2   2   2   2
#     4  10  25  49  83 130 171 230 286 345 429 515
#     4   9  20  48  86 124 173 227 289 341 432 518
#     4  11  25  50  84 125 164 223 281 350 439 507
#     4  11  26  50  81 131 172 219 302 349 429 529
#     4  11  24  54  86 121 177 226 283 365 427 510
#     4   9  21  46  81 120 173 226 282 342 411 520
#     4  12  25  49  86 126 181 224 277 359 431 514
#     4  11  27  56  90 122 165 231 292 367 443 506
#
# _framework density 28.361034
#
# number of rings (size 3 to 8) (size 9 to 14) (size 15 to 20)
#    0.750    0.750    1.250    3.000    1.750    4.000 
#   11.250    3.750    5.500    0.000    0.000    0.875 
#    0.000    0.000    0.000    0.000    0.000    0.000 
#
# Total GULP energy -89541.032339 kJ/mol
# GULP energy per Si atom -5596.314521 kJ/mol
# Density = 2.829648 g / cm^3
# Si number density = 28.361034 Si / 1000 Ang^3
#
#
#
# Elastic Constant Matrix: (Units=GPa)
#
#
# Indices 1 2 3 4 5 6 
#
# 1 148.5072 60.0412 81.8894 8.0244 -47.3296 -10.4888
# 2 60.0412 161.0987 80.4057 13.1854 -8.3644 -10.5712
# 3 81.8894 80.4057 182.6915 14.0999 -15.8075 7.1123
# 4 8.0244 13.1854 14.0999 74.0468 3.0630 -7.6364
# 5 -47.3296 -8.3644 -15.8075 3.0630 66.8354 6.0293
# 6 -10.4888 -10.5712 7.1123 -7.6364 6.0293 31.1050
#
#
#
# Elastic Compliance Matrix: (Units=1/GPa)
#
#
# Indices 1 2 3 4 5 6 
#
# 1 0.012341 -0.001937 -0.004153 -0.000192 0.007253 0.003000
# 2 -0.001937 0.008677 -0.003160 -0.000351 -0.001305 0.003185
# 3 -0.004153 -0.003160 0.008930 -0.001136 -0.000753 -0.004649
# 4 -0.000192 -0.000351 -0.001136 0.014262 -0.001450 0.003858
# 5 0.007253 -0.001305 -0.000753 -0.001450 0.020009 -0.002060
# 6 0.003000 0.003185 -0.004649 0.003858 -0.002060 0.036653
#
#
# Mechanical properties :
#
#
# Convention : Reuss Voigt Hill
#
# Bulk Modulus (GPa) = 87.37051 104.10777 95.73914
# Shear Modulus (GPa) = 40.58828 52.39485 46.49156
#
# Velocity S-wave (km/s) = 3.78713 4.30283 4.05319
# Velocity P-wave (km/s) = 7.07082 7.84050 7.46559
#
# Compressibility (1/GPa) = 0.01144551
#
# Stress axis : x y z
#
# Youngs Moduli (GPa) = 81.03169 115.25220 111.98506
#
# Poissons Ratio (x) = 0.22327 0.46512
# Poissons Ratio (y) = 0.15698 0.35389
# Poissons Ratio (z) = 0.33656 0.36422
#
# Static dielectric constant tensor:
#      x y z
#    x 2.239800 -0.003010 0.071760 
#    y -0.003010 2.271110 -0.010290 
#    z 0.071760 -0.010290 2.307470 
# 
# From -- ./inp_files/511792.got.cif
#   From: 2010.05.17/outbox.cif.g08.bks.cpg/sg2_256_cif.got.tgz:511792.got - 2010.06.03 11:33:40.
