data_PCOD9052453
_publ_section_title
;
Structure prediction by ZEFSAII (Michael W. Deem and Ramdas Pophale) SiO2 
 PCOD9052453
Probable space group: P -1
;
_chemical_formula_sum "Si O2"
_cell_formula_units_Z 14
_cell_length_a 9.450741
_cell_length_b 9.575281
_cell_length_c 20.976828
_cell_angle_alpha 37.339884
_cell_angle_beta 143.982967
_cell_angle_gamma 146.078865
_cell_volume 576.829216
_symmetry_space_group_name_H-M "P -1"
_symmetry_group_IT_number 2
_symmetry_cell_setting 'triclinic'
loop_
_space_group_symop_operation_xyz
x,y,z
-x,-y,-z
loop_
_atom_site_type_symbol
_atom_site_label
_atom_site_fract_x
_atom_site_fract_y
_atom_site_fract_z
Si Si1 0.425862 0.704924 0.598092
Si Si2 0.165890 0.851722 0.104275
Si Si3 0.808451 0.532234 0.659821
Si Si4 0.270155 0.053505 0.698501
Si Si5 0.057647 0.571533 0.391419
Si Si6 0.851979 0.961048 0.190274
Si Si7 0.243845 0.545926 0.131524
O O1 0.220744 0.554352 0.518317
O O2 0.646659 0.609545 0.723917
O O3 0.264303 0.640131 0.629938
O O4 0.500000 0.000000 0.500000
O O5 0.045820 0.604507 0.199511
O O6 0.155842 0.714879 0.082610
O O7 0.500958 0.039429 0.174177
O O8 0.000000 0.000000 0.000000
O O9 0.843430 0.492107 0.613746
O O10 0.986267 0.844849 0.632784
O O11 0.484186 0.328953 0.637605
O O12 0.188729 0.072403 0.735067
O O13 0.054702 0.849717 0.285849
O O14 0.984549 0.272867 0.106036
O O15 0.533169 0.754531 0.124578
#
# Coordination Sequence:
#
# PCOD9052453 Si02
#       7
#     2   2   2   2   2   2   2
#     4  10  20  35  57  84 115 159 200 226 286 350
#     4   9  20  37  63  86 111 152 195 235 295 352
#     4  10  21  36  56  89 118 149 187 248 289 330
#     4   9  19  36  57  82 116 150 188 235 295 338
#     4  10  22  34  59  86 117 155 196 237 285 343
#     4  10  17  35  57  80 109 157 189 226 285 346
#     4  10  19  34  57  83 112 145 195 238 273 340
#
# _framework density 24.270613999999998
#
# number of rings (size 3 to 8) (size 9 to 14) (size 15 to 20)
#    0.857    1.429    2.857    0.000    2.000    0.571 
#    0.000    0.714    0.000   18.857    0.000    0.000 
#    0.000    0.000    0.000    0.000    0.000    0.000 
#
# Total GULP energy -78034.592618 kJ/mol
# GULP energy per Si atom -5573.899473 kJ/mol
# Density = 2.421537 g / cm^3
# Si number density = 24.270614 Si / 1000 Ang^3
#
#
#
# Elastic Constant Matrix: (Units=GPa)
#
#
# Indices 1 2 3 4 5 6 
#
# 1 119.1929 42.7430 21.3866 -0.9519 -4.3498 -3.7665
# 2 42.7430 145.4286 19.7361 -10.7289 -0.1995 33.1550
# 3 21.3866 19.7361 81.0340 -6.6150 34.3043 -6.7370
# 4 -0.9519 -10.7289 -6.6150 33.4227 -5.1798 -5.2417
# 5 -4.3498 -0.1995 34.3043 -5.1798 28.7546 -3.8684
# 6 -3.7665 33.1550 -6.7370 -5.2417 -3.8684 27.5685
#
#
#
# Elastic Compliance Matrix: (Units=1/GPa)
#
#
# Indices 1 2 3 4 5 6 
#
# 1 0.011288 -0.004059 -0.005112 0.000372 0.008715 0.006468
# 2 -0.004059 0.012352 -0.004294 0.000908 0.002616 -0.015919
# 3 -0.005112 -0.004294 0.030819 -0.000031 -0.036655 0.006848
# 4 0.000372 0.000908 -0.000031 0.032199 0.006709 0.006014
# 5 0.008715 0.002616 -0.036655 0.006709 0.081290 0.001769
# 6 0.006468 -0.015919 0.006848 0.006014 0.001769 0.059367
#
#
# Mechanical properties :
#
#
# Convention : Reuss Voigt Hill
#
# Bulk Modulus (GPa) = 36.32438 57.04299 46.68368
# Shear Modulus (GPa) = 18.98102 35.40180 27.19141
#
# Velocity S-wave (km/s) = 2.79956 3.82334 3.35078
# Velocity P-wave (km/s) = 5.04470 6.56083 5.85207
#
# Compressibility (1/GPa) = 0.02752972
#
# Stress axis : x y z
#
# Youngs Moduli (GPa) = 88.58950 80.95959 32.44704
#
# Poissons Ratio (x) = 0.32864 0.16586
# Poissons Ratio (y) = 0.35961 0.13932
# Poissons Ratio (z) = 0.45284 0.34763
#
# Static dielectric constant tensor:
#      x y z
#    x 1.918350 0.024720 0.001900 
#    y 0.024720 2.166440 0.051110 
#    z 0.001900 0.051110 2.076360 
# 
# From -- ./inp_files/612680.got.cif
#   From: 2010.05.17/outbox.cif.g08.bks.cpg/sg2_307_cif.got.tgz:612680.got - 2010.06.03 11:33:40.
