data_PCOD9052203
_publ_section_title
;
Structure prediction by ZEFSAII (Michael W. Deem and Ramdas Pophale) SiO2 
 PCOD9052203
Probable space group: P -1
;
_chemical_formula_sum "Si O2"
_cell_formula_units_Z 16
_cell_length_a 18.008699
_cell_length_b 9.309043
_cell_length_c 5.439758
_cell_angle_alpha 108.735697
_cell_angle_beta 114.033716
_cell_angle_gamma 65.157409
_cell_volume 743.313341
_symmetry_space_group_name_H-M "P -1"
_symmetry_group_IT_number 2
_symmetry_cell_setting 'triclinic'
loop_
_space_group_symop_operation_xyz
x,y,z
-x,-y,-z
loop_
_atom_site_type_symbol
_atom_site_label
_atom_site_fract_x
_atom_site_fract_y
_atom_site_fract_z
Si Si1 0.455296 0.905895 0.212284
Si Si2 0.200579 0.721990 0.202289
Si Si3 0.640768 0.478777 0.457281
Si Si4 0.048535 0.861590 0.798542
Si Si5 0.393166 0.331202 0.984427
Si Si6 0.874457 0.961343 0.390554
Si Si7 0.356889 0.796853 0.388597
Si Si8 0.294149 0.106968 0.796632
O O1 0.522306 0.820870 0.043792
O O2 0.429301 0.780092 0.278607
O O3 0.500000 0.000000 0.500000
O O4 0.366011 0.025573 0.053620
O O5 0.255103 0.585054 0.388087
O O6 0.163952 0.890658 0.389818
O O7 0.277534 0.744401 0.150724
O O8 0.118926 0.710759 0.939816
O O9 0.615501 0.552925 0.198184
O O10 0.616249 0.319983 0.401916
O O11 0.603160 0.595912 0.702800
O O12 0.103686 0.946017 0.759257
O O13 0.968585 0.840217 0.531300
O O14 0.000000 0.000000 0.000000
O O15 0.311005 0.269486 0.836846
O O16 0.800100 0.882397 0.230491
O O17 0.320926 0.979200 0.537649
#
# Coordination Sequence:
#
# PCOD9052203 Si02
#       8
#     2   2   2   2   2   2   2   2
#     4  12  24  40  65  90 126 170 221 277 327 369
#     4   8  18  35  59  87 126 162 201 253 324 372
#     4  10  26  43  62  95 131 177 210 273 323 386
#     4   9  16  31  58 100 122 151 202 271 310 375
#     4  12  26  43  62  93 132 174 223 267 325 385
#     4   9  18  33  62  94 122 156 209 267 314 374
#     4   9  22  39  64  91 119 172 216 261 320 378
#     4  11  23  41  65  88 126 170 216 271 322 382
#
# _framework density 21.52524
#
# number of rings (size 3 to 8) (size 9 to 14) (size 15 to 20)
#    0.750    1.250    1.250    1.875    5.250    1.000 
#    0.000    0.000    0.000    1.500    0.000    0.000 
#    0.000    0.000    0.000    0.000    0.000    0.000 
#
# Total GULP energy -89227.712193 kJ/mol
# GULP energy per Si atom -5576.732012 kJ/mol
# Density = 2.147625 g / cm^3
# Si number density = 21.525240 Si / 1000 Ang^3
#
#
#
# Elastic Constant Matrix: (Units=GPa)
#
#
# Indices 1 2 3 4 5 6 
#
# 1 138.0357 14.1248 32.3248 -9.2641 3.0707 9.7007
# 2 14.1248 36.2410 11.6980 -12.8241 -5.8724 0.1451
# 3 32.3248 11.6980 68.0971 -13.4031 4.1807 -11.0615
# 4 -9.2641 -12.8241 -13.4031 35.3322 -10.8771 -1.0785
# 5 3.0707 -5.8724 4.1807 -10.8771 31.7053 -9.2758
# 6 9.7007 0.1451 -11.0615 -1.0785 -9.2758 24.9115
#
#
#
# Elastic Compliance Matrix: (Units=1/GPa)
#
#
# Indices 1 2 3 4 5 6 
#
# 1 0.009256 -0.003224 -0.005219 -0.002078 -0.003671 -0.007360
# 2 -0.003224 0.037937 -0.001389 0.017388 0.015520 0.006949
# 3 -0.005219 -0.001389 0.020782 0.007625 0.003947 0.013068
# 4 -0.002078 0.017388 0.007625 0.044054 0.021643 0.014060
# 5 -0.003671 0.015520 0.003947 0.021643 0.048093 0.021936
# 6 -0.007360 0.006949 0.013068 0.014060 0.021936 0.057547
#
#
# Mechanical properties :
#
#
# Convention : Reuss Voigt Hill
#
# Bulk Modulus (GPa) = 20.69824 39.85211 30.27518
# Shear Modulus (GPa) = 19.72886 30.67155 25.20020
#
# Velocity S-wave (km/s) = 3.03073 3.77889 3.42530
# Velocity P-wave (km/s) = 4.67801 6.13143 5.45336
#
# Compressibility (1/GPa) = 0.04831328
#
# Stress axis : x y z
#
# Youngs Moduli (GPa) = 108.03792 26.35920 48.11830
#
# Poissons Ratio (x) = 0.08497 0.25113
# Poissons Ratio (y) = 0.34827 0.06681
# Poissons Ratio (z) = 0.56386 0.03660
#
# Static dielectric constant tensor:
#      x y z
#    x 1.820860 -0.022300 0.029100 
#    y -0.022300 1.824310 -0.047470 
#    z 0.029100 -0.047470 1.852670 
# 
# From -- ./inp_files/107234.got.cif
#   From: 2010.05.17/outbox.cif.g08.bks.cpg/sg2_54_cif.got.tgz:107234.got - 2010.06.03 11:33:40.
