data_PCOD9052718
_publ_section_title
;
Structure prediction by ZEFSAII (Michael W. Deem and Ramdas Pophale) SiO2 
 PCOD9052718
Probable space group: P -1
;
_chemical_formula_sum "Si O2"
_cell_formula_units_Z 15
_cell_length_a 13.064384
_cell_length_b 6.237308
_cell_length_c 13.437009
_cell_angle_alpha 85.229014
_cell_angle_beta 145.861774
_cell_angle_gamma 84.134255
_cell_volume 582.998321
_symmetry_space_group_name_H-M "P -1"
_symmetry_group_IT_number 2
_symmetry_cell_setting 'triclinic'
loop_
_space_group_symop_operation_xyz
x,y,z
-x,-y,-z
loop_
_atom_site_type_symbol
_atom_site_label
_atom_site_fract_x
_atom_site_fract_y
_atom_site_fract_z
Si Si1 0.642534 0.624350 0.650356
Si Si2 0.866690 0.190823 0.954526
Si Si3 0.693360 0.982450 0.964092
Si Si4 0.590945 0.204093 0.352265
Si Si5 0.000000 0.000000 0.500000
Si Si6 0.121596 0.240237 0.337980
Si Si7 0.414258 0.775206 0.941585
Si Si8 0.947151 0.336458 0.619920
O O1 0.500000 0.500000 0.500000
O O2 0.809311 0.428277 0.845031
O O3 0.522829 0.776442 0.636393
O O4 0.728309 0.716917 0.622375
O O5 0.697326 0.094066 0.855122
O O6 0.965194 0.213954 0.136371
O O7 0.000000 0.000000 0.000000
O O8 0.556409 0.821751 0.849536
O O9 0.624792 0.195857 0.973017
O O10 0.903403 0.826124 0.174539
O O11 0.717334 0.374905 0.446750
O O12 0.770894 0.977649 0.503914
O O13 0.217377 0.859912 0.718975
O O14 0.993951 0.780485 0.433067
O O15 0.033292 0.424885 0.342776
O O16 0.500000 0.500000 0.000000
O O17 0.500000 0.000000 0.000000
#
# Coordination Sequence:
#
# PCOD9052718 Si02
#       8
#     2   2   2   2   1   2   2   2
#     4  12  23  40  64  99 138 185 237 290 355 430
#     4  12  24  43  68 101 144 186 240 292 359 438
#     4  11  25  45  71 106 138 193 234 304 367 445
#     4  12  24  43  68  98 141 179 241 287 362 430
#     4  10  26  48  78 108 152 200 248 330 392 462
#     4  12  24  42  69  96 141 190 233 300 353 441
#     4  11  27  51  80 116 156 198 265 321 398 469
#     4  11  24  48  67 104 137 181 242 295 369 439
#
# _framework density 25.729061999999999
#
# number of rings (size 3 to 8) (size 9 to 14) (size 15 to 20)
#    0.000    0.533    2.667    5.600    1.867    3.733 
#    0.000    0.000    0.000    0.000    0.000    0.000 
#    0.000    0.000    0.000    0.000    0.000    0.000 
#
# Total GULP energy -83519.997887 kJ/mol
# GULP energy per Si atom -5567.999859 kJ/mol
# Density = 2.567050 g / cm^3
# Si number density = 25.729062 Si / 1000 Ang^3
#
#
#
# Elastic Constant Matrix: (Units=GPa)
#
#
# Indices 1 2 3 4 5 6 
#
# 1 48.9205 43.9919 10.0640 7.2024 4.5686 -17.5186
# 2 43.9919 157.1331 52.6026 3.4256 -0.2526 -38.0950
# 3 10.0640 52.6026 167.6511 20.7849 -0.5804 6.8169
# 4 7.2024 3.4256 20.7849 57.0128 -1.2227 -1.7179
# 5 4.5686 -0.2526 -0.5804 -1.2227 32.1303 7.3645
# 6 -17.5186 -38.0950 6.8169 -1.7179 7.3645 49.9577
#
#
#
# Elastic Compliance Matrix: (Units=1/GPa)
#
#
# Indices 1 2 3 4 5 6 
#
# 1 0.029782 -0.007110 0.000629 -0.003516 -0.005710 0.005657
# 2 -0.007110 0.011091 -0.003533 0.001709 -0.000405 0.006565
# 3 0.000629 -0.003533 0.007524 -0.002706 0.000765 -0.003706
# 4 -0.003516 0.001709 -0.002706 0.018917 0.000967 0.000947
# 5 -0.005710 -0.000405 0.000765 0.000967 0.033666 -0.007345
# 6 0.005657 0.006565 -0.003706 0.000947 -0.007345 0.028628
#
#
# Mechanical properties :
#
#
# Convention : Reuss Voigt Hill
#
# Bulk Modulus (GPa) = 35.24882 65.22465 50.23673
# Shear Modulus (GPa) = 31.42814 45.62323 38.52569
#
# Velocity S-wave (km/s) = 3.49879 4.21553 3.87377
# Velocity P-wave (km/s) = 5.48195 7.00713 6.29093
#
# Compressibility (1/GPa) = 0.02836974
#
# Stress axis : x y z
#
# Youngs Moduli (GPa) = 33.57732 90.16315 132.90034
#
# Poissons Ratio (x) = 0.64102 -0.08360
# Poissons Ratio (y) = 0.23872 0.46959
# Poissons Ratio (z) = -0.02112 0.31858
#
# Static dielectric constant tensor:
#      x y z
#    x 2.332810 0.193450 0.149330 
#    y 0.193450 2.114880 0.064990 
#    z 0.149330 0.064990 1.989420 
# 
# From -- ./inp_files/46766.got.cif
#   From: 2010.05.17/outbox.cif.g08.bks.cpg/sg2_24_cif.got.tgz:46766.got - 2010.06.03 11:33:40.
