data_PCOD9052632
_publ_section_title
;
Structure prediction by ZEFSAII (Michael W. Deem and Ramdas Pophale) SiO2 
 PCOD9052632
Probable space group: P -1
;
_chemical_formula_sum "Si O2"
_cell_formula_units_Z 15
_cell_length_a 9.236069
_cell_length_b 11.810585
_cell_length_c 12.110800
_cell_angle_alpha 72.093144
_cell_angle_beta 88.496181
_cell_angle_gamma 143.142260
_cell_volume 662.728689
_symmetry_space_group_name_H-M "P -1"
_symmetry_group_IT_number 2
_symmetry_cell_setting 'triclinic'
loop_
_space_group_symop_operation_xyz
x,y,z
-x,-y,-z
loop_
_atom_site_type_symbol
_atom_site_label
_atom_site_fract_x
_atom_site_fract_y
_atom_site_fract_z
Si Si1 0.260763 0.822337 0.911233
Si Si2 0.000000 0.000000 0.000000
Si Si3 0.517369 0.758040 0.237521
Si Si4 0.254330 0.055845 0.588373
Si Si5 0.135560 0.454507 0.789982
Si Si6 0.784766 0.029487 0.810067
Si Si7 0.713215 0.803788 0.688980
Si Si8 0.085340 0.685632 0.713112
O O1 0.073162 0.689320 0.845672
O O2 0.418015 0.057635 0.841572
O O3 0.482886 0.874108 0.876932
O O4 0.085182 0.690181 0.064492
O O5 0.250236 0.153691 0.857131
O O6 0.160407 0.025251 0.077184
O O7 0.212653 0.516459 0.275744
O O8 0.560612 0.776444 0.362840
O O9 0.270234 0.926805 0.602568
O O10 0.933520 0.854837 0.687872
O O11 0.299011 0.167526 0.447141
O O12 0.395885 0.562489 0.798313
O O13 0.206441 0.638992 0.701432
O O14 0.998575 0.285841 0.745093
O O15 0.810225 0.981867 0.707650
#
# Coordination Sequence:
#
# PCOD9052632 Si02
#       8
#     2   1   2   2   2   2   2   2
#     4  11  23  42  65  99 144 169 212 269 337 396
#     4  12  24  38  68 102 136 170 216 272 330 398
#     4  11  23  43  66 101 137 171 214 278 326 389
#     4  10  26  48  66  93 135 177 223 279 317 384
#     4  12  24  40  69  99 131 178 216 265 336 397
#     4  12  24  44  66 101 136 173 216 273 331 395
#     4  11  26  47  67  93 133 180 227 265 327 394
#     4  11  24  40  71  96 127 178 219 269 331 386
#
# _framework density 22.633696
#
# number of rings (size 3 to 8) (size 9 to 14) (size 15 to 20)
#    0.000    0.800    5.333    1.600    3.733    1.600 
#    0.000    7.333    0.000    0.000    0.000    0.000 
#    0.000    0.000    0.000    0.000    0.000    0.000 
#
# Total GULP energy -83680.466444 kJ/mol
# GULP energy per Si atom -5578.697763 kJ/mol
# Density = 2.258218 g / cm^3
# Si number density = 22.633696 Si / 1000 Ang^3
#
#
#
# Elastic Constant Matrix: (Units=GPa)
#
#
# Indices 1 2 3 4 5 6 
#
# 1 89.7497 21.0755 17.9399 16.3824 -4.5650 22.6913
# 2 21.0755 127.5923 20.7623 28.5847 0.7043 11.4427
# 3 17.9399 20.7623 38.8038 18.0570 2.3440 2.9392
# 4 16.3824 28.5847 18.0570 19.2609 8.5949 4.9676
# 5 -4.5650 0.7043 2.3440 8.5949 26.6024 4.3958
# 6 22.6913 11.4427 2.9392 4.9676 4.3958 29.6290
#
#
#
# Elastic Compliance Matrix: (Units=1/GPa)
#
#
# Indices 1 2 3 4 5 6 
#
# 1 0.018629 0.003269 0.001036 -0.023977 0.013003 -0.013541
# 2 0.003269 0.014089 0.006043 -0.033121 0.011123 -0.004641
# 3 0.001036 0.006043 0.051636 -0.065774 0.016668 0.000305
# 4 -0.023977 -0.033121 -0.065774 0.209963 -0.067338 0.012467
# 5 0.013003 0.011123 0.016668 -0.067338 0.062100 -0.013831
# 6 -0.013541 -0.004641 0.000305 0.012467 -0.013831 0.045845
#
#
# Mechanical properties :
#
#
# Convention : Reuss Voigt Hill
#
# Bulk Modulus (GPa) = 9.51936 41.74460 25.63198
# Shear Modulus (GPa) = 12.00236 28.18967 20.09601
#
# Velocity S-wave (km/s) = 2.30530 3.53296 2.98296
# Velocity P-wave (km/s) = 3.36167 5.92672 4.81803
#
# Compressibility (1/GPa) = 0.10504908
#
# Stress axis : x y z
#
# Youngs Moduli (GPa) = 53.67938 70.97571 19.36642
#
# Poissons Ratio (x) = -0.23199 -0.02007
# Poissons Ratio (y) = -0.17545 -0.11702
# Poissons Ratio (z) = -0.05563 -0.42887
#
# Static dielectric constant tensor:
#      x y z
#    x 1.843480 -0.018050 -0.000440 
#    y -0.018050 1.853780 -0.026890 
#    z -0.000440 -0.026890 1.833240 
# 
# From -- ./inp_files/390016.got.cif
#   From: 2010.05.17/outbox.cif.g08.bks.cpg/sg2_196_cif.got.tgz:390016.got - 2010.06.03 11:33:40.
