data_PCOD9052825
_publ_section_title
;
Structure prediction by ZEFSAII (Michael W. Deem and Ramdas Pophale) SiO2 
 PCOD9052825
Probable space group: P -1
;
_chemical_formula_sum "Si O2"
_cell_formula_units_Z 16
_cell_length_a 9.819039
_cell_length_b 13.714520
_cell_length_c 5.755172
_cell_angle_alpha 98.486002
_cell_angle_beta 65.303516
_cell_angle_gamma 111.203320
_cell_volume 656.450838
_symmetry_space_group_name_H-M "P -1"
_symmetry_group_IT_number 2
_symmetry_cell_setting 'triclinic'
loop_
_space_group_symop_operation_xyz
x,y,z
-x,-y,-z
loop_
_atom_site_type_symbol
_atom_site_label
_atom_site_fract_x
_atom_site_fract_y
_atom_site_fract_z
Si Si1 0.503448 0.107730 0.664066
Si Si2 0.236254 0.593253 0.932035
Si Si3 0.173816 0.875104 0.376622
Si Si4 0.085868 0.462974 0.627717
Si Si5 0.538514 0.720944 0.579684
Si Si6 0.821572 0.723412 0.645579
Si Si7 0.370057 0.417079 0.900253
Si Si8 0.834599 0.018144 0.080547
O O1 0.655423 0.142464 0.738827
O O2 0.514940 0.198070 0.503295
O O3 0.500000 0.000000 0.500000
O O4 0.327480 0.077978 0.888051
O O5 0.200808 0.573042 0.679514
O O6 0.408232 0.677547 0.861070
O O7 0.250881 0.481506 0.953528
O O8 0.071626 0.602803 0.137637
O O9 0.188010 0.942663 0.628380
O O10 0.006816 0.786086 0.522661
O O11 0.153665 0.914325 0.142736
O O12 0.188547 0.390638 0.479647
O O13 0.000000 0.500000 0.500000
O O14 0.713851 0.769954 0.580678
O O15 0.548871 0.622345 0.385511
O O16 0.736147 0.691493 0.941946
O O17 0.500000 0.500000 0.000000
O O18 0.000000 0.000000 0.000000
#
# Coordination Sequence:
#
# PCOD9052825 Si02
#       8
#     2   2   2   2   2   2   2   2
#     4  10  26  51  75 106 149 193 252 318 387 456
#     4  11  24  41  69 100 142 193 244 304 365 451
#     4  11  27  46  75 111 147 194 247 312 382 457
#     4  11  24  41  64  96 145 189 236 298 370 435
#     4  12  26  46  72 105 144 195 256 308 379 450
#     4  12  26  43  72 107 148 193 253 308 374 460
#     4  12  24  43  67 106 148 192 245 304 372 450
#     4  11  24  50  79 109 147 190 246 317 388 453
#
# _framework density 24.373491999999999
#
# number of rings (size 3 to 8) (size 9 to 14) (size 15 to 20)
#    0.000    0.750    3.750    2.625    5.250    3.000 
#    4.500    0.000    0.000    0.000    0.000    0.000 
#    0.000    0.000    0.000    0.000    0.000    0.000 
#
# Total GULP energy -89193.073452 kJ/mol
# GULP energy per Si atom -5574.567091 kJ/mol
# Density = 2.431802 g / cm^3
# Si number density = 24.373492 Si / 1000 Ang^3
#
#
#
# Elastic Constant Matrix: (Units=GPa)
#
#
# Indices 1 2 3 4 5 6 
#
# 1 190.8491 31.2250 28.3630 -15.1569 -9.6290 -3.8196
# 2 31.2250 56.3398 10.1045 -7.3663 -4.0941 -14.8325
# 3 28.3630 10.1045 60.6125 -7.1549 -17.7893 -12.8235
# 4 -15.1569 -7.3663 -7.1549 48.5073 -0.1972 -5.6087
# 5 -9.6290 -4.0941 -17.7893 -0.1972 50.8565 -17.6488
# 6 -3.8196 -14.8325 -12.8235 -5.6087 -17.6488 42.1682
#
#
#
# Elastic Compliance Matrix: (Units=1/GPa)
#
#
# Indices 1 2 3 4 5 6 
#
# 1 0.006192 -0.003284 -0.002759 0.000845 -0.000599 -0.001571
# 2 -0.003284 0.023243 0.002496 0.004263 0.006240 0.011816
# 3 -0.002759 0.002496 0.024983 0.004936 0.013477 0.014523
# 4 0.000845 0.004263 0.004936 0.023242 0.005219 0.008353
# 5 -0.000599 0.006240 0.013477 0.005219 0.031813 0.020248
# 6 -0.001571 0.011816 0.014523 0.008353 0.020248 0.041730
#
#
# Mechanical properties :
#
#
# Convention : Reuss Voigt Hill
#
# Bulk Modulus (GPa) = 21.12980 49.68736 35.40858
# Shear Modulus (GPa) = 28.72359 44.18032 36.45196
#
# Velocity S-wave (km/s) = 3.43662 4.26213 3.87144
# Velocity P-wave (km/s) = 4.94319 6.68214 5.87734
#
# Compressibility (1/GPa) = 0.04732653
#
# Stress axis : x y z
#
# Youngs Moduli (GPa) = 161.48625 43.02298 40.02643
#
# Poissons Ratio (x) = 0.14129 0.11042
# Poissons Ratio (y) = 0.53032 -0.09992
# Poissons Ratio (z) = 0.44549 -0.10740
#
# Static dielectric constant tensor:
#      x y z
#    x 2.119950 0.046560 0.051210 
#    y 0.046560 1.963760 -0.034180 
#    z 0.051210 -0.034180 2.006690 
# 
# From -- ./inp_files/37866.got.cif
#   From: 2010.05.17/outbox.cif.g08.bks.cpg/sg2_19_cif.got.tgz:37866.got - 2010.06.03 11:33:40.
