data_PCOD9052189
_publ_section_title
;
Structure prediction by ZEFSAII (Michael W. Deem and Ramdas Pophale) SiO2 
 PCOD9052189
Probable space group: P -1
;
_chemical_formula_sum "Si O2"
_cell_formula_units_Z 13
_cell_length_a 8.712617
_cell_length_b 9.222701
_cell_length_c 14.202472
_cell_angle_alpha 72.225277
_cell_angle_beta 145.836359
_cell_angle_gamma 114.774456
_cell_volume 579.954474
_symmetry_space_group_name_H-M "P -1"
_symmetry_group_IT_number 2
_symmetry_cell_setting 'triclinic'
loop_
_space_group_symop_operation_xyz
x,y,z
-x,-y,-z
loop_
_atom_site_type_symbol
_atom_site_label
_atom_site_fract_x
_atom_site_fract_y
_atom_site_fract_z
Si Si1 0.688977 0.394006 0.825823
Si Si2 0.587027 0.069880 0.750360
Si Si3 0.002761 0.149781 0.768221
Si Si4 0.500000 0.500000 0.500000
Si Si5 0.874218 0.862727 0.618219
Si Si6 0.573820 0.224747 0.151996
Si Si7 0.817143 0.553133 0.317874
O O1 0.675269 0.208180 0.846301
O O2 0.609547 0.446173 0.671511
O O3 0.444916 0.407867 0.771532
O O4 0.000000 0.500000 0.000000
O O5 0.275861 0.065037 0.554307
O O6 0.806269 0.125518 0.764724
O O7 0.576399 0.897052 0.816897
O O8 0.975900 0.293306 0.660887
O O9 0.334638 0.207518 0.955636
O O10 0.923823 0.985428 0.704449
O O11 0.663855 0.687348 0.568926
O O12 0.169141 0.836784 0.740769
O O13 0.700797 0.405895 0.216171
O O14 0.000000 0.500000 0.500000
#
# Coordination Sequence:
#
# PCOD9052189 Si02
#       7
#     2   2   2   1   2   2   2
#     4  11  26  45  75 103 150 188 247 295 369 423
#     4  11  25  46  70 107 143 189 240 296 361 436
#     4  12  27  45  73 107 146 188 238 301 365 431
#     4  10  26  42  74 106 142 186 244 296 356 432
#     4  11  25  45  73  99 147 187 243 291 372 421
#     4  12  26  45  73 106 147 184 244 299 359 436
#     4  12  27  46  71 105 145 192 240 295 368 430
#
# _framework density 22.415552000000002
#
# number of rings (size 3 to 8) (size 9 to 14) (size 15 to 20)
#    0.000    0.615    0.000    6.923   15.077    0.000 
#    0.000    0.000    0.000    0.000    0.000    0.000 
#    0.000    0.000    0.000    0.000    0.000    0.000 
#
# Total GULP energy -72591.847548 kJ/mol
# GULP energy per Si atom -5583.988273 kJ/mol
# Density = 2.236453 g / cm^3
# Si number density = 22.415552 Si / 1000 Ang^3
#
#
#
# Elastic Constant Matrix: (Units=GPa)
#
#
# Indices 1 2 3 4 5 6 
#
# 1 209.1719 124.9559 63.6274 89.2915 -39.8158 -45.1914
# 2 124.9559 184.5441 42.4827 71.5426 -55.2882 -15.1638
# 3 63.6274 42.4827 105.3954 40.6446 -19.7043 -22.1836
# 4 89.2915 71.5426 40.6446 97.5936 -46.7838 -41.2429
# 5 -39.8158 -55.2882 -19.7043 -46.7838 61.9711 13.7303
# 6 -45.1914 -15.1638 -22.1836 -41.2429 13.7303 34.0058
#
#
#
# Elastic Compliance Matrix: (Units=1/GPa)
#
#
# Indices 1 2 3 4 5 6 
#
# 1 0.012155 -0.006903 -0.002085 -0.002439 -0.003068 0.009996
# 2 -0.006903 0.013105 -0.000550 -0.006022 0.005460 -0.013195
# 3 -0.002085 -0.000550 0.012200 -0.001110 0.000455 0.003413
# 4 -0.002439 -0.006022 -0.001110 0.038968 0.014418 0.034789
# 5 -0.003068 0.005460 0.000455 0.014418 0.029092 0.004395
# 6 0.009996 -0.013195 0.003413 0.034789 0.004395 0.079451
#
#
# Mechanical properties :
#
#
# Convention : Reuss Voigt Hill
#
# Bulk Modulus (GPa) = 54.38975 106.80482 80.59729
# Shear Modulus (GPa) = 23.78980 56.58380 40.18680
#
# Velocity S-wave (km/s) = 3.26131 5.02970 4.23875
# Velocity P-wave (km/s) = 6.20471 9.02672 7.74532
#
# Compressibility (1/GPa) = 0.01838582
#
# Stress axis : x y z
#
# Youngs Moduli (GPa) = 82.26799 76.30739 81.96906
#
# Poissons Ratio (x) = 0.52671 0.17089
# Poissons Ratio (y) = 0.56786 0.04506
# Poissons Ratio (z) = 0.17152 0.04195
#
# Static dielectric constant tensor:
#      x y z
#    x 1.826700 0.025770 0.017280 
#    y 0.025770 1.816750 -0.033770 
#    z 0.017280 -0.033770 1.822690 
# 
# From -- ./inp_files/153501.got.cif
#   From: 2010.05.17/outbox.cif.g08.bks.cpg/sg2_77_cif.got.tgz:153501.got - 2010.06.03 11:33:40.
