data_PCOD9052681
_publ_section_title
;
Structure prediction by ZEFSAII (Michael W. Deem and Ramdas Pophale) SiO2 
 PCOD9052681
Probable space group: P -1
;
_chemical_formula_sum "Si O2"
_cell_formula_units_Z 16
_cell_length_a 18.177496
_cell_length_b 10.442595
_cell_length_c 12.916047
_cell_angle_alpha 34.685696
_cell_angle_beta 32.799654
_cell_angle_gamma 55.627054
_cell_volume 689.103067
_symmetry_space_group_name_H-M "P -1"
_symmetry_group_IT_number 2
_symmetry_cell_setting 'triclinic'
loop_
_space_group_symop_operation_xyz
x,y,z
-x,-y,-z
loop_
_atom_site_type_symbol
_atom_site_label
_atom_site_fract_x
_atom_site_fract_y
_atom_site_fract_z
Si Si1 0.390558 0.932607 0.445212
Si Si2 0.085322 0.406305 0.880324
Si Si3 0.645254 0.591811 0.195083
Si Si4 0.333191 0.938297 0.270975
Si Si5 0.666417 0.995340 0.315270
Si Si6 0.742707 0.251829 0.848950
Si Si7 0.873578 0.757049 0.262700
Si Si8 0.907538 0.954321 0.746100
O O1 0.367504 0.652569 0.683814
O O2 0.327978 0.942493 0.399115
O O3 0.313112 0.997514 0.590362
O O4 0.568341 0.102982 0.122768
O O5 0.237547 0.661901 0.526689
O O6 0.048329 0.354666 0.838348
O O7 0.030687 0.120215 0.175327
O O8 0.000000 0.500000 0.000000
O O9 0.500000 0.500000 0.500000
O O10 0.776360 0.683954 0.061777
O O11 0.686606 0.831348 0.913961
O O12 0.500000 0.000000 0.000000
O O13 0.735942 0.793994 0.341771
O O14 0.500000 0.000000 0.500000
O O15 0.755559 0.198570 0.990135
O O16 0.796592 0.539701 0.578971
O O17 0.835313 0.139497 0.742737
O O18 0.000000 0.000000 0.000000
O O19 0.000000 0.000000 0.500000
#
# Coordination Sequence:
#
# PCOD9052681 Si02
#       8
#     2   2   2   2   2   2   2   2
#     4  11  24  41  73 107 144 185 255 301 373 448
#     4  12  26  47  72 108 152 193 248 314 383 454
#     4  12  22  40  66 106 142 182 231 303 374 440
#     4  12  23  40  71 108 145 185 238 312 380 434
#     4  10  26  48  73 105 145 202 253 308 369 452
#     4  11  24  48  73 101 148 197 247 315 375 443
#     4  12  28  49  76 106 154 203 255 307 380 460
#     4  12  23  43  72 104 145 191 239 303 388 450
#
# _framework density 23.218586999999999
#
# number of rings (size 3 to 8) (size 9 to 14) (size 15 to 20)
#    0.000    0.500    5.000    3.000    1.750    6.500 
#    2.250    0.000    0.000    0.000    0.000    0.000 
#    0.000    0.000    0.000    0.000    0.000    0.000 
#
# Total GULP energy -89089.389285 kJ/mol
# GULP energy per Si atom -5568.086830 kJ/mol
# Density = 2.316574 g / cm^3
# Si number density = 23.218587 Si / 1000 Ang^3
#
#
#
# Elastic Constant Matrix: (Units=GPa)
#
#
# Indices 1 2 3 4 5 6 
#
# 1 81.1567 16.5240 41.7207 -7.8304 29.9809 10.7493
# 2 16.5240 81.4974 47.3766 -2.0899 4.8843 3.3320
# 3 41.7207 47.3766 145.2442 -22.2188 21.5760 -3.2070
# 4 -7.8304 -2.0899 -22.2188 48.8029 -3.3924 8.9638
# 5 29.9809 4.8843 21.5760 -3.3924 56.0337 -3.8411
# 6 10.7493 3.3320 -3.2070 8.9638 -3.8411 47.1827
#
#
#
# Elastic Compliance Matrix: (Units=1/GPa)
#
#
# Indices 1 2 3 4 5 6 
#
# 1 0.018421 -0.000869 -0.003583 0.001677 -0.008670 -0.005403
# 2 -0.000869 0.015394 -0.005181 -0.001615 0.000961 -0.000856
# 3 -0.003583 -0.005181 0.010383 0.003638 -0.001334 0.001088
# 4 0.001677 -0.001615 0.003638 0.023098 -0.001067 -0.004496
# 5 -0.008670 0.000961 -0.001334 -0.001067 0.023118 0.003901
# 6 -0.005403 -0.000856 0.001088 -0.004496 0.003901 0.023731
#
#
# Mechanical properties :
#
#
# Convention : Reuss Voigt Hill
#
# Bulk Modulus (GPa) = 40.10662 57.68232 48.89447
# Shear Modulus (GPa) = 35.28081 43.88897 39.58489
#
# Velocity S-wave (km/s) = 3.90231 4.35242 4.13350
# Velocity P-wave (km/s) = 6.13311 7.08203 6.62458
#
# Compressibility (1/GPa) = 0.02493354
#
# Stress axis : x y z
#
# Youngs Moduli (GPa) = 54.28663 64.96032 96.31439
#
# Poissons Ratio (x) = 0.05642 0.34508
# Poissons Ratio (y) = 0.04715 0.49896
# Poissons Ratio (z) = 0.19450 0.33653
#
# Static dielectric constant tensor:
#      x y z
#    x 3.068830 0.298470 -0.234750 
#    y 0.298470 0.276920 1.194150 
#    z -0.234750 1.194150 0.997490 
# 
# From -- ./inp_files/540924.got.cif
#   From: 2010.05.17/outbox.cif.g08.bks.cpg/sg2_271_cif.got.tgz:540924.got - 2010.06.03 11:33:40.
