data_PCOD9052634
_publ_section_title
;
Structure prediction by ZEFSAII (Michael W. Deem and Ramdas Pophale) SiO2 
 PCOD9052634
Probable space group: P -1
;
_chemical_formula_sum "Si O2"
_cell_formula_units_Z 15
_cell_length_a 13.000485
_cell_length_b 25.661722
_cell_length_c 6.333065
_cell_angle_alpha 137.634067
_cell_angle_beta 45.241966
_cell_angle_gamma 155.080484
_cell_volume 595.557690
_symmetry_space_group_name_H-M "P -1"
_symmetry_group_IT_number 2
_symmetry_cell_setting 'triclinic'
loop_
_space_group_symop_operation_xyz
x,y,z
-x,-y,-z
loop_
_atom_site_type_symbol
_atom_site_label
_atom_site_fract_x
_atom_site_fract_y
_atom_site_fract_z
Si Si1 0.490646 0.078025 0.132960
Si Si2 0.760562 0.947006 0.222251
Si Si3 0.983748 0.679925 0.025305
Si Si4 0.144243 0.877120 0.702272
Si Si5 0.662604 0.431019 0.980426
Si Si6 0.000000 0.500000 0.500000
Si Si7 0.737045 0.687078 0.074392
Si Si8 0.592224 0.337890 0.258413
O O1 0.313173 0.059728 0.456164
O O2 0.768389 0.224963 0.173922
O O3 0.500000 0.000000 0.000000
O O4 0.403944 0.013982 0.836838
O O5 0.850516 0.062733 0.320886
O O6 0.530322 0.798346 0.020540
O O7 0.000000 0.000000 0.000000
O O8 0.047884 0.758099 0.373272
O O9 0.908979 0.565138 0.892618
O O10 0.804666 0.647215 0.020310
O O11 0.968890 0.809697 0.960473
O O12 0.624038 0.403993 0.199087
O O13 0.703455 0.363951 0.627308
O O14 0.473350 0.411204 0.097160
O O15 0.858888 0.447971 0.308106
O O16 0.613484 0.702829 0.433193
#
# Coordination Sequence:
#
# PCOD9052634 Si02
#       8
#     2   2   2   2   2   1   2   2
#     4  12  26  47  72 111 148 190 248 307 378 443
#     4  12  27  47  76 110 147 195 248 307 374 451
#     4  12  26  45  73 109 149 191 244 312 369 444
#     4  12  25  45  74 105 147 193 246 308 377 444
#     4  11  26  45  74 105 146 198 249 301 370 439
#     4  10  26  48  68 102 146 196 244 300 364 438
#     4  11  24  47  72 107 149 191 250 306 370 441
#     4  11  26  49  74 107 149 196 250 306 366 449
#
# _framework density 25.186475999999999
#
# number of rings (size 3 to 8) (size 9 to 14) (size 15 to 20)
#    0.000    0.533    2.667    4.400    3.733    7.467 
#    0.000    0.000    0.000    0.000    0.000    0.000 
#    0.000    0.000    0.000    0.000    0.000    0.000 
#
# Total GULP energy -83517.914504 kJ/mol
# GULP energy per Si atom -5567.860967 kJ/mol
# Density = 2.512915 g / cm^3
# Si number density = 25.186476 Si / 1000 Ang^3
#
#
#
# Elastic Constant Matrix: (Units=GPa)
#
#
# Indices 1 2 3 4 5 6 
#
# 1 124.9509 54.6270 44.8866 -1.8684 0.8107 10.8318
# 2 54.6270 107.8900 31.4513 -6.8699 -3.8151 -21.1184
# 3 44.8866 31.4513 135.4900 -1.6978 4.2494 1.2588
# 4 -1.8684 -6.8699 -1.6978 44.2840 -4.5303 -6.0676
# 5 0.8107 -3.8151 4.2494 -4.5303 33.8230 -2.8455
# 6 10.8318 -21.1184 1.2588 -6.0676 -2.8455 47.0861
#
#
#
# Elastic Compliance Matrix: (Units=1/GPa)
#
#
# Indices 1 2 3 4 5 6 
#
# 1 0.012448 -0.006978 -0.002419 -0.001661 -0.001529 -0.006235
# 2 -0.006978 0.015360 -0.001398 0.003637 0.003337 0.009202
# 3 -0.002419 -0.001398 0.008547 -0.000171 -0.001230 -0.000396
# 4 -0.001661 0.003637 -0.000171 0.024235 0.004171 0.005393
# 5 -0.001529 0.003337 -0.001230 0.004171 0.031053 0.004295
# 6 -0.006235 0.009202 -0.000396 0.005393 0.004295 0.027764
#
#
# Mechanical properties :
#
#
# Convention : Reuss Voigt Hill
#
# Bulk Modulus (GPa) = 67.73068 70.02897 68.87982
# Shear Modulus (GPa) = 34.26528 40.86302 37.56415
#
# Velocity S-wave (km/s) = 3.69245 4.03230 3.86611
# Velocity P-wave (km/s) = 6.71781 7.03873 6.88014
#
# Compressibility (1/GPa) = 0.01476436
#
# Stress axis : x y z
#
# Youngs Moduli (GPa) = 80.33125 65.10323 117.00291
#
# Poissons Ratio (x) = 0.45429 0.28306
# Poissons Ratio (y) = 0.56054 0.16362
# Poissons Ratio (z) = 0.19434 0.09104
#
# Static dielectric constant tensor:
#      x y z
#    x 1.876540 0.076640 0.040810 
#    y 0.076640 2.077340 -0.013340 
#    z 0.040810 -0.013340 1.966390 
# 
# From -- ./inp_files/84568.got.cif
#   From: 2010.05.17/outbox.cif.g08.bks.cpg/sg2_43_cif.got.tgz:84568.got - 2010.06.03 11:33:40.
