data_PCOD9052492
_publ_section_title
;
Structure prediction by ZEFSAII (Michael W. Deem and Ramdas Pophale) SiO2 
 PCOD9052492
Probable space group: P -1
;
_chemical_formula_sum "Si O2"
_cell_formula_units_Z 13
_cell_length_a 13.477809
_cell_length_b 6.744891
_cell_length_c 7.907503
_cell_angle_alpha 60.595566
_cell_angle_beta 95.778479
_cell_angle_gamma 117.702732
_cell_volume 546.818110
_symmetry_space_group_name_H-M "P -1"
_symmetry_group_IT_number 2
_symmetry_cell_setting 'triclinic'
loop_
_space_group_symop_operation_xyz
x,y,z
-x,-y,-z
loop_
_atom_site_type_symbol
_atom_site_label
_atom_site_fract_x
_atom_site_fract_y
_atom_site_fract_z
Si Si1 0.023764 0.689795 0.675727
Si Si2 0.266862 0.175358 0.937600
Si Si3 0.242988 0.186566 0.538390
Si Si4 0.920766 0.738195 0.993291
Si Si5 0.608172 0.962292 0.562651
Si Si6 0.500000 0.500000 0.000000
Si Si7 0.783806 0.351338 0.671715
O O1 0.917995 0.541098 0.594086
O O2 0.073273 0.499627 0.815933
O O3 0.967161 0.737885 0.814323
O O4 0.128930 0.961462 0.528476
O O5 0.223902 0.175727 0.740332
O O6 0.202268 0.279698 0.007687
O O7 0.400329 0.369313 0.889420
O O8 0.233024 0.879609 0.107727
O O9 0.346047 0.127270 0.550344
O O10 0.266604 0.462598 0.354841
O O11 0.000000 0.000000 0.000000
O O12 0.576753 0.748474 0.790751
O O13 0.500000 0.000000 0.500000
O O14 0.714220 0.218363 0.547671
#
# Coordination Sequence:
#
# PCOD9052492 Si02
#       7
#     2   2   2   2   2   1   2
#     4  11  24  41  72 110 145 189 230 292 358 431
#     4  11  24  49  74 104 145 195 235 296 354 419
#     4  12  27  45  75 109 144 186 238 294 357 430
#     4  11  21  43  73 104 150 190 232 286 365 425
#     4  11  28  51  72 103 143 189 241 299 357 414
#     4  10  26  46  74 100 136 190 240 296 346 416
#     4  11  26  46  69 111 143 184 237 289 358 430
#
# _framework density 23.773902
#
# number of rings (size 3 to 8) (size 9 to 14) (size 15 to 20)
#    0.000    0.923    3.077    2.308    8.615    4.308 
#    0.000    3.077    0.000    0.000    0.000    0.000 
#    0.000    0.000    0.000    0.000    0.000    0.000 
#
# Total GULP energy -72552.663834 kJ/mol
# GULP energy per Si atom -5580.974141 kJ/mol
# Density = 2.371979 g / cm^3
# Si number density = 23.773902 Si / 1000 Ang^3
#
#
#
# Elastic Constant Matrix: (Units=GPa)
#
#
# Indices 1 2 3 4 5 6 
#
# 1 127.9235 66.7635 35.2424 -5.7747 9.2062 -10.6458
# 2 66.7635 120.7197 33.9124 -18.9584 1.4396 -0.5819
# 3 35.2424 33.9124 63.7757 -5.9557 9.7454 -22.4086
# 4 -5.7747 -18.9584 -5.9557 29.5889 -4.0417 10.7929
# 5 9.2062 1.4396 9.7454 -4.0417 32.1724 -1.3662
# 6 -10.6458 -0.5819 -22.4086 10.7929 -1.3662 53.1952
#
#
#
# Elastic Compliance Matrix: (Units=1/GPa)
#
#
# Indices 1 2 3 4 5 6 
#
# 1 0.012081 -0.006482 -0.002442 -0.003369 -0.002768 0.001930
# 2 -0.006482 0.015022 -0.006063 0.009713 0.004003 -0.005555
# 3 -0.002442 -0.006063 0.024539 -0.004127 -0.006538 0.010452
# 4 -0.003369 0.009713 -0.004127 0.043450 0.006773 -0.010948
# 5 -0.002768 0.004003 -0.006538 0.006773 0.034367 -0.003756
# 6 0.001930 -0.005555 0.010452 -0.010948 -0.003756 0.025652
#
#
# Mechanical properties :
#
#
# Convention : Reuss Voigt Hill
#
# Bulk Modulus (GPa) = 46.14970 64.91725 55.53348
# Shear Modulus (GPa) = 25.99988 34.75801 30.37895
#
# Velocity S-wave (km/s) = 3.31060 3.82779 3.57855
# Velocity P-wave (km/s) = 5.83673 6.84846 6.36274
#
# Compressibility (1/GPa) = 0.02166861
#
# Stress axis : x y z
#
# Youngs Moduli (GPa) = 82.77642 66.56742 40.75092
#
# Poissons Ratio (x) = 0.43148 0.09953
# Poissons Ratio (y) = 0.53655 0.24706
# Poissons Ratio (z) = 0.20218 0.40357
#
# Static dielectric constant tensor:
#      x y z
#    x 1.911320 -0.002940 0.033500 
#    y -0.002940 1.950020 0.031220 
#    z 0.033500 0.031220 1.872990 
# 
# From -- ./inp_files/130693.got.cif
#   From: 2010.05.17/outbox.cif.g08.bks.cpg/sg2_66_cif.got.tgz:130693.got - 2010.06.03 11:33:40.
