data_PCOD9052829
_publ_section_title
;
Structure prediction by ZEFSAII (Michael W. Deem and Ramdas Pophale) SiO2 
 PCOD9052829
Probable space group: P -1
;
_chemical_formula_sum "Si O2"
_cell_formula_units_Z 12
_cell_length_a 9.281267
_cell_length_b 8.114141
_cell_length_c 12.975862
_cell_angle_alpha 111.826311
_cell_angle_beta 145.512011
_cell_angle_gamma 86.339637
_cell_volume 455.677978
_symmetry_space_group_name_H-M "P -1"
_symmetry_group_IT_number 2
_symmetry_cell_setting 'triclinic'
loop_
_space_group_symop_operation_xyz
x,y,z
-x,-y,-z
loop_
_atom_site_type_symbol
_atom_site_label
_atom_site_fract_x
_atom_site_fract_y
_atom_site_fract_z
Si Si1 0.850174 0.136622 0.472945
Si Si2 0.057810 0.169712 0.262108
Si Si3 0.581712 0.408346 0.780724
Si Si4 0.505401 0.769730 0.876062
Si Si5 0.778412 0.433752 0.124526
Si Si6 0.333567 0.934405 0.278998
O O1 0.750717 0.219851 0.335521
O O2 0.050503 0.328939 0.704044
O O3 0.559591 0.015733 0.338478
O O4 0.000000 0.000000 0.500000
O O5 0.292964 0.274600 0.514480
O O6 0.767628 0.989691 0.093389
O O7 0.995561 0.339739 0.214813
O O8 0.153768 0.056279 0.207786
O O9 0.616026 0.631988 0.846229
O O10 0.783786 0.305291 0.845087
O O11 0.575677 0.383148 0.894996
O O12 0.384921 0.670823 0.891952
O O13 0.500000 0.000000 0.500000
#
# Coordination Sequence:
#
# PCOD9052829 Si02
#       6
#     2   2   2   2   2   2
#     4  12  28  51  86 114 159 209 264 328 392 470
#     4  11  27  52  76 112 164 201 272 314 387 474
#     4  11  26  50  75 117 156 205 260 319 387 462
#     4  12  27  50  80 116 158 212 257 329 391 459
#     4  12  27  48  79 122 159 207 260 322 398 464
#     4  10  26  51  78 116 156 211 258 324 389 463
#
# _framework density 26.334385999999999
#
# number of rings (size 3 to 8) (size 9 to 14) (size 15 to 20)
#    0.000    0.667    1.667    3.500    9.333    6.000 
#    3.000    0.000    0.000    0.000    0.000    0.000 
#    0.000    0.000    0.000    0.000    0.000    0.000 
#
# Total GULP energy -67239.176989 kJ/mol
# GULP energy per Si atom -5603.264749 kJ/mol
# Density = 2.627445 g / cm^3
# Si number density = 26.334386 Si / 1000 Ang^3
#
#
#
# Elastic Constant Matrix: (Units=GPa)
#
#
# Indices 1 2 3 4 5 6 
#
# 1 97.3110 61.1275 17.0788 1.1671 -1.5849 -53.3714
# 2 61.1275 189.8552 61.0242 16.8433 -9.7262 -68.8241
# 3 17.0788 61.0242 158.6268 4.3154 -24.5299 -4.5391
# 4 1.1671 16.8433 4.3154 73.1950 0.6055 -4.8649
# 5 -1.5849 -9.7262 -24.5299 0.6055 31.4577 -3.8512
# 6 -53.3714 -68.8241 -4.5391 -4.8649 -3.8512 67.2555
#
#
#
# Elastic Compliance Matrix: (Units=1/GPa)
#
#
# Indices 1 2 3 4 5 6 
#
# 1 0.018717 -0.000327 -0.001239 0.000806 0.001646 0.014587
# 2 -0.000327 0.010321 -0.003320 -0.001520 0.001848 0.010074
# 3 -0.001239 -0.003320 0.008390 0.000013 0.005021 -0.003526
# 4 0.000806 -0.001520 0.000013 0.014008 -0.000681 0.000059
# 5 0.001646 0.001848 0.005021 -0.000681 0.037059 0.005609
# 6 0.014587 0.010074 -0.003526 0.000059 0.005609 0.036841
#
#
# Mechanical properties :
#
#
# Convention : Reuss Voigt Hill
#
# Bulk Modulus (GPa) = 36.15939 80.47266 58.31602
# Shear Modulus (GPa) = 34.64367 54.81915 44.73141
#
# Velocity S-wave (km/s) = 3.63096 4.56747 4.12587
# Velocity P-wave (km/s) = 5.59814 7.64461 6.69997
#
# Compressibility (1/GPa) = 0.02765533
#
# Stress axis : x y z
#
# Youngs Moduli (GPa) = 53.42727 96.88980 119.19012
#
# Poissons Ratio (x) = 0.03169 0.14772
# Poissons Ratio (y) = 0.01748 0.39569
# Poissons Ratio (z) = 0.06622 0.32166
#
# Static dielectric constant tensor:
#      x y z
#    x 2.068430 -0.123370 0.079110 
#    y -0.123370 2.043460 0.039580 
#    z 0.079110 0.039580 1.973530 
# 
# From -- ./inp_files/376997.got.cif
#   From: 2010.05.17/outbox.cif.g08.bks.cpg/sg2_189_cif.got.tgz:376997.got - 2010.06.03 11:33:40.
