data_PCOD9052644
_publ_section_title
;
Structure prediction by ZEFSAII (Michael W. Deem and Ramdas Pophale) SiO2 
 PCOD9052644
Probable space group: P -1
;
_chemical_formula_sum "Si O2"
_cell_formula_units_Z 15
_cell_length_a 18.862099
_cell_length_b 9.453821
_cell_length_c 11.757916
_cell_angle_alpha 100.979462
_cell_angle_beta 25.959185
_cell_angle_gamma 119.240337
_cell_volume 607.745803
_symmetry_space_group_name_H-M "P -1"
_symmetry_group_IT_number 2
_symmetry_cell_setting 'triclinic'
loop_
_space_group_symop_operation_xyz
x,y,z
-x,-y,-z
loop_
_atom_site_type_symbol
_atom_site_label
_atom_site_fract_x
_atom_site_fract_y
_atom_site_fract_z
Si Si1 0.574646 0.211408 0.883803
Si Si2 0.777408 0.790431 0.856594
Si Si3 0.174166 0.251607 0.794997
Si Si4 0.500000 0.500000 0.000000
Si Si5 0.262707 0.442448 0.932837
Si Si6 0.918516 0.303642 0.020110
Si Si7 0.517649 0.900783 0.250206
Si Si8 0.916586 0.363902 0.765535
O O1 0.626471 0.221349 0.675995
O O2 0.821944 0.420393 0.620039
O O3 0.438209 0.277732 0.086615
O O4 0.500000 0.000000 0.000000
O O5 0.618798 0.599852 0.966141
O O6 0.864999 0.743758 0.821553
O O7 0.612155 0.811039 0.149141
O O8 0.000000 0.000000 0.500000
O O9 0.145530 0.325878 0.962731
O O10 0.454767 0.399657 0.427315
O O11 0.092859 0.293846 0.812108
O O12 0.000000 0.000000 0.000000
O O13 0.231359 0.588719 0.016264
O O14 0.643483 0.112778 0.432725
O O15 0.933779 0.320235 0.865155
O O16 0.000000 0.500000 0.000000
O O17 0.759146 0.139942 0.899407
#
# Coordination Sequence:
#
# PCOD9052644 Si02
#       8
#     2   2   2   1   2   2   2   2
#     4  11  26  47  73 103 144 190 247 301 358 434
#     4  11  26  46  69  99 139 184 241 295 352 424
#     4  11  25  44  68 102 140 185 229 290 358 422
#     4  10  26  48  70 100 138 194 244 294 364 416
#     4  11  26  42  69 103 140 177 237 292 347 432
#     4  12  22  46  71 101 145 181 231 290 363 433
#     4  11  25  44  72 101 135 191 238 292 363 429
#     4  12  26  44  73 105 142 186 233 298 364 430
#
# _framework density 24.681372
#
# number of rings (size 3 to 8) (size 9 to 14) (size 15 to 20)
#    0.000    0.800    2.667    2.800   11.200    1.600 
#    0.000    0.000    0.000    0.000    0.000    0.000 
#    0.000    0.000    0.000    0.000    0.000    0.000 
#
# Total GULP energy -83586.729108 kJ/mol
# GULP energy per Si atom -5572.448607 kJ/mol
# Density = 2.462520 g / cm^3
# Si number density = 24.681372 Si / 1000 Ang^3
#
#
#
# Elastic Constant Matrix: (Units=GPa)
#
#
# Indices 1 2 3 4 5 6 
#
# 1 90.3461 10.8202 11.6740 13.2359 -6.4932 -30.1506
# 2 10.8202 124.6509 29.7469 -10.0781 -16.0722 -29.0766
# 3 11.6740 29.7469 74.4894 -20.1192 -9.1560 -1.1267
# 4 13.2359 -10.0781 -20.1192 33.4380 -1.7000 -5.5841
# 5 -6.4932 -16.0722 -9.1560 -1.7000 27.0924 -4.3567
# 6 -30.1506 -29.0766 -1.1267 -5.5841 -4.3567 53.0670
#
#
#
# Elastic Compliance Matrix: (Units=1/GPa)
#
#
# Indices 1 2 3 4 5 6 
#
# 1 0.015924 0.002016 -0.004304 -0.006413 0.004727 0.009774
# 2 0.002016 0.011837 -0.003220 0.002655 0.007950 0.008495
# 3 -0.004304 -0.003220 0.019085 0.012045 0.003907 -0.002216
# 4 -0.006413 0.002655 0.012045 0.041360 0.007188 0.003009
# 5 0.004727 0.007950 0.003907 0.007188 0.046411 0.011691
# 6 0.009774 0.008495 -0.002216 0.003009 0.011691 0.030281
#
#
# Mechanical properties :
#
#
# Convention : Reuss Voigt Hill
#
# Bulk Modulus (GPa) = 27.90961 43.77428 35.84195
# Shear Modulus (GPa) = 26.61571 38.53583 32.57577
#
# Velocity S-wave (km/s) = 3.28742 3.95566 3.63692
# Velocity P-wave (km/s) = 5.07366 6.21588 5.67359
#
# Compressibility (1/GPa) = 0.03582995
#
# Stress axis : x y z
#
# Youngs Moduli (GPa) = 62.79718 84.48024 52.39647
#
# Poissons Ratio (x) = -0.17029 0.22550
# Poissons Ratio (y) = -0.12658 0.16873
# Poissons Ratio (z) = 0.27027 0.27205
#
# Static dielectric constant tensor:
#      x y z
#    x 1.476150 0.651820 0.022030 
#    y 0.651820 0.904630 0.003840 
#    z 0.022030 0.003840 2.177120 
# 
# From -- ./inp_files/461311.got.cif
#   From: 2010.05.17/outbox.cif.g08.bks.cpg/sg2_231_cif.got.tgz:461311.got - 2010.06.03 11:33:40.
