data_PCOD9052438
_publ_section_title
;
Structure prediction by ZEFSAII (Michael W. Deem and Ramdas Pophale) SiO2 
 PCOD9052438
Probable space group: P -1
;
_chemical_formula_sum "Si O2"
_cell_formula_units_Z 13
_cell_length_a 13.456035
_cell_length_b 9.055206
_cell_length_c 8.689368
_cell_angle_alpha 148.935370
_cell_angle_beta 62.755492
_cell_angle_gamma 116.161047
_cell_volume 482.971746
_symmetry_space_group_name_H-M "P -1"
_symmetry_group_IT_number 2
_symmetry_cell_setting 'triclinic'
loop_
_space_group_symop_operation_xyz
x,y,z
-x,-y,-z
loop_
_atom_site_type_symbol
_atom_site_label
_atom_site_fract_x
_atom_site_fract_y
_atom_site_fract_z
Si Si1 0.779605 0.494633 0.829478
Si Si2 0.920027 0.297244 0.992461
Si Si3 0.321796 0.980209 0.114934
Si Si4 0.394522 0.460890 0.732976
Si Si5 0.989480 0.702486 0.536707
Si Si6 0.686737 0.998817 0.224964
Si Si7 0.500000 0.500000 0.000000
O O1 0.889553 0.352044 0.665382
O O2 0.707906 0.272686 0.567086
O O3 0.706670 0.539020 0.070675
O O4 0.790945 0.803760 0.012550
O O5 0.806190 0.148527 0.867207
O O6 0.974725 0.037529 0.813260
O O7 0.000000 0.500000 0.000000
O O8 0.892890 0.522389 0.344876
O O9 0.354359 0.261826 0.442506
O O10 0.318482 0.970958 0.925708
O O11 0.409882 0.773594 0.929761
O O12 0.494184 0.417262 0.739057
O O13 0.000000 0.500000 0.500000
O O14 0.577225 0.797054 0.173356
#
# Coordination Sequence:
#
# PCOD9052438 Si02
#       7
#     2   2   2   2   2   2   1
#     4  11  23  43  68  99 134 185 224 280 337 400
#     4  12  26  42  65 101 144 182 232 284 339 406
#     4  12  25  45  68 101 136 182 218 284 347 402
#     4  11  25  44  70  96 136 171 227 276 346 416
#     4  12  24  43  70  99 136 186 242 282 329 407
#     4  11  24  44  71  98 139 171 229 282 345 408
#     4  10  26  46  70 102 126 174 222 284 340 418
#
# _framework density 26.916689000000002
#
# number of rings (size 3 to 8) (size 9 to 14) (size 15 to 20)
#    0.000    0.615    0.000    8.308    0.000   10.462 
#    0.000    0.000    0.000    0.000    0.000    0.000 
#    0.000    0.000    0.000    0.000    0.000    0.000 
#
# Total GULP energy -72472.810800 kJ/mol
# GULP energy per Si atom -5574.831600 kJ/mol
# Density = 2.685543 g / cm^3
# Si number density = 26.916689 Si / 1000 Ang^3
#
#
#
# Elastic Constant Matrix: (Units=GPa)
#
#
# Indices 1 2 3 4 5 6 
#
# 1 137.7322 72.3557 137.8607 1.7993 54.5170 -23.3539
# 2 72.3557 225.8813 183.3841 -0.2035 51.4100 -40.5873
# 3 137.8607 183.3841 536.7394 -4.0172 167.4533 -33.8335
# 4 1.7993 -0.2035 -4.0172 42.8831 -21.6861 2.6600
# 5 54.5170 51.4100 167.4533 -21.6861 100.5766 -4.5446
# 6 -23.3539 -40.5873 -33.8335 2.6600 -4.5446 53.4241
#
#
#
# Elastic Compliance Matrix: (Units=1/GPa)
#
#
# Indices 1 2 3 4 5 6 
#
# 1 0.011125 -0.001306 -0.000847 -0.003000 -0.004460 0.003105
# 2 -0.001306 0.006974 -0.002057 0.000052 0.000737 0.003485
# 3 -0.000847 -0.002057 0.005364 -0.003660 -0.008166 0.000951
# 4 -0.003000 0.000052 -0.003660 0.030469 0.014087 -0.003909
# 5 -0.004460 0.000737 -0.008166 0.014087 0.028397 -0.004847
# 6 0.003105 0.003485 0.000951 -0.003909 -0.004847 0.023108
#
#
# Mechanical properties :
#
#
# Convention : Reuss Voigt Hill
#
# Bulk Modulus (GPa) = 66.47648 187.50600 126.99124
# Shear Modulus (GPa) = 42.06278 73.16024 57.61151
#
# Velocity S-wave (km/s) = 3.95739 5.21912 4.63143
# Velocity P-wave (km/s) = 6.75515 10.30203 8.71102
#
# Compressibility (1/GPa) = 0.01504291
#
# Stress axis : x y z
#
# Youngs Moduli (GPa) = 89.88926 143.38766 186.44433
#
# Poissons Ratio (x) = 0.18728 0.15784
# Poissons Ratio (y) = 0.11741 0.38353
# Poissons Ratio (z) = 0.07610 0.29496
#
# Static dielectric constant tensor:
#      x y z
#    x 2.352730 0.106650 -0.084520 
#    y 0.106650 2.032650 0.116130 
#    z -0.084520 0.116130 2.018540 
# 
# From -- ./inp_files/201222.got.cif
#   From: 2010.05.17/outbox.cif.g08.bks.cpg/sg2_101_cif.got.tgz:201222.got - 2010.06.03 11:33:40.
