data_PCOD9052447
_publ_section_title
;
Structure prediction by ZEFSAII (Michael W. Deem and Ramdas Pophale) SiO2 
 PCOD9052447
Probable space group: P -1
;
_chemical_formula_sum "Si O2"
_cell_formula_units_Z 15
_cell_length_a 15.455173
_cell_length_b 5.144012
_cell_length_c 11.462528
_cell_angle_alpha 90.662675
_cell_angle_beta 42.756886
_cell_angle_gamma 102.189343
_cell_volume 590.414999
_symmetry_space_group_name_H-M "P -1"
_symmetry_group_IT_number 2
_symmetry_cell_setting 'triclinic'
loop_
_space_group_symop_operation_xyz
x,y,z
-x,-y,-z
loop_
_atom_site_type_symbol
_atom_site_label
_atom_site_fract_x
_atom_site_fract_y
_atom_site_fract_z
Si Si1 0.908760 0.805255 0.869450
Si Si2 0.293909 0.617153 0.584079
Si Si3 0.125872 0.379802 0.357679
Si Si4 0.500000 0.500000 0.500000
Si Si5 0.182936 0.146565 0.533526
Si Si6 0.870725 0.303717 0.058718
Si Si7 0.473671 0.113254 0.312102
Si Si8 0.580104 0.295058 0.966751
O O1 0.868762 0.762433 0.773025
O O2 0.848173 0.518381 0.989482
O O3 0.070165 0.906189 0.703860
O O4 0.879420 0.045617 0.974576
O O5 0.342119 0.414600 0.617445
O O6 0.196303 0.434357 0.585610
O O7 0.234126 0.785157 0.732983
O O8 0.435810 0.795267 0.387300
O O9 0.134480 0.175744 0.451626
O O10 0.268256 0.613260 0.226643
O O11 0.000000 0.500000 0.500000
O O12 0.521566 0.283062 0.380859
O O13 0.329197 0.114068 0.402939
O O14 0.000000 0.500000 0.000000
O O15 0.574129 0.249619 0.111312
O O16 0.500000 0.500000 0.000000
O O17 0.500000 0.000000 0.000000
#
# Coordination Sequence:
#
# PCOD9052447 Si02
#       8
#     2   2   2   1   2   2   2   2
#     4  12  28  47  76 116 161 206 263 337 405 474
#     4  11  25  46  77 108 154 207 268 332 408 484
#     4  12  29  52  82 122 166 211 277 348 412 484
#     4  10  26  46  70 112 146 202 260 342 390 484
#     4  11  24  47  76 107 151 212 265 326 405 485
#     4  12  26  47  74 112 155 207 265 321 402 486
#     4  11  25  47  79 106 154 205 273 323 410 478
#     4  12  29  54  82 117 160 216 277 334 408 496
#
# _framework density 25.405857999999998
#
# number of rings (size 3 to 8) (size 9 to 14) (size 15 to 20)
#    0.000    0.533    2.667    3.600   11.200    2.133 
#    0.000    0.000    0.000    0.000    0.000    0.000 
#    0.000    0.000    0.000    0.000    0.000    0.000 
#
# Total GULP energy -83682.941109 kJ/mol
# GULP energy per Si atom -5578.862741 kJ/mol
# Density = 2.534803 g / cm^3
# Si number density = 25.405858 Si / 1000 Ang^3
#
#
#
# Elastic Constant Matrix: (Units=GPa)
#
#
# Indices 1 2 3 4 5 6 
#
# 1 97.4606 34.7106 29.9757 10.7663 6.3842 35.2833
# 2 34.7106 111.3461 11.4431 1.7469 -5.6875 7.9473
# 3 29.9757 11.4431 100.8216 -16.4501 -4.2980 -14.4549
# 4 10.7663 1.7469 -16.4501 46.3304 3.9209 11.0898
# 5 6.3842 -5.6875 -4.2980 3.9209 36.3638 8.0054
# 6 35.2833 7.9473 -14.4549 11.0898 8.0054 22.3185
#
#
#
# Elastic Compliance Matrix: (Units=1/GPa)
#
#
# Indices 1 2 3 4 5 6 
#
# 1 0.116042 -0.012121 -0.064626 0.003935 0.020357 -0.230248
# 2 -0.012121 0.010952 0.004982 -0.000287 0.000390 0.018491
# 3 -0.064626 0.004982 0.047509 0.000327 -0.012089 0.135337
# 4 0.003935 -0.000287 0.000327 0.025210 0.000698 -0.018684
# 5 0.020357 0.000390 -0.012089 0.000698 0.034090 -0.052725
# 6 -0.230248 0.018491 0.135337 -0.018684 -0.052725 0.518070
#
#
# Mechanical properties :
#
#
# Convention : Reuss Voigt Hill
#
# Bulk Modulus (GPa) = 32.28730 51.32078 41.80404
# Shear Modulus (GPa) = 5.52042 36.56913 21.04477
#
# Velocity S-wave (km/s) = 1.47567 3.79806 2.88122
# Velocity P-wave (km/s) = 3.95470 6.28314 5.24964
#
# Compressibility (1/GPa) = 0.03097193
#
# Stress axis : x y z
#
# Youngs Moduli (GPa) = 8.61756 91.30579 21.04872
#
# Poissons Ratio (x) = 1.10671 1.36030
# Poissons Ratio (y) = 0.10445 -0.10486
# Poissons Ratio (z) = 0.55692 -0.45485
#
# Static dielectric constant tensor:
#      x y z
#    x 2.292640 -0.174960 0.131350 
#    y -0.174960 2.109190 -0.040020 
#    z 0.131350 -0.040020 2.154080 
# 
# From -- ./inp_files/442046.got.cif
#   From: 2010.05.17/outbox.cif.g08.bks.cpg/sg2_222_cif.got.tgz:442046.got - 2010.06.03 11:33:40.
