data_PCOD9052555
_publ_section_title
;
Structure prediction by ZEFSAII (Michael W. Deem and Ramdas Pophale) SiO2 
 PCOD9052555
Probable space group: P -1
;
_chemical_formula_sum "Si O2"
_cell_formula_units_Z 16
_cell_length_a 8.193689
_cell_length_b 17.514876
_cell_length_c 13.964697
_cell_angle_alpha 32.689567
_cell_angle_beta 43.359464
_cell_angle_gamma 40.647254
_cell_volume 682.391796
_symmetry_space_group_name_H-M "P -1"
_symmetry_group_IT_number 2
_symmetry_cell_setting 'triclinic'
loop_
_space_group_symop_operation_xyz
x,y,z
-x,-y,-z
loop_
_atom_site_type_symbol
_atom_site_label
_atom_site_fract_x
_atom_site_fract_y
_atom_site_fract_z
Si Si1 0.761490 0.976420 0.175932
Si Si2 0.441902 0.679076 0.087104
Si Si3 0.064580 0.060148 0.507587
Si Si4 0.742470 0.639656 0.175230
Si Si5 0.635308 0.985834 0.854841
Si Si6 0.857379 0.639935 0.817306
Si Si7 0.079191 0.528374 0.330680
Si Si8 0.625558 0.786246 0.569298
O O1 0.586980 0.938552 0.210361
O O2 0.817941 0.856345 0.364382
O O3 0.593538 0.147453 0.102341
O O4 0.000000 0.000000 0.000000
O O5 0.479929 0.656950 0.210045
O O6 0.213817 0.646869 0.169078
O O7 0.707077 0.583842 0.019081
O O8 0.352787 0.931897 0.533856
O O9 0.856407 0.051088 0.682796
O O10 0.034973 0.235204 0.324676
O O11 0.000000 0.000000 0.500000
O O12 0.950455 0.501519 0.175111
O O13 0.830207 0.594913 0.295250
O O14 0.760599 0.802494 0.976463
O O15 0.500000 0.000000 0.000000
O O16 0.665533 0.735768 0.714255
O O17 0.298369 0.372026 0.357229
O O18 0.000000 0.500000 0.500000
#
# Coordination Sequence:
#
# PCOD9052555 Si02
#       8
#     2   2   2   2   2   2   2   2
#     4  11  24  44  68 100 140 179 236 287 351 427
#     4  11  24  45  70  99 138 186 229 291 355 416
#     4  12  24  44  71 103 143 180 237 292 352 425
#     4  10  26  47  68 102 138 179 238 281 355 422
#     4  11  27  44  70 104 135 189 231 295 358 414
#     4  11  25  44  69 103 137 183 228 294 355 412
#     4  11  27  45  70 103 142 189 232 294 353 423
#     4  11  25  43  68 108 135 185 241 285 355 417
#
# _framework density 23.446940000000001
#
# number of rings (size 3 to 8) (size 9 to 14) (size 15 to 20)
#    0.000    1.000    2.500    2.250   10.500    1.500 
#    2.250    0.000    0.000    0.000    0.000    0.000 
#    0.000    0.000    0.000    0.000    0.000    0.000 
#
# Total GULP energy -89307.700241 kJ/mol
# GULP energy per Si atom -5581.731265 kJ/mol
# Density = 2.339357 g / cm^3
# Si number density = 23.446940 Si / 1000 Ang^3
#
#
#
# Elastic Constant Matrix: (Units=GPa)
#
#
# Indices 1 2 3 4 5 6 
#
# 1 108.2081 26.9803 38.4809 0.9213 20.2861 25.3710
# 2 26.9803 63.3561 21.1872 -3.3757 -5.5912 9.6626
# 3 38.4809 21.1872 88.8125 12.6514 3.8388 9.2921
# 4 0.9213 -3.3757 12.6514 45.4225 3.0687 2.5879
# 5 20.2861 -5.5912 3.8388 3.0687 37.4209 -1.5707
# 6 25.3710 9.6626 9.2921 2.5879 -1.5707 35.8623
#
#
#
# Elastic Compliance Matrix: (Units=1/GPa)
#
#
# Indices 1 2 3 4 5 6 
#
# 1 0.016012 -0.004536 -0.004723 0.001827 -0.009419 -0.009427
# 2 -0.004536 0.019527 -0.003108 0.002105 0.005474 -0.001159
# 3 -0.004723 -0.003108 0.014536 -0.004294 0.000989 0.000765
# 4 0.001827 0.002105 -0.004294 0.023630 -0.002280 -0.002552
# 5 -0.009419 0.005474 0.000989 -0.002280 0.033007 0.006543
# 6 -0.009427 -0.001159 0.000765 -0.002552 0.006543 0.035138
#
#
# Mechanical properties :
#
#
# Convention : Reuss Voigt Hill
#
# Bulk Modulus (GPa) = 39.45998 48.18595 43.82296
# Shear Modulus (GPa) = 28.56618 35.32305 31.94461
#
# Velocity S-wave (km/s) = 3.49425 3.88559 3.69510
# Velocity P-wave (km/s) = 5.75723 6.38170 6.07749
#
# Compressibility (1/GPa) = 0.02534213
#
# Stress axis : x y z
#
# Youngs Moduli (GPa) = 62.45175 51.21154 68.79303
#
# Poissons Ratio (x) = 0.23228 0.32489
# Poissons Ratio (y) = 0.28327 0.21383
# Poissons Ratio (z) = 0.29494 0.15918
#
# Static dielectric constant tensor:
#      x y z
#    x 1.964450 -0.064960 0.026460 
#    y -0.064960 2.034610 0.004730 
#    z 0.026460 0.004730 1.849540 
# 
# From -- ./inp_files/507235.got.cif
#   From: 2010.05.17/outbox.cif.g08.bks.cpg/sg2_254_cif.got.tgz:507235.got - 2010.06.03 11:33:40.
