data_PCOD9052470
_publ_section_title
;
Structure prediction by ZEFSAII (Michael W. Deem and Ramdas Pophale) SiO2 
 PCOD9052470
Probable space group: P -1
;
_chemical_formula_sum "Si O2"
_cell_formula_units_Z 15
_cell_length_a 8.670194
_cell_length_b 11.835204
_cell_length_c 12.323864
_cell_angle_alpha 130.083169
_cell_angle_beta 138.888646
_cell_angle_gamma 58.270373
_cell_volume 634.097916
_symmetry_space_group_name_H-M "P -1"
_symmetry_group_IT_number 2
_symmetry_cell_setting 'triclinic'
loop_
_space_group_symop_operation_xyz
x,y,z
-x,-y,-z
loop_
_atom_site_type_symbol
_atom_site_label
_atom_site_fract_x
_atom_site_fract_y
_atom_site_fract_z
Si Si1 0.395649 0.716547 0.141146
Si Si2 0.830910 0.865132 0.418227
Si Si3 0.446535 0.578364 0.300856
Si Si4 0.000000 0.500000 0.500000
Si Si5 0.669622 0.168982 0.435838
Si Si6 0.770780 0.224372 0.142810
Si Si7 0.965669 0.052214 0.812952
Si Si8 0.362132 0.267673 0.125530
O O1 0.670349 0.735768 0.283492
O O2 0.365853 0.597868 0.145229
O O3 0.271115 0.870780 0.215132
O O4 0.284533 0.696635 0.952755
O O5 0.061346 0.808370 0.439664
O O6 0.674343 0.992695 0.348424
O O7 0.915176 0.954963 0.621689
O O8 0.724767 0.533619 0.418525
O O9 0.397647 0.731862 0.433878
O O10 0.321684 0.445132 0.207920
O O11 0.953249 0.324767 0.358047
O O12 0.501538 0.221408 0.280562
O O13 0.535879 0.222425 0.089305
O O14 0.890407 0.058887 0.097246
O O15 0.129819 0.181171 0.946492
#
# Coordination Sequence:
#
# PCOD9052470 Si02
#       8
#     2   2   2   1   2   2   2   2
#     4  12  27  44  73 106 143 189 236 301 358 420
#     4  11  25  44  75 108 141 187 239 303 356 424
#     4  11  26  48  70 103 144 193 239 292 359 427
#     4  10  26  46  72 102 144 186 230 292 356 422
#     4  11  24  46  74 104 138 189 239 299 358 425
#     4  11  25  46  73 105 143 186 238 296 359 430
#     4  12  24  46  72 107 144 185 246 298 353 425
#     4  11  26  45  68 103 140 191 239 295 356 423
#
# _framework density 23.655654999999999
#
# number of rings (size 3 to 8) (size 9 to 14) (size 15 to 20)
#    0.000    0.800    2.667    3.200    9.333    2.667 
#    0.000    0.000    0.000    0.000    0.000    0.000 
#    0.000    0.000    0.000    0.000    0.000    0.000 
#
# Total GULP energy -83788.860005 kJ/mol
# GULP energy per Si atom -5585.924000 kJ/mol
# Density = 2.360181 g / cm^3
# Si number density = 23.655655 Si / 1000 Ang^3
#
#
#
# Elastic Constant Matrix: (Units=GPa)
#
#
# Indices 1 2 3 4 5 6 
#
# 1 61.8873 10.1764 2.1101 -4.2050 3.6837 -1.9404
# 2 10.1764 49.3530 32.1819 -6.3929 -7.0002 12.4581
# 3 2.1101 32.1819 3.8476 -9.4918 13.5102 9.3743
# 4 -4.2050 -6.3929 -9.4918 32.9113 15.3227 -9.6658
# 5 3.6837 -7.0002 13.5102 15.3227 38.2941 0.8625
# 6 -1.9404 12.4581 9.3743 -9.6658 0.8625 40.4092
#
#
#
# Elastic Compliance Matrix: (Units=1/GPa)
#
#
# Indices 1 2 3 4 5 6 
#
# 1 0.016640 -0.000549 -0.005221 0.001504 -0.000518 0.002550
# 2 -0.000549 0.006746 0.022440 0.011671 -0.011204 -0.004281
# 3 -0.005221 0.022440 -0.029477 -0.016244 0.021609 -0.004677
# 4 0.001504 0.011671 -0.016244 0.033303 -0.005794 0.008332
# 5 -0.000518 -0.011204 0.021609 -0.005794 0.018886 -0.003372
# 6 0.002550 -0.004281 -0.004677 0.008332 -0.003372 0.029339
#
#
# Mechanical properties :
#
#
# Convention : Reuss Voigt Hill
#
# Bulk Modulus (GPa) = 36.70048 22.66943 29.68495
# Shear Modulus (GPa) = 97.69412 27.03089 62.36250
#
# Velocity S-wave (km/s) = 6.43336 3.38403 5.14002
# Velocity P-wave (km/s) = 8.41025 4.98726 6.91393
#
# Compressibility (1/GPa) = 0.02724760
#
# Stress axis : x y z
#
# Youngs Moduli (GPa) = 60.09761 148.23264 -33.92436
#
# Poissons Ratio (x) = 0.08134 -0.17713
# Poissons Ratio (y) = 0.03298 0.76125
# Poissons Ratio (z) = 0.31380 -3.32630
#
# Static dielectric constant tensor:
#      x y z
#    x 1.848600 0.029780 -0.033700 
#    y 0.029780 1.894790 -0.043650 
#    z -0.033700 -0.043650 1.886400 
# 
# From -- ./inp_files/393246.got.cif
#   From: 2010.05.17/outbox.cif.g08.bks.cpg/sg2_197_cif.got.tgz:393246.got - 2010.06.03 11:33:40.
