data_PCOD9052567
_publ_section_title
;
Structure prediction by ZEFSAII (Michael W. Deem and Ramdas Pophale) SiO2 
 PCOD9052567
Probable space group: P -1
;
_chemical_formula_sum "Si O2"
_cell_formula_units_Z 13
_cell_length_a 5.328736
_cell_length_b 11.898927
_cell_length_c 9.714467
_cell_angle_alpha 62.631958
_cell_angle_beta 106.416713
_cell_angle_gamma 82.898446
_cell_volume 500.932733
_symmetry_space_group_name_H-M "P -1"
_symmetry_group_IT_number 2
_symmetry_cell_setting 'triclinic'
loop_
_space_group_symop_operation_xyz
x,y,z
-x,-y,-z
loop_
_atom_site_type_symbol
_atom_site_label
_atom_site_fract_x
_atom_site_fract_y
_atom_site_fract_z
Si Si1 0.411931 0.603333 0.223102
Si Si2 0.284167 0.344805 0.303422
Si Si3 0.000000 0.500000 0.500000
Si Si4 0.403244 0.286503 0.050092
Si Si5 0.951407 0.874081 0.989997
Si Si6 0.927073 0.246517 0.519742
Si Si7 0.923580 0.040694 0.309256
O O1 0.054823 0.645054 0.429485
O O2 0.669853 0.569778 0.380181
O O3 0.538154 0.594897 0.092453
O O4 0.228115 0.753849 0.116199
O O5 0.245525 0.495213 0.265607
O O6 0.244400 0.339563 0.136536
O O7 0.603693 0.265941 0.432210
O O8 0.073973 0.287224 0.385715
O O9 0.267437 0.203644 0.972796
O O10 0.673493 0.172134 0.199932
O O11 0.879855 0.921283 0.792638
O O12 0.000000 0.000000 0.000000
O O13 0.098503 0.098937 0.672643
O O14 0.000000 0.000000 0.500000
#
# Coordination Sequence:
#
# PCOD9052567 Si02
#       7
#     2   2   1   2   2   2   2
#     4  10  26  47  70 105 143 193 247 303 377 443
#     4  11  25  46  74 108 144 193 244 309 369 440
#     4  10  26  48  70 102 144 190 244 300 366 444
#     4  11  25  45  72 103 148 189 245 308 374 438
#     4  11  28  44  74 106 148 199 245 309 377 449
#     4  11  26  43  75 108 145 193 247 304 369 438
#     4  11  24  45  71 105 145 193 250 305 365 446
#
# _framework density 25.951588999999998
#
# number of rings (size 3 to 8) (size 9 to 14) (size 15 to 20)
#    0.000    1.231    1.538    1.385   12.923    5.538 
#    0.000    0.000    0.000    0.000    0.000    0.000 
#    0.000    0.000    0.000    0.000    0.000    0.000 
#
# Total GULP energy -72493.292805 kJ/mol
# GULP energy per Si atom -5576.407139 kJ/mol
# Density = 2.589252 g / cm^3
# Si number density = 25.951589 Si / 1000 Ang^3
#
#
#
# Elastic Constant Matrix: (Units=GPa)
#
#
# Indices 1 2 3 4 5 6 
#
# 1 103.5927 6.1495 27.1766 -9.6415 1.9039 4.4503
# 2 6.1495 93.9790 4.4508 -5.1300 -8.6999 23.8001
# 3 27.1766 4.4508 106.8498 -5.3696 -13.4220 -3.7276
# 4 -9.6415 -5.1300 -5.3696 31.4950 6.7165 -0.1326
# 5 1.9039 -8.6999 -13.4220 6.7165 37.1373 5.2407
# 6 4.4503 23.8001 -3.7276 -0.1326 5.2407 37.2883
#
#
#
# Elastic Compliance Matrix: (Units=1/GPa)
#
#
# Indices 1 2 3 4 5 6 
#
# 1 0.010810 -0.000320 -0.002876 0.003210 -0.002098 -0.001067
# 2 -0.000320 0.013434 -0.000217 0.001125 0.004172 -0.009141
# 3 -0.002876 -0.000217 0.010613 0.000094 0.003773 0.001012
# 4 0.003210 0.001125 0.000094 0.034220 -0.006039 -0.000122
# 5 -0.002098 0.004172 0.003773 -0.006039 0.031380 -0.006467
# 6 -0.001067 -0.009141 0.001012 -0.000122 -0.006467 0.033789
#
#
# Mechanical properties :
#
#
# Convention : Reuss Voigt Hill
#
# Bulk Modulus (GPa) = 35.67200 42.21949 38.94575
# Shear Modulus (GPa) = 33.24128 38.96044 36.10086
#
# Velocity S-wave (km/s) = 3.58284 3.87883 3.73377
# Velocity P-wave (km/s) = 5.55798 6.03028 5.79894
#
# Compressibility (1/GPa) = 0.02803319
#
# Stress axis : x y z
#
# Youngs Moduli (GPa) = 92.50944 74.43631 94.22165
#
# Poissons Ratio (x) = 0.02382 0.27094
# Poissons Ratio (y) = 0.02960 0.02040
# Poissons Ratio (z) = 0.26602 0.01612
#
# Static dielectric constant tensor:
#      x y z
#    x 2.023630 -0.062080 -0.035670 
#    y -0.062080 2.133570 0.156070 
#    z -0.035670 0.156070 2.100470 
# 
# From -- ./inp_files/87534.got.cif
#   From: 2010.05.17/outbox.cif.g08.bks.cpg/sg2_44_cif.got.tgz:87534.got - 2010.06.03 11:33:40.
