data_PCOD9052292
_publ_section_title
;
Structure prediction by ZEFSAII (Michael W. Deem and Ramdas Pophale) SiO2 
 PCOD9052292
Probable space group: P -1
;
_chemical_formula_sum "Si O2"
_cell_formula_units_Z 13
_cell_length_a 5.052352
_cell_length_b 12.946521
_cell_length_c 12.696185
_cell_angle_alpha 134.202956
_cell_angle_beta 85.380444
_cell_angle_gamma 99.033668
_cell_volume 587.461807
_symmetry_space_group_name_H-M "P -1"
_symmetry_group_IT_number 2
_symmetry_cell_setting 'triclinic'
loop_
_space_group_symop_operation_xyz
x,y,z
-x,-y,-z
loop_
_atom_site_type_symbol
_atom_site_label
_atom_site_fract_x
_atom_site_fract_y
_atom_site_fract_z
Si Si1 0.840850 0.323485 0.071354
Si Si2 0.582835 0.738569 0.604616
Si Si3 0.622575 0.520801 0.895875
Si Si4 0.811893 0.461574 0.380339
Si Si5 0.422999 0.798933 0.431971
Si Si6 0.000000 0.000000 0.500000
Si Si7 0.230526 0.995367 0.074792
O O1 0.565160 0.382706 0.094719
O O2 0.937397 0.385631 0.226955
O O3 0.080420 0.391528 0.038160
O O4 0.805242 0.151243 0.959758
O O5 0.726337 0.613992 0.456902
O O6 0.426583 0.652622 0.645768
O O7 0.406166 0.792664 0.555949
O O8 0.759969 0.872292 0.749824
O O9 0.620209 0.364806 0.729735
O O10 0.500000 0.500000 0.000000
O O11 0.000000 0.500000 0.500000
O O12 0.193754 0.884494 0.454372
O O13 0.719829 0.881678 0.452678
O O14 0.500000 0.000000 0.000000
O O15 0.000000 0.000000 0.000000
#
# Coordination Sequence:
#
# PCOD9052292 Si02
#       7
#     2   2   2   2   2   1   2
#     4  12  25  46  73 103 144 188 246 290 363 437
#     4  11  25  41  72 105 145 189 234 299 359 434
#     4  12  27  48  75 102 139 191 246 308 357 424
#     4  11  23  41  71 109 141 188 240 287 359 446
#     4  11  24  47  72 106 142 187 248 296 370 425
#     4  10  26  44  72 100 146 180 242 310 348 432
#     4  12  26  45  66 105 151 193 234 292 363 437
#
# _framework density 22.129097999999999
#
# number of rings (size 3 to 8) (size 9 to 14) (size 15 to 20)
#    0.000    0.615    3.077    4.154    4.308    3.692 
#    0.000    0.000    0.000    0.000    0.000    0.000 
#    0.000    0.000    0.000    0.000    0.000    0.000 
#
# Total GULP energy -72484.447697 kJ/mol
# GULP energy per Si atom -5575.726746 kJ/mol
# Density = 2.207873 g / cm^3
# Si number density = 22.129098 Si / 1000 Ang^3
#
#
#
# Elastic Constant Matrix: (Units=GPa)
#
#
# Indices 1 2 3 4 5 6 
#
# 1 146.9228 43.0863 10.0749 25.6329 4.6428 -13.9501
# 2 43.0863 122.3317 50.2731 44.4884 -0.8118 -12.6363
# 3 10.0749 50.2731 103.1934 20.1168 8.2703 -4.5983
# 4 25.6329 44.4884 20.1168 39.4164 2.6507 -2.6455
# 5 4.6428 -0.8118 8.2703 2.6507 16.5142 -6.0931
# 6 -13.9501 -12.6363 -4.5983 -2.6455 -6.0931 48.3450
#
#
#
# Elastic Compliance Matrix: (Units=1/GPa)
#
#
# Indices 1 2 3 4 5 6 
#
# 1 0.008085 -0.001854 0.000995 -0.003453 -0.001742 0.001535
# 2 -0.001854 0.017304 -0.005668 -0.015733 0.008065 0.003605
# 3 0.000995 -0.005668 0.012988 -0.000447 -0.007326 -0.000907
# 4 -0.003453 -0.015733 -0.000447 0.045913 -0.008308 -0.003686
# 5 -0.001742 0.008065 -0.007326 -0.008308 0.069859 0.009259
# 6 0.001535 0.003605 -0.000907 -0.003686 0.009259 0.022949
#
#
# Mechanical properties :
#
#
# Convention : Reuss Voigt Hill
#
# Bulk Modulus (GPa) = 39.48812 64.36853 51.92832
# Shear Modulus (GPa) = 25.17726 38.78935 31.98331
#
# Velocity S-wave (km/s) = 3.37671 4.19127 3.80584
# Velocity P-wave (km/s) = 5.75205 7.25074 6.54443
#
# Compressibility (1/GPa) = 0.02532407
#
# Stress axis : x y z
#
# Youngs Moduli (GPa) = 123.68785 57.78964 76.99133
#
# Poissons Ratio (x) = 0.10712 -0.07660
# Poissons Ratio (y) = 0.22928 0.43638
# Poissons Ratio (z) = -0.12305 0.32754
#
# Static dielectric constant tensor:
#      x y z
#    x 1.866830 0.046000 -0.004700 
#    y 0.046000 1.881600 -0.012390 
#    z -0.004700 -0.012390 1.784870 
# 
# From -- ./inp_files/365426.got.cif
#   From: 2010.05.17/outbox.cif.g08.bks.cpg/sg2_183_cif.got.tgz:365426.got - 2010.06.03 11:33:40.
