data_PCOD9052791
_publ_section_title
;
Structure prediction by ZEFSAII (Michael W. Deem and Ramdas Pophale) SiO2 
 PCOD9052791
Probable space group: P -1
;
_chemical_formula_sum "Si O2"
_cell_formula_units_Z 16
_cell_length_a 5.541424
_cell_length_b 9.099759
_cell_length_c 17.759591
_cell_angle_alpha 65.234693
_cell_angle_beta 118.489648
_cell_angle_gamma 81.263552
_cell_volume 641.558971
_symmetry_space_group_name_H-M "P -1"
_symmetry_group_IT_number 2
_symmetry_cell_setting 'triclinic'
loop_
_space_group_symop_operation_xyz
x,y,z
-x,-y,-z
loop_
_atom_site_type_symbol
_atom_site_label
_atom_site_fract_x
_atom_site_fract_y
_atom_site_fract_z
Si Si1 0.828422 0.403566 0.109636
Si Si2 0.202504 0.595689 0.147396
Si Si3 0.605767 0.219686 0.206894
Si Si4 0.448662 0.276595 0.470107
Si Si5 0.047999 0.667632 0.384329
Si Si6 0.654139 0.051167 0.410440
Si Si7 0.342293 0.772853 0.265614
Si Si8 0.837760 0.854537 0.916549
O O1 0.891908 0.239042 0.210511
O O2 0.921669 0.546333 0.130533
O O3 0.037882 0.306783 0.090961
O O4 0.500000 0.500000 0.000000
O O5 0.431723 0.427867 0.167516
O O6 0.348654 0.627376 0.236698
O O7 0.049919 0.777551 0.036255
O O8 0.637760 0.100397 0.309813
O O9 0.497916 0.139311 0.135991
O O10 0.180046 0.459880 0.421992
O O11 0.750994 0.306704 0.524395
O O12 0.448282 0.224219 0.394222
O O13 0.439439 0.107623 0.548961
O O14 0.148653 0.759630 0.310523
O O15 0.694648 0.734915 0.337933
O O16 0.000000 0.000000 0.500000
O O17 0.179332 0.965844 0.159484
#
# Coordination Sequence:
#
# PCOD9052791 Si02
#       8
#     2   2   2   2   2   2   2   2
#     4  11  21  42  74 104 142 197 248 297 371 438
#     4  11  24  44  68 106 146 193 246 301 361 438
#     4  11  23  42  73 101 143 191 236 300 366 443
#     4  10  26  50  74 104 146 188 250 308 376 442
#     4  11  28  50  77 102 147 205 242 303 377 450
#     4  11  26  43  75 111 144 176 247 313 370 430
#     4  12  29  45  74 110 147 193 253 303 371 436
#     4  11  24  44  68 106 146 193 246 301 361 438
#
# _framework density 24.939252
#
# number of rings (size 3 to 8) (size 9 to 14) (size 15 to 20)
#    0.000    1.000    2.500    2.625   10.500    5.000 
#    0.000    1.875    0.000    0.000    0.000    0.000 
#    0.000    0.000    0.000    0.000    0.000    0.000 
#
# Total GULP energy -89451.846781 kJ/mol
# GULP energy per Si atom -5590.740424 kJ/mol
# Density = 2.488249 g / cm^3
# Si number density = 24.939252 Si / 1000 Ang^3
#
#
#
# Elastic Constant Matrix: (Units=GPa)
#
#
# Indices 1 2 3 4 5 6 
#
# 1 68.4392 13.9708 15.2637 4.2372 -5.8930 15.7256
# 2 13.9708 118.1986 13.6974 -3.9274 3.2382 6.4837
# 3 15.2637 13.6974 70.2986 -1.9479 -0.9917 7.7049
# 4 4.2372 -3.9274 -1.9479 50.9821 6.5007 -6.8545
# 5 -5.8930 3.2382 -0.9917 6.5007 37.1456 -3.3081
# 6 15.7256 6.4837 7.7049 -6.8545 -3.3081 31.9062
#
#
#
# Elastic Compliance Matrix: (Units=1/GPa)
#
#
# Indices 1 2 3 4 5 6 
#
# 1 0.017849 -0.001522 -0.002727 -0.003157 0.002711 -0.008227
# 2 -0.001522 0.008893 -0.001322 0.000829 -0.001258 -0.000691
# 3 -0.002727 -0.001322 0.015304 0.000462 -0.000168 -0.002002
# 4 -0.003157 0.000829 0.000462 0.021171 -0.003782 0.005432
# 5 0.002711 -0.001258 -0.000168 -0.003782 0.028214 0.001073
# 6 -0.008227 -0.000691 -0.002002 0.005432 0.001073 0.037298
#
#
# Mechanical properties :
#
#
# Convention : Reuss Voigt Hill
#
# Bulk Modulus (GPa) = 32.35475 38.08890 35.22183
# Shear Modulus (GPa) = 33.29500 38.27375 35.78437
#
# Velocity S-wave (km/s) = 3.65779 3.92175 3.79207
# Velocity P-wave (km/s) = 5.55345 5.98437 5.77293
#
# Compressibility (1/GPa) = 0.03090736
#
# Stress axis : x y z
#
# Youngs Moduli (GPa) = 56.02409 112.44503 65.34085
#
# Poissons Ratio (x) = 0.17110 0.17816
# Poissons Ratio (y) = 0.08525 0.08635
# Poissons Ratio (z) = 0.15276 0.14860
#
# Static dielectric constant tensor:
#      x y z
#    x 1.385560 -0.169220 -0.760370 
#    y -0.169220 1.882670 -0.257330 
#    z -0.760370 -0.257330 1.118570 
# 
# From -- ./inp_files/582370.got.cif
#   From: 2010.05.17/outbox.cif.g08.bks.cpg/sg2_292_cif.got.tgz:582370.got - 2010.06.03 11:33:40.
