data_PCOD9052436
_publ_section_title
;
Structure prediction by ZEFSAII (Michael W. Deem and Ramdas Pophale) SiO2 
 PCOD9052436
Probable space group: P -1
;
_chemical_formula_sum "Si O2"
_cell_formula_units_Z 11
_cell_length_a 8.447038
_cell_length_b 11.877286
_cell_length_c 7.826757
_cell_angle_alpha 105.895979
_cell_angle_beta 127.967064
_cell_angle_gamma 43.358832
_cell_volume 402.620542
_symmetry_space_group_name_H-M "P -1"
_symmetry_group_IT_number 2
_symmetry_cell_setting 'triclinic'
loop_
_space_group_symop_operation_xyz
x,y,z
-x,-y,-z
loop_
_atom_site_type_symbol
_atom_site_label
_atom_site_fract_x
_atom_site_fract_y
_atom_site_fract_z
Si Si1 0.787741 0.912030 0.761945
Si Si2 0.281161 0.984373 0.883728
Si Si3 0.000000 0.500000 0.500000
Si Si4 0.728756 0.367325 0.243830
Si Si5 0.376211 0.736838 0.570535
Si Si6 0.947719 0.585999 0.826762
O O1 0.906778 0.741464 0.862221
O O2 0.047426 0.828019 0.763623
O O3 0.500000 0.000000 0.500000
O O4 0.716992 0.030954 0.915800
O O5 0.365090 0.850524 0.743040
O O6 0.934562 0.155069 0.678690
O O7 0.500000 0.000000 0.000000
O O8 0.948440 0.379738 0.437067
O O9 0.166106 0.440103 0.771692
O O10 0.562592 0.397547 0.317203
O O11 0.500000 0.500000 0.000000
O O12 0.632881 0.666291 0.578988
O O13 0.000000 0.500000 0.000000
#
# Coordination Sequence:
#
# PCOD9052436 Si02
#       6
#     2   2   1   2   2   2
#     4  11  25  45  74 105 148 191 243 309 376 428
#     4  11  24  45  72 101 145 185 236 311 363 427
#     4  10  26  46  70 100 156 184 232 302 366 422
#     4  11  26  45  69 108 142 189 242 296 366 441
#     4  11  25  43  75 107 135 192 253 284 371 445
#     4  11  25  47  74 108 145 197 245 296 372 446
#
# _framework density 27.321010000000001
#
# number of rings (size 3 to 8) (size 9 to 14) (size 15 to 20)
#    0.000    1.091    1.818    3.273    7.636    8.727 
#    0.000    0.000    0.000    0.000    0.000    0.000 
#    0.000    0.000    0.000    0.000    0.000    0.000 
#
# Total GULP energy -61309.746897 kJ/mol
# GULP energy per Si atom -5573.613354 kJ/mol
# Density = 2.725883 g / cm^3
# Si number density = 27.321010 Si / 1000 Ang^3
#
#
#
# Elastic Constant Matrix: (Units=GPa)
#
#
# Indices 1 2 3 4 5 6 
#
# 1 41.3859 -0.4666 4.1475 14.0898 23.1755 12.5344
# 2 -0.4666 88.4849 40.7709 15.6704 6.9922 -7.1486
# 3 4.1475 40.7709 158.8912 17.2753 6.4355 0.2440
# 4 14.0898 15.6704 17.2753 57.9615 -4.4682 4.1048
# 5 23.1755 6.9922 6.4355 -4.4682 74.1512 1.6738
# 6 12.5344 -7.1486 0.2440 4.1048 1.6738 50.7194
#
#
#
# Elastic Compliance Matrix: (Units=1/GPa)
#
#
# Indices 1 2 3 4 5 6 
#
# 1 0.036614 0.002280 0.000040 -0.009928 -0.012090 -0.007525
# 2 0.002280 0.013677 -0.003099 -0.003605 -0.001990 0.001736
# 3 0.000040 -0.003099 0.007251 -0.001340 -0.000422 -0.000359
# 4 -0.009928 -0.003605 -0.001340 0.021410 0.004848 0.000059
# 5 -0.012090 -0.001990 -0.000422 0.004848 0.017742 0.001732
# 6 -0.007525 0.001736 -0.000359 0.000059 0.001732 0.021760
#
#
# Mechanical properties :
#
#
# Convention : Reuss Voigt Hill
#
# Bulk Modulus (GPa) = 17.86213 41.96285 29.91249
# Shear Modulus (GPa) = 36.05574 52.85377 44.45475
#
# Velocity S-wave (km/s) = 3.63672 4.40312 4.03814
# Velocity P-wave (km/s) = 4.91796 6.42203 5.71965
#
# Compressibility (1/GPa) = 0.05598437
#
# Stress axis : x y z
#
# Youngs Moduli (GPa) = 27.31202 73.11360 137.90870
#
# Poissons Ratio (x) = -0.16673 -0.00548
# Poissons Ratio (y) = -0.06228 0.42741
# Poissons Ratio (z) = -0.00109 0.22660
#
# Static dielectric constant tensor:
#      x y z
#    x 2.126190 0.147810 0.250970 
#    y 0.147810 2.018000 -0.225400 
#    z 0.250970 -0.225400 1.978150 
# 
# From -- ./inp_files/60051.got.cif
#   From: 2010.05.17/outbox.cif.g08.bks.cpg/sg2_31_cif.got.tgz:60051.got - 2010.06.03 11:33:40.
