data_PCOD9052240
_publ_section_title
;
Structure prediction by ZEFSAII (Michael W. Deem and Ramdas Pophale) SiO2 
 PCOD9052240
Probable space group: P -1
;
_chemical_formula_sum "Si O2"
_cell_formula_units_Z 16
_cell_length_a 9.116234
_cell_length_b 17.514106
_cell_length_c 10.670890
_cell_angle_alpha 152.632237
_cell_angle_beta 118.189212
_cell_angle_gamma 55.536590
_cell_volume 643.700354
_symmetry_space_group_name_H-M "P -1"
_symmetry_group_IT_number 2
_symmetry_cell_setting 'triclinic'
loop_
_space_group_symop_operation_xyz
x,y,z
-x,-y,-z
loop_
_atom_site_type_symbol
_atom_site_label
_atom_site_fract_x
_atom_site_fract_y
_atom_site_fract_z
Si Si1 0.667687 0.577051 0.530728
Si Si2 0.811495 0.262046 0.939731
Si Si3 0.377411 0.912434 0.195918
Si Si4 0.734792 0.730115 0.197108
Si Si5 0.185435 0.124222 0.012720
Si Si6 0.979842 0.336621 0.479499
Si Si7 0.126985 0.595845 0.065880
Si Si8 0.713808 0.208848 0.285100
O O1 0.743156 0.454404 0.261310
O O2 0.689563 0.767126 0.811072
O O3 0.799522 0.468540 0.533924
O O4 0.460900 0.614905 0.518874
O O5 0.786630 0.297285 0.832849
O O6 0.023297 0.168144 0.913671
O O7 0.713204 0.153603 0.820159
O O8 0.588021 0.802612 0.135399
O O9 0.334657 0.120317 0.505020
O O10 0.305926 0.873073 0.977877
O O11 0.753766 0.535003 0.970711
O O12 0.932093 0.713840 0.210773
O O13 0.090624 0.211230 0.231874
O O14 0.284321 0.919463 0.786034
O O15 0.904294 0.230348 0.391175
O O16 0.078670 0.453730 0.752401
#
# Coordination Sequence:
#
# PCOD9052240 Si02
#       8
#     2   2   2   2   2   2   2   2
#     4  11  21  38  56  99 127 161 191 242 321 377
#     4  11  23  39  66  88 127 161 200 256 306 363
#     4  11  24  44  61  91 127 163 204 257 301 356
#     4  10  26  44  66  86 118 170 216 250 298 350
#     4  11  21  38  56  99 127 161 191 242 321 377
#     4  11  20  37  66  92 124 157 197 252 311 369
#     4  11  22  44  68  89 119 164 211 256 295 366
#     4  12  24  35  65  96 131 156 197 250 313 372
#
# _framework density 24.856285
#
# number of rings (size 3 to 8) (size 9 to 14) (size 15 to 20)
#    0.000    1.000    5.000    3.375    3.500    1.000 
#    0.000    0.000    0.000    0.000    0.000    0.000 
#    0.000    0.000    0.000    0.000    0.000    0.000 
#
# Total GULP energy -89633.807176 kJ/mol
# GULP energy per Si atom -5602.112948 kJ/mol
# Density = 2.479971 g / cm^3
# Si number density = 24.856285 Si / 1000 Ang^3
#
#
#
# Elastic Constant Matrix: (Units=GPa)
#
#
# Indices 1 2 3 4 5 6 
#
# 1 72.9428 35.8688 -1.6397 8.4275 8.2601 6.5120
# 2 35.8688 76.2771 33.8647 10.1756 -14.2634 6.4737
# 3 -1.6397 33.8647 43.7311 -1.0571 -3.0714 -1.6680
# 4 8.4275 10.1756 -1.0571 31.7208 -7.5595 3.3243
# 5 8.2601 -14.2634 -3.0714 -7.5595 25.5993 5.9288
# 6 6.5120 6.4737 -1.6680 3.3243 5.9288 31.7357
#
#
#
# Elastic Compliance Matrix: (Units=1/GPa)
#
#
# Indices 1 2 3 4 5 6 
#
# 1 0.032378 -0.030446 0.022961 -0.005367 -0.027751 0.006520
# 2 -0.030446 0.053797 -0.040653 0.000042 0.038176 -0.014000
# 3 0.022961 -0.040653 0.053859 0.001442 -0.025735 0.011069
# 4 -0.005367 0.000042 0.001442 0.036893 0.014055 -0.005322
# 5 -0.027751 0.038176 -0.025735 0.014055 0.074724 -0.018878
# 6 0.006520 -0.014000 0.011069 -0.005322 -0.018878 0.037694
#
#
# Mechanical properties :
#
#
# Convention : Reuss Voigt Hill
#
# Bulk Modulus (GPa) = 22.85351 36.57093 29.71222
# Shear Modulus (GPa) = 12.49360 26.13497 19.31428
#
# Velocity S-wave (km/s) = 2.24438 3.24611 2.79056
# Velocity P-wave (km/s) = 3.99131 5.36606 4.72891
#
# Compressibility (1/GPa) = 0.04375695
#
# Stress axis : x y z
#
# Youngs Moduli (GPa) = 30.88561 18.58843 18.56715
#
# Poissons Ratio (x) = 0.56594 -0.42632
# Poissons Ratio (y) = 0.94034 0.75481
# Poissons Ratio (z) = -0.70916 0.75567
#
# Static dielectric constant tensor:
#      x y z
#    x 1.932500 0.035830 0.015060 
#    y 0.035830 1.958970 0.009310 
#    z 0.015060 0.009310 1.952840 
# 
# From -- ./inp_files/180590.got.cif
#   From: 2010.05.17/outbox.cif.g08.bks.cpg/sg2_91_cif.got.tgz:180590.got - 2010.06.03 11:33:40.
