data_PCOD9052537
_publ_section_title
;
Structure prediction by ZEFSAII (Michael W. Deem and Ramdas Pophale) SiO2 
 PCOD9052537
Probable space group: P -1
;
_chemical_formula_sum "Si O2"
_cell_formula_units_Z 13
_cell_length_a 9.612590
_cell_length_b 17.026046
_cell_length_c 6.587203
_cell_angle_alpha 113.428707
_cell_angle_beta 46.228585
_cell_angle_gamma 139.735799
_cell_volume 483.152674
_symmetry_space_group_name_H-M "P -1"
_symmetry_group_IT_number 2
_symmetry_cell_setting 'triclinic'
loop_
_space_group_symop_operation_xyz
x,y,z
-x,-y,-z
loop_
_atom_site_type_symbol
_atom_site_label
_atom_site_fract_x
_atom_site_fract_y
_atom_site_fract_z
Si Si1 0.000000 0.500000 0.500000
Si Si2 0.773484 0.181859 0.305676
Si Si3 0.282826 0.093534 0.942832
Si Si4 0.377762 0.290655 0.244200
Si Si5 0.187881 0.402360 0.435124
Si Si6 0.191104 0.935081 0.184514
Si Si7 0.173846 0.650160 0.871161
O O1 0.769550 0.497280 0.632776
O O2 0.990371 0.540304 0.776176
O O3 0.488772 0.090602 0.631632
O O4 0.002620 0.287801 0.343649
O O5 0.703939 0.231676 0.260493
O O6 0.893763 0.144162 0.014807
O O7 0.432858 0.236879 0.955256
O O8 0.229068 0.043380 0.174475
O O9 0.000000 0.000000 0.000000
O O10 0.578058 0.326621 0.262302
O O11 0.402743 0.399879 0.291916
O O12 0.047467 0.163227 0.509595
O O13 0.002718 0.368668 0.783457
O O14 0.500000 0.000000 0.000000
#
# Coordination Sequence:
#
# PCOD9052537 Si02
#       7
#     1   2   2   2   2   2   2
#     4  10  26  46  78  98 132 174 218 288 352 424
#     4  11  22  42  67  95 140 190 221 280 340 386
#     4  12  23  38  61 102 139 178 242 275 315 399
#     4  12  24  42  71  99 140 188 222 282 340 393
#     4  11  23  47  70 100 136 173 223 283 350 413
#     4  12  23  40  65 100 141 188 236 276 324 386
#     4  11  23  47  70 101 137 172 227 282 347 414
#
# _framework density 26.906606
#
# number of rings (size 3 to 8) (size 9 to 14) (size 15 to 20)
#    0.000    0.615    3.077    6.000    0.000    0.615 
#    0.000    1.538    0.000    0.000    0.000    0.000 
#    0.000    0.000    0.000    0.000    0.000    0.000 
#
# Total GULP energy -72543.126396 kJ/mol
# GULP energy per Si atom -5580.240492 kJ/mol
# Density = 2.684537 g / cm^3
# Si number density = 26.906606 Si / 1000 Ang^3
#
#
#
# Elastic Constant Matrix: (Units=GPa)
#
#
# Indices 1 2 3 4 5 6 
#
# 1 203.1955 36.6441 16.9405 7.6942 -6.5970 -21.1364
# 2 36.6441 41.9157 14.0304 32.5824 1.6744 -6.8204
# 3 16.9405 14.0304 121.2953 21.8465 -0.1992 -2.2312
# 4 7.6942 32.5824 21.8465 54.0769 1.3675 11.9248
# 5 -6.5970 1.6744 -0.1992 1.3675 49.1792 9.8434
# 6 -21.1364 -6.8204 -2.2312 11.9248 9.8434 68.3249
#
#
#
# Elastic Compliance Matrix: (Units=1/GPa)
#
#
# Indices 1 2 3 4 5 6 
#
# 1 0.006517 -0.009345 -0.000720 0.004958 0.001043 0.000044
# 2 -0.009345 0.065701 0.001337 -0.041232 -0.004656 0.011578
# 3 -0.000720 0.001337 0.009033 -0.004575 -0.000185 0.001031
# 4 0.004958 -0.041232 -0.004575 0.046905 0.003018 -0.011353
# 5 0.001043 -0.004656 -0.000185 0.003018 0.021297 -0.003743
# 6 0.000044 0.011578 0.001031 -0.011353 -0.003743 0.018360
#
#
# Mechanical properties :
#
#
# Convention : Reuss Voigt Hill
#
# Bulk Modulus (GPa) = 15.67514 55.73737 35.70626
# Shear Modulus (GPa) = 24.20903 54.23563 39.22233
#
# Velocity S-wave (km/s) = 3.00283 4.49452 3.82215
# Velocity P-wave (km/s) = 4.22623 6.90612 5.72518
#
# Compressibility (1/GPa) = 0.06379528
#
# Stress axis : x y z
#
# Youngs Moduli (GPa) = 153.43482 15.22045 110.70677
#
# Poissons Ratio (x) = 0.14224 0.07968
# Poissons Ratio (y) = 1.43391 -0.14803
# Poissons Ratio (z) = 0.11043 -0.02035
#
# Static dielectric constant tensor:
#      x y z
#    x 2.112100 -0.111280 0.032870 
#    y -0.111280 1.927210 0.073610 
#    z 0.032870 0.073610 2.031140 
# 
# From -- ./inp_files/4428.got.cif
#   From: 2010.05.17/outbox.cif.g08.bks.cpg/sg2_3_cif.got.tgz:4428.got - 2010.06.03 11:33:40.
