data_PCOD9052379
_publ_section_title
;
Structure prediction by ZEFSAII (Michael W. Deem and Ramdas Pophale) SiO2 
 PCOD9052379
Probable space group: P -1
;
_chemical_formula_sum "Si O2"
_cell_formula_units_Z 12
_cell_length_a 7.433942
_cell_length_b 11.623957
_cell_length_c 9.016362
_cell_angle_alpha 88.383218
_cell_angle_beta 103.465142
_cell_angle_gamma 38.678768
_cell_volume 444.366521
_symmetry_space_group_name_H-M "P -1"
_symmetry_group_IT_number 2
_symmetry_cell_setting 'triclinic'
loop_
_space_group_symop_operation_xyz
x,y,z
-x,-y,-z
loop_
_atom_site_type_symbol
_atom_site_label
_atom_site_fract_x
_atom_site_fract_y
_atom_site_fract_z
Si Si1 0.154221 0.312681 0.890670
Si Si2 0.401650 0.453907 0.601690
Si Si3 0.946005 0.206243 0.293781
Si Si4 0.306558 0.766992 0.046500
Si Si5 0.510541 0.978551 0.759637
Si Si6 0.504944 0.737187 0.639788
O O1 0.399809 0.294846 0.920536
O O2 0.256381 0.189112 0.060135
O O3 0.651236 0.318066 0.786850
O O4 0.227311 0.187883 0.775005
O O5 0.500000 0.500000 0.500000
O O6 0.104730 0.649686 0.631055
O O7 0.201713 0.817346 0.631296
O O8 0.395567 0.343223 0.505936
O O9 0.744010 0.290128 0.100981
O O10 0.194870 0.460626 0.199450
O O11 0.294375 0.032780 0.303599
O O12 0.000000 0.000000 0.000000
O O13 0.429834 0.905981 0.655765
#
# Coordination Sequence:
#
# PCOD9052379 Si02
#       6
#     2   2   2   2   2   2
#     4  11  25  42  72 110 143 186 245 302 357 428
#     4  10  26  45  71 107 145 193 235 300 370 425
#     4  11  24  44  75 100 139 197 244 287 357 438
#     4  12  24  46  75 107 143 189 249 299 351 439
#     4  11  24  43  71 108 144 191 239 299 360 427
#     4  11  25  48  67 106 148 187 239 303 362 430
#
# _framework density 27.004733999999999
#
# number of rings (size 3 to 8) (size 9 to 14) (size 15 to 20)
#    0.000    1.000    3.333    2.000    7.000    2.667 
#    3.000    3.333    0.000    0.000    0.000    0.000 
#    0.000    0.000    0.000    0.000    0.000    0.000 
#
# Total GULP energy -67325.840794 kJ/mol
# GULP energy per Si atom -5610.486733 kJ/mol
# Density = 2.694327 g / cm^3
# Si number density = 27.004734 Si / 1000 Ang^3
#
#
#
# Elastic Constant Matrix: (Units=GPa)
#
#
# Indices 1 2 3 4 5 6 
#
# 1 137.9896 61.7749 39.8525 4.3244 7.8449 -17.3095
# 2 61.7749 111.1194 38.1200 3.8292 -12.1391 5.2887
# 3 39.8525 38.1200 187.4454 29.9387 -9.5017 6.8576
# 4 4.3244 3.8292 29.9387 62.8740 14.2635 -1.3529
# 5 7.8449 -12.1391 -9.5017 14.2635 47.1805 0.2965
# 6 -17.3095 5.2887 6.8576 -1.3529 0.2965 32.8595
#
#
#
# Elastic Compliance Matrix: (Units=1/GPa)
#
#
# Indices 1 2 3 4 5 6 
#
# 1 0.012241 -0.007102 -0.001992 0.001818 -0.004865 0.008126
# 2 -0.007102 0.014062 -0.000658 -0.001342 0.005110 -0.005969
# 3 -0.001992 -0.000658 0.006704 -0.003667 0.002637 -0.002517
# 4 0.001818 -0.001342 -0.003667 0.019311 -0.007242 0.002799
# 5 -0.004865 0.005110 0.002637 -0.007242 0.026067 -0.004469
# 6 0.008126 -0.005969 -0.002517 0.002799 -0.004469 0.036355
#
#
# Mechanical properties :
#
#
# Convention : Reuss Voigt Hill
#
# Bulk Modulus (GPa) = 74.06692 79.56103 76.81397
# Shear Modulus (GPa) = 36.03734 48.36993 42.20364
#
# Velocity S-wave (km/s) = 3.65702 4.23681 3.95755
# Velocity P-wave (km/s) = 6.73191 7.31163 7.02775
#
# Compressibility (1/GPa) = 0.01350130
#
# Stress axis : x y z
#
# Youngs Moduli (GPa) = 81.69410 71.11350 149.16993
#
# Poissons Ratio (x) = 0.50508 0.29719
# Poissons Ratio (y) = 0.58022 0.09815
# Poissons Ratio (z) = 0.16276 0.04679
#
# Static dielectric constant tensor:
#      x y z
#    x 2.018260 0.033350 0.036470 
#    y 0.033350 2.106400 -0.042800 
#    z 0.036470 -0.042800 2.142120 
# 
# From -- ./inp_files/481209.got.cif
#   From: 2010.05.17/outbox.cif.g08.bks.cpg/sg2_241_cif.got.tgz:481209.got - 2010.06.03 11:33:40.
