data_PCOD9052719
_publ_section_title
;
Structure prediction by ZEFSAII (Michael W. Deem and Ramdas Pophale) SiO2 
 PCOD9052719
Probable space group: P -1
;
_chemical_formula_sum "Si O2"
_cell_formula_units_Z 15
_cell_length_a 18.443088
_cell_length_b 6.374274
_cell_length_c 5.257072
_cell_angle_alpha 105.019416
_cell_angle_beta 89.213148
_cell_angle_gamma 68.645417
_cell_volume 551.905010
_symmetry_space_group_name_H-M "P -1"
_symmetry_group_IT_number 2
_symmetry_cell_setting 'triclinic'
loop_
_space_group_symop_operation_xyz
x,y,z
-x,-y,-z
loop_
_atom_site_type_symbol
_atom_site_label
_atom_site_fract_x
_atom_site_fract_y
_atom_site_fract_z
Si Si1 0.500000 0.500000 0.000000
Si Si2 0.716009 0.627675 0.786947
Si Si3 0.800487 0.235431 0.009050
Si Si4 0.014072 0.324331 0.768399
Si Si5 0.301488 0.969843 0.718471
Si Si6 0.970290 0.870737 0.814694
Si Si7 0.585565 0.539709 0.509312
Si Si8 0.171291 0.352970 0.565294
O O1 0.545520 0.595692 0.252472
O O2 0.464904 0.391124 0.207398
O O3 0.734579 0.385767 0.862294
O O4 0.657144 0.626764 0.566551
O O5 0.805381 0.598439 0.702095
O O6 0.680571 0.856582 0.032898
O O7 0.878105 0.031212 0.837954
O O8 0.829323 0.422524 0.204439
O O9 0.758108 0.125902 0.170281
O O10 0.981906 0.263814 0.478535
O O11 0.100773 0.291650 0.654148
O O12 0.032202 0.384127 0.122843
O O13 0.003234 0.105467 0.867715
O O14 0.250744 0.129119 0.547510
O O15 0.375581 0.745579 0.567793
#
# Coordination Sequence:
#
# PCOD9052719 Si02
#       8
#     1   2   2   2   2   2   2   2
#     4  10  26  48  78 108 156 202 240 298 364 460
#     4  11  26  43  79 115 150 192 255 318 373 449
#     4  11  24  45  72 110 153 191 254 323 382 445
#     4  12  27  49  72 105 155 201 258 327 386 464
#     4  11  24  45  75 112 149 201 243 321 374 444
#     4  12  27  48  74 100 148 208 259 314 399 462
#     4  11  24  50  76 110 154 199 246 300 374 443
#     4  11  25  43  74 114 149 190 260 321 379 444
#
# _framework density 27.178587
#
# number of rings (size 3 to 8) (size 9 to 14) (size 15 to 20)
#    0.000    0.800    2.667    3.200   11.200    0.000 
#    2.400    4.000    0.000    0.000    0.000    0.000 
#    0.000    0.000    0.000    0.000    0.000    0.000 
#
# Total GULP energy -83696.109207 kJ/mol
# GULP energy per Si atom -5579.740614 kJ/mol
# Density = 2.711673 g / cm^3
# Si number density = 27.178587 Si / 1000 Ang^3
#
#
#
# Elastic Constant Matrix: (Units=GPa)
#
#
# Indices 1 2 3 4 5 6 
#
# 1 115.7489 16.7834 15.9538 -12.5906 13.5006 28.4702
# 2 16.7834 132.9957 47.5943 0.3728 2.5906 29.3188
# 3 15.9538 47.5943 153.1974 -11.6519 21.7378 10.0558
# 4 -12.5906 0.3728 -11.6519 58.9956 11.7046 -4.6272
# 5 13.5006 2.5906 21.7378 11.7046 45.9314 -4.0607
# 6 28.4702 29.3188 10.0558 -4.6272 -4.0607 28.9015
#
#
#
# Elastic Compliance Matrix: (Units=1/GPa)
#
#
# Indices 1 2 3 4 5 6 
#
# 1 0.013105 0.001730 0.000171 0.002842 -0.006092 -0.015124
# 2 0.001730 0.010992 -0.002795 -0.001085 -0.000602 -0.012141
# 3 0.000171 -0.002795 0.008233 0.002535 -0.004472 -0.000420
# 4 0.002842 -0.001085 0.002535 0.019410 -0.006960 -0.000451
# 5 -0.006092 -0.000602 -0.004472 -0.006960 0.028463 0.011053
# 6 -0.015124 -0.012141 -0.000420 -0.000451 0.011053 0.063442
#
#
# Mechanical properties :
#
#
# Convention : Reuss Voigt Hill
#
# Bulk Modulus (GPa) = 32.74236 62.51165 47.62700
# Shear Modulus (GPa) = 32.13078 48.20641 40.16860
#
# Velocity S-wave (km/s) = 3.44206 4.21609 3.84858
# Velocity P-wave (km/s) = 5.27923 6.83746 6.10824
#
# Compressibility (1/GPa) = 0.03054148
#
# Stress axis : x y z
#
# Youngs Moduli (GPa) = 76.30852 90.97296 121.46197
#
# Poissons Ratio (x) = -0.15737 -0.02079
# Poissons Ratio (y) = -0.13200 0.33952
# Poissons Ratio (z) = -0.01306 0.25430
#
# Static dielectric constant tensor:
#      x y z
#    x 2.203540 0.029880 0.075480 
#    y 0.029880 2.138510 -0.008560 
#    z 0.075480 -0.008560 2.138320 
# 
# From -- ./inp_files/114188.got.cif
#   From: 2010.05.17/outbox.cif.g08.bks.cpg/sg2_58_cif.got.tgz:114188.got - 2010.06.03 11:33:40.
