data_PCOD9052998
_publ_section_title
;
Structure prediction by ZEFSAII (Michael W. Deem and Ramdas Pophale) SiO2 
 PCOD9052998
Probable space group: P -1
;
_chemical_formula_sum "Si O2"
_cell_formula_units_Z 16
_cell_length_a 14.166194
_cell_length_b 13.560380
_cell_length_c 8.140736
_cell_angle_alpha 133.040022
_cell_angle_beta 115.219687
_cell_angle_gamma 41.606650
_cell_volume 747.424127
_symmetry_space_group_name_H-M "P -1"
_symmetry_group_IT_number 2
_symmetry_cell_setting 'triclinic'
loop_
_space_group_symop_operation_xyz
x,y,z
-x,-y,-z
loop_
_atom_site_type_symbol
_atom_site_label
_atom_site_fract_x
_atom_site_fract_y
_atom_site_fract_z
Si Si1 0.307684 0.552104 0.738164
Si Si2 0.015340 0.881253 0.022882
Si Si3 0.548931 0.506783 0.724098
Si Si4 0.622943 0.804127 0.693292
Si Si5 0.847606 0.241292 0.493422
Si Si6 0.419879 0.216509 0.980421
Si Si7 0.078128 0.313747 0.244602
Si Si8 0.084921 0.552625 0.058326
O O1 0.186506 0.699196 0.947904
O O2 0.453955 0.508012 0.784017
O O3 0.342442 0.363293 0.567532
O O4 0.230501 0.645472 0.608176
O O5 0.925840 0.829255 0.839058
O O6 0.000000 0.000000 0.000000
O O7 0.940967 0.024590 0.282753
O O8 0.500000 0.500000 0.500000
O O9 0.721370 0.333069 0.639118
O O10 0.518068 0.694373 0.926647
O O11 0.765984 0.767707 0.777633
O O12 0.505676 0.006467 0.754065
O O13 0.575893 0.796138 0.831001
O O14 0.934287 0.296136 0.675602
O O15 0.253934 0.366531 0.974162
O O16 0.000000 0.500000 0.500000
O O17 0.980843 0.366180 0.075534
O O18 0.000000 0.500000 0.000000
#
# Coordination Sequence:
#
# PCOD9052998 Si02
#       8
#     2   2   2   2   2   2   2   2
#     4  10  17  35  58  91 126 167 208 265 309 380
#     4  10  23  37  61  91 131 164 218 262 321 382
#     4   9  16  30  55  85 119 165 207 253 312 368
#     4  11  20  35  61  98 124 157 225 254 317 378
#     4   9  19  35  59  90 121 167 213 260 318 372
#     4  10  21  35  61  94 125 162 213 270 308 380
#     4  12  25  40  67  95 128 173 213 267 332 391
#     4  11  21  42  64  93 135 166 210 277 326 370
#
# _framework density 21.406856999999999
#
# number of rings (size 3 to 8) (size 9 to 14) (size 15 to 20)
#    0.000    1.750    6.250    0.000    7.000    0.500 
#    0.000    0.625    0.000    4.500    0.000    0.000 
#    0.000    0.000    0.000    0.000    0.000    0.000 
#
# Total GULP energy -89314.294331 kJ/mol
# GULP energy per Si atom -5582.143396 kJ/mol
# Density = 2.135813 g / cm^3
# Si number density = 21.406857 Si / 1000 Ang^3
#
#
#
# Elastic Constant Matrix: (Units=GPa)
#
#
# Indices 1 2 3 4 5 6 
#
# 1 139.7011 17.9350 56.5733 21.1665 33.3654 -7.2181
# 2 17.9350 51.1967 37.1559 26.2201 10.5086 -2.3413
# 3 56.5733 37.1559 122.4646 43.7018 21.3922 -6.6263
# 4 21.1665 26.2201 43.7018 49.5204 2.9157 -1.6319
# 5 33.3654 10.5086 21.3922 2.9157 35.7306 2.5689
# 6 -7.2181 -2.3413 -6.6263 -1.6319 2.5689 18.4801
#
#
#
# Elastic Compliance Matrix: (Units=1/GPa)
#
#
# Indices 1 2 3 4 5 6 
#
# 1 0.010834 0.001449 -0.002847 -0.002211 -0.008978 0.004447
# 2 0.001449 0.029787 -0.003894 -0.012452 -0.006968 0.002813
# 3 -0.002847 -0.003894 0.015141 -0.009686 -0.004732 0.003626
# 4 -0.002211 -0.012452 -0.009686 0.035622 0.008906 -0.004006
# 5 -0.008978 -0.006968 -0.004732 0.008906 0.041321 -0.011044
# 6 0.004447 0.002813 0.003626 -0.004006 -0.011044 0.058687
#
#
# Mechanical properties :
#
#
# Convention : Reuss Voigt Hill
#
# Bulk Modulus (GPa) = 22.13430 59.63231 40.88331
# Shear Modulus (GPa) = 23.03775 34.19275 28.61525
#
# Velocity S-wave (km/s) = 3.28409 4.00093 3.66010
# Velocity P-wave (km/s) = 4.97419 7.01858 6.08289
#
# Compressibility (1/GPa) = 0.04517875
#
# Stress axis : x y z
#
# Youngs Moduli (GPa) = 92.30353 33.57182 66.04497
#
# Poissons Ratio (x) = -0.04865 0.18801
# Poissons Ratio (y) = -0.13375 0.25718
# Poissons Ratio (z) = 0.26275 0.13073
#
# Static dielectric constant tensor:
#      x y z
#    x 0.646160 -0.831440 -0.606950 
#    y -0.831440 1.175280 -0.420680 
#    z -0.606950 -0.420680 1.500310 
# 
# From -- ./inp_files/314262.got.cif
#   From: 2010.05.17/outbox.cif.g08.bks.cpg/sg2_158_cif.got.tgz:314262.got - 2010.06.03 11:33:40.
