data_PCOD9052974
_publ_section_title
;
Structure prediction by ZEFSAII (Michael W. Deem and Ramdas Pophale) SiO2 
 PCOD9052974
Probable space group: P -1
;
_chemical_formula_sum "Si O2"
_cell_formula_units_Z 16
_cell_length_a 14.176743
_cell_length_b 6.819162
_cell_length_c 7.939735
_cell_angle_alpha 70.087918
_cell_angle_beta 72.098091
_cell_angle_gamma 114.961247
_cell_volume 555.129207
_symmetry_space_group_name_H-M "P -1"
_symmetry_group_IT_number 2
_symmetry_cell_setting 'triclinic'
loop_
_space_group_symop_operation_xyz
x,y,z
-x,-y,-z
loop_
_atom_site_type_symbol
_atom_site_label
_atom_site_fract_x
_atom_site_fract_y
_atom_site_fract_z
Si Si1 0.060478 0.062149 0.628679
Si Si2 0.443643 0.910648 0.373321
Si Si3 0.339348 0.350144 0.464013
Si Si4 0.751817 0.130420 0.700572
Si Si5 0.036270 0.462548 0.726427
Si Si6 0.155153 0.389078 0.957897
Si Si7 0.652843 0.368432 0.912964
Si Si8 0.224337 0.025284 0.924283
O O1 0.200661 0.178729 0.522500
O O2 0.040821 0.250830 0.683364
O O3 0.000000 0.000000 0.500000
O O4 0.980591 0.786361 0.840319
O O5 0.387521 0.610380 0.469799
O O6 0.344125 0.969105 0.369825
O O7 0.500000 0.000000 0.500000
O O8 0.545761 0.091188 0.126043
O O9 0.397447 0.494362 0.205716
O O10 0.324226 0.153723 0.679949
O O11 0.891184 0.290602 0.510167
O O12 0.729075 0.324638 0.749417
O O13 0.724304 0.940924 0.924163
O O14 0.139014 0.554203 0.787569
O O15 0.893080 0.280482 0.917694
O O16 0.256355 0.499321 0.015478
O O17 0.171777 0.194636 0.901637
#
# Coordination Sequence:
#
# PCOD9052974 Si02
#       8
#     2   2   2   2   2   2   2   2
#     4  11  17  31  59  89 116 157 205 246 282 351
#     4  11  23  43  68  85 112 163 216 248 296 367
#     4  11  19  38  58  89 121 156 205 244 295 363
#     4  11  22  40  58  91 126 155 199 261 302 354
#     4  11  19  36  59  87 126 170 201 233 295 376
#     4  11  19  35  63  89 119 163 209 238 287 372
#     4  11  22  40  65  86 115 164 213 245 296 363
#     4  11  22  35  59  92 128 158 192 256 313 343
#
# _framework density 28.822118
#
# number of rings (size 3 to 8) (size 9 to 14) (size 15 to 20)
#    0.000    1.000    6.250    4.125    0.000    0.000 
#    0.000    8.125    0.000    0.000    0.000    0.000 
#    0.000    0.000    0.000    0.000    0.000    0.000 
#
# Total GULP energy -89433.044477 kJ/mol
# GULP energy per Si atom -5589.565280 kJ/mol
# Density = 2.875652 g / cm^3
# Si number density = 28.822118 Si / 1000 Ang^3
#
#
#
# Elastic Constant Matrix: (Units=GPa)
#
#
# Indices 1 2 3 4 5 6 
#
# 1 93.5047 32.5412 50.6371 2.3593 21.2521 21.7135
# 2 32.5412 133.5210 44.6485 8.3806 6.0122 29.3598
# 3 50.6371 44.6485 245.3380 -6.7765 17.4947 22.4870
# 4 2.3593 8.3806 -6.7765 59.4223 22.0905 10.7957
# 5 21.2521 6.0122 17.4947 22.0905 57.0031 11.6581
# 6 21.7135 29.3598 22.4870 10.7957 11.6581 48.0818
#
#
#
# Elastic Compliance Matrix: (Units=1/GPa)
#
#
# Indices 1 2 3 4 5 6 
#
# 1 0.014210 -0.001941 -0.001873 0.001828 -0.004474 -0.003682
# 2 -0.001941 0.009274 -0.001009 -0.001052 0.001365 -0.004409
# 3 -0.001873 -0.001009 0.004831 0.001296 -0.001008 -0.000844
# 4 0.001828 -0.001052 0.001296 0.020767 -0.008313 -0.003436
# 5 -0.004474 0.001365 -0.001008 -0.008313 0.023018 -0.002056
# 6 -0.003682 -0.004409 -0.000844 -0.003436 -0.002056 0.026818
#
#
# Mechanical properties :
#
#
# Convention : Reuss Voigt Hill
#
# Bulk Modulus (GPa) = 53.56312 80.89082 67.22697
# Shear Modulus (GPa) = 43.55888 55.87056 49.71472
#
# Velocity S-wave (km/s) = 3.89176 4.40757 4.15767
# Velocity P-wave (km/s) = 6.23047 7.35042 6.81350
#
# Compressibility (1/GPa) = 0.01866956
#
# Stress axis : x y z
#
# Youngs Moduli (GPa) = 70.37345 107.82716 206.98647
#
# Poissons Ratio (x) = 0.20925 0.38763
# Poissons Ratio (y) = 0.13657 0.20895
# Poissons Ratio (z) = 0.13179 0.10885
#
# Static dielectric constant tensor:
#      x y z
#    x 2.273870 -0.057660 0.040270 
#    y -0.057660 2.319550 0.061530 
#    z 0.040270 0.061530 2.335320 
# 
# From -- ./inp_files/327322.got.cif
#   From: 2010.05.17/outbox.cif.g08.bks.cpg/sg2_164_cif.got.tgz:327322.got - 2010.06.03 11:33:40.
