data_PCOD9052742
_publ_section_title
;
Structure prediction by ZEFSAII (Michael W. Deem and Ramdas Pophale) SiO2 
 PCOD9052742
Probable space group: P -1
;
_chemical_formula_sum "Si O2"
_cell_formula_units_Z 14
_cell_length_a 8.308123
_cell_length_b 17.344441
_cell_length_c 20.741869
_cell_angle_alpha 160.422822
_cell_angle_beta 132.979213
_cell_angle_gamma 38.895700
_cell_volume 609.672969
_symmetry_space_group_name_H-M "P -1"
_symmetry_group_IT_number 2
_symmetry_cell_setting 'triclinic'
loop_
_space_group_symop_operation_xyz
x,y,z
-x,-y,-z
loop_
_atom_site_type_symbol
_atom_site_label
_atom_site_fract_x
_atom_site_fract_y
_atom_site_fract_z
Si Si1 0.612676 0.139221 0.683634
Si Si2 0.985911 0.329781 0.774695
Si Si3 0.500078 0.628695 0.670059
Si Si4 0.125830 0.826668 0.501539
Si Si5 0.379304 0.765316 0.967348
Si Si6 0.169824 0.111541 0.053249
Si Si7 0.476572 0.287843 0.903910
O O1 0.584113 0.111587 0.729715
O O2 0.500000 0.000000 0.500000
O O3 0.472238 0.467442 0.891091
O O4 0.917245 0.989856 0.629285
O O5 0.989629 0.309147 0.682349
O O6 0.158024 0.443036 0.934832
O O7 0.675174 0.493545 0.833143
O O8 0.128385 0.037189 0.619063
O O9 0.500000 0.500000 0.500000
O O10 0.596334 0.395390 0.566945
O O11 0.725817 0.695123 0.780310
O O12 0.247456 0.908121 0.852079
O O13 0.398895 0.892957 0.140463
O O14 0.328993 0.928374 0.015779
O O15 0.134316 0.736592 0.889204
#
# Coordination Sequence:
#
# PCOD9052742 Si02
#       7
#     2   2   2   2   2   2   2
#     4  11  24  42  62 104 138 174 219 285 344 410
#     4  11  23  44  71 106 139 183 221 290 353 409
#     4  11  26  47  73 101 131 189 235 282 335 416
#     4  11  24  42  69 102 143 173 229 288 350 399
#     4  11  23  46  69  99 139 184 228 282 341 414
#     4  10  26  49  69  96 142 185 230 284 338 401
#     4  11  25  41  71 100 138 185 227 274 354 416
#
# _framework density 22.96313
#
# number of rings (size 3 to 8) (size 9 to 14) (size 15 to 20)
#    0.000    1.143    4.286    0.429    6.000    0.000 
#    0.000    2.857    0.000    0.000    0.000    0.000 
#    0.000    0.000    0.000    0.000    0.000    0.000 
#
# Total GULP energy -78178.652183 kJ/mol
# GULP energy per Si atom -5584.189442 kJ/mol
# Density = 2.291086 g / cm^3
# Si number density = 22.963130 Si / 1000 Ang^3
#
#
#
# Elastic Constant Matrix: (Units=GPa)
#
#
# Indices 1 2 3 4 5 6 
#
# 1 91.1087 20.4923 28.4641 -7.6139 -17.7329 2.9710
# 2 20.4923 102.3948 39.7143 -15.9257 0.5025 18.0296
# 3 28.4641 39.7143 97.6990 -26.9912 -5.1392 4.5487
# 4 -7.6139 -15.9257 -26.9912 32.0525 7.3893 -7.8543
# 5 -17.7329 0.5025 -5.1392 7.3893 34.3995 -10.6450
# 6 2.9710 18.0296 4.5487 -7.8543 -10.6450 37.8989
#
#
#
# Elastic Compliance Matrix: (Units=1/GPa)
#
#
# Indices 1 2 3 4 5 6 
#
# 1 0.013780 -0.002162 -0.003347 -0.001873 0.007694 0.002123
# 2 -0.002162 0.013276 -0.004137 0.002022 -0.004359 -0.006455
# 3 -0.003347 -0.004137 0.015855 0.011315 -0.000986 0.002395
# 4 -0.001873 0.002022 0.011315 0.044172 -0.007265 0.004941
# 5 0.007694 -0.004359 -0.000986 -0.007265 0.037827 0.010708
# 6 0.002123 -0.006455 0.002395 0.004941 0.010708 0.033034
#
#
# Mechanical properties :
#
#
# Convention : Reuss Voigt Hill
#
# Bulk Modulus (GPa) = 42.34114 52.06043 47.20079
# Shear Modulus (GPa) = 27.01101 34.37229 30.69165
#
# Velocity S-wave (km/s) = 3.43341 3.87311 3.65987
# Velocity P-wave (km/s) = 5.84778 6.53619 6.20155
#
# Compressibility (1/GPa) = 0.02361769
#
# Stress axis : x y z
#
# Youngs Moduli (GPa) = 72.56963 75.32527 63.07206
#
# Poissons Ratio (x) = 0.16289 0.21112
# Poissons Ratio (y) = 0.15693 0.26090
# Poissons Ratio (z) = 0.24292 0.31159
#
# Static dielectric constant tensor:
#      x y z
#    x 1.924730 0.000670 -0.022030 
#    y 0.000670 1.869990 -0.013470 
#    z -0.022030 -0.013470 1.940640 
# 
# From -- ./inp_files/591093.got.cif
#   From: 2010.05.17/outbox.cif.g08.bks.cpg/sg2_296_cif.got.tgz:591093.got - 2010.06.03 11:33:40.
