data_PCOD9052493
_publ_section_title
;
Structure prediction by ZEFSAII (Michael W. Deem and Ramdas Pophale) SiO2 
 PCOD9052493
Probable space group: P -1
;
_chemical_formula_sum "Si O2"
_cell_formula_units_Z 13
_cell_length_a 7.222764
_cell_length_b 8.428618
_cell_length_c 10.707519
_cell_angle_alpha 53.805049
_cell_angle_beta 95.334542
_cell_angle_gamma 105.472621
_cell_volume 505.236814
_symmetry_space_group_name_H-M "P -1"
_symmetry_group_IT_number 2
_symmetry_cell_setting 'triclinic'
loop_
_space_group_symop_operation_xyz
x,y,z
-x,-y,-z
loop_
_atom_site_type_symbol
_atom_site_label
_atom_site_fract_x
_atom_site_fract_y
_atom_site_fract_z
Si Si1 0.408019 0.898523 0.168651
Si Si2 0.765450 0.832192 0.354589
Si Si3 0.990358 0.788008 0.161478
Si Si4 0.392740 0.284445 0.161287
Si Si5 0.500000 0.500000 0.500000
Si Si6 0.713226 0.403949 0.319863
Si Si7 0.993072 0.189800 0.323563
O O1 0.383064 0.081038 0.172554
O O2 0.553981 0.773462 0.293828
O O3 0.200910 0.756143 0.184898
O O4 0.500000 0.000000 0.000000
O O5 0.689324 0.648792 0.528180
O O6 0.938207 0.807357 0.293246
O O7 0.818187 0.068838 0.277259
O O8 0.803033 0.631681 0.165881
O O9 0.000000 0.000000 0.000000
O O10 0.534200 0.277874 0.289080
O O11 0.181457 0.275215 0.210892
O O12 0.500000 0.500000 0.000000
O O13 0.655828 0.429405 0.445480
O O14 0.899441 0.323366 0.344725
O O15 0.000000 0.000000 0.500000
#
# Coordination Sequence:
#
# PCOD9052493 Si02
#       7
#     2   2   2   2   1   2   2
#     4  12  25  42  73 104 145 193 236 305 376 443
#     4  11  24  45  69 102 144 190 243 305 367 446
#     4  11  23  43  69 106 144 184 242 301 376 445
#     4  12  28  46  74 114 150 196 254 310 387 453
#     4  10  26  46  74 102 146 196 248 304 382 438
#     4  11  27  48  76 109 153 194 257 319 372 462
#     4  12  28  48  75 109 153 205 256 314 381 448
#
# _framework density 25.730509999999999
#
# number of rings (size 3 to 8) (size 9 to 14) (size 15 to 20)
#    0.000    0.615    4.615    1.846    6.462    3.077 
#    0.000    5.385    0.000    0.000    0.000    0.000 
#    0.000    0.000    0.000    0.000    0.000    0.000 
#
# Total GULP energy -72433.111567 kJ/mol
# GULP energy per Si atom -5571.777813 kJ/mol
# Density = 2.567195 g / cm^3
# Si number density = 25.730510 Si / 1000 Ang^3
#
#
#
# Elastic Constant Matrix: (Units=GPa)
#
#
# Indices 1 2 3 4 5 6 
#
# 1 180.7062 52.2696 49.9272 3.2448 -47.1819 -5.9164
# 2 52.2696 106.6120 20.1576 -1.0287 -33.3828 -4.5112
# 3 49.9272 20.1576 92.7068 -7.1744 -37.1498 -7.3565
# 4 3.2448 -1.0287 -7.1744 39.5650 3.4668 -9.8147
# 5 -47.1819 -33.3828 -37.1498 3.4668 59.6691 2.2685
# 6 -5.9164 -4.5112 -7.3565 -9.8147 2.2685 55.3880
#
#
#
# Elastic Compliance Matrix: (Units=1/GPa)
#
#
# Indices 1 2 3 4 5 6 
#
# 1 0.007796 -0.002299 -0.002436 -0.001463 0.003450 -0.000078
# 2 -0.002299 0.012077 0.000873 0.000357 0.005435 0.000695
# 3 -0.002436 0.000873 0.015479 0.002839 0.007957 0.002044
# 4 -0.001463 0.000357 0.002839 0.027275 -0.000969 0.005123
# 5 0.003450 0.005435 0.007957 -0.000969 0.027516 0.000569
# 6 -0.000078 0.000695 0.002044 0.005123 0.000569 0.019259
#
#
# Mechanical properties :
#
#
# Convention : Reuss Voigt Hill
#
# Bulk Modulus (GPa) = 36.19480 69.41486 52.80483
# Shear Modulus (GPa) = 39.57754 48.10247 43.84001
#
# Velocity S-wave (km/s) = 3.92619 4.32843 4.13221
# Velocity P-wave (km/s) = 5.88648 7.21225 6.58283
#
# Compressibility (1/GPa) = 0.02762828
#
# Stress axis : x y z
#
# Youngs Moduli (GPa) = 128.26654 82.80536 64.60323
#
# Poissons Ratio (x) = 0.19037 0.15735
# Poissons Ratio (y) = 0.29488 -0.05639
# Poissons Ratio (z) = 0.31242 -0.07228
#
# Static dielectric constant tensor:
#      x y z
#    x 2.052190 0.020410 0.143800 
#    y 0.020410 1.045990 0.302930 
#    z 0.143800 0.302930 2.371440 
# 
# From -- ./inp_files/291746.got.cif
#   From: 2010.05.17/outbox.cif.g08.bks.cpg/sg2_146_cif.got.tgz:291746.got - 2010.06.03 11:33:40.
