data_PCOD9052830
_publ_section_title
;
Structure prediction by ZEFSAII (Michael W. Deem and Ramdas Pophale) SiO2 
 PCOD9052830
Probable space group: P -1
;
_chemical_formula_sum "Si O2"
_cell_formula_units_Z 14
_cell_length_a 13.686361
_cell_length_b 5.034248
_cell_length_c 8.836269
_cell_angle_alpha 62.558199
_cell_angle_beta 116.165019
_cell_angle_gamma 94.357945
_cell_volume 478.724780
_symmetry_space_group_name_H-M "P -1"
_symmetry_group_IT_number 2
_symmetry_cell_setting 'triclinic'
loop_
_space_group_symop_operation_xyz
x,y,z
-x,-y,-z
loop_
_atom_site_type_symbol
_atom_site_label
_atom_site_fract_x
_atom_site_fract_y
_atom_site_fract_z
Si Si1 0.359050 0.215353 0.832301
Si Si2 0.809880 0.601721 0.733352
Si Si3 0.010706 0.247387 0.813551
Si Si4 0.606087 0.301361 0.547062
Si Si5 0.196666 0.837421 0.895443
Si Si6 0.509751 0.843632 0.785485
Si Si7 0.827655 0.226470 0.456645
O O1 0.320289 0.905774 0.950276
O O2 0.250092 0.451125 0.660250
O O3 0.431523 0.094229 0.768499
O O4 0.417378 0.332707 0.986605
O O5 0.933721 0.533075 0.763994
O O6 0.717326 0.419207 0.647353
O O7 0.595576 0.974266 0.697726
O O8 0.819108 0.465820 0.944896
O O9 0.941323 0.230077 0.617626
O O10 0.132429 0.123387 0.869681
O O11 0.000000 0.000000 0.000000
O O12 0.500000 0.500000 0.500000
O O13 0.568472 0.298200 0.346509
O O14 0.778248 0.955145 0.580245
O O15 0.158598 0.829001 0.698010
#
# Coordination Sequence:
#
# PCOD9052830 Si02
#       7
#     2   2   2   2   2   2   2
#     4  11  26  51  82 121 165 213 279 334 412 489
#     4  11  27  52  79 121 167 211 273 341 413 489
#     4  10  26  51  79 115 167 213 273 333 416 495
#     4  11  26  48  82 120 155 215 281 338 408 483
#     4  11  26  50  82 119 159 217 273 336 405 499
#     4  10  26  52  82 112 165 221 274 340 403 486
#     4  12  28  47  84 120 166 212 266 348 411 492
#
# _framework density 29.24436
#
# number of rings (size 3 to 8) (size 9 to 14) (size 15 to 20)
#    0.000    1.143    1.429    1.286    8.000    9.143 
#    0.000    3.571    0.000    0.000    0.000    0.000 
#    0.000    0.000    0.000    0.000    0.000    0.000 
#
# Total GULP energy -78466.352393 kJ/mol
# GULP energy per Si atom -5604.739457 kJ/mol
# Density = 2.917780 g / cm^3
# Si number density = 29.244360 Si / 1000 Ang^3
#
#
#
# Elastic Constant Matrix: (Units=GPa)
#
#
# Indices 1 2 3 4 5 6 
#
# 1 127.3832 30.3354 37.1636 0.9223 -42.3857 -18.9158
# 2 30.3354 141.5817 45.7227 -1.2948 -0.0061 -13.0922
# 3 37.1636 45.7227 214.7498 23.7193 -31.1394 -12.2897
# 4 0.9223 -1.2948 23.7193 58.1695 -9.6035 -0.3330
# 5 -42.3857 -0.0061 -31.1394 -9.6035 56.6595 -7.7641
# 6 -18.9158 -13.0922 -12.2897 -0.3330 -7.7641 35.1074
#
#
#
# Elastic Compliance Matrix: (Units=1/GPa)
#
#
# Indices 1 2 3 4 5 6 
#
# 1 0.013584 -0.002090 0.000145 0.001678 0.011789 0.009214
# 2 -0.002090 0.008146 -0.001721 0.000540 -0.002306 0.000804
# 3 0.000145 -0.001721 0.005803 -0.001852 0.003282 0.002176
# 4 0.001678 0.000540 -0.001852 0.018530 0.003573 0.001423
# 5 0.011789 -0.002306 0.003282 0.003573 0.030723 0.013469
# 6 0.009214 0.000804 0.002176 0.001423 0.013469 0.037502
#
#
# Mechanical properties :
#
#
# Convention : Reuss Voigt Hill
#
# Bulk Modulus (GPa) = 49.49789 78.90647 64.20218
# Shear Modulus (GPa) = 38.95536 54.68680 46.82108
#
# Velocity S-wave (km/s) = 3.65370 4.32903 4.00563
# Velocity P-wave (km/s) = 5.89591 7.21303 6.58747
#
# Compressibility (1/GPa) = 0.02020288
#
# Stress axis : x y z
#
# Youngs Moduli (GPa) = 73.61508 122.76387 172.32992
#
# Poissons Ratio (x) = 0.25654 -0.02507
# Poissons Ratio (y) = 0.15383 0.29653
# Poissons Ratio (z) = -0.01071 0.21124
#
# Static dielectric constant tensor:
#      x y z
#    x 2.441210 0.007550 -0.026000 
#    y 0.007550 2.287970 -0.026850 
#    z -0.026000 -0.026850 2.261860 
# 
# From -- ./inp_files/40279.got.cif
#   From: 2010.05.17/outbox.cif.g08.bks.cpg/sg2_21_cif.got.tgz:40279.got - 2010.06.03 11:33:40.
