data_PCOD9052386
_publ_section_title
;
Structure prediction by ZEFSAII (Michael W. Deem and Ramdas Pophale) SiO2 
 PCOD9052386
Probable space group: P -1
;
_chemical_formula_sum "Si O2"
_cell_formula_units_Z 12
_cell_length_a 7.786234
_cell_length_b 14.846559
_cell_length_c 19.017858
_cell_angle_alpha 159.441070
_cell_angle_beta 38.464554
_cell_angle_gamma 139.956138
_cell_volume 474.904038
_symmetry_space_group_name_H-M "P -1"
_symmetry_group_IT_number 2
_symmetry_cell_setting 'triclinic'
loop_
_space_group_symop_operation_xyz
x,y,z
-x,-y,-z
loop_
_atom_site_type_symbol
_atom_site_label
_atom_site_fract_x
_atom_site_fract_y
_atom_site_fract_z
Si Si1 0.432206 0.197763 0.817575
Si Si2 0.942668 0.118486 0.805013
Si Si3 0.615432 0.830000 0.399747
Si Si4 0.287952 0.437232 0.586423
Si Si5 0.554814 0.614058 0.774375
Si Si6 0.020889 0.067879 0.961683
O O1 0.150196 0.107700 0.796842
O O2 0.670055 0.041720 0.599133
O O3 0.500000 0.500000 0.000000
O O4 0.334442 0.118934 0.869365
O O5 0.129855 0.272009 0.795383
O O6 0.867156 0.841987 0.589555
O O7 0.675990 0.225947 0.001088
O O8 0.408710 0.593888 0.328243
O O9 0.500000 0.000000 0.500000
O O10 0.500000 0.500000 0.500000
O O11 0.437237 0.455884 0.627724
O O12 0.098346 0.665334 0.817733
O O13 0.818840 0.817305 0.813547
O O14 0.000000 0.000000 0.000000
#
# Coordination Sequence:
#
# PCOD9052386 Si02
#       6
#     2   2   2   2   2   2
#     4  11  25  48  75 106 152 199 245 302 375 445
#     4  11  24  48  78 104 150 192 250 305 365 441
#     4  10  26  45  73 105 149 194 245 303 370 440
#     4  12  25  47  74 109 147 190 247 303 373 440
#     4  12  26  49  76 111 146 195 253 306 375 435
#     4  12  28  45  78 112 153 195 247 312 369 441
#
# _framework density 25.268260999999999
#
# number of rings (size 3 to 8) (size 9 to 14) (size 15 to 20)
#    0.000    0.667    3.333    3.000   11.667    1.333 
#    0.000    0.000    0.000    0.000    0.000    0.000 
#    0.000    0.000    0.000    0.000    0.000    0.000 
#
# Total GULP energy -67144.777094 kJ/mol
# GULP energy per Si atom -5595.398091 kJ/mol
# Density = 2.521075 g / cm^3
# Si number density = 25.268261 Si / 1000 Ang^3
#
#
#
# Elastic Constant Matrix: (Units=GPa)
#
#
# Indices 1 2 3 4 5 6 
#
# 1 75.6316 26.3199 34.9884 20.1484 17.9242 -10.4297
# 2 26.3199 168.7668 44.8755 -14.9138 8.0288 -22.0557
# 3 34.9884 44.8755 113.8927 11.4113 6.5847 -10.9639
# 4 20.1484 -14.9138 11.4113 53.0612 2.7459 5.5754
# 5 17.9242 8.0288 6.5847 2.7459 45.0909 2.6636
# 6 -10.4297 -22.0557 -10.9639 5.5754 2.6636 31.4305
#
#
#
# Elastic Compliance Matrix: (Units=1/GPa)
#
#
# Indices 1 2 3 4 5 6 
#
# 1 0.020061 -0.001664 -0.003755 -0.007557 -0.007031 0.006115
# 2 -0.001664 0.007568 -0.002391 0.002947 -0.000721 0.003463
# 3 -0.003755 -0.002391 0.011158 -0.001795 0.000324 0.001260
# 4 -0.007557 0.002947 -0.001795 0.023408 0.001632 -0.005357
# 5 -0.007031 -0.000721 0.000324 0.001632 0.025258 -0.005156
# 6 0.006115 0.003463 0.001260 -0.005357 -0.005156 0.038102
#
#
# Mechanical properties :
#
#
# Convention : Reuss Voigt Hill
#
# Bulk Modulus (GPa) = 43.16456 63.40652 53.28554
# Shear Modulus (GPa) = 33.58019 42.72367 38.15193
#
# Velocity S-wave (km/s) = 3.64943 4.11640 3.88993
# Velocity P-wave (km/s) = 5.90571 6.90947 6.42722
#
# Compressibility (1/GPa) = 0.02316715
#
# Stress axis : x y z
#
# Youngs Moduli (GPa) = 49.84836 132.13839 89.62131
#
# Poissons Ratio (x) = 0.21991 0.33650
# Poissons Ratio (y) = 0.08296 0.21427
# Poissons Ratio (z) = 0.18717 0.31592
#
# Static dielectric constant tensor:
#      x y z
#    x 2.080470 0.052560 0.018000 
#    y 0.052560 2.099770 -0.034380 
#    z 0.018000 -0.034380 2.065920 
# 
# From -- ./inp_files/37636.got.cif
#   From: 2010.05.17/outbox.cif.g08.bks.cpg/sg2_19_cif.got.tgz:37636.got - 2010.06.03 11:33:40.
