data_PCOD9052792
_publ_section_title
;
Structure prediction by ZEFSAII (Michael W. Deem and Ramdas Pophale) SiO2 
 PCOD9052792
Probable space group: P -1
;
_chemical_formula_sum "Si O2"
_cell_formula_units_Z 16
_cell_length_a 5.783654
_cell_length_b 17.175470
_cell_length_c 14.433858
_cell_angle_alpha 31.375917
_cell_angle_beta 109.982922
_cell_angle_gamma 99.962434
_cell_volume 680.593086
_symmetry_space_group_name_H-M "P -1"
_symmetry_group_IT_number 2
_symmetry_cell_setting 'triclinic'
loop_
_space_group_symop_operation_xyz
x,y,z
-x,-y,-z
loop_
_atom_site_type_symbol
_atom_site_label
_atom_site_fract_x
_atom_site_fract_y
_atom_site_fract_z
Si Si1 0.124177 0.819514 0.703453
Si Si2 0.005996 0.425634 0.178614
Si Si3 0.112661 0.025423 0.187725
Si Si4 0.322392 0.492818 0.568326
Si Si5 0.259180 0.261213 0.110008
Si Si6 0.686698 0.909663 0.196264
Si Si7 0.871928 0.768967 0.190132
Si Si8 0.530076 0.292230 0.484035
O O1 0.090099 0.727677 0.698325
O O2 0.431815 0.783558 0.794625
O O3 0.935120 0.771507 0.803041
O O4 0.000000 0.000000 0.500000
O O5 0.290883 0.374230 0.306433
O O6 0.833711 0.551854 0.095040
O O7 0.000000 0.500000 0.000000
O O8 0.194613 0.154343 0.128571
O O9 0.291136 0.853373 0.396835
O O10 0.122903 0.092853 0.016766
O O11 0.825455 0.009658 0.177668
O O12 0.500000 0.500000 0.500000
O O13 0.361665 0.308971 0.776135
O O14 0.368577 0.573841 0.587877
O O15 0.079667 0.610966 0.367617
O O16 0.899782 0.813709 0.254388
O O17 0.569165 0.795401 0.354993
O O18 0.500000 0.000000 0.000000
#
# Coordination Sequence:
#
# PCOD9052792 Si02
#       8
#     2   2   2   2   2   2   2   2
#     4  11  24  50  79 110 146 194 248 319 388 448
#     4  10  26  50  74 107 150 193 250 314 384 456
#     4  12  27  43  70 108 145 195 257 304 374 460
#     4  11  24  41  67 100 142 187 242 301 369 445
#     4  11  27  47  75 111 149 199 247 314 384 455
#     4  12  24  42  70 101 146 189 244 309 373 445
#     4  11  24  42  63 101 145 193 238 304 369 441
#     4  12  25  46  73 106 142 197 250 312 381 447
#
# _framework density 23.508907000000001
#
# number of rings (size 3 to 8) (size 9 to 14) (size 15 to 20)
#    0.000    0.750    3.750    2.625    5.250    3.000 
#    4.500    0.000    0.000    0.000    0.000    0.000 
#    0.000    0.000    0.000    0.000    0.000    0.000 
#
# Total GULP energy -89157.212568 kJ/mol
# GULP energy per Si atom -5572.325785 kJ/mol
# Density = 2.345540 g / cm^3
# Si number density = 23.508907 Si / 1000 Ang^3
#
#
#
# Elastic Constant Matrix: (Units=GPa)
#
#
# Indices 1 2 3 4 5 6 
#
# 1 54.4858 -6.1495 26.7974 -8.9744 9.1522 -5.6219
# 2 -6.1495 123.7220 27.8645 -33.7025 11.1328 15.6584
# 3 26.7974 27.8645 106.1948 -12.9772 26.4180 2.6036
# 4 -8.9744 -33.7025 -12.9772 45.7521 -4.0093 -2.1583
# 5 9.1522 11.1328 26.4180 -4.0093 48.0439 -3.0078
# 6 -5.6219 15.6584 2.6036 -2.1583 -3.0078 41.1639
#
#
#
# Elastic Compliance Matrix: (Units=1/GPa)
#
#
# Indices 1 2 3 4 5 6 
#
# 1 0.023071 0.003858 -0.005828 0.005691 -0.001469 0.002243
# 2 0.003858 0.011700 -0.002550 0.008353 -0.001562 -0.003439
# 3 -0.005828 -0.002550 0.012960 0.000125 -0.005480 -0.001040
# 4 0.005691 0.008353 0.000125 0.029054 -0.000723 -0.000937
# 5 -0.001469 -0.001562 -0.005480 -0.000723 0.024566 0.002497
# 6 0.002243 -0.003439 -0.001040 -0.000937 0.002497 0.026107
#
#
# Mechanical properties :
#
#
# Convention : Reuss Voigt Hill
#
# Bulk Modulus (GPa) = 25.84570 42.38081 34.11326
# Shear Modulus (GPa) = 33.46845 42.71799 38.09322
#
# Velocity S-wave (km/s) = 3.77722 4.26737 4.02975
# Velocity P-wave (km/s) = 5.48097 6.50748 6.01616
#
# Compressibility (1/GPa) = 0.03869116
#
# Stress axis : x y z
#
# Youngs Moduli (GPa) = 43.34478 85.47175 77.15754
#
# Poissons Ratio (x) = -0.32975 0.44969
# Poissons Ratio (y) = -0.16722 0.19673
# Poissons Ratio (z) = 0.25262 0.21793
#
# Static dielectric constant tensor:
#      x y z
#    x -0.290820 -1.801500 1.031240 
#    y -1.801500 0.529010 0.759810 
#    z 1.031240 0.759810 1.418630 
# 
# From -- ./inp_files/46597.got.cif
#   From: 2010.05.17/outbox.cif.g08.bks.cpg/sg2_24_cif.got.tgz:46597.got - 2010.06.03 11:33:40.
