data_PCOD9052881
_publ_section_title
;
Structure prediction by ZEFSAII (Michael W. Deem and Ramdas Pophale) SiO2 
 PCOD9052881
Probable space group: P -1
;
_chemical_formula_sum "Si O2"
_cell_formula_units_Z 12
_cell_length_a 6.812347
_cell_length_b 16.240785
_cell_length_c 7.471985
_cell_angle_alpha 135.482315
_cell_angle_beta 120.505954
_cell_angle_gamma 54.553329
_cell_volume 465.731803
_symmetry_space_group_name_H-M "P -1"
_symmetry_group_IT_number 2
_symmetry_cell_setting 'triclinic'
loop_
_space_group_symop_operation_xyz
x,y,z
-x,-y,-z
loop_
_atom_site_type_symbol
_atom_site_label
_atom_site_fract_x
_atom_site_fract_y
_atom_site_fract_z
Si Si1 0.917299 0.290056 0.376865
Si Si2 0.558579 0.759535 0.276229
Si Si3 0.903288 0.272487 0.929323
Si Si4 0.312517 0.026238 0.693600
Si Si5 0.155066 0.442278 0.159674
Si Si6 0.769986 0.084484 0.142096
O O1 0.194350 0.256412 0.526663
O O2 0.931869 0.242210 0.106957
O O3 0.793722 0.441303 0.552660
O O4 0.780300 0.222837 0.335718
O O5 0.411881 0.908963 0.422619
O O6 0.626068 0.678099 0.000525
O O7 0.374839 0.706276 0.211715
O O8 0.986441 0.389396 0.117476
O O9 0.093508 0.151841 0.729576
O O10 0.228020 0.966802 0.735902
O O11 0.528828 0.070318 0.926580
O O12 0.000000 0.500000 0.000000
O O13 0.000000 0.000000 0.000000
#
# Coordination Sequence:
#
# PCOD9052881 Si02
#       6
#     2   2   2   2   2   2
#     4  11  24  50  74 101 144 188 238 289 346 424
#     4  11  26  47  70 108 144 185 225 299 354 412
#     4  12  26  46  73 109 139 186 241 287 350 424
#     4  11  24  42  72 110 141 182 234 291 355 420
#     4  10  27  49  69 106 141 190 238 287 354 413
#     4  11  21  44  73 106 143 185 232 291 356 408
#
# _framework density 25.765899000000001
#
# number of rings (size 3 to 8) (size 9 to 14) (size 15 to 20)
#    0.000    1.000    3.333    2.000    7.000    4.000 
#    3.000    0.000    0.000    0.000    0.000    0.000 
#    0.000    0.000    0.000    0.000    0.000    0.000 
#
# Total GULP energy -67279.145655 kJ/mol
# GULP energy per Si atom -5606.595471 kJ/mol
# Density = 2.570725 g / cm^3
# Si number density = 25.765899 Si / 1000 Ang^3
#
#
#
# Elastic Constant Matrix: (Units=GPa)
#
#
# Indices 1 2 3 4 5 6 
#
# 1 147.2427 51.4140 53.1418 22.0454 38.3461 6.3068
# 2 51.4140 79.7414 40.7755 17.1257 10.5481 18.8531
# 3 53.1418 40.7755 139.4148 41.6128 21.0893 -7.4858
# 4 22.0454 17.1257 41.6128 51.1681 5.2448 10.6103
# 5 38.3461 10.5481 21.0893 5.2448 61.7589 3.2765
# 6 6.3068 18.8531 -7.4858 10.6103 3.2765 48.2058
#
#
#
# Elastic Compliance Matrix: (Units=1/GPa)
#
#
# Indices 1 2 3 4 5 6 
#
# 1 0.010692 -0.005615 -0.001101 -0.001571 -0.005241 0.001328
# 2 -0.005615 0.020060 -0.004813 0.001119 0.002046 -0.008243
# 3 -0.001101 -0.004813 0.012353 -0.008988 -0.002272 0.006077
# 4 -0.001571 0.001119 -0.008988 0.028637 0.001849 -0.008057
# 5 -0.005241 0.002046 -0.002272 0.001849 0.019834 -0.002222
# 6 0.001328 -0.008243 0.006077 -0.008057 -0.002222 0.026663
#
#
# Mechanical properties :
#
#
# Convention : Reuss Voigt Hill
#
# Bulk Modulus (GPa) = 49.87833 73.00683 61.44258
# Shear Modulus (GPa) = 33.78898 46.96439 40.37669
#
# Velocity S-wave (km/s) = 3.62523 4.27398 3.96290
# Velocity P-wave (km/s) = 6.07646 7.26306 6.69610
#
# Compressibility (1/GPa) = 0.02004879
#
# Stress axis : x y z
#
# Youngs Moduli (GPa) = 93.52359 49.85108 80.95270
#
# Poissons Ratio (x) = 0.27990 0.08910
# Poissons Ratio (y) = 0.52510 0.38962
# Poissons Ratio (z) = 0.10294 0.23993
#
# Static dielectric constant tensor:
#      x y z
#    x 2.057530 -0.028770 0.005800 
#    y -0.028770 2.020740 0.051700 
#    z 0.005800 0.051700 2.046050 
# 
# From -- ./inp_files/61200.got.cif
#   From: 2010.05.17/outbox.cif.g08.bks.cpg/sg2_31_cif.got.tgz:61200.got - 2010.06.03 11:33:40.
