data_PCOD9052152
_publ_section_title
;
Structure prediction by ZEFSAII (Michael W. Deem and Ramdas Pophale) SiO2 
 PCOD9052152
Probable space group: P -1
;
_chemical_formula_sum "Si O2"
_cell_formula_units_Z 14
_cell_length_a 5.240723
_cell_length_b 27.202763
_cell_length_c 6.382041
_cell_angle_alpha 61.021147
_cell_angle_beta 116.721544
_cell_angle_gamma 122.872433
_cell_volume 646.542044
_symmetry_space_group_name_H-M "P -1"
_symmetry_group_IT_number 2
_symmetry_cell_setting 'triclinic'
loop_
_space_group_symop_operation_xyz
x,y,z
-x,-y,-z
loop_
_atom_site_type_symbol
_atom_site_label
_atom_site_fract_x
_atom_site_fract_y
_atom_site_fract_z
Si Si1 0.216824 0.608894 0.892446
Si Si2 0.588032 0.492559 0.798225
Si Si3 0.414867 0.187545 0.349673
Si Si4 0.647983 0.990856 0.862173
Si Si5 0.561568 0.300471 0.862164
Si Si6 0.874733 0.286047 0.602917
Si Si7 0.295793 0.891754 0.629427
O O1 0.247638 0.664861 0.639210
O O2 0.925903 0.550312 0.814957
O O3 0.464462 0.578862 0.066260
O O4 0.755242 0.693605 0.344390
O O5 0.500000 0.500000 0.500000
O O6 0.500000 0.500000 0.000000
O O7 0.676040 0.220774 0.554418
O O8 0.515040 0.141928 0.345719
O O9 0.068769 0.152899 0.387543
O O10 0.428125 0.243305 0.091482
O O11 0.447967 0.922229 0.842618
O O12 0.662269 0.047279 0.607948
O O13 0.500000 0.000000 0.000000
O O14 0.000000 0.000000 0.000000
O O15 0.772043 0.284103 0.808412
O O16 0.781555 0.362879 0.935953
#
# Coordination Sequence:
#
# PCOD9052152 Si02
#       7
#     2   2   2   2   2   2   2
#     4  10  26  41  68  99 138 180 230 290 348 426
#     4  11  26  45  72 104 143 186 241 295 362 430
#     4  11  24  42  64  98 128 175 220 282 338 409
#     4  11  24  41  64  94 128 177 218 273 346 404
#     4  11  25  43  68  97 134 178 226 282 347 415
#     4  11  25  43  68  97 134 178 226 282 347 415
#     4  11  24  42  64  94 136 165 228 280 332 415
#
# _framework density 21.653659000000001
#
# number of rings (size 3 to 8) (size 9 to 14) (size 15 to 20)
#    0.000    1.143    0.000    4.286    8.000   12.571 
#    0.000    0.000    0.000    0.000    0.000    0.000 
#    0.000    0.000    0.000    0.000    0.000    0.000 
#
# Total GULP energy -77957.838601 kJ/mol
# GULP energy per Si atom -5568.417043 kJ/mol
# Density = 2.160437 g / cm^3
# Si number density = 21.653659 Si / 1000 Ang^3
#
#
#
# Elastic Constant Matrix: (Units=GPa)
#
#
# Indices 1 2 3 4 5 6 
#
# 1 85.1074 7.4697 20.8730 6.0374 -6.5848 -7.2021
# 2 7.4697 92.8246 18.9654 16.6772 7.3670 -12.5829
# 3 20.8730 18.9654 65.9668 13.4577 0.0515 -9.8115
# 4 6.0374 16.6772 13.4577 43.9506 -7.2052 4.2842
# 5 -6.5848 7.3670 0.0515 -7.2052 28.7387 4.6192
# 6 -7.2021 -12.5829 -9.8115 4.2842 4.6192 44.4001
#
#
#
# Elastic Compliance Matrix: (Units=1/GPa)
#
#
# Indices 1 2 3 4 5 6 
#
# 1 0.013038 -0.000360 -0.003883 -0.000068 0.002932 0.000856
# 2 -0.000360 0.013268 -0.001859 -0.005773 -0.005640 0.004435
# 3 -0.003883 -0.001859 0.018527 -0.005176 -0.002336 0.003680
# 4 -0.000068 -0.005773 -0.005176 0.028777 0.009746 -0.006581
# 5 0.002932 -0.005640 -0.002336 0.009746 0.040453 -0.006788
# 6 0.000856 0.004435 0.003680 -0.006581 -0.006788 0.026073
#
#
# Mechanical properties :
#
#
# Convention : Reuss Voigt Hill
#
# Bulk Modulus (GPa) = 30.64746 37.61278 34.13012
# Shear Modulus (GPa) = 30.63443 36.52393 33.57918
#
# Velocity S-wave (km/s) = 3.76539 4.11144 3.94221
# Velocity P-wave (km/s) = 5.75225 6.32032 6.04297
#
# Compressibility (1/GPa) = 0.03262913
#
# Stress axis : x y z
#
# Youngs Moduli (GPa) = 76.69942 75.37086 53.97457
#
# Poissons Ratio (x) = 0.02715 0.20958
# Poissons Ratio (y) = 0.02763 0.10033
# Poissons Ratio (z) = 0.29781 0.14010
#
# Static dielectric constant tensor:
#      x y z
#    x 1.860560 -0.019880 0.089700 
#    y -0.019880 1.770980 0.012590 
#    z 0.089700 0.012590 1.996490 
# 
# From -- ./inp_files/14048.got.cif
#   From: 2010.05.17/outbox.cif.g08.bks.cpg/sg2_8_cif.got.tgz:14048.got - 2010.06.03 11:33:40.
