data_PCOD9052868
_publ_section_title
;
Structure prediction by ZEFSAII (Michael W. Deem and Ramdas Pophale) SiO2 
 PCOD9052868
Probable space group: P -1
;
_chemical_formula_sum "Si O2"
_cell_formula_units_Z 16
_cell_length_a 8.324773
_cell_length_b 8.585233
_cell_length_c 15.189472
_cell_angle_alpha 140.072126
_cell_angle_beta 111.297487
_cell_angle_gamma 71.210893
_cell_volume 647.450531
_symmetry_space_group_name_H-M "P -1"
_symmetry_group_IT_number 2
_symmetry_cell_setting 'triclinic'
loop_
_space_group_symop_operation_xyz
x,y,z
-x,-y,-z
loop_
_atom_site_type_symbol
_atom_site_label
_atom_site_fract_x
_atom_site_fract_y
_atom_site_fract_z
Si Si1 0.718866 0.980120 0.262075
Si Si2 0.265920 0.434752 0.047661
Si Si3 0.457848 0.418929 0.360074
Si Si4 0.414638 0.478214 0.749828
Si Si5 0.118876 0.935541 0.283504
Si Si6 0.155171 0.159696 0.210009
Si Si7 0.774901 0.037841 0.045351
Si Si8 0.195707 0.054142 0.541258
O O1 0.701939 0.018522 0.380280
O O2 0.917972 0.033801 0.301137
O O3 0.571572 0.158488 0.265593
O O4 0.711358 0.708394 0.102209
O O5 0.438451 0.564475 0.166043
O O6 0.123811 0.659634 0.128897
O O7 0.234058 0.221417 0.020414
O O8 0.500000 0.500000 0.500000
O O9 0.514094 0.573330 0.356169
O O10 0.251984 0.395965 0.306879
O O11 0.373984 0.766455 0.872781
O O12 0.245907 0.332476 0.665002
O O13 0.200018 0.085347 0.286219
O O14 0.218020 0.948781 0.401507
O O15 0.951582 0.151465 0.158123
O O16 0.222239 0.980311 0.067391
O O17 0.000000 0.000000 0.500000
#
# Coordination Sequence:
#
# PCOD9052868 Si02
#       8
#     2   2   2   2   2   2   2   2
#     4  11  25  47  70 105 144 187 237 292 354 422
#     4  12  24  43  75 105 145 183 238 295 348 423
#     4  12  26  44  72 103 145 186 243 294 352 426
#     4  12  25  47  72 102 146 188 235 297 363 407
#     4  11  25  46  72 102 147 191 237 291 351 424
#     4  11  24  41  70 106 140 182 241 285 359 417
#     4  11  24  44  72 105 144 186 233 299 351 429
#     4  10  27  47  69 100 140 189 241 284 349 427
#
# _framework density 24.712313000000002
#
# number of rings (size 3 to 8) (size 9 to 14) (size 15 to 20)
#    0.000    0.750    3.750    2.250    5.250    6.000 
#    0.000    4.375    0.000    0.000    0.000    0.000 
#    0.000    0.000    0.000    0.000    0.000    0.000 
#
# Total GULP energy -89388.567563 kJ/mol
# GULP energy per Si atom -5586.785473 kJ/mol
# Density = 2.465607 g / cm^3
# Si number density = 24.712313 Si / 1000 Ang^3
#
#
#
# Elastic Constant Matrix: (Units=GPa)
#
#
# Indices 1 2 3 4 5 6 
#
# 1 72.4148 29.8382 17.1427 0.7286 15.7271 7.4084
# 2 29.8382 66.5320 11.9662 -18.0768 -6.2112 20.1757
# 3 17.1427 11.9662 95.9804 -34.7806 0.4757 9.4725
# 4 0.7286 -18.0768 -34.7806 56.6815 12.1226 -7.9621
# 5 15.7271 -6.2112 0.4757 12.1226 51.1660 0.4917
# 6 7.4084 20.1757 9.4725 -7.9621 0.4917 34.6134
#
#
#
# Elastic Compliance Matrix: (Units=1/GPa)
#
#
# Indices 1 2 3 4 5 6 
#
# 1 0.020575 -0.011007 -0.004160 -0.004621 -0.006548 0.002181
# 2 -0.011007 0.025415 0.002491 0.007107 0.004873 -0.011574
# 3 -0.004160 0.002491 0.014578 0.009642 -0.000817 -0.002322
# 4 -0.004621 0.007107 0.009642 0.026839 -0.004170 0.000440
# 5 -0.006548 0.004873 -0.000817 -0.004170 0.023168 -0.002503
# 6 0.002181 -0.011574 -0.002322 0.000440 -0.002503 0.035942
#
#
# Mechanical properties :
#
#
# Convention : Reuss Voigt Hill
#
# Bulk Modulus (GPa) = 28.39616 39.20238 33.79927
# Shear Modulus (GPa) = 27.23202 40.22419 33.72810
#
# Velocity S-wave (km/s) = 3.32318 4.03885 3.69837
# Velocity P-wave (km/s) = 5.12253 6.13577 5.65190
#
# Compressibility (1/GPa) = 0.03521603
#
# Stress axis : x y z
#
# Youngs Moduli (GPa) = 48.60255 39.34747 68.59504
#
# Poissons Ratio (x) = 0.43311 0.28533
# Poissons Ratio (y) = 0.53499 -0.17087
# Poissons Ratio (z) = 0.20217 -0.09802
#
# Static dielectric constant tensor:
#      x y z
#    x 1.937710 -0.008940 0.010060 
#    y -0.008940 1.961880 -0.000920 
#    z 0.010060 -0.000920 1.977970 
# 
# From -- ./inp_files/495923.got.cif
#   From: 2010.05.17/outbox.cif.g08.bks.cpg/sg2_248_cif.got.tgz:495923.got - 2010.06.03 11:33:40.
