data_PCOD9052785
_publ_section_title
;
Structure prediction by ZEFSAII (Michael W. Deem and Ramdas Pophale) SiO2 
 PCOD9052785
Probable space group: P -1
;
_chemical_formula_sum "Si O2"
_cell_formula_units_Z 16
_cell_length_a 11.116189
_cell_length_b 14.908005
_cell_length_c 9.243066
_cell_angle_alpha 89.023376
_cell_angle_beta 148.815759
_cell_angle_gamma 105.226210
_cell_volume 696.071337
_symmetry_space_group_name_H-M "P -1"
_symmetry_group_IT_number 2
_symmetry_cell_setting 'triclinic'
loop_
_space_group_symop_operation_xyz
x,y,z
-x,-y,-z
loop_
_atom_site_type_symbol
_atom_site_label
_atom_site_fract_x
_atom_site_fract_y
_atom_site_fract_z
Si Si1 0.850203 0.636447 0.622034
Si Si2 0.437889 0.119624 0.408888
Si Si3 0.924071 0.771725 0.939149
Si Si4 0.640333 0.574714 0.848663
Si Si5 0.342098 0.316107 0.850242
Si Si6 0.521621 0.020166 0.773951
Si Si7 0.148230 0.556207 0.797774
Si Si8 0.913626 0.086915 0.434311
O O1 0.888884 0.737151 0.736476
O O2 0.608768 0.534076 0.439693
O O3 0.822103 0.644589 0.419630
O O4 0.086708 0.610962 0.866821
O O5 0.238412 0.167320 0.195831
O O6 0.353669 0.032372 0.201920
O O7 0.427350 0.077909 0.561853
O O8 0.759525 0.181939 0.708728
O O9 0.770499 0.665250 0.868521
O O10 0.565028 0.620106 0.909685
O O11 0.843584 0.538460 0.113593
O O12 0.167515 0.197375 0.705560
O O13 0.587849 0.349725 0.997095
O O14 0.270615 0.940954 0.612314
O O15 0.735649 0.085097 0.114389
O O16 0.000000 0.500000 0.500000
O O17 0.000000 0.000000 0.500000
#
# Coordination Sequence:
#
# PCOD9052785 Si02
#       8
#     2   2   2   2   2   2   2   2
#     4  11  24  44  68 101 146 191 239 300 361 437
#     4  11  28  50  77 103 147 205 245 302 374 449
#     4  12  29  45  73 110 144 193 253 299 370 436
#     4  11  24  43  67 104 144 191 243 301 361 437
#     4  11  23  41  71 104 138 192 239 296 367 446
#     4  10  26  50  73 104 146 191 246 314 372 437
#     4  11  21  42  71 103 143 192 240 295 368 437
#     4  11  26  45  76 112 147 178 249 315 374 431
#
# _framework density 22.986151
#
# number of rings (size 3 to 8) (size 9 to 14) (size 15 to 20)
#    0.000    1.000    2.500    2.625   12.250    3.500 
#    0.000    0.000    0.000    0.000    0.000    0.000 
#    0.000    0.000    0.000    0.000    0.000    0.000 
#
# Total GULP energy -89247.823062 kJ/mol
# GULP energy per Si atom -5577.988941 kJ/mol
# Density = 2.293383 g / cm^3
# Si number density = 22.986151 Si / 1000 Ang^3
#
#
#
# Elastic Constant Matrix: (Units=GPa)
#
#
# Indices 1 2 3 4 5 6 
#
# 1 20.1994 50.2330 -0.2596 -52.0383 -43.1516 -32.3502
# 2 50.2330 70.3989 11.7729 7.6769 32.7096 21.8279
# 3 -0.2596 11.7729 33.5621 -8.5107 -8.5062 -14.2418
# 4 -52.0383 7.6769 -8.5107 6.4648 -22.2420 -20.6016
# 5 -43.1516 32.7096 -8.5062 -22.2420 0.1549 -26.5686
# 6 -32.3502 21.8279 -14.2418 -20.6016 -26.5686 28.6794
#
#
#
# Elastic Compliance Matrix: (Units=1/GPa)
#
#
# Indices 1 2 3 4 5 6 
#
# 1 0.007847 0.002206 -0.006401 -0.001924 -0.009756 -0.006426
# 2 0.002206 0.010963 -0.000501 0.010194 0.000348 0.001542
# 3 -0.006401 -0.000501 0.030064 -0.004277 -0.001396 0.003726
# 4 -0.001924 0.010194 -0.004277 0.029972 -0.019036 -0.008158
# 5 -0.009756 0.000348 -0.001396 -0.019036 0.022440 -0.004850
# 6 -0.006426 0.001542 0.003726 -0.008158 -0.004850 0.017943
#
#
# Mechanical properties :
#
#
# Convention : Reuss Voigt Hill
#
# Bulk Modulus (GPa) = 25.32673 27.51699 26.42186
# Shear Modulus (GPa) = 35.26567 11.22076 23.24321
#
# Velocity S-wave (km/s) = 3.92115 2.21182 3.18336
# Velocity P-wave (km/s) = 5.61629 4.30348 5.00313
#
# Compressibility (1/GPa) = 0.03948398
#
# Stress axis : x y z
#
# Youngs Moduli (GPa) = 127.43199 91.21856 33.26182
#
# Poissons Ratio (x) = -0.20126 0.21290
# Poissons Ratio (y) = -0.28115 0.01666
# Poissons Ratio (z) = 0.81565 0.04569
#
# Static dielectric constant tensor:
#      x y z
#    x 1.863490 -0.030270 0.074070 
#    y -0.030270 1.846780 -0.051530 
#    z 0.074070 -0.051530 2.006870 
# 
# From -- ./inp_files/273041.got.cif
#   From: 2010.05.17/outbox.cif.g08.bks.cpg/sg2_137_cif.got.tgz:273041.got - 2010.06.03 11:33:40.
