data_PCOD9052098
_publ_section_title
;
Structure prediction by ZEFSAII (Michael W. Deem and Ramdas Pophale) SiO2 
 PCOD9052098
Probable space group: P -1
;
_chemical_formula_sum "Si O2"
_cell_formula_units_Z 12
_cell_length_a 11.451002
_cell_length_b 14.594392
_cell_length_c 8.191117
_cell_angle_alpha 54.572952
_cell_angle_beta 140.159597
_cell_angle_gamma 147.440694
_cell_volume 462.840901
_symmetry_space_group_name_H-M "P -1"
_symmetry_group_IT_number 2
_symmetry_cell_setting 'triclinic'
loop_
_space_group_symop_operation_xyz
x,y,z
-x,-y,-z
loop_
_atom_site_type_symbol
_atom_site_label
_atom_site_fract_x
_atom_site_fract_y
_atom_site_fract_z
Si Si1 0.754882 0.171286 0.803721
Si Si2 0.672878 0.372785 0.801782
Si Si3 0.401200 0.287083 0.927925
Si Si4 0.113810 0.801818 0.443844
Si Si5 0.260457 0.570181 0.522779
Si Si6 0.218214 0.017648 0.797852
O O1 0.894436 0.191192 0.767034
O O2 0.778918 0.315579 0.659982
O O3 0.422944 0.983782 0.640163
O O4 0.872009 0.152177 0.098736
O O5 0.586346 0.395372 0.851662
O O6 0.586289 0.392337 0.519989
O O7 0.500930 0.174616 0.837191
O O8 0.000000 0.500000 0.000000
O O9 0.288173 0.107696 0.955872
O O10 0.131031 0.239439 0.697357
O O11 0.569299 0.373834 0.187419
O O12 0.031756 0.634548 0.568042
O O13 0.000000 0.000000 0.500000
#
# Coordination Sequence:
#
# PCOD9052098 Si02
#       6
#     2   2   2   2   2   2
#     4  11  26  44  82 110 153 212 252 321 392 463
#     4  10  26  47  76 114 153 202 262 318 384 464
#     4  10  26  47  77 112 156 201 262 314 387 465
#     4  11  25  46  77 118 153 199 268 315 386 469
#     4  12  26  49  81 110 157 205 255 322 387 465
#     4  10  25  51  72 116 155 199 265 319 391 460
#
# _framework density 25.926835000000001
#
# number of rings (size 3 to 8) (size 9 to 14) (size 15 to 20)
#    1.000    0.333    0.000    4.000    9.333    2.667 
#    3.000    0.000    0.000    0.000    0.000    0.000 
#    0.000    0.000    0.000    0.000    0.000    0.000 
#
# Total GULP energy -67159.415849 kJ/mol
# GULP energy per Si atom -5596.617987 kJ/mol
# Density = 2.586782 g / cm^3
# Si number density = 25.926835 Si / 1000 Ang^3
#
#
#
# Elastic Constant Matrix: (Units=GPa)
#
#
# Indices 1 2 3 4 5 6 
#
# 1 151.2820 58.2143 78.1534 -0.2527 -6.4225 35.7552
# 2 58.2143 171.0326 52.0940 -35.6977 17.1964 9.7759
# 3 78.1534 52.0940 103.1081 -11.7604 -7.4509 19.3206
# 4 -0.2527 -35.6977 -11.7604 39.4524 3.8105 -2.2394
# 5 -6.4225 17.1964 -7.4509 3.8105 55.9751 -2.2626
# 6 35.7552 9.7759 19.3206 -2.2394 -2.2626 47.6540
#
#
#
# Elastic Compliance Matrix: (Units=1/GPa)
#
#
# Indices 1 2 3 4 5 6 
#
# 1 0.013531 -0.003142 -0.007989 -0.005657 0.001578 -0.006460
# 2 -0.003142 0.009685 -0.002098 0.008599 -0.004143 0.001429
# 3 -0.007989 -0.002098 0.017363 0.003029 0.001817 -0.000386
# 4 -0.005657 0.008599 0.003029 0.034640 -0.005139 0.002636
# 5 0.001578 -0.004143 0.001817 -0.005139 0.019896 -0.000368
# 6 -0.006460 0.001429 -0.000386 0.002636 -0.000368 0.025801
#
#
# Mechanical properties :
#
#
# Convention : Reuss Voigt Hill
#
# Bulk Modulus (GPa) = 70.81888 89.14959 79.98424
# Shear Modulus (GPa) = 32.87701 44.41372 38.64537
#
# Velocity S-wave (km/s) = 3.56486 4.14338 3.86496
# Velocity P-wave (km/s) = 6.65721 7.57297 7.12981
#
# Compressibility (1/GPa) = 0.01412053
#
# Stress axis : x y z
#
# Youngs Moduli (GPa) = 73.90460 103.25280 57.59283
#
# Poissons Ratio (x) = 0.32446 0.46013
# Poissons Ratio (y) = 0.23224 0.12081
# Poissons Ratio (z) = 0.59045 0.21659
#
# Static dielectric constant tensor:
#      x y z
#    x 2.121560 -0.047680 -0.057770 
#    y -0.047680 2.031420 0.029310 
#    z -0.057770 0.029310 2.059150 
# 
# From -- ./inp_files/279138.got.cif
#   From: 2010.05.17/outbox.cif.g08.bks.cpg/sg2_140_cif.got.tgz:279138.got - 2010.06.03 11:33:40.
