data_PCOD9052345
_publ_section_title
;
Structure prediction by ZEFSAII (Michael W. Deem and Ramdas Pophale) SiO2 
 PCOD9052345
Probable space group: P -1
;
_chemical_formula_sum "Si O2"
_cell_formula_units_Z 14
_cell_length_a 20.836736
_cell_length_b 6.801841
_cell_length_c 12.633776
_cell_angle_alpha 110.568971
_cell_angle_beta 154.266428
_cell_angle_gamma 56.768268
_cell_volume 598.270984
_symmetry_space_group_name_H-M "P -1"
_symmetry_group_IT_number 2
_symmetry_cell_setting 'triclinic'
loop_
_space_group_symop_operation_xyz
x,y,z
-x,-y,-z
loop_
_atom_site_type_symbol
_atom_site_label
_atom_site_fract_x
_atom_site_fract_y
_atom_site_fract_z
Si Si1 0.839455 0.882850 0.866629
Si Si2 0.591157 0.379435 0.223813
Si Si3 0.040781 0.594636 0.917265
Si Si4 0.264407 0.443005 0.882173
Si Si5 0.651439 0.365275 0.784693
Si Si6 0.911552 0.810927 0.534533
Si Si7 0.607514 0.690828 0.488507
O O1 0.652374 0.901015 0.587913
O O2 0.908167 0.834926 0.840208
O O3 0.823790 0.120551 0.941239
O O4 0.963650 0.635277 0.079073
O O5 0.636303 0.546275 0.393812
O O6 0.772180 0.102051 0.417901
O O7 0.500000 0.500000 0.000000
O O8 0.429828 0.389015 0.047351
O O9 0.986824 0.644868 0.724358
O O10 0.240658 0.498563 0.235187
O O11 0.202599 0.271505 0.714432
O O12 0.077402 0.725030 0.682807
O O13 0.340077 0.415917 0.106993
O O14 0.500000 0.500000 0.500000
O O15 0.583192 0.241651 0.742858
#
# Coordination Sequence:
#
# PCOD9052345 Si02
#       7
#     2   2   2   2   2   2   2
#     4   9  21  38  61  95 126 162 212 260 318 387
#     4  11  26  43  68  98 132 171 217 274 325 388
#     4   9  21  39  67  93 120 171 216 254 327 374
#     4  10  26  45  62 103 122 180 223 252 338 379
#     4  11  22  38  63  94 131 163 211 271 319 386
#     4  11  24  47  69  89 139 172 217 275 313 397
#     4   9  21  41  59  98 123 166 215 257 333 380
#
# _framework density 23.400769
#
# number of rings (size 3 to 8) (size 9 to 14) (size 15 to 20)
#    0.857    1.143    0.000    1.714    8.000    2.286 
#   10.286    0.000    0.000    0.000    0.000    0.000 
#    0.000    0.000    0.000    0.000    0.000    0.000 
#
# Total GULP energy -77983.236276 kJ/mol
# GULP energy per Si atom -5570.231163 kJ/mol
# Density = 2.334751 g / cm^3
# Si number density = 23.400769 Si / 1000 Ang^3
#
#
#
# Elastic Constant Matrix: (Units=GPa)
#
#
# Indices 1 2 3 4 5 6 
#
# 1 54.8199 23.4324 26.5622 -9.6443 8.2377 -17.2166
# 2 23.4324 112.5910 26.0459 12.9756 -19.0891 -31.5480
# 3 26.5622 26.0459 100.5569 11.9409 -9.5206 -5.7932
# 4 -9.6443 12.9756 11.9409 45.6277 -11.5449 3.3867
# 5 8.2377 -19.0891 -9.5206 -11.5449 47.4115 5.1093
# 6 -17.2166 -31.5480 -5.7932 3.3867 5.1093 32.2204
#
#
#
# Elastic Compliance Matrix: (Units=1/GPa)
#
#
# Indices 1 2 3 4 5 6 
#
# 1 0.029218 -0.002978 -0.007723 0.006245 -0.007583 0.011853
# 2 -0.002978 0.014310 -0.001368 -0.004310 0.003657 0.012048
# 3 -0.007723 -0.001368 0.012855 -0.003653 0.002830 -0.003220
# 4 0.006245 -0.004310 -0.003653 0.026658 0.003464 -0.004891
# 5 -0.007583 0.003657 0.002830 0.003464 0.025769 -0.004413
# 6 0.011853 0.012048 -0.003220 -0.004891 -0.004413 0.049801
#
#
# Mechanical properties :
#
#
# Convention : Reuss Voigt Hill
#
# Bulk Modulus (GPa) = 31.01271 46.67209 38.84240
# Shear Modulus (GPa) = 25.84006 37.84708 31.84357
#
# Velocity S-wave (km/s) = 3.32662 4.02598 3.69289
# Velocity P-wave (km/s) = 5.29498 6.44976 5.90068
#
# Compressibility (1/GPa) = 0.03224484
#
# Stress axis : x y z
#
# Youngs Moduli (GPa) = 34.22597 69.87942 77.78967
#
# Poissons Ratio (x) = 0.20812 0.60078
# Poissons Ratio (y) = 0.10193 0.10640
# Poissons Ratio (z) = 0.26433 0.09558
#
# Static dielectric constant tensor:
#      x y z
#    x 1.977390 -0.007170 0.094490 
#    y -0.007170 1.883330 -0.000160 
#    z 0.094490 -0.000160 1.978700 
# 
# From -- ./inp_files/469491.got.cif
#   From: 2010.05.17/outbox.cif.g08.bks.cpg/sg2_235_cif.got.tgz:469491.got - 2010.06.03 11:33:40.
