data_PCOD9052176
_publ_section_title
;
Structure prediction by ZEFSAII (Michael W. Deem and Ramdas Pophale) SiO2 
 PCOD9052176
Probable space group: P -1
;
_chemical_formula_sum "Si O2"
_cell_formula_units_Z 14
_cell_length_a 14.497010
_cell_length_b 16.951678
_cell_length_c 12.468928
_cell_angle_alpha 142.255294
_cell_angle_beta 20.935158
_cell_angle_gamma 144.056149
_cell_volume 633.881854
_symmetry_space_group_name_H-M "P -1"
_symmetry_group_IT_number 2
_symmetry_cell_setting 'triclinic'
loop_
_space_group_symop_operation_xyz
x,y,z
-x,-y,-z
loop_
_atom_site_type_symbol
_atom_site_label
_atom_site_fract_x
_atom_site_fract_y
_atom_site_fract_z
Si Si1 0.941989 0.408072 0.858163
Si Si2 0.891304 0.115435 0.192626
Si Si3 0.132375 0.037660 0.152826
Si Si4 0.521903 0.233490 0.802956
Si Si5 0.384038 0.363864 0.908951
Si Si6 0.444726 0.533129 0.828324
Si Si7 0.607096 0.085267 0.867301
O O1 0.755265 0.248520 0.901728
O O2 0.240293 0.414485 0.495759
O O3 0.767719 0.477024 0.046424
O O4 0.000000 0.500000 0.000000
O O5 0.646654 0.112760 0.535088
O O6 0.076624 0.273933 0.171974
O O7 0.876331 0.085322 0.049616
O O8 0.000000 0.000000 0.000000
O O9 0.839945 0.029774 0.506823
O O10 0.232290 0.168149 0.104865
O O11 0.357610 0.063305 0.030275
O O12 0.528522 0.267874 0.706958
O O13 0.641580 0.365861 0.887061
O O14 0.419620 0.401755 0.787615
O O15 0.500000 0.500000 0.000000
O O16 0.500000 0.000000 0.000000
#
# Coordination Sequence:
#
# PCOD9052176 Si02
#       7
#     2   2   2   2   2   2   2
#     4  12  26  49  77 103 140 188 249 311 367 428
#     4  12  26  41  71 111 150 196 245 289 355 438
#     4  12  25  44  74 104 147 186 236 292 366 426
#     4  11  23  44  72 105 151 196 238 285 360 445
#     4  10  26  42  68 106 148 194 242 285 351 435
#     4  11  26  45  76 106 147 196 239 295 368 429
#     4  12  27  49  75 104 138 188 243 309 369 428
#
# _framework density 22.086134999999999
#
# number of rings (size 3 to 8) (size 9 to 14) (size 15 to 20)
#    0.000    0.571    4.286    2.143    8.000    3.429 
#    0.000    0.000    0.000    0.000    0.000    0.000 
#    0.000    0.000    0.000    0.000    0.000    0.000 
#
# Total GULP energy -78021.913373 kJ/mol
# GULP energy per Si atom -5572.993812 kJ/mol
# Density = 2.203587 g / cm^3
# Si number density = 22.086135 Si / 1000 Ang^3
#
#
#
# Elastic Constant Matrix: (Units=GPa)
#
#
# Indices 1 2 3 4 5 6 
#
# 1 192.0088 54.3516 59.4622 -11.8738 -3.7457 -9.4867
# 2 54.3516 83.3541 36.0053 -11.6703 17.2607 -1.8661
# 3 59.4622 36.0053 149.7045 -0.0762 -1.4490 -5.4830
# 4 -11.8738 -11.6703 -0.0762 19.7374 0.5994 1.8221
# 5 -3.7457 17.2607 -1.4490 0.5994 34.2175 -1.5397
# 6 -9.4867 -1.8661 -5.4830 1.8221 -1.5397 37.3403
#
#
#
# Elastic Compliance Matrix: (Units=1/GPa)
#
#
# Indices 1 2 3 4 5 6 
#
# 1 0.007183 -0.004283 -0.001743 0.001565 0.002908 0.001398
# 2 -0.004283 0.019699 -0.003190 0.009523 -0.010774 -0.001481
# 3 -0.001743 -0.003190 0.008186 -0.003036 0.001856 0.000824
# 4 0.001565 0.009523 -0.003036 0.057647 -0.005889 -0.002628
# 5 0.002908 -0.010774 0.001856 -0.005889 0.035260 0.002214
# 6 0.001398 -0.001481 0.000824 -0.002628 0.002214 0.027403
#
#
# Mechanical properties :
#
#
# Convention : Reuss Voigt Hill
#
# Bulk Modulus (GPa) = 60.11069 80.52282 70.31675
# Shear Modulus (GPa) = 27.87797 36.60893 32.24345
#
# Velocity S-wave (km/s) = 3.55665 4.07572 3.82500
# Velocity P-wave (km/s) = 6.64394 7.66070 7.17037
#
# Compressibility (1/GPa) = 0.01663598
#
# Stress axis : x y z
#
# Youngs Moduli (GPa) = 139.22440 50.76451 122.16010
#
# Poissons Ratio (x) = 0.21740 0.21290
# Poissons Ratio (y) = 0.59624 0.38974
# Poissons Ratio (z) = 0.24264 0.16196
#
# Static dielectric constant tensor:
#      x y z
#    x 1.947820 0.054580 -0.115480 
#    y 0.054580 1.886580 -0.038240 
#    z -0.115480 -0.038240 1.938750 
# 
# From -- ./inp_files/456784.got.cif
#   From: 2010.05.17/outbox.cif.g08.bks.cpg/sg2_229_cif.got.tgz:456784.got - 2010.06.03 11:33:40.
