data_PCOD9052796
_publ_section_title
;
Structure prediction by ZEFSAII (Michael W. Deem and Ramdas Pophale) SiO2 
 PCOD9052796
Probable space group: P -1
;
_chemical_formula_sum "Si O2"
_cell_formula_units_Z 15
_cell_length_a 11.367702
_cell_length_b 13.966392
_cell_length_c 11.400467
_cell_angle_alpha 146.949822
_cell_angle_beta 45.011546
_cell_angle_gamma 123.692546
_cell_volume 694.778398
_symmetry_space_group_name_H-M "P -1"
_symmetry_group_IT_number 2
_symmetry_cell_setting 'triclinic'
loop_
_space_group_symop_operation_xyz
x,y,z
-x,-y,-z
loop_
_atom_site_type_symbol
_atom_site_label
_atom_site_fract_x
_atom_site_fract_y
_atom_site_fract_z
Si Si1 0.909710 0.764281 0.628289
Si Si2 0.395935 0.055424 0.510040
Si Si3 0.500000 0.500000 0.500000
Si Si4 0.996289 0.888610 0.149164
Si Si5 0.093809 0.541514 0.857854
Si Si6 0.467823 0.252758 0.068253
Si Si7 0.516488 0.429962 0.784510
Si Si8 0.905626 0.323361 0.373308
O O1 0.964627 0.590325 0.336544
O O2 0.732804 0.744159 0.793593
O O3 0.040852 0.786433 0.661721
O O4 0.902705 0.940464 0.737330
O O5 0.199321 0.047947 0.653688
O O6 0.421267 0.256634 0.666418
O O7 0.500000 0.000000 0.500000
O O8 0.459111 0.926417 0.227477
O O9 0.295051 0.503008 0.672012
O O10 0.502197 0.307495 0.232653
O O11 0.041170 0.743700 0.068135
O O12 0.043751 0.784594 0.888847
O O13 0.000000 0.500000 0.000000
O O14 0.531599 0.412925 0.111117
O O15 0.709001 0.371615 0.560969
O O16 0.500000 0.500000 0.000000
O O17 0.000000 0.500000 0.500000
#
# Coordination Sequence:
#
# PCOD9052796 Si02
#       8
#     2   2   1   2   2   2   2   2
#     4  11  24  44  69 101 136 181 230 294 351 421
#     4  12  25  41  68 109 143 179 225 288 357 428
#     4  10  26  50  74  96 138 192 238 300 352 408
#     4  12  26  44  70 107 140 182 233 289 359 421
#     4  11  27  49  74 100 139 188 248 293 353 417
#     4  11  24  46  67 100 138 182 237 287 352 421
#     4  12  24  39  68 100 142 184 227 284 358 420
#     4  12  20  41  69  97 141 181 223 283 357 425
#
# _framework density 21.589618999999999
#
# number of rings (size 3 to 8) (size 9 to 14) (size 15 to 20)
#    0.000    0.533    4.000    4.400    3.733    0.533 
#    0.000    2.000    0.000    0.000    0.000    0.000 
#    0.000    0.000    0.000    0.000    0.000    0.000 
#
# Total GULP energy -83623.868609 kJ/mol
# GULP energy per Si atom -5574.924574 kJ/mol
# Density = 2.154048 g / cm^3
# Si number density = 21.589619 Si / 1000 Ang^3
#
#
#
# Elastic Constant Matrix: (Units=GPa)
#
#
# Indices 1 2 3 4 5 6 
#
# 1 27.7039 6.9245 7.8662 -8.9402 2.9742 1.2151
# 2 6.9245 123.0663 12.5303 21.8649 -4.9776 -10.9610
# 3 7.8662 12.5303 116.2563 -6.1885 10.9936 -1.7859
# 4 -8.9402 21.8649 -6.1885 47.6216 9.2884 -3.6754
# 5 2.9742 -4.9776 10.9936 9.2884 19.3993 6.8111
# 6 1.2151 -10.9610 -1.7859 -3.6754 6.8111 30.0029
#
#
#
# Elastic Compliance Matrix: (Units=1/GPa)
#
#
# Indices 1 2 3 4 5 6 
#
# 1 0.043395 -0.005310 -0.000218 0.013554 -0.014845 0.001320
# 2 -0.005310 0.010342 -0.001847 -0.007372 0.007604 0.001254
# 3 -0.000218 -0.001847 0.009899 0.003999 -0.008812 0.002413
# 4 0.013554 -0.007372 0.003999 0.032657 -0.024147 0.006478
# 5 -0.014845 0.007604 -0.008812 -0.024147 0.078635 -0.017955
# 6 0.001320 0.001254 0.002413 0.006478 -0.017955 0.038748
#
#
# Mechanical properties :
#
#
# Convention : Reuss Voigt Hill
#
# Bulk Modulus (GPa) = 20.45696 35.74095 28.09896
# Shear Modulus (GPa) = 20.43130 35.38511 27.90821
#
# Velocity S-wave (km/s) = 3.07962 4.05283 3.59927
# Velocity P-wave (km/s) = 4.70546 6.20413 5.50602
#
# Compressibility (1/GPa) = 0.04888313
#
# Stress axis : x y z
#
# Youngs Moduli (GPa) = 23.04401 96.69742 101.02207
#
# Poissons Ratio (x) = 0.51351 0.02205
# Poissons Ratio (y) = 0.12237 0.18664
# Poissons Ratio (z) = 0.00503 0.17865
#
# Static dielectric constant tensor:
#      x y z
#    x 1.838670 -0.052800 -0.003540 
#    y -0.052800 1.830450 0.026250 
#    z -0.003540 0.026250 1.754800 
# 
# From -- ./inp_files/330630.got.cif
#   From: 2010.05.17/outbox.cif.g08.bks.cpg/sg2_166_cif.got.tgz:330630.got - 2010.06.03 11:33:40.
