data_PCOD9052578
_publ_section_title
;
Structure prediction by ZEFSAII (Michael W. Deem and Ramdas Pophale) SiO2 
 PCOD9052578
Probable space group: P -1
;
_chemical_formula_sum "Si O2"
_cell_formula_units_Z 14
_cell_length_a 26.894422
_cell_length_b 15.207112
_cell_length_c 13.644193
_cell_angle_alpha 161.194115
_cell_angle_beta 159.740359
_cell_angle_gamma 21.395638
_cell_volume 574.761364
_symmetry_space_group_name_H-M "P -1"
_symmetry_group_IT_number 2
_symmetry_cell_setting 'triclinic'
loop_
_space_group_symop_operation_xyz
x,y,z
-x,-y,-z
loop_
_atom_site_type_symbol
_atom_site_label
_atom_site_fract_x
_atom_site_fract_y
_atom_site_fract_z
Si Si1 0.199495 0.483521 0.539379
Si Si2 0.894341 0.678729 0.296798
Si Si3 0.468406 0.923463 0.249462
Si Si4 0.401178 0.279479 0.311303
Si Si5 0.866186 0.232670 0.932940
Si Si6 0.165129 0.945610 0.796109
Si Si7 0.457260 0.371737 0.185603
O O1 0.366983 0.336740 0.744972
O O2 0.210224 0.687333 0.686113
O O3 0.058146 0.652408 0.528044
O O4 0.154837 0.231255 0.139808
O O5 0.811517 0.010405 0.534631
O O6 0.779976 0.635652 0.958501
O O7 0.916006 0.436328 0.165705
O O8 0.500000 0.000000 0.500000
O O9 0.440888 0.184220 0.396225
O O10 0.306647 0.877865 0.909841
O O11 0.454186 0.528123 0.629577
O O12 0.495001 0.978054 0.104796
O O13 0.728278 0.455345 0.978060
O O14 0.000000 0.000000 0.000000
O O15 0.000000 0.000000 0.500000
O O16 0.500000 0.500000 0.500000
#
# Coordination Sequence:
#
# PCOD9052578 Si02
#       7
#     2   2   2   2   2   2   2
#     4  11  25  42  68  99 138 177 229 289 349 412
#     4  12  24  45  67 104 139 183 235 279 344 430
#     4  10  26  47  71 105 142 183 239 296 353 413
#     4  12  25  43  74 101 138 189 233 286 350 417
#     4  12  27  43  69  99 146 179 227 291 349 409
#     4  11  23  45  70  97 135 179 230 289 351 413
#     4  12  24  46  70 103 140 179 235 287 346 419
#
# _framework density 24.357935999999999
#
# number of rings (size 3 to 8) (size 9 to 14) (size 15 to 20)
#    0.000    0.571    2.857    4.286    4.000    6.857 
#    0.000    0.000    0.000    0.000    0.000    0.000 
#    0.000    0.000    0.000    0.000    0.000    0.000 
#
# Total GULP energy -78479.344493 kJ/mol
# GULP energy per Si atom -5605.667464 kJ/mol
# Density = 2.430250 g / cm^3
# Si number density = 24.357936 Si / 1000 Ang^3
#
#
#
# Elastic Constant Matrix: (Units=GPa)
#
#
# Indices 1 2 3 4 5 6 
#
# 1 111.6397 24.4475 7.3233 -10.4091 16.9851 11.4909
# 2 24.4475 116.8818 12.4304 -25.5967 13.0813 -7.0002
# 3 7.3233 12.4304 77.8166 -4.1046 0.9521 4.5161
# 4 -10.4091 -25.5967 -4.1046 68.0585 0.8024 4.5893
# 5 16.9851 13.0813 0.9521 0.8024 49.4051 4.4112
# 6 11.4909 -7.0002 4.5161 4.5893 4.4112 50.8693
#
#
#
# Elastic Compliance Matrix: (Units=1/GPa)
#
#
# Indices 1 2 3 4 5 6 
#
# 1 0.010123 -0.001650 -0.000462 0.001090 -0.002844 -0.002324
# 2 -0.001650 0.010154 -0.001363 0.003391 -0.002309 0.001785
# 3 -0.000462 -0.001363 0.013199 0.000297 0.000378 -0.001315
# 4 0.001090 0.003391 0.000297 0.016248 -0.001440 -0.001147
# 5 -0.002844 -0.002309 0.000378 -0.001440 0.021979 -0.001485
# 6 -0.002324 0.001785 -0.001315 -0.001147 -0.001485 0.020778
#
#
# Mechanical properties :
#
#
# Convention : Reuss Voigt Hill
#
# Bulk Modulus (GPa) = 37.70010 43.86006 40.78008
# Shear Modulus (GPa) = 46.17976 51.14237 48.66106
#
# Velocity S-wave (km/s) = 4.35890 4.58713 4.47447
# Velocity P-wave (km/s) = 6.39097 6.78979 6.59339
#
# Compressibility (1/GPa) = 0.02652513
#
# Stress axis : x y z
#
# Youngs Moduli (GPa) = 98.78771 98.48491 75.76172
#
# Poissons Ratio (x) = 0.16254 0.03499
# Poissons Ratio (y) = 0.16304 0.10327
# Poissons Ratio (z) = 0.04562 0.13425
#
# Static dielectric constant tensor:
#      x y z
#    x 1.978170 -0.039910 -0.089800 
#    y -0.039910 1.917520 -0.026670 
#    z -0.089800 -0.026670 1.930050 
# 
# From -- ./inp_files/535738.got.cif
#   From: 2010.05.17/outbox.cif.g08.bks.cpg/sg2_268_cif.got.tgz:535738.got - 2010.06.03 11:33:40.
