data_PCOD9052509
_publ_section_title
;
Structure prediction by ZEFSAII (Michael W. Deem and Ramdas Pophale) SiO2 
 PCOD9052509
Probable space group: P -1
;
_chemical_formula_sum "Si O2"
_cell_formula_units_Z 13
_cell_length_a 12.066449
_cell_length_b 9.638589
_cell_length_c 4.659432
_cell_angle_alpha 75.788660
_cell_angle_beta 118.463421
_cell_angle_gamma 92.166489
_cell_volume 459.825224
_symmetry_space_group_name_H-M "P -1"
_symmetry_group_IT_number 2
_symmetry_cell_setting 'triclinic'
loop_
_space_group_symop_operation_xyz
x,y,z
-x,-y,-z
loop_
_atom_site_type_symbol
_atom_site_label
_atom_site_fract_x
_atom_site_fract_y
_atom_site_fract_z
Si Si1 0.452847 0.853574 0.388689
Si Si2 0.716054 0.092349 0.378120
Si Si3 0.787893 0.541462 0.696357
Si Si4 0.873342 0.824549 0.925195
Si Si5 0.610672 0.577013 0.942924
Si Si6 0.000000 0.500000 0.500000
Si Si7 0.039363 0.797700 0.649942
O O1 0.329589 0.820923 0.439943
O O2 0.553485 0.719425 0.635955
O O3 0.500000 0.000000 0.500000
O O4 0.401707 0.884938 0.993075
O O5 0.837846 0.142713 0.349758
O O6 0.758986 0.931038 0.619367
O O7 0.850439 0.658128 0.922103
O O8 0.690006 0.483682 0.839917
O O9 0.891819 0.469108 0.641034
O O10 0.697184 0.617778 0.296181
O O11 0.000835 0.845401 0.895516
O O12 0.911268 0.846320 0.286195
O O13 0.500000 0.500000 0.000000
O O14 0.047903 0.628958 0.688791
#
# Coordination Sequence:
#
# PCOD9052509 Si02
#       7
#     2   2   2   2   2   1   2
#     4  12  26  47  72 104 142 192 252 301 369 430
#     4  12  24  43  74 102 143 185 245 307 361 440
#     4  11  24  46  75 103 152 188 252 301 375 446
#     4  11  22  43  70 106 137 194 230 304 374 436
#     4  12  27  48  71 109 148 200 245 310 371 439
#     4  10  26  46  74 110 144 198 240 308 370 444
#     4  11  24  42  67 105 149 182 242 293 379 437
#
# _framework density 28.271611
#
# number of rings (size 3 to 8) (size 9 to 14) (size 15 to 20)
#    0.000    0.615    0.000    8.308    2.154    5.538 
#    2.769    0.000    0.000    0.000    0.000    0.000 
#    0.000    0.000    0.000    0.000    0.000    0.000 
#
# Total GULP energy -72697.775005 kJ/mol
# GULP energy per Si atom -5592.136539 kJ/mol
# Density = 2.820726 g / cm^3
# Si number density = 28.271611 Si / 1000 Ang^3
#
#
#
# Elastic Constant Matrix: (Units=GPa)
#
#
# Indices 1 2 3 4 5 6 
#
# 1 230.6968 25.4733 29.7092 -4.9671 -22.3526 -3.7287
# 2 25.4733 94.9057 12.5237 -15.6731 8.8451 -3.5330
# 3 29.7092 12.5237 142.4134 -8.5456 -9.7779 -4.7584
# 4 -4.9671 -15.6731 -8.5456 37.7277 -9.0287 0.9884
# 5 -22.3526 8.8451 -9.7779 -9.0287 46.6737 8.1271
# 6 -3.7287 -3.5330 -4.7584 0.9884 8.1271 46.7193
#
#
#
# Elastic Compliance Matrix: (Units=1/GPa)
#
#
# Indices 1 2 3 4 5 6 
#
# 1 0.004831 -0.001367 -0.000687 0.000535 0.002575 -0.000247
# 2 -0.001367 0.011921 -0.000656 0.004007 -0.002462 0.001069
# 3 -0.000687 -0.000656 0.007448 0.001705 0.001627 0.000335
# 4 0.000535 0.004007 0.001705 0.030061 0.005867 -0.001137
# 5 0.002575 -0.002462 0.001627 0.005867 0.025359 -0.004350
# 6 -0.000247 0.001069 0.000335 -0.001137 -0.004350 0.022281
#
#
# Mechanical properties :
#
#
# Convention : Reuss Voigt Hill
#
# Bulk Modulus (GPa) = 53.24672 67.04760 60.14716
# Shear Modulus (GPa) = 44.02172 52.91145 48.46658
#
# Velocity S-wave (km/s) = 3.95029 4.33082 4.14493
# Velocity P-wave (km/s) = 6.29931 6.98391 6.65043
#
# Compressibility (1/GPa) = 0.01878050
#
# Stress axis : x y z
#
# Youngs Moduli (GPa) = 206.98967 83.88425 134.26405
#
# Poissons Ratio (x) = 0.11466 0.09223
# Poissons Ratio (y) = 0.28293 0.08809
# Poissons Ratio (z) = 0.14219 0.05504
#
# Static dielectric constant tensor:
#      x y z
#    x 2.220900 -0.008090 0.182750 
#    y -0.008090 2.323460 -0.288120 
#    z 0.182750 -0.288120 2.426600 
# 
# From -- ./inp_files/64008.got.cif
#   From: 2010.05.17/outbox.cif.g08.bks.cpg/sg2_33_cif.got.tgz:64008.got - 2010.06.03 11:33:40.
