data_PCOD9052585
_publ_section_title
;
Structure prediction by ZEFSAII (Michael W. Deem and Ramdas Pophale) SiO2 
 PCOD9052585
Probable space group: P -1
;
_chemical_formula_sum "Si O2"
_cell_formula_units_Z 14
_cell_length_a 13.155973
_cell_length_b 7.798624
_cell_length_c 14.230010
_cell_angle_alpha 87.217925
_cell_angle_beta 29.089596
_cell_angle_gamma 70.120804
_cell_volume 560.204073
_symmetry_space_group_name_H-M "P -1"
_symmetry_group_IT_number 2
_symmetry_cell_setting 'triclinic'
loop_
_space_group_symop_operation_xyz
x,y,z
-x,-y,-z
loop_
_atom_site_type_symbol
_atom_site_label
_atom_site_fract_x
_atom_site_fract_y
_atom_site_fract_z
Si Si1 0.901956 0.273755 0.565433
Si Si2 0.112256 0.162236 0.199669
Si Si3 0.619870 0.607841 0.037496
Si Si4 0.826090 0.790594 0.368494
Si Si5 0.646814 0.762244 0.703669
Si Si6 0.123004 0.558511 0.790862
Si Si7 0.433052 0.284116 0.705791
O O1 0.646531 0.298400 0.805230
O O2 0.772943 0.524435 0.643852
O O3 0.997777 0.157874 0.390075
O O4 0.163284 0.177074 0.417056
O O5 0.900385 0.307582 0.284678
O O6 0.247429 0.281572 0.105731
O O7 0.352821 0.931706 0.972565
O O8 0.539093 0.663214 0.211441
O O9 0.867151 0.352456 0.842574
O O10 0.666453 0.763835 0.576509
O O11 0.832208 0.659303 0.278449
O O12 0.675786 0.046736 0.479370
O O13 0.333162 0.474093 0.706090
O O14 0.827780 0.706855 0.069593
#
# Coordination Sequence:
#
# PCOD9052585 Si02
#       7
#     2   2   2   2   2   2   2
#     4  11  24  39  56  84 116 150 188 235 274 335
#     4  10  20  41  58  83 114 147 189 234 273 337
#     4  10  22  37  58  84 116 146 190 232 276 330
#     4  10  17  35  57  84 116 144 187 229 275 339
#     4  11  21  39  59  81 116 151 187 229 287 327
#     4   9  17  30  59  85 110 146 185 228 280 329
#     4   9  17  33  56  87 110 146 187 228 277 335
#
# _framework density 24.99089
#
# number of rings (size 3 to 8) (size 9 to 14) (size 15 to 20)
#    0.000    2.286    5.714    0.857    0.000    2.286 
#    0.000    0.714    0.000    1.714    0.000    0.000 
#    0.000    0.000    0.000    0.000    0.000    0.000 
#
# Total GULP energy -78291.109115 kJ/mol
# GULP energy per Si atom -5592.222080 kJ/mol
# Density = 2.493401 g / cm^3
# Si number density = 24.990890 Si / 1000 Ang^3
#
#
#
# Elastic Constant Matrix: (Units=GPa)
#
#
# Indices 1 2 3 4 5 6 
#
# 1 48.8829 5.7271 44.0932 5.9700 -4.9468 -2.9612
# 2 5.7271 63.7834 25.0749 28.5497 -9.9199 -2.1430
# 3 44.0932 25.0749 150.5245 37.9831 -3.3400 7.4021
# 4 5.9700 28.5497 37.9831 44.8429 2.3028 -8.0058
# 5 -4.9468 -9.9199 -3.3400 2.3028 38.4477 -4.3048
# 6 -2.9612 -2.1430 7.4021 -8.0058 -4.3048 18.7524
#
#
#
# Elastic Compliance Matrix: (Units=1/GPa)
#
#
# Indices 1 2 3 4 5 6 
#
# 1 0.031484 -0.001070 -0.011913 0.008926 0.003799 0.014234
# 2 -0.001070 0.023851 0.000880 -0.016739 0.006715 -0.003396
# 3 -0.011913 0.000880 0.013896 -0.013026 -0.000774 -0.013005
# 4 0.008926 -0.016739 -0.013026 0.047281 -0.004469 0.023798
# 5 0.003799 0.006715 -0.000774 -0.004469 0.029154 0.006457
# 6 0.014234 -0.003396 -0.013005 0.023798 0.006457 0.071962
#
#
# Mechanical properties :
#
#
# Convention : Reuss Voigt Hill
#
# Bulk Modulus (GPa) = 22.20948 45.88680 34.04814
# Shear Modulus (GPa) = 19.46732 32.96164 26.21448
#
# Velocity S-wave (km/s) = 2.79404 3.63567 3.24228
# Velocity P-wave (km/s) = 4.39491 6.00212 5.26026
#
# Compressibility (1/GPa) = 0.04502582
#
# Stress axis : x y z
#
# Youngs Moduli (GPa) = 31.76192 41.92730 71.96451
#
# Poissons Ratio (x) = 0.04487 0.85728
# Poissons Ratio (y) = 0.03399 -0.06334
# Poissons Ratio (z) = 0.37836 -0.03690
#
# Static dielectric constant tensor:
#      x y z
#    x 2.024300 0.013890 -0.024420 
#    y 0.013890 2.035690 -0.006680 
#    z -0.024420 -0.006680 1.948940 
# 
# From -- ./inp_files/312972.got.cif
#   From: 2010.05.17/outbox.cif.g08.bks.cpg/sg2_157_cif.got.tgz:312972.got - 2010.06.03 11:33:40.
