data_PCOD9052545
_publ_section_title
;
Structure prediction by ZEFSAII (Michael W. Deem and Ramdas Pophale) SiO2 
 PCOD9052545
Probable space group: P -1
;
_chemical_formula_sum "Si O2"
_cell_formula_units_Z 16
_cell_length_a 17.344059
_cell_length_b 20.783201
_cell_length_c 10.565392
_cell_angle_alpha 27.236864
_cell_angle_beta 142.962686
_cell_angle_gamma 158.975176
_cell_volume 613.592443
_symmetry_space_group_name_H-M "P -1"
_symmetry_group_IT_number 2
_symmetry_cell_setting 'triclinic'
loop_
_space_group_symop_operation_xyz
x,y,z
-x,-y,-z
loop_
_atom_site_type_symbol
_atom_site_label
_atom_site_fract_x
_atom_site_fract_y
_atom_site_fract_z
Si Si1 0.538388 0.342408 0.790413
Si Si2 0.058778 0.249061 0.251778
Si Si3 0.806163 0.038693 0.793918
Si Si4 0.463274 0.142292 0.467719
Si Si5 0.150566 0.620605 0.610252
Si Si6 0.682089 0.718476 0.632785
Si Si7 0.282099 0.459857 0.689388
Si Si8 0.755296 0.319342 0.949985
O O1 0.768353 0.620103 0.638459
O O2 0.394117 0.280206 0.601001
O O3 0.615314 0.259327 0.987871
O O4 0.391176 0.207316 0.957974
O O5 0.169386 0.279813 0.216278
O O6 0.047650 0.404771 0.938039
O O7 0.833311 0.967430 0.465967
O O8 0.829588 0.217330 0.570450
O O9 0.042614 0.183122 0.877569
O O10 0.744250 0.985493 0.658712
O O11 0.616845 0.219471 0.420991
O O12 0.613101 0.378486 0.332134
O O13 0.372149 0.937806 0.796622
O O14 0.000000 0.500000 0.500000
O O15 0.456336 0.505127 0.784146
O O16 0.252358 0.563873 0.368750
O O17 0.000000 0.500000 0.000000
#
# Coordination Sequence:
#
# PCOD9052545 Si02
#       8
#     2   2   2   2   2   2   2   2
#     4  11  23  42  73  95 131 176 220 272 331 390
#     4  11  24  44  71  94 129 174 228 273 322 390
#     4  12  23  41  66 106 134 166 217 272 336 402
#     4  12  23  38  61  96 138 177 211 263 340 396
#     4  12  23  39  69 102 132 171 216 273 337 394
#     4  10  26  47  66  96 128 177 232 270 318 385
#     4  11  26  40  63  94 136 177 219 267 329 395
#     4  11  23  38  60  98 140 170 212 274 332 399
#
# _framework density 26.075939999999999
#
# number of rings (size 3 to 8) (size 9 to 14) (size 15 to 20)
#    0.000    0.750    5.000    2.625    3.500    0.000 
#    0.000    1.250    0.000    0.000    0.000    0.000 
#    0.000    0.000    0.000    0.000    0.000    0.000 
#
# Total GULP energy -89723.508978 kJ/mol
# GULP energy per Si atom -5607.719311 kJ/mol
# Density = 2.601659 g / cm^3
# Si number density = 26.075940 Si / 1000 Ang^3
#
#
#
# Elastic Constant Matrix: (Units=GPa)
#
#
# Indices 1 2 3 4 5 6 
#
# 1 64.0054 13.8619 -9.0585 5.9275 -3.6305 13.8945
# 2 13.8619 161.9855 36.7597 -10.9692 -3.2925 -13.4082
# 3 -9.0585 36.7597 72.1784 9.9495 -3.0909 -1.3485
# 4 5.9275 -10.9692 9.9495 24.4492 -2.0710 1.1648
# 5 -3.6305 -3.2925 -3.0909 -2.0710 34.3531 -1.4327
# 6 13.8945 -13.4082 -1.3485 1.1648 -1.4327 46.7324
#
#
#
# Elastic Compliance Matrix: (Units=1/GPa)
#
#
# Indices 1 2 3 4 5 6 
#
# 1 0.019572 -0.004030 0.005605 -0.008402 0.001406 -0.006561
# 2 -0.004030 0.008591 -0.005773 0.007060 0.000443 0.003334
# 3 0.005605 -0.005773 0.019081 -0.011516 0.000959 -0.002456
# 4 -0.008402 0.007060 -0.011516 0.050814 0.001940 0.002984
# 5 0.001406 0.000443 0.000959 0.001940 0.029529 0.000593
# 6 -0.006561 0.003334 -0.002456 0.002984 0.000593 0.024179
#
#
# Mechanical properties :
#
#
# Convention : Reuss Voigt Hill
#
# Bulk Modulus (GPa) = 25.74222 42.36617 34.05419
# Shear Modulus (GPa) = 28.88304 38.21402 33.54853
#
# Velocity S-wave (km/s) = 3.33175 3.83232 3.59077
# Velocity P-wave (km/s) = 4.96932 5.98872 5.50268
#
# Compressibility (1/GPa) = 0.03884669
#
# Stress axis : x y z
#
# Youngs Moduli (GPa) = 51.09346 116.39454 52.40877
#
# Poissons Ratio (x) = 0.46910 -0.29374
# Poissons Ratio (y) = 0.20592 0.30257
# Poissons Ratio (z) = -0.28637 0.67197
#
# Static dielectric constant tensor:
#      x y z
#    x 2.067780 0.037610 0.020550 
#    y 0.037610 2.012780 0.024940 
#    z 0.020550 0.024940 2.051390 
# 
# From -- ./inp_files/272476.got.cif
#   From: 2010.05.17/outbox.cif.g08.bks.cpg/sg2_137_cif.got.tgz:272476.got - 2010.06.03 11:33:40.
