data_PCOD9052296
_publ_section_title
;
Structure prediction by ZEFSAII (Michael W. Deem and Ramdas Pophale) SiO2 
 PCOD9052296
Probable space group: P -1
;
_chemical_formula_sum "Si O2"
_cell_formula_units_Z 15
_cell_length_a 20.399393
_cell_length_b 9.278275
_cell_length_c 9.352776
_cell_angle_alpha 31.655940
_cell_angle_beta 130.966690
_cell_angle_gamma 126.098000
_cell_volume 699.344660
_symmetry_space_group_name_H-M "P -1"
_symmetry_group_IT_number 2
_symmetry_cell_setting 'triclinic'
loop_
_space_group_symop_operation_xyz
x,y,z
-x,-y,-z
loop_
_atom_site_type_symbol
_atom_site_label
_atom_site_fract_x
_atom_site_fract_y
_atom_site_fract_z
Si Si1 0.500000 0.500000 0.500000
Si Si2 0.306063 0.613891 0.067538
Si Si3 0.445182 0.178738 0.381381
Si Si4 0.665887 0.366504 0.243417
Si Si5 0.940709 0.751526 0.690440
Si Si6 0.194893 0.072395 0.446654
Si Si7 0.905330 0.065797 0.863995
Si Si8 0.844946 0.618011 0.393750
O O1 0.407530 0.642280 0.230921
O O2 0.480948 0.323126 0.461049
O O3 0.263519 0.333862 0.308803
O O4 0.305182 0.598519 0.908535
O O5 0.241482 0.855016 0.795251
O O6 0.500000 0.000000 0.500000
O O7 0.368440 0.947684 0.512322
O O8 0.409991 0.426238 0.029975
O O9 0.747626 0.482049 0.354219
O O10 0.862234 0.697732 0.513178
O O11 0.895216 0.836466 0.697058
O O12 0.000000 0.000000 0.500000
O O13 0.000000 0.500000 0.000000
O O14 0.165273 0.963712 0.339807
O O15 0.908866 0.380872 0.651225
O O16 0.869776 0.866016 0.110135
O O17 0.000000 0.000000 0.000000
#
# Coordination Sequence:
#
# PCOD9052296 Si02
#       8
#     1   2   2   2   2   2   2   2
#     4  10  26  44  72 102 148 188 232 310 370 422
#     4  11  23  42  68 102 134 179 232 289 356 415
#     4  11  25  43  69 101 139 183 237 290 356 431
#     4  11  22  43  68  98 137 174 230 293 346 418
#     4  12  27  46  63  98 144 183 225 291 359 421
#     4  12  23  42  68  97 136 177 232 288 338 431
#     4  12  23  40  67  99 125 173 232 277 332 409
#     4  12  24  42  67  94 129 180 221 275 353 399
#
# _framework density 21.448651000000002
#
# number of rings (size 3 to 8) (size 9 to 14) (size 15 to 20)
#    0.000    0.533    2.667    6.400    0.000    6.933 
#    0.000    0.000    0.000    0.000    0.000    0.000 
#    0.000    0.000    0.000    0.000    0.000    0.000 
#
# Total GULP energy -83507.582359 kJ/mol
# GULP energy per Si atom -5567.172157 kJ/mol
# Density = 2.139983 g / cm^3
# Si number density = 21.448651 Si / 1000 Ang^3
#
#
#
# Elastic Constant Matrix: (Units=GPa)
#
#
# Indices 1 2 3 4 5 6 
#
# 1 64.5629 4.5686 -4.3867 3.9909 17.4186 -8.6191
# 2 4.5686 102.5411 29.7954 32.7393 -2.9265 6.5930
# 3 -4.3867 29.7954 58.1211 6.5262 20.8435 15.8162
# 4 3.9909 32.7393 6.5262 23.4802 5.9471 3.8834
# 5 17.4186 -2.9265 20.8435 5.9471 40.9769 0.2009
# 6 -8.6191 6.5930 15.8162 3.8834 0.2009 28.3208
#
#
#
# Elastic Compliance Matrix: (Units=1/GPa)
#
#
# Indices 1 2 3 4 5 6 
#
# 1 0.020111 -0.005291 0.007959 0.004826 -0.013687 0.002343
# 2 -0.005291 0.028636 -0.020128 -0.039946 0.020290 0.008298
# 3 0.007959 -0.020128 0.040918 0.025919 -0.029302 -0.019089
# 4 0.004826 -0.039946 0.025919 0.101425 -0.032723 -0.017382
# 5 -0.013687 0.020290 -0.029302 -0.032723 0.051269 0.011599
# 6 0.002343 0.008298 -0.019089 -0.017382 0.011599 0.047053
#
#
# Mechanical properties :
#
#
# Convention : Reuss Voigt Hill
#
# Bulk Modulus (GPa) = 18.26647 31.68662 24.97655
# Shear Modulus (GPa) = 14.59516 31.57211 23.08364
#
# Velocity S-wave (km/s) = 2.61141 3.84081 3.28415
# Velocity P-wave (km/s) = 4.19851 5.87149 5.10401
#
# Compressibility (1/GPa) = 0.05474510
#
# Stress axis : x y z
#
# Youngs Moduli (GPa) = 49.72371 34.92112 24.43934
#
# Poissons Ratio (x) = 0.18477 -0.19452
# Poissons Ratio (y) = 0.26309 0.49192
# Poissons Ratio (z) = -0.39578 0.70291
#
# Static dielectric constant tensor:
#      x y z
#    x 1.800910 -0.018420 0.030390 
#    y -0.018420 1.790080 0.000620 
#    z 0.030390 0.000620 1.788100 
# 
# From -- ./inp_files/223118.got.cif
#   From: 2010.05.17/outbox.cif.g08.bks.cpg/sg2_112_cif.got.tgz:223118.got - 2010.06.03 11:33:40.
