data_PCOD9052511
_publ_section_title
;
Structure prediction by ZEFSAII (Michael W. Deem and Ramdas Pophale) SiO2 
 PCOD9052511
Probable space group: P -1
;
_chemical_formula_sum "Si O2"
_cell_formula_units_Z 14
_cell_length_a 13.939040
_cell_length_b 25.604011
_cell_length_c 24.310415
_cell_angle_alpha 168.504042
_cell_angle_beta 158.604538
_cell_angle_gamma 21.204514
_cell_volume 606.744229
_symmetry_space_group_name_H-M "P -1"
_symmetry_group_IT_number 2
_symmetry_cell_setting 'triclinic'
loop_
_space_group_symop_operation_xyz
x,y,z
-x,-y,-z
loop_
_atom_site_type_symbol
_atom_site_label
_atom_site_fract_x
_atom_site_fract_y
_atom_site_fract_z
Si Si1 0.160260 0.722938 0.827655
Si Si2 0.664570 0.173715 0.854488
Si Si3 0.509131 0.377339 0.440577
Si Si4 0.714104 0.979960 0.225698
Si Si5 0.302665 0.456412 0.142032
Si Si6 0.893381 0.570467 0.313489
Si Si7 0.074210 0.504995 0.877116
O O1 0.463675 0.620908 0.859076
O O2 0.000000 0.500000 0.500000
O O3 0.169377 0.796415 0.972025
O O4 0.000000 0.000000 0.000000
O O5 0.348052 0.293740 0.824563
O O6 0.729036 0.875197 0.555340
O O7 0.750299 0.367506 0.056491
O O8 0.500000 0.500000 0.500000
O O9 0.802538 0.415128 0.652436
O O10 0.207372 0.530265 0.458711
O O11 0.546755 0.073454 0.174706
O O12 0.692913 0.256552 0.532474
O O13 0.631203 0.783617 0.024140
O O14 0.010167 0.798933 0.175355
O O15 0.000000 0.500000 0.000000
O O16 0.905010 0.495294 0.177892
#
# Coordination Sequence:
#
# PCOD9052511 Si02
#       7
#     2   2   2   2   2   2   2
#     4  12  29  49  73 105 146 193 252 307 364 435
#     4  12  28  48  74 105 150 196 240 304 377 430
#     4  10  26  46  74 110 151 193 247 298 366 444
#     4  12  26  44  81 108 151 190 249 304 379 428
#     4  12  28  50  76 111 144 195 255 315 370 438
#     4  11  28  44  77 108 151 191 240 295 374 450
#     4  11  26  48  76 112 149 187 247 297 373 452
#
# _framework density 23.073972000000001
#
# number of rings (size 3 to 8) (size 9 to 14) (size 15 to 20)
#    0.000    0.571    1.429    3.857   14.000    2.286 
#    0.000    0.000    0.000    0.000    0.000    0.000 
#    0.000    0.000    0.000    0.000    0.000    0.000 
#
# Total GULP energy -78178.503232 kJ/mol
# GULP energy per Si atom -5584.178802 kJ/mol
# Density = 2.302145 g / cm^3
# Si number density = 23.073972 Si / 1000 Ang^3
#
#
#
# Elastic Constant Matrix: (Units=GPa)
#
#
# Indices 1 2 3 4 5 6 
#
# 1 98.0587 -8.4545 45.0198 12.8016 -1.9586 -8.0251
# 2 -8.4545 98.1429 22.8299 7.5150 12.1748 -26.3140
# 3 45.0198 22.8299 167.0099 24.2689 8.4565 -11.7032
# 4 12.8016 7.5150 24.2689 43.5835 -7.1977 -2.8779
# 5 -1.9586 12.1748 8.4565 -7.1977 34.3951 11.9314
# 6 -8.0251 -26.3140 -11.7032 -2.8779 11.9314 41.7174
#
#
#
# Elastic Compliance Matrix: (Units=1/GPa)
#
#
# Indices 1 2 3 4 5 6 
#
# 1 0.012505 0.003197 -0.003103 -0.002493 -0.001500 0.003809
# 2 0.003197 0.015803 -0.000996 -0.003986 -0.010524 0.013039
# 3 -0.003103 -0.000996 0.007751 -0.003630 -0.003033 0.001566
# 4 -0.002493 -0.003986 -0.003630 0.027656 0.009635 -0.004860
# 5 -0.001500 -0.010524 -0.003033 0.009635 0.042122 -0.019160
# 6 0.003809 0.013039 0.001566 -0.004860 -0.019160 0.038512
#
#
# Mechanical properties :
#
#
# Convention : Reuss Voigt Hill
#
# Bulk Modulus (GPa) = 29.19246 53.55574 41.37410
# Shear Modulus (GPa) = 31.73160 44.19363 37.96262
#
# Velocity S-wave (km/s) = 3.71241 4.38116 4.06058
# Velocity P-wave (km/s) = 5.57271 6.98954 6.32095
#
# Compressibility (1/GPa) = 0.03425542
#
# Stress axis : x y z
#
# Youngs Moduli (GPa) = 79.96522 63.27902 129.01298
#
# Poissons Ratio (x) = -0.20232 0.40033
# Poissons Ratio (y) = -0.25566 0.12853
# Poissons Ratio (z) = 0.24813 0.06304
#
# Static dielectric constant tensor:
#      x y z
#    x 1.590950 -0.158100 -0.157730 
#    y -0.158100 1.718150 -0.144760 
#    z -0.157730 -0.144760 1.832510 
# 
# From -- ./inp_files/620009.got.cif
#   From: 2010.05.17/outbox.cif.g08.bks.cpg/sg2_311_cif.got.tgz:620009.got - 2010.06.03 11:33:40.
