data_PCOD9052510
_publ_section_title
;
Structure prediction by ZEFSAII (Michael W. Deem and Ramdas Pophale) SiO2 
 PCOD9052510
Probable space group: P -1
;
_chemical_formula_sum "Si O2"
_cell_formula_units_Z 16
_cell_length_a 14.682055
_cell_length_b 9.302637
_cell_length_c 15.218247
_cell_angle_alpha 59.694024
_cell_angle_beta 39.934413
_cell_angle_gamma 38.658814
_cell_volume 810.173973
_symmetry_space_group_name_H-M "P -1"
_symmetry_group_IT_number 2
_symmetry_cell_setting 'triclinic'
loop_
_space_group_symop_operation_xyz
x,y,z
-x,-y,-z
loop_
_atom_site_type_symbol
_atom_site_label
_atom_site_fract_x
_atom_site_fract_y
_atom_site_fract_z
Si Si1 0.731946 0.333610 0.906930
Si Si2 0.678772 0.199422 0.290566
Si Si3 0.957556 0.219300 0.139763
Si Si4 0.270872 0.493548 0.446794
Si Si5 0.048841 0.718186 0.079227
Si Si6 0.149623 0.454404 0.730097
Si Si7 0.598852 0.989342 0.553434
Si Si8 0.999179 0.299409 0.572433
O O1 0.768337 0.379000 0.963440
O O2 0.860683 0.345167 0.741005
O O3 0.500000 0.500000 0.000000
O O4 0.847641 0.060067 0.907285
O O5 0.763001 0.260468 0.279393
O O6 0.478279 0.423178 0.320338
O O7 0.627163 0.072126 0.418330
O O8 0.864260 0.997228 0.152983
O O9 0.954368 0.363490 0.169771
O O10 0.931765 0.302987 0.033227
O O11 0.190549 0.539287 0.590730
O O12 0.100861 0.691791 0.443714
O O13 0.342348 0.250798 0.433822
O O14 0.978543 0.592687 0.196134
O O15 0.364920 0.204862 0.682775
O O16 0.764962 0.930224 0.513558
O O17 0.000000 0.500000 0.500000
#
# Coordination Sequence:
#
# PCOD9052510 Si02
#       8
#     2   2   2   2   2   2   2   2
#     4  11  24  42  63  89 125 157 200 255 301 356
#     4  10  17  35  57  83 111 146 202 246 286 339
#     4  11  25  36  58  90 121 155 200 244 305 351
#     4  10  19  32  62  85 115 155 196 242 296 349
#     4  11  20  40  62  83 118 158 205 241 289 369
#     4  11  21  39  60  88 122 154 197 252 297 354
#     4  10  17  35  61  87 114 152 194 252 293 347
#     4  10  20  35  59  94 116 150 208 246 292 357
#
# _framework density 19.748844999999999
#
# number of rings (size 3 to 8) (size 9 to 14) (size 15 to 20)
#    0.000    1.500    5.000    3.375    3.500    2.000 
#    0.000    2.500    0.000    0.000    0.000    0.000 
#    0.000    0.000    0.000    0.000    0.000    0.000 
#
# Total GULP energy -89217.656587 kJ/mol
# GULP energy per Si atom -5576.103537 kJ/mol
# Density = 1.970390 g / cm^3
# Si number density = 19.748845 Si / 1000 Ang^3
#
#
#
# Elastic Constant Matrix: (Units=GPa)
#
#
# Indices 1 2 3 4 5 6 
#
# 1 144.5836 40.5765 22.2838 24.2297 -12.9728 -34.1572
# 2 40.5765 33.4668 18.7058 9.2581 -1.7510 -12.1982
# 3 22.2838 18.7058 54.3667 -2.0286 -0.8265 -5.5617
# 4 24.2297 9.2581 -2.0286 19.9425 -4.9974 -3.0808
# 5 -12.9728 -1.7510 -0.8265 -4.9974 39.2828 4.1207
# 6 -34.1572 -12.1982 -5.5617 -3.0808 4.1207 37.8131
#
#
#
# Elastic Compliance Matrix: (Units=1/GPa)
#
#
# Indices 1 2 3 4 5 6 
#
# 1 0.013767 -0.009682 -0.001869 -0.010723 0.001877 0.007960
# 2 -0.009682 0.057003 -0.015650 -0.016233 -0.003725 0.006425
# 3 -0.001869 -0.015650 0.024777 0.011954 0.000960 -0.002223
# 4 -0.010723 -0.016233 0.011954 0.072202 0.006005 -0.007936
# 5 0.001877 -0.003725 0.000960 0.006005 0.026884 -0.001806
# 6 0.007960 0.006425 -0.002223 -0.007936 -0.001806 0.034932
#
#
# Mechanical properties :
#
#
# Convention : Reuss Voigt Hill
#
# Bulk Modulus (GPa) = 24.30293 43.94993 34.12643
# Shear Modulus (GPa) = 16.79638 29.46442 23.13040
#
# Velocity S-wave (km/s) = 2.91950 3.86678 3.42603
# Velocity P-wave (km/s) = 4.86799 6.49913 5.74178
#
# Compressibility (1/GPa) = 0.04114730
#
# Stress axis : x y z
#
# Youngs Moduli (GPa) = 72.63520 17.54279 40.35926
#
# Poissons Ratio (x) = 0.16984 0.07544
# Poissons Ratio (y) = 0.70323 0.63161
# Poissons Ratio (z) = 0.13576 0.27454
#
# Static dielectric constant tensor:
#      x y z
#    x 1.738450 -0.024220 -0.032200 
#    y -0.024220 1.702430 -0.034730 
#    z -0.032200 -0.034730 1.760960 
# 
# From -- ./inp_files/263177.got.cif
#   From: 2010.05.17/outbox.cif.g08.bks.cpg/sg2_132_cif.got.tgz:263177.got - 2010.06.03 11:33:40.
