data_PCOD9052564
_publ_section_title
;
Structure prediction by ZEFSAII (Michael W. Deem and Ramdas Pophale) SiO2 
 PCOD9052564
Probable space group: P -1
;
_chemical_formula_sum "Si O2"
_cell_formula_units_Z 16
_cell_length_a 20.507605
_cell_length_b 5.102227
_cell_length_c 9.701119
_cell_angle_alpha 113.167820
_cell_angle_beta 61.228195
_cell_angle_gamma 129.592480
_cell_volume 679.974549
_symmetry_space_group_name_H-M "P -1"
_symmetry_group_IT_number 2
_symmetry_cell_setting 'triclinic'
loop_
_space_group_symop_operation_xyz
x,y,z
-x,-y,-z
loop_
_atom_site_type_symbol
_atom_site_label
_atom_site_fract_x
_atom_site_fract_y
_atom_site_fract_z
Si Si1 0.563872 0.373395 0.087225
Si Si2 0.059077 0.408131 0.010542
Si Si3 0.238300 0.654895 0.717148
Si Si4 0.016740 0.640177 0.359217
Si Si5 0.635274 0.554408 0.348791
Si Si6 0.148485 0.381855 0.485587
Si Si7 0.668667 0.267211 0.768519
Si Si8 0.429866 0.528576 0.293972
O O1 0.573630 0.372675 0.241080
O O2 0.525677 0.613745 0.159496
O O3 0.656888 0.481371 0.943402
O O4 0.500000 0.000000 0.000000
O O5 0.156015 0.582068 0.879224
O O6 0.065239 0.533029 0.185503
O O7 0.000000 0.500000 0.000000
O O8 0.000000 0.000000 0.000000
O O9 0.302386 0.585209 0.721526
O O10 0.192734 0.374924 0.581687
O O11 0.299302 0.036221 0.666176
O O12 0.000000 0.500000 0.500000
O O13 0.917566 0.505146 0.378127
O O14 0.082430 0.043422 0.397098
O O15 0.578940 0.462192 0.529465
O O16 0.232040 0.601376 0.348252
O O17 0.614283 0.297448 0.702028
O O18 0.627831 0.875226 0.766403
#
# Coordination Sequence:
#
# PCOD9052564 Si02
#       8
#     2   2   2   2   2   2   2   2
#     4  10  26  47  70 104 146 178 231 291 357 424
#     4  12  26  47  72  99 146 192 233 294 359 412
#     4  12  26  45  72 105 140 184 241 296 341 425
#     4  11  27  43  73 105 138 194 235 291 355 422
#     4  12  25  45  72 104 134 188 237 284 355 419
#     4  11  24  45  68 101 146 178 243 285 356 407
#     4  11  24  42  72  99 138 184 224 287 352 402
#     4  11  22  45  70 101 132 186 227 283 344 420
#
# _framework density 23.530289
#
# number of rings (size 3 to 8) (size 9 to 14) (size 15 to 20)
#    0.000    0.750    3.750    2.250    7.000    5.000 
#    0.000    4.375    0.000    0.000    0.000    0.000 
#    0.000    0.000    0.000    0.000    0.000    0.000 
#
# Total GULP energy -89404.590291 kJ/mol
# GULP energy per Si atom -5587.786893 kJ/mol
# Density = 2.347673 g / cm^3
# Si number density = 23.530289 Si / 1000 Ang^3
#
#
#
# Elastic Constant Matrix: (Units=GPa)
#
#
# Indices 1 2 3 4 5 6 
#
# 1 82.4095 29.0748 -1.0056 4.2693 0.3498 -3.5934
# 2 29.0748 82.8511 15.7721 -0.2407 -9.8415 -6.0723
# 3 -1.0056 15.7721 153.5257 -6.4579 -8.7968 16.1299
# 4 4.2693 -0.2407 -6.4579 22.3627 1.6081 1.9456
# 5 0.3498 -9.8415 -8.7968 1.6081 43.9288 -5.9245
# 6 -3.5934 -6.0723 16.1299 1.9456 -5.9245 33.2836
#
#
#
# Elastic Compliance Matrix: (Units=1/GPa)
#
#
# Indices 1 2 3 4 5 6 
#
# 1 0.014104 -0.005133 0.000415 -0.002584 -0.001037 0.000352
# 2 -0.005133 0.014886 -0.001740 0.000070 0.003514 0.003626
# 3 0.000415 -0.001740 0.007219 0.002287 0.000453 -0.003824
# 4 -0.002584 0.000070 0.002287 0.046384 -0.001798 -0.004406
# 5 -0.001037 0.003514 0.000453 -0.001798 0.024357 0.004750
# 6 0.000352 0.003626 -0.003824 -0.004406 0.004750 0.033701
#
#
# Mechanical properties :
#
#
# Convention : Reuss Voigt Hill
#
# Bulk Modulus (GPa) = 42.93261 45.16323 44.04792
# Shear Modulus (GPa) = 30.99202 38.24469 34.61835
#
# Velocity S-wave (km/s) = 3.63314 4.03592 3.83982
# Velocity P-wave (km/s) = 5.99040 6.39950 6.19832
#
# Compressibility (1/GPa) = 0.02329232
#
# Stress axis : x y z
#
# Youngs Moduli (GPa) = 70.90021 67.17791 138.52486
#
# Poissons Ratio (x) = 0.34486 -0.05744
# Poissons Ratio (y) = 0.36397 0.24097
# Poissons Ratio (z) = -0.02940 0.11686
#
# Static dielectric constant tensor:
#      x y z
#    x 1.954150 0.028830 -0.018410 
#    y 0.028830 1.868810 -0.012590 
#    z -0.018410 -0.012590 1.956940 
# 
# From -- ./inp_files/135684.got.cif
#   From: 2010.05.17/outbox.cif.g08.bks.cpg/sg2_68_cif.got.tgz:135684.got - 2010.06.03 11:33:40.
