data_PCOD9052828
_publ_section_title
;
Structure prediction by ZEFSAII (Michael W. Deem and Ramdas Pophale) SiO2 
 PCOD9052828
Probable space group: P -1
;
_chemical_formula_sum "Si O2"
_cell_formula_units_Z 14
_cell_length_a 9.289690
_cell_length_b 14.809596
_cell_length_c 16.258179
_cell_angle_alpha 41.674981
_cell_angle_beta 25.147110
_cell_angle_gamma 57.536593
_cell_volume 549.746919
_symmetry_space_group_name_H-M "P -1"
_symmetry_group_IT_number 2
_symmetry_cell_setting 'triclinic'
loop_
_space_group_symop_operation_xyz
x,y,z
-x,-y,-z
loop_
_atom_site_type_symbol
_atom_site_label
_atom_site_fract_x
_atom_site_fract_y
_atom_site_fract_z
Si Si1 0.452607 0.526618 0.241629
Si Si2 0.446326 0.203272 0.445846
Si Si3 0.517536 0.757522 0.933424
Si Si4 0.548434 0.025955 0.053384
Si Si5 0.494386 0.075385 0.333652
Si Si6 0.720603 0.848934 0.193126
Si Si7 0.400637 0.447829 0.492966
O O1 0.527117 0.380426 0.287885
O O2 0.640388 0.638749 0.989888
O O3 0.590037 0.569225 0.237254
O O4 0.000000 0.500000 0.500000
O O5 0.413856 0.149820 0.403981
O O6 0.009457 0.115866 0.765257
O O7 0.637243 0.107057 0.456601
O O8 0.571150 0.862063 0.915403
O O9 0.065016 0.640687 0.221495
O O10 0.651050 0.876166 0.706248
O O11 0.500000 0.000000 0.000000
O O12 0.416867 0.871527 0.280256
O O13 0.963496 0.159604 0.023719
O O14 0.514151 0.696031 0.459066
O O15 0.000000 0.000000 0.000000
O O16 0.500000 0.500000 0.500000
#
# Coordination Sequence:
#
# PCOD9052828 Si02
#       7
#     2   2   2   2   2   2   2
#     4  10  19  33  54  79 116 140 180 227 285 328
#     4  10  19  36  57  85 110 145 190 233 277 341
#     4  10  20  37  52  81 115 144 185 229 287 336
#     4  11  21  32  57  86 111 144 187 236 283 327
#     4   9  19  34  60  82 105 154 188 228 282 330
#     4  10  17  35  58  80 109 148 193 234 273 331
#     4  10  19  30  54  83 108 142 188 233 274 328
#
# _framework density 25.466263999999999
#
# number of rings (size 3 to 8) (size 9 to 14) (size 15 to 20)
#    0.000    2.000    5.714    0.857    2.000    0.571 
#    0.000    0.714    0.000    3.429    0.000    0.000 
#    0.000    0.000    0.000    0.000    0.000    0.000 
#
# Total GULP energy -77977.063609 kJ/mol
# GULP energy per Si atom -5569.790258 kJ/mol
# Density = 2.540830 g / cm^3
# Si number density = 25.466264 Si / 1000 Ang^3
#
#
#
# Elastic Constant Matrix: (Units=GPa)
#
#
# Indices 1 2 3 4 5 6 
#
# 1 225.4746 75.9483 65.5467 -37.3944 64.1118 5.8002
# 2 75.9483 135.1506 40.8125 -12.6676 20.2325 0.7333
# 3 65.5467 40.8125 59.2589 -12.5271 24.0280 -14.9418
# 4 -37.3944 -12.6676 -12.5271 34.4139 -18.2756 0.0747
# 5 64.1118 20.2325 24.0280 -18.2756 63.2172 -5.8574
# 6 5.8002 0.7333 -14.9418 0.0747 -5.8574 44.8375
#
#
#
# Elastic Compliance Matrix: (Units=1/GPa)
#
#
# Indices 1 2 3 4 5 6 
#
# 1 0.009556 -0.001958 -0.007198 0.004109 -0.005542 -0.004334
# 2 -0.001958 0.010049 -0.005454 -0.000051 0.000675 -0.001640
# 3 -0.007198 -0.005454 0.032513 0.000936 -0.001967 0.011597
# 4 0.004109 -0.000051 0.000936 0.037186 0.006294 0.000542
# 5 -0.005542 0.000675 -0.001967 0.006294 0.024085 0.003186
# 6 -0.004334 -0.001640 0.011597 0.000542 0.003186 0.027170
#
#
# Mechanical properties :
#
#
# Convention : Reuss Voigt Hill
#
# Bulk Modulus (GPa) = 43.67201 87.16655 65.41928
# Shear Modulus (GPa) = 28.18298 44.33218 36.25758
#
# Velocity S-wave (km/s) = 3.33029 4.17684 3.77735
# Velocity P-wave (km/s) = 5.65455 7.58709 6.69096
#
# Compressibility (1/GPa) = 0.02289796
#
# Stress axis : x y z
#
# Youngs Moduli (GPa) = 104.64569 99.50956 30.75717
#
# Poissons Ratio (x) = 0.19483 0.22140
# Poissons Ratio (y) = 0.20489 0.16774
# Poissons Ratio (z) = 0.75328 0.54269
#
# Static dielectric constant tensor:
#      x y z
#    x 2.217730 0.086490 0.094650 
#    y 0.086490 2.315440 -0.029530 
#    z 0.094650 -0.029530 2.173710 
# 
# From -- ./inp_files/499974.got.cif
#   From: 2010.05.17/outbox.cif.g08.bks.cpg/sg2_250_cif.got.tgz:499974.got - 2010.06.03 11:33:40.
