data_PCOD9052213
_publ_section_title
;
Structure prediction by ZEFSAII (Michael W. Deem and Ramdas Pophale) SiO2 
 PCOD9052213
Probable space group: P -1
;
_chemical_formula_sum "Si O2"
_cell_formula_units_Z 16
_cell_length_a 23.652882
_cell_length_b 8.369729
_cell_length_c 15.033191
_cell_angle_alpha 146.667158
_cell_angle_beta 150.260252
_cell_angle_gamma 52.628088
_cell_volume 730.631253
_symmetry_space_group_name_H-M "P -1"
_symmetry_group_IT_number 2
_symmetry_cell_setting 'triclinic'
loop_
_space_group_symop_operation_xyz
x,y,z
-x,-y,-z
loop_
_atom_site_type_symbol
_atom_site_label
_atom_site_fract_x
_atom_site_fract_y
_atom_site_fract_z
Si Si1 0.470265 0.675904 0.623028
Si Si2 0.970460 0.764256 0.181425
Si Si3 0.645955 0.325939 0.272563
Si Si4 0.736457 0.224057 0.542896
Si Si5 0.897665 0.314275 0.350377
Si Si6 0.233880 0.322490 0.729897
Si Si7 0.499419 0.655848 0.322517
Si Si8 0.068808 0.382820 0.271612
O O1 0.500000 0.500000 0.500000
O O2 0.341645 0.714961 0.456689
O O3 0.446017 0.426303 0.553388
O O4 0.570701 0.023748 0.962429
O O5 0.002129 0.552324 0.197638
O O6 0.103945 0.051144 0.466772
O O7 0.892408 0.965820 0.196896
O O8 0.876925 0.513765 0.865250
O O9 0.666363 0.208271 0.345184
O O10 0.572415 0.552214 0.295954
O O11 0.787260 0.507957 0.512673
O O12 0.740206 0.885148 0.407409
O O13 0.777761 0.363481 0.174771
O O14 0.935589 0.502200 0.581302
O O15 0.000000 0.500000 0.500000
O O16 0.350207 0.427885 0.003990
O O17 0.500000 0.000000 0.500000
O O18 0.000000 0.000000 0.000000
#
# Coordination Sequence:
#
# PCOD9052213 Si02
#       8
#     2   2   2   2   2   2   2   2
#     4  11  24  46  71 102 138 184 238 287 349 420
#     4  11  24  42  73 104 137 184 232 290 353 414
#     4  11  24  46  73 100 140 186 233 289 350 418
#     4  11  21  42  74  99 137 184 234 281 358 419
#     4  10  26  43  67  99 143 183 233 285 347 420
#     4  11  21  44  71 101 138 184 234 279 350 419
#     4  11  24  45  71 101 139 186 235 289 350 417
#     4  12  26  45  70 103 143 180 235 291 354 414
#
# _framework density 21.898875
#
# number of rings (size 3 to 8) (size 9 to 14) (size 15 to 20)
#    0.000    1.000    3.750    2.250    8.750    1.000 
#    9.000    1.250    0.000    0.000    0.000    0.000 
#    0.000    0.000    0.000    0.000    0.000    0.000 
#
# Total GULP energy -89229.669915 kJ/mol
# GULP energy per Si atom -5576.854370 kJ/mol
# Density = 2.184903 g / cm^3
# Si number density = 21.898875 Si / 1000 Ang^3
#
#
#
# Elastic Constant Matrix: (Units=GPa)
#
#
# Indices 1 2 3 4 5 6 
#
# 1 109.5738 41.7883 35.5677 12.5547 -17.7727 -26.4281
# 2 41.7883 144.1418 21.4071 23.3814 3.3366 -26.6446
# 3 35.5677 21.4071 97.4859 16.7356 5.1395 -15.9573
# 4 12.5547 23.3814 16.7356 40.3950 -3.8850 -8.4992
# 5 -17.7727 3.3366 5.1395 -3.8850 30.8236 0.9155
# 6 -26.4281 -26.6446 -15.9573 -8.4992 0.9155 34.7844
#
#
#
# Elastic Compliance Matrix: (Units=1/GPa)
#
#
# Indices 1 2 3 4 5 6 
#
# 1 0.014659 -0.002704 -0.004285 0.001191 0.009398 0.007145
# 2 -0.002704 0.009180 0.000556 -0.004112 -0.003292 0.004314
# 3 -0.004285 0.000556 0.013114 -0.004467 -0.005347 0.002236
# 4 0.001191 -0.004112 -0.004467 0.029744 0.005542 0.002828
# 5 0.009398 -0.003292 -0.005347 0.005542 0.039734 0.002474
# 6 0.007145 0.004314 0.002236 0.002828 0.002474 0.039133
#
#
# Mechanical properties :
#
#
# Convention : Reuss Voigt Hill
#
# Bulk Modulus (GPa) = 41.51441 60.96975 51.24208
# Shear Modulus (GPa) = 30.03756 38.02983 34.03370
#
# Velocity S-wave (km/s) = 3.70760 4.17179 3.94652
# Velocity P-wave (km/s) = 6.10957 7.14892 6.64958
#
# Compressibility (1/GPa) = 0.02408802
#
# Stress axis : x y z
#
# Youngs Moduli (GPa) = 68.21611 108.93750 76.25495
#
# Poissons Ratio (x) = 0.29452 0.32677
# Poissons Ratio (y) = 0.18443 -0.04243
# Poissons Ratio (z) = 0.29232 -0.06061
#
# Static dielectric constant tensor:
#      x y z
#    x 1.847040 -0.056310 -0.017570 
#    y -0.056310 1.830850 0.082030 
#    z -0.017570 0.082030 1.581800 
# 
# From -- ./inp_files/542697.got.cif
#   From: 2010.05.17/outbox.cif.g08.bks.cpg/sg2_272_cif.got.tgz:542697.got - 2010.06.03 11:33:40.
