data_PCOD9052366
_publ_section_title
;
Structure prediction by ZEFSAII (Michael W. Deem and Ramdas Pophale) SiO2 
 PCOD9052366
Probable space group: P -1
;
_chemical_formula_sum "Si O2"
_cell_formula_units_Z 16
_cell_length_a 18.668207
_cell_length_b 9.009678
_cell_length_c 9.779752
_cell_angle_alpha 83.581073
_cell_angle_beta 60.949284
_cell_angle_gamma 135.309461
_cell_volume 676.456618
_symmetry_space_group_name_H-M "P -1"
_symmetry_group_IT_number 2
_symmetry_cell_setting 'triclinic'
loop_
_space_group_symop_operation_xyz
x,y,z
-x,-y,-z
loop_
_atom_site_type_symbol
_atom_site_label
_atom_site_fract_x
_atom_site_fract_y
_atom_site_fract_z
Si Si1 0.396794 0.301344 0.934083
Si Si2 0.706610 0.842264 0.376684
Si Si3 0.525518 0.276715 0.004036
Si Si4 0.454797 0.684775 0.542310
Si Si5 0.589047 0.151523 0.188918
Si Si6 0.882030 0.764469 0.501806
Si Si7 0.957824 0.263832 0.590998
Si Si8 0.997350 0.762078 0.751404
O O1 0.551852 0.549369 0.657229
O O2 0.438435 0.518763 0.958275
O O3 0.391588 0.134835 0.037925
O O4 0.193967 0.996744 0.129901
O O5 0.634671 0.881534 0.377990
O O6 0.688219 0.673557 0.307955
O O7 0.891742 0.147159 0.247251
O O8 0.514226 0.114581 0.128503
O O9 0.691389 0.508440 0.736041
O O10 0.417180 0.729819 0.701365
O O11 0.477941 0.834316 0.378801
O O12 0.789883 0.420401 0.963626
O O13 0.895080 0.608383 0.500616
O O14 0.959750 0.993517 0.289271
O O15 0.000000 0.000000 0.500000
O O16 0.918375 0.146355 0.483316
O O17 0.000000 0.500000 0.500000
#
# Coordination Sequence:
#
# PCOD9052366 Si02
#       8
#     2   2   2   2   2   2   2   2
#     4  11  20  34  64  95 123 160 196 251 307 383
#     4  11  23  43  64  89 120 167 214 246 301 370
#     4  11  18  35  66  91 119 158 200 245 318 370
#     4  10  26  43  61  86 123 168 213 257 296 354
#     4  11  22  42  65  88 123 161 204 264 308 348
#     4  10  17  35  56  90 118 156 192 236 312 376
#     4  11  23  36  55  99 134 156 192 247 325 372
#     4  11  21  39  68  87 120 164 204 253 304 373
#
# _framework density 23.652661999999999
#
# number of rings (size 3 to 8) (size 9 to 14) (size 15 to 20)
#    0.000    1.250    7.500    0.750    1.750    1.000 
#    2.250    1.250    0.000    0.000    0.000    0.000 
#    0.000    0.000    0.000    0.000    0.000    0.000 
#
# Total GULP energy -89236.635132 kJ/mol
# GULP energy per Si atom -5577.289696 kJ/mol
# Density = 2.359883 g / cm^3
# Si number density = 23.652662 Si / 1000 Ang^3
#
#
#
# Elastic Constant Matrix: (Units=GPa)
#
#
# Indices 1 2 3 4 5 6 
#
# 1 142.2322 20.1018 10.6502 1.2143 -10.5235 -12.9309
# 2 20.1018 59.6057 18.1504 9.3348 -9.0790 -11.8737
# 3 10.6502 18.1504 60.8538 3.2251 -6.1720 -1.5261
# 4 1.2143 9.3348 3.2251 10.6922 -5.7033 -6.1716
# 5 -10.5235 -9.0790 -6.1720 -5.7033 35.9602 -4.5474
# 6 -12.9309 -11.8737 -1.5261 -6.1716 -4.5474 29.1777
#
#
#
# Elastic Compliance Matrix: (Units=1/GPa)
#
#
# Indices 1 2 3 4 5 6 
#
# 1 0.007924 -0.001961 -0.000656 0.005079 0.003052 0.004229
# 2 -0.001961 0.022694 -0.005292 -0.013122 0.002895 0.005765
# 3 -0.000656 -0.005292 0.018269 -0.001017 0.001256 -0.001508
# 4 0.005079 -0.013122 -0.001017 0.133377 0.022771 0.028618
# 5 0.003052 0.002895 0.001256 0.022771 0.034885 0.012850
# 6 0.004229 0.005765 -0.001508 0.028618 0.012850 0.046470
#
#
# Mechanical properties :
#
#
# Convention : Reuss Voigt Hill
#
# Bulk Modulus (GPa) = 30.23806 40.05514 35.14660
# Shear Modulus (GPa) = 17.21410 29.41863 23.31636
#
# Velocity S-wave (km/s) = 2.70068 3.53055 3.14312
# Velocity P-wave (km/s) = 4.74730 5.79579 5.29755
#
# Compressibility (1/GPa) = 0.03307090
#
# Stress axis : x y z
#
# Youngs Moduli (GPa) = 126.20080 44.06437 54.73641
#
# Poissons Ratio (x) = 0.08640 0.03588
# Poissons Ratio (y) = 0.24744 0.28966
# Poissons Ratio (z) = 0.08273 0.23319
#
# Static dielectric constant tensor:
#      x y z
#    x 1.960260 0.031380 0.037560 
#    y 0.031380 1.862690 -0.033920 
#    z 0.037560 -0.033920 1.835310 
# 
# From -- ./inp_files/223259.got.cif
#   From: 2010.05.17/outbox.cif.g08.bks.cpg/sg2_112_cif.got.tgz:223259.got - 2010.06.03 11:33:40.
