data_PCOD9052845
_publ_section_title
;
Structure prediction by ZEFSAII (Michael W. Deem and Ramdas Pophale) SiO2 
 PCOD9052845
Probable space group: P -1
;
_chemical_formula_sum "Si O2"
_cell_formula_units_Z 12
_cell_length_a 7.371911
_cell_length_b 17.656405
_cell_length_c 14.221211
_cell_angle_alpha 23.403819
_cell_angle_beta 139.950275
_cell_angle_gamma 129.183709
_cell_volume 454.641131
_symmetry_space_group_name_H-M "P -1"
_symmetry_group_IT_number 2
_symmetry_cell_setting 'triclinic'
loop_
_space_group_symop_operation_xyz
x,y,z
-x,-y,-z
loop_
_atom_site_type_symbol
_atom_site_label
_atom_site_fract_x
_atom_site_fract_y
_atom_site_fract_z
Si Si1 0.902572 0.335948 0.588082
Si Si2 0.889775 0.877228 0.910575
Si Si3 0.205636 0.173731 0.702678
Si Si4 0.921451 0.380711 0.901484
Si Si5 0.699730 0.655300 0.735462
Si Si6 0.329231 0.923554 0.754457
O O1 0.587642 0.409711 0.329378
O O2 0.000000 0.500000 0.500000
O O3 0.916855 0.175143 0.858331
O O4 0.127412 0.236974 0.708059
O O5 0.568029 0.884250 0.811518
O O6 0.998355 0.712052 0.063407
O O7 0.943582 0.084271 0.663535
O O8 0.360446 0.125766 0.583619
O O9 0.500000 0.000000 0.000000
O O10 0.689353 0.270676 0.975504
O O11 0.219643 0.327470 0.142633
O O12 0.792997 0.616772 0.580880
O O13 0.000000 0.500000 0.000000
O O14 0.000000 0.000000 0.500000
#
# Coordination Sequence:
#
# PCOD9052845 Si02
#       6
#     2   2   2   2   2   2
#     4  12  28  55  83 126 178 229 284 365 441 513
#     4  12  28  52  90 119 177 226 295 355 444 516
#     4  12  30  52  86 129 175 226 297 360 436 523
#     4  11  29  55  87 126 170 228 295 356 435 523
#     4  11  28  51  88 125 173 228 288 359 439 520
#     4  10  26  53  82 123 175 221 283 357 443 509
#
# _framework density 26.394445999999999
#
# number of rings (size 3 to 8) (size 9 to 14) (size 15 to 20)
#    0.000    0.667    3.333    0.500   11.667    4.000 
#    3.000    0.000    0.000    0.000    0.000    0.000 
#    0.000    0.000    0.000    0.000    0.000    0.000 
#
# Total GULP energy -67245.660996 kJ/mol
# GULP energy per Si atom -5603.805083 kJ/mol
# Density = 2.633437 g / cm^3
# Si number density = 26.394446 Si / 1000 Ang^3
#
#
#
# Elastic Constant Matrix: (Units=GPa)
#
#
# Indices 1 2 3 4 5 6 
#
# 1 174.7106 75.1169 90.4853 -26.4052 22.4700 14.8649
# 2 75.1169 184.2396 88.7552 -18.3333 12.6937 14.3861
# 3 90.4853 88.7552 163.2853 -26.5451 12.8019 13.9208
# 4 -26.4052 -18.3333 -26.5451 73.4238 12.6510 -4.4334
# 5 22.4700 12.6937 12.8019 12.6510 54.9745 -3.4251
# 6 14.8649 14.3861 13.9208 -4.4334 -3.4251 54.3345
#
#
#
# Elastic Compliance Matrix: (Units=1/GPa)
#
#
# Indices 1 2 3 4 5 6 
#
# 1 0.008971 -0.001463 -0.003501 0.002050 -0.003060 -0.001196
# 2 -0.001463 0.007705 -0.003219 0.000278 -0.000547 -0.000827
# 3 -0.003501 -0.003219 0.010199 0.001691 -0.000634 -0.000705
# 4 0.002050 0.000278 0.001691 0.015887 -0.004957 -0.000084
# 5 -0.003060 -0.000547 -0.000634 -0.004957 0.020984 0.002063
# 6 -0.001196 -0.000827 -0.000705 -0.000084 0.002063 0.019254
#
#
# Mechanical properties :
#
#
# Convention : Reuss Voigt Hill
#
# Bulk Modulus (GPa) = 95.15415 114.55003 104.85209
# Shear Modulus (GPa) = 48.60597 54.40511 51.50554
#
# Velocity S-wave (km/s) = 4.29595 4.54501 4.42223
# Velocity P-wave (km/s) = 7.79333 8.42830 8.11703
#
# Compressibility (1/GPa) = 0.01050926
#
# Stress axis : x y z
#
# Youngs Moduli (GPa) = 111.46865 129.79196 98.05258
#
# Poissons Ratio (x) = 0.18986 0.34329
# Poissons Ratio (y) = 0.16306 0.31560
# Poissons Ratio (z) = 0.39026 0.41775
#
# Static dielectric constant tensor:
#      x y z
#    x 2.172220 0.012140 -0.111850 
#    y 0.012140 2.084070 -0.010620 
#    z -0.111850 -0.010620 2.154100 
# 
# From -- ./inp_files/75201.got.cif
#   From: 2010.05.17/outbox.cif.g08.bks.cpg/sg2_38_cif.got.tgz:75201.got - 2010.06.03 11:33:40.
