data_PCOD9052624
_publ_section_title
;
Structure prediction by ZEFSAII (Michael W. Deem and Ramdas Pophale) SiO2 
 PCOD9052624
Probable space group: P -1
;
_chemical_formula_sum "Si O2"
_cell_formula_units_Z 16
_cell_length_a 10.808545
_cell_length_b 8.644623
_cell_length_c 16.471885
_cell_angle_alpha 129.077313
_cell_angle_beta 45.307810
_cell_angle_gamma 96.265542
_cell_volume 675.902152
_symmetry_space_group_name_H-M "P -1"
_symmetry_group_IT_number 2
_symmetry_cell_setting 'triclinic'
loop_
_space_group_symop_operation_xyz
x,y,z
-x,-y,-z
loop_
_atom_site_type_symbol
_atom_site_label
_atom_site_fract_x
_atom_site_fract_y
_atom_site_fract_z
Si Si1 0.941637 0.552859 0.949266
Si Si2 0.942699 0.089384 0.759292
Si Si3 0.524665 0.866737 0.143238
Si Si4 0.332606 0.331686 0.579235
Si Si5 0.290700 0.914596 0.408500
Si Si6 0.262796 0.353517 0.323250
Si Si7 0.275609 0.643934 0.553949
Si Si8 0.451262 0.390541 0.094972
O O1 0.931106 0.329812 0.858313
O O2 0.142134 0.504406 0.789511
O O3 0.712238 0.798671 0.099768
O O4 0.000000 0.500000 0.000000
O O5 0.704336 0.165235 0.894018
O O6 0.082009 0.978857 0.574774
O O7 0.054385 0.913613 0.727986
O O8 0.297322 0.992062 0.339226
O O9 0.448394 0.079269 0.183373
O O10 0.621542 0.609481 0.963531
O O11 0.268277 0.479286 0.571760
O O12 0.546320 0.308602 0.496479
O O13 0.361882 0.069397 0.474371
O O14 0.434276 0.619149 0.221768
O O15 0.314058 0.511098 0.406556
O O16 0.313458 0.349912 0.204849
O O17 0.000000 0.500000 0.500000
#
# Coordination Sequence:
#
# PCOD9052624 Si02
#       8
#     2   2   2   2   2   2   2   2
#     4  11  28  46  74 112 155 200 255 319 381 447
#     4  11  26  43  76 111 149 201 250 315 384 454
#     4  12  27  48  76 111 155 206 254 317 380 456
#     4  10  26  47  77 107 151 207 258 313 380 457
#     4  11  24  48  73 110 158 196 254 311 387 449
#     4  12  28  50  81 111 159 201 254 320 385 456
#     4  11  24  48  74 110 149 204 260 310 382 450
#     4  12  27  49  77 115 151 197 263 313 387 461
#
# _framework density 23.672066999999998
#
# number of rings (size 3 to 8) (size 9 to 14) (size 15 to 20)
#    0.000    0.750    3.750    1.500    8.750    1.500 
#    0.000    1.250    0.000    0.000    0.000    0.000 
#    0.000    0.000    0.000    0.000    0.000    0.000 
#
# Total GULP energy -89169.115670 kJ/mol
# GULP energy per Si atom -5573.069729 kJ/mol
# Density = 2.361819 g / cm^3
# Si number density = 23.672067 Si / 1000 Ang^3
#
#
#
# Elastic Constant Matrix: (Units=GPa)
#
#
# Indices 1 2 3 4 5 6 
#
# 1 134.2739 52.0329 64.6756 -8.6613 -3.5461 -18.8728
# 2 52.0329 75.8131 42.6935 -6.2586 -4.5467 2.8175
# 3 64.6756 42.6935 131.8796 -29.9237 2.2923 -10.4103
# 4 -8.6613 -6.2586 -29.9237 53.1352 -12.9080 4.6509
# 5 -3.5461 -4.5467 2.2923 -12.9080 20.4607 -2.1425
# 6 -18.8728 2.8175 -10.4103 4.6509 -2.1425 23.1352
#
#
#
# Elastic Compliance Matrix: (Units=1/GPa)
#
#
# Indices 1 2 3 4 5 6 
#
# 1 0.013708 -0.007771 -0.003686 -0.001386 0.001326 0.010872
# 2 -0.007771 0.021308 -0.003788 0.000813 0.003225 -0.010504
# 3 -0.003686 -0.003788 0.012067 0.005844 0.001043 0.001806
# 4 -0.001386 0.000813 0.005844 0.025929 0.015394 -0.002387
# 5 0.001326 0.003225 0.001043 0.015394 0.059792 0.003601
# 6 0.010872 -0.010504 0.001806 -0.002387 0.003601 0.054998
#
#
# Mechanical properties :
#
#
# Convention : Reuss Voigt Hill
#
# Bulk Modulus (GPa) = 60.26754 73.41896 66.84325
# Shear Modulus (GPa) = 22.33892 31.51719 26.92806
#
# Velocity S-wave (km/s) = 3.07527 3.65281 3.37641
# Velocity P-wave (km/s) = 6.17449 6.99092 6.59535
#
# Compressibility (1/GPa) = 0.01659268
#
# Stress axis : x y z
#
# Youngs Moduli (GPa) = 72.94875 46.93082 82.87013
#
# Poissons Ratio (x) = 0.36472 0.30548
# Poissons Ratio (y) = 0.56692 0.31388
# Poissons Ratio (z) = 0.26891 0.17775
#
# Static dielectric constant tensor:
#      x y z
#    x 1.991790 0.039730 0.048540 
#    y 0.039730 1.992230 0.067390 
#    z 0.048540 0.067390 1.988720 
# 
# From -- ./inp_files/566925.got.cif
#   From: 2010.05.17/outbox.cif.g08.bks.cpg/sg2_284_cif.got.tgz:566925.got - 2010.06.03 11:33:40.
