data_PCOD9052579
_publ_section_title
;
Structure prediction by ZEFSAII (Michael W. Deem and Ramdas Pophale) SiO2 
 PCOD9052579
Probable space group: P -1
;
_chemical_formula_sum "Si O2"
_cell_formula_units_Z 16
_cell_length_a 24.697473
_cell_length_b 5.075694
_cell_length_c 18.424311
_cell_angle_alpha 95.227089
_cell_angle_beta 17.178168
_cell_angle_gamma 101.896907
_cell_volume 621.094617
_symmetry_space_group_name_H-M "P -1"
_symmetry_group_IT_number 2
_symmetry_cell_setting 'triclinic'
loop_
_space_group_symop_operation_xyz
x,y,z
-x,-y,-z
loop_
_atom_site_type_symbol
_atom_site_label
_atom_site_fract_x
_atom_site_fract_y
_atom_site_fract_z
Si Si1 0.104461 0.300618 0.233827
Si Si2 0.439474 0.534729 0.196730
Si Si3 0.634620 0.287712 0.377886
Si Si4 0.351639 0.943361 0.954072
Si Si5 0.312440 0.699342 0.221244
Si Si6 0.884490 0.745844 0.281840
Si Si7 0.771778 0.720542 0.082354
Si Si8 0.241914 0.865455 0.641322
O O1 0.185848 0.057868 0.142377
O O2 0.882642 0.241883 0.541783
O O3 0.248445 0.604888 0.091671
O O4 0.124328 0.345319 0.122259
O O5 0.294682 0.532033 0.315816
O O6 0.301558 0.305904 0.426374
O O7 0.535693 0.848465 0.118741
O O8 0.617297 0.468058 0.932749
O O9 0.746591 0.532809 0.182377
O O10 0.460238 0.355846 0.642742
O O11 0.770250 0.222587 0.261629
O O12 0.500000 0.000000 0.500000
O O13 0.522111 0.995536 0.676743
O O14 0.500000 0.000000 0.000000
O O15 0.852795 0.424899 0.292346
O O16 0.849615 0.912387 0.261145
O O17 0.088383 0.949938 0.065832
#
# Coordination Sequence:
#
# PCOD9052579 Si02
#       8
#     2   2   2   2   2   2   2   2
#     4  12  27  45  75 104 141 192 241 290 353 436
#     4  10  26  47  71 105 147 190 237 300 359 421
#     4  11  26  46  74 103 152 188 237 304 361 419
#     4  11  25  45  71 105 142 190 238 291 354 425
#     4  11  27  46  74 105 148 187 241 301 357 427
#     4  11  27  45  77 102 142 193 239 288 357 430
#     4  11  27  45  71 110 141 192 244 295 359 434
#     4  11  25  47  72 106 144 188 235 297 355 422
#
# _framework density 25.760967999999998
#
# number of rings (size 3 to 8) (size 9 to 14) (size 15 to 20)
#    0.000    1.000    1.250    3.000   19.250    2.000 
#    0.000    0.000    0.000    0.000    0.000    0.000 
#    0.000    0.000    0.000    0.000    0.000    0.000 
#
# Total GULP energy -89796.618537 kJ/mol
# GULP energy per Si atom -5612.288659 kJ/mol
# Density = 2.570233 g / cm^3
# Si number density = 25.760968 Si / 1000 Ang^3
#
#
#
# Elastic Constant Matrix: (Units=GPa)
#
#
# Indices 1 2 3 4 5 6 
#
# 1 93.9355 -2.9136 21.8500 -1.9240 1.4847 -6.0387
# 2 -2.9136 77.2108 17.8950 -4.2991 -3.1207 7.2139
# 3 21.8500 17.8950 102.2375 10.5854 -16.3465 -0.9680
# 4 -1.9240 -4.2991 10.5854 49.3851 -4.1611 -9.6696
# 5 1.4847 -3.1207 -16.3465 -4.1611 33.2720 6.9329
# 6 -6.0387 7.2139 -0.9680 -9.6696 6.9329 45.5056
#
#
#
# Elastic Compliance Matrix: (Units=1/GPa)
#
#
# Indices 1 2 3 4 5 6 
#
# 1 0.011591 0.000969 -0.003124 0.001403 -0.002192 0.001950
# 2 0.000969 0.013902 -0.002734 0.001506 0.000499 -0.001890
# 3 -0.003124 -0.002734 0.012114 -0.002702 0.005741 -0.001172
# 4 0.001403 0.001506 -0.002702 0.021936 0.000564 0.004465
# 5 -0.002192 0.000499 0.005741 0.000564 0.034203 -0.005339
# 6 0.001950 -0.001890 -0.001172 0.004465 -0.005339 0.024271
#
#
# Mechanical properties :
#
#
# Convention : Reuss Voigt Hill
#
# Bulk Modulus (GPa) = 35.93495 38.56074 37.24785
# Shear Modulus (GPa) = 36.47687 41.40270 38.93979
#
# Velocity S-wave (km/s) = 3.76703 4.01332 3.89212
# Velocity P-wave (km/s) = 5.73588 6.03961 5.88970
#
# Compressibility (1/GPa) = 0.02782806
#
# Stress axis : x y z
#
# Youngs Moduli (GPa) = 86.27336 71.92974 82.54921
#
# Poissons Ratio (x) = -0.06968 0.25789
# Poissons Ratio (y) = -0.08358 0.22573
# Poissons Ratio (z) = 0.26952 0.19669
#
# Static dielectric constant tensor:
#      x y z
#    x 2.043260 -0.023280 0.001650 
#    y -0.023280 2.015550 0.055690 
#    z 0.001650 0.055690 2.005640 
# 
# From -- ./inp_files/578742.got.cif
#   From: 2010.05.17/outbox.cif.g08.bks.cpg/sg2_290_cif.got.tgz:578742.got - 2010.06.03 11:33:40.
