data_PCOD9052715
_publ_section_title
;
Structure prediction by ZEFSAII (Michael W. Deem and Ramdas Pophale) SiO2 
 PCOD9052715
Probable space group: P -1
;
_chemical_formula_sum "Si O2"
_cell_formula_units_Z 15
_cell_length_a 9.652714
_cell_length_b 9.966305
_cell_length_c 13.419940
_cell_angle_alpha 43.011478
_cell_angle_beta 54.364110
_cell_angle_gamma 41.755204
_cell_volume 584.514390
_symmetry_space_group_name_H-M "P -1"
_symmetry_group_IT_number 2
_symmetry_cell_setting 'triclinic'
loop_
_space_group_symop_operation_xyz
x,y,z
-x,-y,-z
loop_
_atom_site_type_symbol
_atom_site_label
_atom_site_fract_x
_atom_site_fract_y
_atom_site_fract_z
Si Si1 0.134217 0.106051 0.908804
Si Si2 0.026898 0.864131 0.436270
Si Si3 0.500000 0.500000 0.500000
Si Si4 0.394255 0.347222 0.319525
Si Si5 0.301347 0.572344 0.737409
Si Si6 0.189406 0.170789 0.626703
Si Si7 0.845786 0.624894 0.775949
Si Si8 0.576979 0.828651 0.963986
O O1 0.166402 0.190461 0.742677
O O2 0.022276 0.353198 0.885046
O O3 0.357090 0.898857 0.972890
O O4 0.000000 0.000000 0.000000
O O5 0.267845 0.721101 0.437107
O O6 0.111969 0.847839 0.647389
O O7 0.983520 0.839660 0.352395
O O8 0.923393 0.754080 0.603801
O O9 0.384558 0.444967 0.665790
O O10 0.503715 0.437511 0.291550
O O11 0.228295 0.351549 0.458799
O O12 0.285488 0.433811 0.210899
O O13 0.592878 0.081478 0.352178
O O14 0.267829 0.433900 0.909479
O O15 0.705679 0.808593 0.823050
O O16 0.500000 0.000000 0.000000
#
# Coordination Sequence:
#
# PCOD9052715 Si02
#       8
#     2   2   1   2   2   2   2   2
#     4  12  28  45  79 119 160 210 259 321 398 479
#     4  10  26  48  77 117 150 205 259 326 381 468
#     4  12  28  46  76 108 160 198 264 312 398 456
#     4   9  19  42  75 111 146 196 251 328 379 451
#     4  11  27  46  79 110 153 208 261 325 385 475
#     4   9  20  41  75 112 153 187 254 317 385 456
#     4  11  26  47  82 112 156 202 264 326 397 462
#     4  12  31  53  77 113 164 212 263 324 402 473
#
# _framework density 25.662330000000001
#
# number of rings (size 3 to 8) (size 9 to 14) (size 15 to 20)
#    0.000    1.333    1.333    2.000   13.067    2.667 
#    0.000    0.000    0.000    0.000    0.000    0.000 
#    0.000    0.000    0.000    0.000    0.000    0.000 
#
# Total GULP energy -83602.586790 kJ/mol
# GULP energy per Si atom -5573.505786 kJ/mol
# Density = 2.560392 g / cm^3
# Si number density = 25.662330 Si / 1000 Ang^3
#
#
#
# Elastic Constant Matrix: (Units=GPa)
#
#
# Indices 1 2 3 4 5 6 
#
# 1 135.5914 33.9045 37.1493 -2.0397 18.0662 -27.9715
# 2 33.9045 130.7984 47.1623 -0.1169 3.4699 -25.4543
# 3 37.1493 47.1623 92.9515 5.9105 17.2251 -10.8033
# 4 -2.0397 -0.1169 5.9105 43.9479 -2.8451 14.4332
# 5 18.0662 3.4699 17.2251 -2.8451 24.1707 -3.8733
# 6 -27.9715 -25.4543 -10.8033 14.4332 -3.8733 43.9364
#
#
#
# Elastic Compliance Matrix: (Units=1/GPa)
#
#
# Indices 1 2 3 4 5 6 
#
# 1 0.009858 -0.000674 -0.001915 -0.001403 -0.005204 0.005417
# 2 -0.000674 0.010520 -0.005058 -0.000736 0.003305 0.004955
# 3 -0.001915 -0.005058 0.016041 -0.002844 -0.009628 -0.000120
# 4 -0.001403 -0.000736 -0.002844 0.026790 0.004666 -0.010408
# 5 -0.005204 0.003305 -0.009628 0.004666 0.052085 -0.000707
# 6 0.005417 0.004955 -0.000120 -0.010408 -0.000707 0.032407
#
#
# Mechanical properties :
#
#
# Convention : Reuss Voigt Hill
#
# Bulk Modulus (GPa) = 47.33689 66.19706 56.76698
# Shear Modulus (GPa) = 29.40560 38.48600 33.94580
#
# Velocity S-wave (km/s) = 3.38874 3.87681 3.64096
# Velocity P-wave (km/s) = 5.81356 6.77428 6.31223
#
# Compressibility (1/GPa) = 0.02112517
#
# Stress axis : x y z
#
# Youngs Moduli (GPa) = 101.44128 95.05880 62.33992
#
# Poissons Ratio (x) = 0.06407 0.11937
# Poissons Ratio (y) = 0.06837 0.31532
# Poissons Ratio (z) = 0.19424 0.48081
#
# Static dielectric constant tensor:
#      x y z
#    x 2.048280 0.057100 -0.014130 
#    y 0.057100 2.097570 -0.037940 
#    z -0.014130 -0.037940 2.006360 
# 
# From -- ./inp_files/381288.got.cif
#   From: 2010.05.17/outbox.cif.g08.bks.cpg/sg2_191_cif.got.tgz:381288.got - 2010.06.03 11:33:40.
