data_PCOD9052258
_publ_section_title
;
Structure prediction by ZEFSAII (Michael W. Deem and Ramdas Pophale) SiO2 
 PCOD9052258
Probable space group: P -1
;
_chemical_formula_sum "Si O2"
_cell_formula_units_Z 16
_cell_length_a 9.550922
_cell_length_b 28.183937
_cell_length_c 13.477212
_cell_angle_alpha 156.351013
_cell_angle_beta 52.752545
_cell_angle_gamma 141.451185
_cell_volume 812.317819
_symmetry_space_group_name_H-M "P -1"
_symmetry_group_IT_number 2
_symmetry_cell_setting 'triclinic'
loop_
_space_group_symop_operation_xyz
x,y,z
-x,-y,-z
loop_
_atom_site_type_symbol
_atom_site_label
_atom_site_fract_x
_atom_site_fract_y
_atom_site_fract_z
Si Si1 0.985262 0.350401 0.213702
Si Si2 0.782759 0.081498 0.418855
Si Si3 0.453017 0.820192 0.790921
Si Si4 0.289070 0.757659 0.077138
Si Si5 0.083931 0.816807 0.674353
Si Si6 0.450663 0.375900 0.508291
Si Si7 0.099128 0.573658 0.295021
Si Si8 0.717355 0.592245 0.161146
O O1 0.269272 0.452548 0.316832
O O2 0.000000 0.500000 0.500000
O O3 0.760465 0.208744 0.112765
O O4 0.892722 0.278854 0.003222
O O5 0.696983 0.152401 0.658993
O O6 0.820695 0.120970 0.361208
O O7 0.070544 0.207293 0.569624
O O8 0.566711 0.883174 0.152889
O O9 0.528874 0.744948 0.683458
O O10 0.316936 0.703855 0.530204
O O11 0.698110 0.013656 0.033266
O O12 0.156109 0.574381 0.818012
O O13 0.073064 0.673516 0.428280
O O14 0.808060 0.739796 0.663520
O O15 0.388686 0.434497 0.737025
O O16 0.164727 0.481586 0.037825
O O17 0.500000 0.500000 0.000000
#
# Coordination Sequence:
#
# PCOD9052258 Si02
#       8
#     2   2   2   2   2   2   2   2
#     4  10  18  34  62  83 108 153 205 235 277 347
#     4   9  20  31  57  85 112 151 190 246 279 342
#     4  11  20  38  61  84 116 162 203 229 288 360
#     4  10  17  35  56  84 111 149 206 226 283 351
#     4  11  23  37  56  93 124 146 194 250 303 336
#     4  10  20  35  60  87 111 157 197 247 285 343
#     4  11  22  36  62  87 118 160 185 246 302 351
#     4  10  18  36  58  85 117 146 202 238 289 347
#
# _framework density 19.696724
#
# number of rings (size 3 to 8) (size 9 to 14) (size 15 to 20)
#    0.000    1.750    5.000    1.500    0.000    4.500 
#    0.000    0.625    2.750    0.750    0.000    0.000 
#    0.000    0.000    0.000    0.000    0.000    0.000 
#
# Total GULP energy -89113.944442 kJ/mol
# GULP energy per Si atom -5569.621528 kJ/mol
# Density = 1.965189 g / cm^3
# Si number density = 19.696724 Si / 1000 Ang^3
#
#
#
# Elastic Constant Matrix: (Units=GPa)
#
#
# Indices 1 2 3 4 5 6 
#
# 1 40.8542 38.8101 25.8996 20.6065 1.8731 21.9937
# 2 38.8101 99.3686 40.8716 22.2911 4.8959 29.4030
# 3 25.8996 40.8716 74.6119 21.0645 14.6135 12.2594
# 4 20.6065 22.2911 21.0645 41.0407 7.2487 16.2081
# 5 1.8731 4.8959 14.6135 7.2487 29.8276 2.9371
# 6 21.9937 29.4030 12.2594 16.2081 2.9371 29.1498
#
#
#
# Elastic Compliance Matrix: (Units=1/GPa)
#
#
# Indices 1 2 3 4 5 6 
#
# 1 0.057709 -0.009264 -0.009313 -0.010548 0.007501 -0.025172
# 2 -0.009264 0.018868 -0.006028 0.001407 0.001120 -0.010403
# 3 -0.009313 -0.006028 0.021716 -0.004585 -0.008679 0.007397
# 4 -0.010548 0.001407 -0.004585 0.036655 -0.005108 -0.011400
# 5 0.007501 0.001120 -0.008679 -0.005108 0.038779 -0.004207
# 6 -0.025172 -0.010403 0.007397 -0.011400 -0.004207 0.067442
#
#
# Mechanical properties :
#
#
# Convention : Reuss Voigt Hill
#
# Bulk Modulus (GPa) = 20.37297 47.33302 33.85299
# Shear Modulus (GPa) = 16.30047 27.28719 21.79383
#
# Velocity S-wave (km/s) = 2.87988 3.72609 3.32997
# Velocity P-wave (km/s) = 4.62861 6.52646 5.65768
#
# Compressibility (1/GPa) = 0.04908464
#
# Stress axis : x y z
#
# Youngs Moduli (GPa) = 17.32833 52.99928 46.04880
#
# Poissons Ratio (x) = 0.49098 0.42885
# Poissons Ratio (y) = 0.16053 0.27756
# Poissons Ratio (z) = 0.16138 0.31945
#
# Static dielectric constant tensor:
#      x y z
#    x 1.781390 0.039300 0.070830 
#    y 0.039300 1.762540 0.007470 
#    z 0.070830 0.007470 1.743020 
# 
# From -- ./inp_files/333389.got.cif
#   From: 2010.05.17/outbox.cif.g08.bks.cpg/sg2_167_cif.got.tgz:333389.got - 2010.06.03 11:33:40.
