data_PCOD9052879
_publ_section_title
;
Structure prediction by ZEFSAII (Michael W. Deem and Ramdas Pophale) SiO2 
 PCOD9052879
Probable space group: P -1
;
_chemical_formula_sum "Si O2"
_cell_formula_units_Z 14
_cell_length_a 16.366243
_cell_length_b 8.401310
_cell_length_c 5.055995
_cell_angle_alpha 67.878443
_cell_angle_beta 84.066414
_cell_angle_gamma 65.972500
_cell_volume 587.183894
_symmetry_space_group_name_H-M "P -1"
_symmetry_group_IT_number 2
_symmetry_cell_setting 'triclinic'
loop_
_space_group_symop_operation_xyz
x,y,z
-x,-y,-z
loop_
_atom_site_type_symbol
_atom_site_label
_atom_site_fract_x
_atom_site_fract_y
_atom_site_fract_z
Si Si1 0.563015 0.403309 0.788424
Si Si2 0.691721 0.881308 0.665772
Si Si3 0.804874 0.483950 0.994531
Si Si4 0.924233 0.160657 0.765554
Si Si5 0.958305 0.442235 0.298920
Si Si6 0.738436 0.240077 0.519563
Si Si7 0.587867 0.983813 0.132670
O O1 0.500000 0.500000 0.500000
O O2 0.662651 0.374170 0.666945
O O3 0.500000 0.500000 0.000000
O O4 0.583530 0.189950 0.977646
O O5 0.714586 0.066379 0.533449
O O6 0.610132 0.917470 0.466083
O O7 0.764092 0.674029 0.720897
O O8 0.666245 0.859549 0.989542
O O9 0.853569 0.527158 0.206400
O O10 0.744862 0.378395 0.199678
O O11 0.878258 0.330695 0.881472
O O12 0.974413 0.227184 0.478983
O O13 0.836974 0.142009 0.681006
O O14 0.000000 0.000000 0.000000
O O15 0.000000 0.500000 0.500000
O O16 0.000000 0.500000 0.000000
O O17 0.500000 0.000000 0.000000
#
# Coordination Sequence:
#
# PCOD9052879 Si02
#       7
#     2   2   2   2   2   2   2
#     4  11  25  46  79 110 149 203 249 315 396 456
#     4  11  27  47  75 104 155 198 251 320 388 452
#     4  11  27  47  79 112 151 213 261 317 405 451
#     4  11  27  48  78 116 158 211 266 331 394 467
#     4  11  24  47  73 108 149 192 266 312 390 462
#     4  10  27  48  74 117 157 201 269 322 387 477
#     4  11  26  48  69 112 145 194 253 316 387 465
#
# _framework density 23.842618000000002
#
# number of rings (size 3 to 8) (size 9 to 14) (size 15 to 20)
#    0.000    1.143    1.429    2.143   14.000    3.429 
#    0.000    0.000    0.000    0.000    0.000    0.000 
#    0.000    0.000    0.000    0.000    0.000    0.000 
#
# Total GULP energy -78089.191014 kJ/mol
# GULP energy per Si atom -5577.799358 kJ/mol
# Density = 2.378835 g / cm^3
# Si number density = 23.842618 Si / 1000 Ang^3
#
#
#
# Elastic Constant Matrix: (Units=GPa)
#
#
# Indices 1 2 3 4 5 6 
#
# 1 122.8432 41.7350 55.6700 -7.4720 11.2188 6.3780
# 2 41.7350 104.4792 48.6274 8.5671 6.0112 -19.9360
# 3 55.6700 48.6274 168.2689 1.6408 14.8238 -5.9543
# 4 -7.4720 8.5671 1.6408 38.6898 -8.1279 8.1410
# 5 11.2188 6.0112 14.8238 -8.1279 59.8490 3.0334
# 6 6.3780 -19.9360 -5.9543 8.1410 3.0334 29.2076
#
#
#
# Elastic Compliance Matrix: (Units=1/GPa)
#
#
# Indices 1 2 3 4 5 6 
#
# 1 0.012071 -0.005661 -0.002732 0.005551 0.000173 -0.008622
# 2 -0.005661 0.016317 -0.002090 -0.008039 -0.001881 0.014384
# 3 -0.002732 -0.002090 0.007617 -0.000905 -0.001344 0.001115
# 4 0.005551 -0.008039 -0.000905 0.033391 0.005375 -0.016749
# 5 0.000173 -0.001881 -0.001344 0.005375 0.018180 -0.004982
# 6 -0.008622 0.014384 0.001115 -0.016749 -0.004982 0.051352
#
#
# Mechanical properties :
#
#
# Convention : Reuss Voigt Hill
#
# Bulk Modulus (GPa) = 66.48629 76.40625 71.44627
# Shear Modulus (GPa) = 30.32009 42.18654 36.25332
#
# Velocity S-wave (km/s) = 3.56993 4.21096 3.90362
# Velocity P-wave (km/s) = 6.70362 7.46716 7.09567
#
# Compressibility (1/GPa) = 0.01504070
#
# Stress axis : x y z
#
# Youngs Moduli (GPa) = 82.84091 61.28548 131.27879
#
# Poissons Ratio (x) = 0.34692 0.35870
# Poissons Ratio (y) = 0.46893 0.27431
# Poissons Ratio (z) = 0.22635 0.12806
#
# Static dielectric constant tensor:
#      x y z
#    x 1.932770 -0.010500 -0.007660 
#    y -0.010500 2.032720 0.040070 
#    z -0.007660 0.040070 1.930840 
# 
# From -- ./inp_files/104502.got.cif
#   From: 2010.05.17/outbox.cif.g08.bks.cpg/sg2_53_cif.got.tgz:104502.got - 2010.06.03 11:33:40.
