data_PCOD9052412
_publ_section_title
;
Structure prediction by ZEFSAII (Michael W. Deem and Ramdas Pophale) SiO2 
 PCOD9052412
Probable space group: P -1
;
_chemical_formula_sum "Si O2"
_cell_formula_units_Z 14
_cell_length_a 10.735475
_cell_length_b 9.819086
_cell_length_c 6.006911
_cell_angle_alpha 66.255145
_cell_angle_beta 91.336990
_cell_angle_gamma 79.068675
_cell_volume 565.573027
_symmetry_space_group_name_H-M "P -1"
_symmetry_group_IT_number 2
_symmetry_cell_setting 'triclinic'
loop_
_space_group_symop_operation_xyz
x,y,z
-x,-y,-z
loop_
_atom_site_type_symbol
_atom_site_label
_atom_site_fract_x
_atom_site_fract_y
_atom_site_fract_z
Si Si1 0.343357 0.113292 0.623040
Si Si2 0.930551 0.105223 0.623327
Si Si3 0.152095 0.137656 0.954898
Si Si4 0.152647 0.569141 0.738617
Si Si5 0.130118 0.356592 0.211540
Si Si6 0.540736 0.234860 0.244935
Si Si7 0.588419 0.531440 0.281080
O O1 0.289824 0.133589 0.857974
O O2 0.224190 0.219128 0.422267
O O3 0.456342 0.184839 0.477291
O O4 0.372232 0.930924 0.702736
O O5 0.851758 0.255326 0.410513
O O6 0.039190 0.138653 0.772017
O O7 0.000000 0.000000 0.500000
O O8 0.840323 0.018038 0.809460
O O9 0.105229 0.275862 0.031074
O O10 0.262762 0.477416 0.642926
O O11 0.000394 0.577354 0.708302
O O12 0.187503 0.495858 0.032509
O O13 0.595668 0.378256 0.235299
O O14 0.464679 0.317028 0.968225
O O15 0.500000 0.500000 0.500000
#
# Coordination Sequence:
#
# PCOD9052412 Si02
#       7
#     2   2   2   2   2   2   2
#     4  11  23  46  68  97 135 173 228 280 324 404
#     4  11  23  43  62 104 137 169 214 276 336 403
#     4  11  24  39  70 100 130 175 226 260 344 412
#     4  11  24  44  69  94 147 169 211 291 337 383
#     4  11  24  45  66 105 135 175 215 283 344 393
#     4  10  26  46  67  93 136 183 222 276 332 381
#     4  11  26  46  67 100 131 181 228 269 330 407
#
# _framework density 24.753654999999998
#
# number of rings (size 3 to 8) (size 9 to 14) (size 15 to 20)
#    0.000    1.143    4.286    0.000    8.000    0.571 
#    2.571    2.857    0.000    0.000    0.000    0.000 
#    0.000    0.000    0.000    0.000    0.000    0.000 
#
# Total GULP energy -78141.824994 kJ/mol
# GULP energy per Si atom -5581.558928 kJ/mol
# Density = 2.469731 g / cm^3
# Si number density = 24.753655 Si / 1000 Ang^3
#
#
#
# Elastic Constant Matrix: (Units=GPa)
#
#
# Indices 1 2 3 4 5 6 
#
# 1 97.3017 53.1590 48.8311 -4.6548 -25.2437 -23.4210
# 2 53.1590 140.4857 70.5475 -47.8696 2.2778 -7.5188
# 3 48.8311 70.5475 150.2354 -48.1905 -33.8583 -6.4005
# 4 -4.6548 -47.8696 -48.1905 62.1491 -0.6222 6.8172
# 5 -25.2437 2.2778 -33.8583 -0.6222 42.2845 1.0058
# 6 -23.4210 -7.5188 -6.4005 6.8172 1.0058 43.8036
#
#
#
# Elastic Compliance Matrix: (Units=1/GPa)
#
#
# Indices 1 2 3 4 5 6 
#
# 1 0.021831 -0.009648 -0.002349 -0.008685 0.011289 0.010766
# 2 -0.009648 0.015487 -0.003569 0.008805 -0.009223 -0.004180
# 3 -0.002349 -0.003569 0.013912 0.008109 0.010081 -0.001329
# 4 -0.008685 0.008805 0.008109 0.029240 0.001420 -0.006531
# 5 0.011289 -0.009223 0.010081 0.001420 0.038864 0.004812
# 6 0.010766 -0.004180 -0.001329 -0.006531 0.004812 0.028580
#
#
# Mechanical properties :
#
#
# Convention : Reuss Voigt Hill
#
# Bulk Modulus (GPa) = 49.75098 81.45535 65.60316
# Shear Modulus (GPa) = 26.91872 44.01311 35.46591
#
# Velocity S-wave (km/s) = 3.30125 4.22126 3.78928
# Velocity P-wave (km/s) = 5.88838 7.53237 6.76053
#
# Compressibility (1/GPa) = 0.02010011
#
# Stress axis : x y z
#
# Youngs Moduli (GPa) = 45.80540 64.57030 71.88126
#
# Poissons Ratio (x) = 0.62295 0.16882
# Poissons Ratio (y) = 0.44192 0.25653
# Poissons Ratio (z) = 0.10758 0.23044
#
# Static dielectric constant tensor:
#      x y z
#    x 2.193690 0.026740 -0.189000 
#    y 0.026740 1.942160 0.020910 
#    z -0.189000 0.020910 2.257950 
# 
# From -- ./inp_files/65455.got.cif
#   From: 2010.05.17/outbox.cif.g08.bks.cpg/sg2_33_cif.got.tgz:65455.got - 2010.06.03 11:33:40.
