data_PCOD9052628
_publ_section_title
;
Structure prediction by ZEFSAII (Michael W. Deem and Ramdas Pophale) SiO2 
 PCOD9052628
Probable space group: P -1
;
_chemical_formula_sum "Si O2"
_cell_formula_units_Z 13
_cell_length_a 7.184644
_cell_length_b 10.204249
_cell_length_c 10.986052
_cell_angle_alpha 141.572910
_cell_angle_beta 104.682495
_cell_angle_gamma 78.946371
_cell_volume 484.211689
_symmetry_space_group_name_H-M "P -1"
_symmetry_group_IT_number 2
_symmetry_cell_setting 'triclinic'
loop_
_space_group_symop_operation_xyz
x,y,z
-x,-y,-z
loop_
_atom_site_type_symbol
_atom_site_label
_atom_site_fract_x
_atom_site_fract_y
_atom_site_fract_z
Si Si1 0.000000 0.500000 0.000000
Si Si2 0.697581 0.225934 0.628293
Si Si3 0.929430 0.481769 0.671148
Si Si4 0.472827 0.077290 0.774847
Si Si5 0.321327 0.471567 0.833619
Si Si6 0.845777 0.913463 0.070701
Si Si7 0.194738 0.183611 0.280600
O O1 0.803297 0.581190 0.104219
O O2 0.121028 0.718875 0.216879
O O3 0.642606 0.986522 0.413186
O O4 0.514202 0.354839 0.738982
O O5 0.781412 0.315895 0.579561
O O6 0.156112 0.443131 0.681475
O O7 0.845921 0.586948 0.613314
O O8 0.920395 0.670137 0.913068
O O9 0.615613 0.879959 0.667121
O O10 0.332611 0.076253 0.865033
O O11 0.603000 0.286993 0.959828
O O12 0.793695 0.941030 0.939667
O O13 0.010474 0.085211 0.246279
#
# Coordination Sequence:
#
# PCOD9052628 Si02
#       7
#     1   2   2   2   2   2   2
#     4  10  26  48  64  86 120 154 200 260 328 360
#     4  11  25  42  63  93 117 159 204 257 307 361
#     4   9  19  38  60  86 129 169 192 236 303 344
#     4  12  22  36  67  94 121 160 210 243 293 362
#     4  11  21  45  66  85 122 157 199 255 307 366
#     4   9  17  34  58  87 125 166 197 233 288 348
#     4   9  18  34  59  93 126 172 199 234 293 349
#
# _framework density 26.847761999999999
#
# number of rings (size 3 to 8) (size 9 to 14) (size 15 to 20)
#    0.923    0.923    3.077    0.923    0.000    4.923 
#    0.000    3.077    0.000    0.000    0.000    0.000 
#    0.000    0.000    0.000    0.000    0.000    0.000 
#
# Total GULP energy -72491.483487 kJ/mol
# GULP energy per Si atom -5576.267961 kJ/mol
# Density = 2.678666 g / cm^3
# Si number density = 26.847762 Si / 1000 Ang^3
#
#
#
# Elastic Constant Matrix: (Units=GPa)
#
#
# Indices 1 2 3 4 5 6 
#
# 1 222.6487 66.8475 61.4685 -0.0302 -8.7955 38.8070
# 2 66.8475 73.1431 29.4529 6.4571 2.4727 27.7473
# 3 61.4685 29.4529 111.0793 -2.1227 11.1181 4.4653
# 4 -0.0302 6.4571 -2.1227 32.2810 2.5328 -0.5280
# 5 -8.7955 2.4727 11.1181 2.5328 59.0195 -6.9248
# 6 38.8070 27.7473 4.4653 -0.5280 -6.9248 46.5211
#
#
#
# Elastic Compliance Matrix: (Units=1/GPa)
#
#
# Indices 1 2 3 4 5 6 
#
# 1 0.007141 -0.004422 -0.002797 0.000549 0.001420 -0.002834
# 2 -0.004422 0.023446 -0.003244 -0.004917 -0.002033 -0.010342
# 3 -0.002797 -0.003244 0.011546 0.001624 -0.002191 0.002852
# 4 0.000549 -0.004917 0.001624 0.032197 -0.001104 0.002520
# 5 0.001420 -0.002033 -0.002191 -0.001104 0.018042 0.002911
# 6 -0.002834 -0.010342 0.002852 0.002520 0.002911 0.030216
#
#
# Mechanical properties :
#
#
# Convention : Reuss Voigt Hill
#
# Bulk Modulus (GPa) = 47.15532 80.26766 63.71149
# Shear Modulus (GPa) = 33.20403 44.17114 38.68758
#
# Velocity S-wave (km/s) = 3.52056 4.06056 3.80017
# Velocity P-wave (km/s) = 5.84191 7.20739 6.56027
#
# Compressibility (1/GPa) = 0.02120652
#
# Stress axis : x y z
#
# Youngs Moduli (GPa) = 140.03079 42.65151 86.60722
#
# Poissons Ratio (x) = 0.18860 0.24225
# Poissons Ratio (y) = 0.61920 0.28100
# Poissons Ratio (z) = 0.39168 0.13838
#
# Static dielectric constant tensor:
#      x y z
#    x 2.003690 0.004570 -0.064550 
#    y 0.004570 1.143630 0.174530 
#    z -0.064550 0.174530 2.085400 
# 
# From -- ./inp_files/483723.got.cif
#   From: 2010.05.17/outbox.cif.g08.bks.cpg/sg2_242_cif.got.tgz:483723.got - 2010.06.03 11:33:40.
