data_PCOD9052191
_publ_section_title
;
Structure prediction by ZEFSAII (Michael W. Deem and Ramdas Pophale) SiO2 
 PCOD9052191
Probable space group: P -1
;
_chemical_formula_sum "Si O2"
_cell_formula_units_Z 13
_cell_length_a 12.383811
_cell_length_b 8.664031
_cell_length_c 9.347489
_cell_angle_alpha 133.484265
_cell_angle_beta 96.223975
_cell_angle_gamma 58.111570
_cell_volume 562.396853
_symmetry_space_group_name_H-M "P -1"
_symmetry_group_IT_number 2
_symmetry_cell_setting 'triclinic'
loop_
_space_group_symop_operation_xyz
x,y,z
-x,-y,-z
loop_
_atom_site_type_symbol
_atom_site_label
_atom_site_fract_x
_atom_site_fract_y
_atom_site_fract_z
Si Si1 0.456142 0.342665 0.478446
Si Si2 0.022198 0.781239 0.973542
Si Si3 0.139998 0.753619 0.280434
Si Si4 0.599008 0.258506 0.745349
Si Si5 0.500000 0.000000 0.000000
Si Si6 0.218858 0.347433 0.503960
Si Si7 0.205691 0.242959 0.131541
O O1 0.500000 0.500000 0.500000
O O2 0.516930 0.290430 0.611846
O O3 0.507428 0.088036 0.221688
O O4 0.292874 0.481320 0.561319
O O5 0.092200 0.766605 0.120372
O O6 0.121819 0.496583 0.721730
O O7 0.877161 0.837427 0.011654
O O8 0.000000 0.000000 0.000000
O O9 0.270778 0.752722 0.291798
O O10 0.195652 0.474076 0.189300
O O11 0.000000 0.000000 0.500000
O O12 0.666567 0.965937 0.635623
O O13 0.500000 0.500000 0.000000
O O14 0.368842 0.005902 0.027634
O O15 0.146052 0.356746 0.354455
#
# Coordination Sequence:
#
# PCOD9052191 Si02
#       7
#     2   2   2   2   1   2   2
#     4  11  26  44  74 104 150 193 252 304 377 443
#     4  12  26  45  74 105 150 196 247 309 382 444
#     4  12  27  46  73 109 142 197 253 303 376 450
#     4  12  27  46  74 107 154 196 250 314 381 451
#     4  10  26  42  74 106 142 190 250 304 362 442
#     4  11  25  46  69 109 144 194 248 307 381 443
#     4  11  25  45  73 100 149 186 251 299 371 441
#
# _framework density 23.115349999999999
#
# number of rings (size 3 to 8) (size 9 to 14) (size 15 to 20)
#    0.000    0.615    0.000    6.923   15.077    0.000 
#    0.000    0.000    0.000    0.000    0.000    0.000 
#    0.000    0.000    0.000    0.000    0.000    0.000 
#
# Total GULP energy -72489.388249 kJ/mol
# GULP energy per Si atom -5576.106788 kJ/mol
# Density = 2.306274 g / cm^3
# Si number density = 23.115350 Si / 1000 Ang^3
#
#
#
# Elastic Constant Matrix: (Units=GPa)
#
#
# Indices 1 2 3 4 5 6 
#
# 1 101.0188 -25.1403 8.2591 6.0651 2.9485 -7.5475
# 2 -25.1403 82.6572 36.7869 -21.8045 12.2028 11.7845
# 3 8.2591 36.7869 141.5399 -28.7470 -10.8025 -18.9501
# 4 6.0651 -21.8045 -28.7470 51.2756 -4.6846 15.5536
# 5 2.9485 12.2028 -10.8025 -4.6846 41.8726 -8.3824
# 6 -7.5475 11.7845 -18.9501 15.5536 -8.3824 40.3643
#
#
#
# Elastic Compliance Matrix: (Units=1/GPa)
#
#
# Indices 1 2 3 4 5 6 
#
# 1 0.011400 0.004977 -0.002441 -0.000620 -0.003128 -0.000878
# 2 0.004977 0.022778 -0.007281 0.008469 -0.010853 -0.014655
# 3 -0.002441 -0.007281 0.010977 0.001666 0.006834 0.007600
# 4 -0.000620 0.008469 0.001666 0.027876 -0.001448 -0.012849
# 5 -0.003128 -0.010853 0.006834 -0.001448 0.031445 0.012880
# 6 -0.000878 -0.014655 0.007600 -0.012849 0.012880 0.040083
#
#
# Mechanical properties :
#
#
# Convention : Reuss Voigt Hill
#
# Bulk Modulus (GPa) = 28.03734 40.55858 34.29796
# Shear Modulus (GPa) = 30.13180 47.05652 38.59416
#
# Velocity S-wave (km/s) = 3.61437 4.51680 4.09055
# Velocity P-wave (km/s) = 5.43819 6.69225 6.09755
#
# Compressibility (1/GPa) = 0.03566672
#
# Stress axis : x y z
#
# Youngs Moduli (GPa) = 87.71660 43.90148 91.09662
#
# Poissons Ratio (x) = -0.21852 0.22238
# Poissons Ratio (y) = -0.43660 0.66327
# Poissons Ratio (z) = 0.21413 0.31964
#
# Static dielectric constant tensor:
#      x y z
#    x 1.694850 -0.064800 -0.082020 
#    y -0.064800 1.833180 0.059220 
#    z -0.082020 0.059220 1.903140 
# 
# From -- ./inp_files/246267.got.cif
#   From: 2010.05.17/outbox.cif.g08.bks.cpg/sg2_124_cif.got.tgz:246267.got - 2010.06.03 11:33:40.
