data_PCOD9052866
_publ_section_title
;
Structure prediction by ZEFSAII (Michael W. Deem and Ramdas Pophale) SiO2 
 PCOD9052866
Probable space group: P -1
;
_chemical_formula_sum "Si O2"
_cell_formula_units_Z 16
_cell_length_a 9.134269
_cell_length_b 12.563271
_cell_length_c 16.900879
_cell_angle_alpha 154.503254
_cell_angle_beta 125.999426
_cell_angle_gamma 49.559798
_cell_volume 635.389478
_symmetry_space_group_name_H-M "P -1"
_symmetry_group_IT_number 2
_symmetry_cell_setting 'triclinic'
loop_
_space_group_symop_operation_xyz
x,y,z
-x,-y,-z
loop_
_atom_site_type_symbol
_atom_site_label
_atom_site_fract_x
_atom_site_fract_y
_atom_site_fract_z
Si Si1 0.354505 0.389186 0.836420
Si Si2 0.203569 0.578046 0.368582
Si Si3 0.987460 0.942428 0.269460
Si Si4 0.569498 0.132190 0.426983
Si Si5 0.045978 0.697173 0.830207
Si Si6 0.347972 0.187911 0.014413
Si Si7 0.614988 0.379156 0.772781
Si Si8 0.837872 0.696405 0.529435
O O1 0.161510 0.602541 0.885295
O O2 0.489793 0.281059 0.729602
O O3 0.316746 0.178174 0.741792
O O4 0.500000 0.500000 0.000000
O O5 0.055931 0.867026 0.538652
O O6 0.393396 0.663017 0.484988
O O7 0.216803 0.428294 0.189185
O O8 0.145458 0.385483 0.280373
O O9 0.082459 0.091889 0.339853
O O10 0.165090 0.681118 0.168953
O O11 0.795252 0.923978 0.155124
O O12 0.620038 0.219781 0.587594
O O13 0.347284 0.171461 0.388261
O O14 0.182690 0.501262 0.677910
O O15 0.000000 0.000000 0.000000
O O16 0.456628 0.314834 0.070974
O O17 0.500000 0.000000 0.000000
O O18 0.000000 0.500000 0.500000
#
# Coordination Sequence:
#
# PCOD9052866 Si02
#       8
#     2   2   2   2   2   2   2   2
#     4  12  27  42  74 108 144 195 241 303 370 433
#     4  10  27  46  74 109 137 197 237 301 368 421
#     4  11  25  48  74 104 146 187 252 299 362 441
#     4  11  23  48  74 100 147 182 252 294 359 439
#     4  11  27  47  71 105 151 183 244 303 365 446
#     4  11  28  46  74 106 152 191 238 305 373 439
#     4  11  24  47  74 104 140 196 240 303 367 430
#     4  11  25  44  74 104 139 199 238 301 373 435
#
# _framework density 25.181405000000002
#
# number of rings (size 3 to 8) (size 9 to 14) (size 15 to 20)
#    0.000    1.000    2.500    2.250   12.250    5.000 
#    2.250    0.000    0.000    0.000    0.000    0.000 
#    0.000    0.000    0.000    0.000    0.000    0.000 
#
# Total GULP energy -89295.651965 kJ/mol
# GULP energy per Si atom -5580.978248 kJ/mol
# Density = 2.512409 g / cm^3
# Si number density = 25.181405 Si / 1000 Ang^3
#
#
#
# Elastic Constant Matrix: (Units=GPa)
#
#
# Indices 1 2 3 4 5 6 
#
# 1 82.1279 4.7048 23.3224 13.4570 20.4615 2.7463
# 2 4.7048 140.1373 46.3189 6.9304 16.1641 -4.8422
# 3 23.3224 46.3189 117.0540 17.3080 21.3135 2.8179
# 4 13.4570 6.9304 17.3080 39.0203 13.1372 10.6826
# 5 20.4615 16.1641 21.3135 13.1372 50.0236 -1.3283
# 6 2.7463 -4.8422 2.8179 10.6826 -1.3283 20.1778
#
#
#
# Elastic Compliance Matrix: (Units=1/GPa)
#
#
# Indices 1 2 3 4 5 6 
#
# 1 0.014258 0.000802 -0.001934 -0.002526 -0.004616 -0.000444
# 2 0.000802 0.008459 -0.003218 -0.000558 -0.001476 0.002568
# 3 -0.001934 -0.003218 0.011016 -0.002710 -0.002171 -0.000756
# 4 -0.002526 -0.000558 -0.002710 0.035404 -0.007424 -0.018644
# 5 -0.004616 -0.001476 -0.002171 -0.007424 0.025394 0.006180
# 6 -0.000444 0.002568 -0.000756 -0.018644 0.006180 0.060619
#
#
# Mechanical properties :
#
#
# Convention : Reuss Voigt Hill
#
# Bulk Modulus (GPa) = 39.94403 54.22347 47.08375
# Shear Modulus (GPa) = 29.03710 39.50921 34.27315
#
# Velocity S-wave (km/s) = 3.39944 3.96534 3.69324
# Velocity P-wave (km/s) = 5.59511 6.52266 6.07661
#
# Compressibility (1/GPa) = 0.02503503
#
# Stress axis : x y z
#
# Youngs Moduli (GPa) = 70.13565 118.21662 90.77829
#
# Poissons Ratio (x) = -0.09486 0.17553
# Poissons Ratio (y) = -0.05628 0.29210
# Poissons Ratio (z) = 0.13562 0.38039
#
# Static dielectric constant tensor:
#      x y z
#    x 2.177900 0.116690 -0.072100 
#    y 0.116690 2.144310 -0.085500 
#    z -0.072100 -0.085500 1.994270 
# 
# From -- ./inp_files/560195.got.cif
#   From: 2010.05.17/outbox.cif.g08.bks.cpg/sg2_281_cif.got.tgz:560195.got - 2010.06.03 11:33:40.
