data_PCOD9052606
_publ_section_title
;
Structure prediction by ZEFSAII (Michael W. Deem and Ramdas Pophale) SiO2 
 PCOD9052606
Probable space group: P -1
;
_chemical_formula_sum "Si O2"
_cell_formula_units_Z 13
_cell_length_a 8.408157
_cell_length_b 11.451586
_cell_length_c 8.754337
_cell_angle_alpha 55.258443
_cell_angle_beta 132.511671
_cell_angle_gamma 112.922794
_cell_volume 510.572802
_symmetry_space_group_name_H-M "P -1"
_symmetry_group_IT_number 2
_symmetry_cell_setting 'triclinic'
loop_
_space_group_symop_operation_xyz
x,y,z
-x,-y,-z
loop_
_atom_site_type_symbol
_atom_site_label
_atom_site_fract_x
_atom_site_fract_y
_atom_site_fract_z
Si Si1 0.500000 0.000000 0.500000
Si Si2 0.394950 0.692796 0.090180
Si Si3 0.237025 0.996208 0.723782
Si Si4 0.520992 0.232645 0.589525
Si Si5 0.868447 0.645538 0.298301
Si Si6 0.672577 0.559446 0.942395
Si Si7 0.033568 0.947601 0.229811
O O1 0.594819 0.115727 0.600955
O O2 0.747384 0.986765 0.607077
O O3 0.348597 0.692284 0.242466
O O4 0.641686 0.647641 0.242319
O O5 0.243375 0.582203 0.980685
O O6 0.358645 0.849706 0.879432
O O7 0.357498 0.140437 0.655236
O O8 0.000000 0.000000 0.500000
O O9 0.180799 0.995865 0.866316
O O10 0.425067 0.350612 0.326348
O O11 0.000000 0.500000 0.500000
O O12 0.010224 0.777063 0.350486
O O13 0.814919 0.658956 0.071793
O O14 0.500000 0.500000 0.000000
O O15 0.000000 0.000000 0.000000
#
# Coordination Sequence:
#
# PCOD9052606 Si02
#       7
#     1   2   2   2   2   2   2
#     4  12  28  42  84 110 154 198 272 324 412 454
#     4  11  26  49  79 112 162 207 264 330 396 475
#     4  12  27  48  77 114 155 207 265 330 398 474
#     4  12  25  48  79 112 157 213 260 330 400 470
#     4  11  27  49  77 114 159 210 267 326 398 479
#     4  10  26  47  74 112 156 209 264 322 394 474
#     4  12  27  49  77 115 155 206 269 331 406 479
#
# _framework density 25.461599
#
# number of rings (size 3 to 8) (size 9 to 14) (size 15 to 20)
#    0.000    0.615    3.077    2.769   12.923    0.000 
#    2.769    1.538    0.000    0.000    0.000    0.000 
#    0.000    0.000    0.000    0.000    0.000    0.000 
#
# Total GULP energy -72420.521460 kJ/mol
# GULP energy per Si atom -5570.809343 kJ/mol
# Density = 2.540365 g / cm^3
# Si number density = 25.461599 Si / 1000 Ang^3
#
#
#
# Elastic Constant Matrix: (Units=GPa)
#
#
# Indices 1 2 3 4 5 6 
#
# 1 94.1956 16.1388 13.2201 -10.7058 1.5605 -8.1548
# 2 16.1388 116.6781 19.6836 1.7270 10.7906 -28.8497
# 3 13.2201 19.6836 113.3349 -19.4192 -3.0552 -6.8079
# 4 -10.7058 1.7270 -19.4192 48.6378 -7.0438 -3.4428
# 5 1.5605 10.7906 -3.0552 -7.0438 46.1851 12.7727
# 6 -8.1548 -28.8497 -6.8079 -3.4428 12.7727 51.2902
#
#
#
# Elastic Compliance Matrix: (Units=1/GPa)
#
#
# Indices 1 2 3 4 5 6 
#
# 1 0.011282 -0.001166 -0.000642 0.002336 -0.000139 0.001244
# 2 -0.001166 0.011245 -0.001799 -0.001586 -0.004888 0.007011
# 3 -0.000642 -0.001799 0.009973 0.004158 0.001719 0.000061
# 4 0.002336 -0.001586 0.004158 0.023409 0.003967 0.000615
# 5 -0.000139 -0.004888 0.001719 0.003967 0.025933 -0.008735
# 6 0.001244 0.007011 0.000061 0.000615 -0.008735 0.025863
#
#
# Mechanical properties :
#
#
# Convention : Reuss Voigt Hill
#
# Bulk Modulus (GPa) = 39.55060 46.92152 43.23606
# Shear Modulus (GPa) = 40.53596 47.56702 44.05149
#
# Velocity S-wave (km/s) = 3.99437 4.32694 4.16398
# Velocity P-wave (km/s) = 6.06964 6.59026 6.33530
#
# Compressibility (1/GPa) = 0.02528407
#
# Stress axis : x y z
#
# Youngs Moduli (GPa) = 88.63937 88.93211 100.26906
#
# Poissons Ratio (x) = 0.10372 0.06439
# Poissons Ratio (y) = 0.10338 0.18040
# Poissons Ratio (z) = 0.05692 0.16001
#
# Static dielectric constant tensor:
#      x y z
#    x 2.126120 0.033650 -0.020370 
#    y 0.033650 1.923140 -0.029000 
#    z -0.020370 -0.029000 2.025490 
# 
# From -- ./inp_files/174638.got.cif
#   From: 2010.05.17/outbox.cif.g08.bks.cpg/sg2_88_cif.got.tgz:174638.got - 2010.06.03 11:33:40.
