data_PCOD9052758
_publ_section_title
;
Structure prediction by ZEFSAII (Michael W. Deem and Ramdas Pophale) SiO2 
 PCOD9052758
Probable space group: P -1
;
_chemical_formula_sum "Si O2"
_cell_formula_units_Z 14
_cell_length_a 5.030943
_cell_length_b 18.066108
_cell_length_c 15.573467
_cell_angle_alpha 30.823049
_cell_angle_beta 123.979887
_cell_angle_gamma 115.313754
_cell_volume 596.828501
_symmetry_space_group_name_H-M "P -1"
_symmetry_group_IT_number 2
_symmetry_cell_setting 'triclinic'
loop_
_space_group_symop_operation_xyz
x,y,z
-x,-y,-z
loop_
_atom_site_type_symbol
_atom_site_label
_atom_site_fract_x
_atom_site_fract_y
_atom_site_fract_z
Si Si1 0.661108 0.335290 0.204509
Si Si2 0.371521 0.506163 0.372427
Si Si3 0.111040 0.678520 0.461962
Si Si4 0.498209 0.922909 0.668403
Si Si5 0.632883 0.793761 0.550812
Si Si6 0.763968 0.881385 0.056748
Si Si7 0.076162 0.834228 0.978597
O O1 0.616437 0.233617 0.214404
O O2 0.487426 0.272091 0.317227
O O3 0.500000 0.500000 0.000000
O O4 0.956059 0.693754 0.681521
O O5 0.500000 0.500000 0.500000
O O6 0.657074 0.444804 0.422638
O O7 0.096478 0.398586 0.430328
O O8 0.231081 0.668161 0.159683
O O9 0.342219 0.786110 0.438823
O O10 0.872774 0.757952 0.269199
O O11 0.854106 0.894191 0.800895
O O12 0.500000 0.000000 0.500000
O O13 0.308112 0.040727 0.581295
O O14 0.854948 0.833919 0.023564
O O15 0.618650 0.075518 0.045215
O O16 0.000000 0.000000 0.000000
#
# Coordination Sequence:
#
# PCOD9052758 Si02
#       7
#     2   2   2   2   2   2   2
#     4  11  25  47  71 105 136 180 240 300 351 418
#     4  12  23  44  68 101 145 187 231 291 358 421
#     4  12  24  42  70 101 146 182 232 290 355 429
#     4  10  26  49  74 101 144 189 241 298 354 421
#     4  11  25  45  71 101 139 187 232 289 364 415
#     4  12  25  43  67 103 141 183 232 289 345 436
#     4  12  26  43  70 102 139 186 238 286 359 419
#
# _framework density 23.457325000000001
#
# number of rings (size 3 to 8) (size 9 to 14) (size 15 to 20)
#    0.000    0.571    2.857    4.286    4.000    8.000 
#    0.000    0.000    0.000    0.000    0.000    0.000 
#    0.000    0.000    0.000    0.000    0.000    0.000 
#
# Total GULP energy -78421.479199 kJ/mol
# GULP energy per Si atom -5601.534228 kJ/mol
# Density = 2.340393 g / cm^3
# Si number density = 23.457325 Si / 1000 Ang^3
#
#
#
# Elastic Constant Matrix: (Units=GPa)
#
#
# Indices 1 2 3 4 5 6 
#
# 1 119.8845 17.6842 31.4829 16.1636 7.1647 10.5551
# 2 17.6842 110.5014 44.2818 16.8701 11.6507 9.0813
# 3 31.4829 44.2818 120.7776 13.3944 20.0605 3.4856
# 4 16.1636 16.8701 13.3944 22.7940 5.8391 3.3949
# 5 7.1647 11.6507 20.0605 5.8391 36.1472 -1.1620
# 6 10.5551 9.0813 3.4856 3.3949 -1.1620 35.7183
#
#
#
# Elastic Compliance Matrix: (Units=1/GPa)
#
#
# Indices 1 2 3 4 5 6 
#
# 1 0.009773 0.000267 -0.001939 -0.005628 -0.000110 -0.002236
# 2 0.000267 0.011599 -0.003412 -0.006203 -0.000964 -0.002137
# 3 -0.001939 -0.003412 0.010904 -0.001457 -0.004320 0.000374
# 4 -0.005628 -0.006203 -0.001457 0.054890 -0.005008 -0.001998
# 5 -0.000110 -0.000964 -0.004320 -0.005008 0.031274 0.002193
# 6 -0.002236 -0.002137 0.000374 -0.001998 0.002193 0.029425
#
#
# Mechanical properties :
#
#
# Convention : Reuss Voigt Hill
#
# Bulk Modulus (GPa) = 45.23061 59.78458 52.50759
# Shear Modulus (GPa) = 30.22925 36.11285 33.17105
#
# Velocity S-wave (km/s) = 3.59373 3.92792 3.76453
# Velocity P-wave (km/s) = 6.04515 6.79067 6.42873
#
# Compressibility (1/GPa) = 0.02210892
#
# Stress axis : x y z
#
# Youngs Moduli (GPa) = 102.32031 86.21665 91.70569
#
# Poissons Ratio (x) = -0.02305 0.17778
# Poissons Ratio (y) = -0.02736 0.31294
# Poissons Ratio (z) = 0.19836 0.29421
#
# Static dielectric constant tensor:
#      x y z
#    x 1.869140 0.046640 -0.013690 
#    y 0.046640 1.946640 -0.039350 
#    z -0.013690 -0.039350 1.835090 
# 
# From -- ./inp_files/485169.got.cif
#   From: 2010.05.17/outbox.cif.g08.bks.cpg/sg2_243_cif.got.tgz:485169.got - 2010.06.03 11:33:40.
