data_PCOD9052363
_publ_section_title
;
Structure prediction by ZEFSAII (Michael W. Deem and Ramdas Pophale) SiO2 
 PCOD9052363
Probable space group: P -1
;
_chemical_formula_sum "Si O2"
_cell_formula_units_Z 16
_cell_length_a 15.511787
_cell_length_b 14.792761
_cell_length_c 6.421727
_cell_angle_alpha 86.074413
_cell_angle_beta 75.827056
_cell_angle_gamma 145.293889
_cell_volume 709.722331
_symmetry_space_group_name_H-M "P -1"
_symmetry_group_IT_number 2
_symmetry_cell_setting 'triclinic'
loop_
_space_group_symop_operation_xyz
x,y,z
-x,-y,-z
loop_
_atom_site_type_symbol
_atom_site_label
_atom_site_fract_x
_atom_site_fract_y
_atom_site_fract_z
Si Si1 0.163058 0.982963 0.996552
Si Si2 0.132829 0.476292 0.419034
Si Si3 0.751471 0.140699 0.908374
Si Si4 0.603164 0.184605 0.100256
Si Si5 0.104988 0.171056 0.520543
Si Si6 0.633169 0.701610 0.367352
Si Si7 0.627867 0.373282 0.363803
Si Si8 0.895191 0.705823 0.847386
O O1 0.289095 0.183160 0.905181
O O2 0.247795 0.959340 0.979799
O O3 0.060725 0.892549 0.848921
O O4 0.020902 0.869103 0.282085
O O5 0.256960 0.655799 0.186015
O O6 0.275058 0.559004 0.484628
O O7 0.060271 0.341952 0.310686
O O8 0.951995 0.341654 0.675023
O O9 0.596338 0.002117 0.845608
O O10 0.683248 0.156595 0.107902
O O11 0.600842 0.255535 0.275461
O O12 0.207469 0.206953 0.627326
O O13 0.197910 0.307596 0.256831
O O14 0.000000 0.000000 0.500000
O O15 0.500000 0.500000 0.500000
O O16 0.544796 0.715067 0.509021
O O17 0.762580 0.553027 0.123009
#
# Coordination Sequence:
#
# PCOD9052363 Si02
#       8
#     2   2   2   2   2   2   2   2
#     4  12  25  46  71 100 138 182 239 287 345 434
#     4  11  22  46  72 103 144 188 232 289 354 422
#     4  11  23  47  75 100 145 189 234 292 357 424
#     4  10  26  45  69 112 142 181 241 292 353 426
#     4  12  26  43  69  99 130 183 238 278 344 421
#     4  12  27  44  69 100 141 182 226 299 354 405
#     4  11  25  46  69 105 146 179 235 296 350 418
#     4  11  22  44  71  98 136 182 236 284 342 423
#
# _framework density 22.544028999999998
#
# number of rings (size 3 to 8) (size 9 to 14) (size 15 to 20)
#    0.000    0.750    3.750    3.000    5.250    2.000 
#    2.250    1.875    0.000    0.000    0.000    0.000 
#    0.000    0.000    0.000    0.000    0.000    0.000 
#
# Total GULP energy -89243.878867 kJ/mol
# GULP energy per Si atom -5577.742429 kJ/mol
# Density = 2.249272 g / cm^3
# Si number density = 22.544029 Si / 1000 Ang^3
#
#
#
# Elastic Constant Matrix: (Units=GPa)
#
#
# Indices 1 2 3 4 5 6 
#
# 1 114.0261 -6.3684 19.9372 -12.1520 4.1694 -20.6863
# 2 -6.3684 31.7530 1.0437 -27.4691 -0.0812 -37.2571
# 3 19.9372 1.0437 43.0364 -4.1724 9.6350 -6.2215
# 4 -12.1520 -27.4691 -4.1724 14.0866 1.2507 -19.7554
# 5 4.1694 -0.0812 9.6350 1.2507 26.7520 0.2479
# 6 -20.6863 -37.2571 -6.2215 -19.7554 0.2479 8.8885
#
#
#
# Elastic Compliance Matrix: (Units=1/GPa)
#
#
# Indices 1 2 3 4 5 6 
#
# 1 0.008706 -0.003054 -0.004645 -0.002844 0.000459 -0.002126
# 2 -0.003054 0.005206 -0.002210 -0.011845 0.001964 -0.013215
# 3 -0.004645 -0.002210 0.027450 0.000102 -0.009171 -0.000376
# 4 -0.002844 -0.011845 0.000102 0.015739 -0.000169 -0.021210
# 5 0.000459 0.001964 -0.009171 -0.000169 0.040613 0.001374
# 6 -0.002126 -0.013215 -0.000376 -0.021210 0.001374 0.004725
#
#
# Mechanical properties :
#
#
# Convention : Reuss Voigt Hill
#
# Bulk Modulus (GPa) = 46.41629 24.22672 35.32151
# Shear Modulus (GPa) = 38.62843 21.55894 30.09369
#
# Velocity S-wave (km/s) = 4.14389 3.09577 3.65757
# Velocity P-wave (km/s) = 6.59770 4.85264 5.79128
#
# Compressibility (1/GPa) = 0.02154416
#
# Stress axis : x y z
#
# Youngs Moduli (GPa) = 114.86370 192.08760 36.42953
#
# Poissons Ratio (x) = 0.58672 0.16921
# Poissons Ratio (y) = 0.35084 0.08050
# Poissons Ratio (z) = 0.53354 0.42445
#
# Static dielectric constant tensor:
#      x y z
#    x 1.797300 -0.008460 -0.051190 
#    y -0.008460 1.903570 -0.067000 
#    z -0.051190 -0.067000 1.891420 
# 
# From -- ./inp_files/98051.got.cif
#   From: 2010.05.17/outbox.cif.g08.bks.cpg/sg2_50_cif.got.tgz:98051.got - 2010.06.03 11:33:40.
