data_PCOD9052228
_publ_section_title
;
Structure prediction by ZEFSAII (Michael W. Deem and Ramdas Pophale) SiO2 
 PCOD9052228
Probable space group: P -1
;
_chemical_formula_sum "Si O2"
_cell_formula_units_Z 16
_cell_length_a 14.435695
_cell_length_b 11.293959
_cell_length_c 9.070979
_cell_angle_alpha 100.214370
_cell_angle_beta 59.701852
_cell_angle_gamma 138.570519
_cell_volume 790.943367
_symmetry_space_group_name_H-M "P -1"
_symmetry_group_IT_number 2
_symmetry_cell_setting 'triclinic'
loop_
_space_group_symop_operation_xyz
x,y,z
-x,-y,-z
loop_
_atom_site_type_symbol
_atom_site_label
_atom_site_fract_x
_atom_site_fract_y
_atom_site_fract_z
Si Si1 0.746306 0.746477 0.508936
Si Si2 0.193381 0.468492 0.072265
Si Si3 0.960967 0.469516 0.196625
Si Si4 0.413301 0.593697 0.647368
Si Si5 0.090113 0.698272 0.405618
Si Si6 0.574667 0.189430 0.534235
Si Si7 0.595722 0.153503 0.828371
Si Si8 0.923367 0.801716 0.665387
O O1 0.575820 0.678860 0.620226
O O2 0.698738 0.600082 0.398669
O O3 0.792365 0.736388 0.632726
O O4 0.919122 0.970914 0.382843
O O5 0.301896 0.650233 0.131017
O O6 0.168282 0.319164 0.137959
O O7 0.012197 0.378938 0.183469
O O8 0.289371 0.544091 0.857103
O O9 0.777172 0.353018 0.373139
O O10 0.085122 0.669884 0.227580
O O11 0.000000 0.500000 0.000000
O O12 0.481019 0.747720 0.507070
O O13 0.282509 0.846446 0.333702
O O14 0.000000 0.500000 0.500000
O O15 0.003217 0.746716 0.525335
O O16 0.523609 0.152298 0.738871
O O17 0.500000 0.000000 0.500000
O O18 0.500000 0.000000 0.000000
#
# Coordination Sequence:
#
# PCOD9052228 Si02
#       8
#     2   2   2   2   2   2   2   2
#     4  10  26  44  64  87 123 178 222 256 316 365
#     4  11  22  38  69  90 125 163 211 269 309 383
#     4  11  21  37  58 101 129 161 197 247 336 387
#     4  11  24  44  64  93 130 167 211 273 314 369
#     4  11  20  38  67  91 123 163 200 262 317 379
#     4  12  24  38  65  95 136 164 196 262 328 381
#     4  11  23  38  58 102 132 162 201 245 333 394
#     4  11  22  44  68  90 122 175 219 260 312 381
#
# _framework density 20.229008
#
# number of rings (size 3 to 8) (size 9 to 14) (size 15 to 20)
#    0.000    1.000    5.000    2.250    7.000    1.000 
#    0.000    0.000    0.000    0.000    0.000    0.000 
#    0.000    0.000    0.000    0.000    0.000    0.000 
#
# Total GULP energy -89195.195469 kJ/mol
# GULP energy per Si atom -5574.699717 kJ/mol
# Density = 2.018297 g / cm^3
# Si number density = 20.229008 Si / 1000 Ang^3
#
#
#
# Elastic Constant Matrix: (Units=GPa)
#
#
# Indices 1 2 3 4 5 6 
#
# 1 119.8923 28.2879 24.6220 -6.6896 18.1437 -2.3777
# 2 28.2879 83.4943 3.5264 1.1943 15.2828 -3.4672
# 3 24.6220 3.5264 75.1504 1.6637 27.0815 -6.6806
# 4 -6.6896 1.1943 1.6637 30.3159 -3.9940 5.2044
# 5 18.1437 15.2828 27.0815 -3.9940 40.2610 -3.9654
# 6 -2.3777 -3.4672 -6.6806 5.2044 -3.9654 26.6262
#
#
#
# Elastic Compliance Matrix: (Units=1/GPa)
#
#
# Indices 1 2 3 4 5 6 
#
# 1 0.009956 -0.003093 -0.002788 0.002455 -0.001281 -0.000884
# 2 -0.003093 0.014087 0.002664 -0.002465 -0.005808 0.001843
# 3 -0.002788 0.002664 0.019068 -0.004081 -0.012611 0.003802
# 4 0.002455 -0.002465 -0.004081 0.035818 0.005407 -0.007321
# 5 -0.001281 -0.005808 -0.012611 0.005407 0.036676 0.000370
# 6 -0.000884 0.001843 0.003802 -0.007321 0.000370 0.040158
#
#
# Mechanical properties :
#
#
# Convention : Reuss Voigt Hill
#
# Bulk Modulus (GPa) = 27.26485 43.48995 35.37740
# Shear Modulus (GPa) = 28.66579 34.24732 31.45655
#
# Velocity S-wave (km/s) = 3.76847 4.11905 3.94765
# Velocity P-wave (km/s) = 5.69584 6.64587 6.18911
#
# Compressibility (1/GPa) = 0.03667726
#
# Stress axis : x y z
#
# Youngs Moduli (GPa) = 100.43722 70.98636 52.44363
#
# Poissons Ratio (x) = 0.21955 0.14623
# Poissons Ratio (y) = 0.31064 -0.13970
# Poissons Ratio (z) = 0.28005 -0.18910
#
# Static dielectric constant tensor:
#      x y z
#    x 1.991800 0.297250 -0.393170 
#    y 0.297250 2.102440 -0.609640 
#    z -0.393170 -0.609640 2.706650 
# 
# From -- ./inp_files/305367.got.cif
#   From: 2010.05.17/outbox.cif.g08.bks.cpg/sg2_153_cif.got.tgz:305367.got - 2010.06.03 11:33:40.
