data_PCOD9052075
_publ_section_title
;
Structure prediction by ZEFSAII (Michael W. Deem and Ramdas Pophale) SiO2 
 PCOD9052075
Probable space group: P -1
;
_chemical_formula_sum "Si O2"
_cell_formula_units_Z 16
_cell_length_a 5.061949
_cell_length_b 17.602409
_cell_length_c 23.019444
_cell_angle_alpha 20.711131
_cell_angle_beta 96.070287
_cell_angle_gamma 104.999534
_cell_volume 642.444274
_symmetry_space_group_name_H-M "P -1"
_symmetry_group_IT_number 2
_symmetry_cell_setting 'triclinic'
loop_
_space_group_symop_operation_xyz
x,y,z
-x,-y,-z
loop_
_atom_site_type_symbol
_atom_site_label
_atom_site_fract_x
_atom_site_fract_y
_atom_site_fract_z
Si Si1 0.643837 0.484156 0.338440
Si Si2 0.687020 0.608632 0.485203
Si Si3 0.192259 0.629990 0.968308
Si Si4 0.222099 0.838270 0.150555
Si Si5 0.358996 0.977166 0.381073
Si Si6 0.026700 0.167354 0.078645
Si Si7 0.518390 0.253091 0.945269
Si Si8 0.025378 0.888358 0.640585
O O1 0.498655 0.379542 0.471787
O O2 0.731527 0.293414 0.447336
O O3 0.438981 0.545500 0.245650
O O4 0.921031 0.740528 0.176703
O O5 0.500000 0.500000 0.500000
O O6 0.788105 0.411299 0.649406
O O7 0.924052 0.882433 0.284029
O O8 0.026743 0.736774 0.929751
O O9 0.497250 0.842569 0.799103
O O10 0.184806 0.396680 0.165010
O O11 0.000000 0.500000 0.000000
O O12 0.500000 0.000000 0.000000
O O13 0.278698 0.000715 0.092221
O O14 0.098743 0.013106 0.379964
O O15 0.635301 0.052050 0.379062
O O16 0.806022 0.221505 0.992046
O O17 0.351902 0.289529 0.970885
O O18 0.000000 0.000000 0.500000
#
# Coordination Sequence:
#
# PCOD9052075 Si02
#       8
#     2   2   2   2   2   2   2   2
#     4  12  28  45  76 105 154 199 253 310 374 453
#     4  12  26  46  74 107 147 195 252 309 371 444
#     4  10  25  50  76 107 153 198 243 307 380 451
#     4  12  26  47  75 105 153 204 252 306 382 445
#     4  11  26  47  74 110 146 197 244 303 381 442
#     4  12  28  48  75 113 148 194 254 312 369 450
#     4  12  28  47  73 107 151 197 249 311 378 435
#     4  11  26  46  77 109 150 190 247 305 372 446
#
# _framework density 24.904882000000001
#
# number of rings (size 3 to 8) (size 9 to 14) (size 15 to 20)
#    0.000    0.500    3.750    2.625    7.000    5.000 
#    0.000    0.000    0.000    0.000    0.000    0.000 
#    0.000    0.000    0.000    0.000    0.000    0.000 
#
# Total GULP energy -89707.367959 kJ/mol
# GULP energy per Si atom -5606.710497 kJ/mol
# Density = 2.484820 g / cm^3
# Si number density = 24.904882 Si / 1000 Ang^3
#
#
#
# Elastic Constant Matrix: (Units=GPa)
#
#
# Indices 1 2 3 4 5 6 
#
# 1 65.7270 10.7966 26.6174 5.8960 4.6308 2.9092
# 2 10.7966 125.0598 54.0973 -4.0191 -2.1253 -9.4803
# 3 26.6174 54.0973 138.3342 5.7788 12.8370 3.2516
# 4 5.8960 -4.0191 5.7788 55.8287 -3.7945 1.5467
# 5 4.6308 -2.1253 12.8370 -3.7945 39.1021 -1.4042
# 6 2.9092 -9.4803 3.2516 1.5467 -1.4042 45.7869
#
#
#
# Elastic Compliance Matrix: (Units=1/GPa)
#
#
# Indices 1 2 3 4 5 6 
#
# 1 0.016703 -0.000335 -0.002882 -0.001548 -0.001233 -0.000911
# 2 -0.000335 0.010105 -0.004200 0.001278 0.002179 0.002435
# 3 -0.002882 -0.004200 0.009814 -0.001196 -0.003277 -0.001443
# 4 -0.001548 0.001278 -0.001196 0.018459 0.002433 -0.000101
# 5 -0.001233 0.002179 -0.003277 0.002433 0.027205 0.001514
# 6 -0.000911 0.002435 -0.001443 -0.000101 0.001514 0.022555
#
#
# Mechanical properties :
#
#
# Convention : Reuss Voigt Hill
#
# Bulk Modulus (GPa) = 45.89927 56.90484 51.40205
# Shear Modulus (GPa) = 39.38958 43.98421 41.68689
#
# Velocity S-wave (km/s) = 3.98125 4.20704 4.09570
# Velocity P-wave (km/s) = 6.29314 6.81890 6.56129
#
# Compressibility (1/GPa) = 0.02178684
#
# Stress axis : x y z
#
# Youngs Moduli (GPa) = 59.87011 98.96496 101.89643
#
# Poissons Ratio (x) = 0.03315 0.29370
# Poissons Ratio (y) = 0.02005 0.42796
# Poissons Ratio (z) = 0.17257 0.41565
#
# Static dielectric constant tensor:
#      x y z
#    x 2.012840 0.011640 0.052490 
#    y 0.011640 2.009780 0.007810 
#    z 0.052490 0.007810 2.000100 
# 
# From -- ./inp_files/135264.got.cif
#   From: 2010.05.17/outbox.cif.g08.bks.cpg/sg2_68_cif.got.tgz:135264.got - 2010.06.03 11:33:40.
