data_PCOD9052614
_publ_section_title
;
Structure prediction by ZEFSAII (Michael W. Deem and Ramdas Pophale) SiO2 
 PCOD9052614
Probable space group: P -1
;
_chemical_formula_sum "Si O2"
_cell_formula_units_Z 16
_cell_length_a 13.714796
_cell_length_b 7.044065
_cell_length_c 9.466835
_cell_angle_alpha 130.057370
_cell_angle_beta 101.409090
_cell_angle_gamma 97.546909
_cell_volume 644.119689
_symmetry_space_group_name_H-M "P -1"
_symmetry_group_IT_number 2
_symmetry_cell_setting 'triclinic'
loop_
_space_group_symop_operation_xyz
x,y,z
-x,-y,-z
loop_
_atom_site_type_symbol
_atom_site_label
_atom_site_fract_x
_atom_site_fract_y
_atom_site_fract_z
Si Si1 0.209237 0.974847 0.791498
Si Si2 0.021008 0.043285 0.887107
Si Si3 0.711100 0.823193 0.383939
Si Si4 0.883950 0.612416 0.426261
Si Si5 0.478674 0.699698 0.293054
Si Si6 0.703672 0.181429 0.818685
Si Si7 0.419383 0.134570 0.103624
Si Si8 0.949882 0.451672 0.092338
O O1 0.140613 0.672017 0.649599
O O2 0.145078 0.125744 0.930965
O O3 0.219912 0.036960 0.661061
O O4 0.323150 0.044429 0.923937
O O5 0.007716 0.312166 0.915430
O O6 0.021937 0.812392 0.927236
O O7 0.940248 0.825522 0.661539
O O8 0.768485 0.626252 0.360734
O O9 0.587166 0.714664 0.253320
O O10 0.716774 0.026454 0.608888
O O11 0.956787 0.638169 0.321069
O O12 0.366934 0.638082 0.151414
O O13 0.463864 0.453781 0.275447
O O14 0.500000 0.000000 0.500000
O O15 0.631052 0.981742 0.817200
O O16 0.822132 0.322375 0.974611
O O17 0.500000 0.000000 0.000000
#
# Coordination Sequence:
#
# PCOD9052614 Si02
#       8
#     2   2   2   2   2   2   2   2
#     4  12  27  45  75 112 147 202 256 318 393 466
#     4  12  26  49  72 108 150 199 259 317 385 471
#     4  11  26  46  72 111 149 194 257 317 386 468
#     4  12  26  49  76 108 159 198 262 317 396 469
#     4  10  26  47  75 112 153 201 262 319 396 472
#     4  11  25  50  74 113 155 205 258 319 397 467
#     4  12  26  48  82 111 156 205 262 333 396 467
#     4  12  27  46  76 112 154 204 252 324 390 465
#
# _framework density 24.840104
#
# number of rings (size 3 to 8) (size 9 to 14) (size 15 to 20)
#    0.000    0.500    3.750    2.625    5.250    6.000 
#    0.000    0.000    0.000    0.000    0.000    0.000 
#    0.000    0.000    0.000    0.000    0.000    0.000 
#
# Total GULP energy -89458.473675 kJ/mol
# GULP energy per Si atom -5591.154605 kJ/mol
# Density = 2.478357 g / cm^3
# Si number density = 24.840104 Si / 1000 Ang^3
#
#
#
# Elastic Constant Matrix: (Units=GPa)
#
#
# Indices 1 2 3 4 5 6 
#
# 1 201.7528 59.5537 55.0809 -8.1380 -1.1994 -15.5213
# 2 59.5537 136.5930 41.1522 3.4838 -9.8494 19.6788
# 3 55.0809 41.1522 103.2585 3.0412 -12.6035 -0.6773
# 4 -8.1380 3.4838 3.0412 36.8707 6.5547 -10.0566
# 5 -1.1994 -9.8494 -12.6035 6.5547 36.1476 -6.3302
# 6 -15.5213 19.6788 -0.6773 -10.0566 -6.3302 68.8191
#
#
#
# Elastic Compliance Matrix: (Units=1/GPa)
#
#
# Indices 1 2 3 4 5 6 
#
# 1 0.006832 -0.002684 -0.002839 0.002978 -0.001585 0.002570
# 2 -0.002684 0.009888 -0.002254 -0.002641 0.001652 -0.003689
# 3 -0.002839 -0.002254 0.012666 -0.002139 0.004130 0.000196
# 4 0.002978 -0.002641 -0.002139 0.030730 -0.006003 0.005344
# 5 -0.001585 0.001652 0.004130 -0.006003 0.030795 0.001166
# 6 0.002570 -0.003689 0.000196 0.005344 0.001166 0.017056
#
#
# Mechanical properties :
#
#
# Convention : Reuss Voigt Hill
#
# Bulk Modulus (GPa) = 72.29561 83.68645 77.99103
# Shear Modulus (GPa) = 39.02253 47.42198 43.22225
#
# Velocity S-wave (km/s) = 3.96782 4.37405 4.17588
# Velocity P-wave (km/s) = 7.08230 7.69889 7.39703
#
# Compressibility (1/GPa) = 0.01383210
#
# Stress axis : x y z
#
# Youngs Moduli (GPa) = 146.36161 101.13060 78.95427
#
# Poissons Ratio (x) = 0.27143 0.22417
# Poissons Ratio (y) = 0.39283 0.17795
# Poissons Ratio (z) = 0.41555 0.22793
#
# Static dielectric constant tensor:
#      x y z
#    x 1.893290 -0.105070 -0.004230 
#    y -0.105070 2.657840 0.065840 
#    z -0.004230 0.065840 1.938510 
# 
# From -- ./inp_files/442338.got.cif
#   From: 2010.05.17/outbox.cif.g08.bks.cpg/sg2_222_cif.got.tgz:442338.got - 2010.06.03 11:33:40.
