data_PCOD9052717
_publ_section_title
;
Structure prediction by ZEFSAII (Michael W. Deem and Ramdas Pophale) SiO2 
 PCOD9052717
Probable space group: P -1
;
_chemical_formula_sum "Si O2"
_cell_formula_units_Z 13
_cell_length_a 8.874355
_cell_length_b 9.386940
_cell_length_c 8.619960
_cell_angle_alpha 68.368651
_cell_angle_beta 106.288645
_cell_angle_gamma 132.740569
_cell_volume 489.751153
_symmetry_space_group_name_H-M "P -1"
_symmetry_group_IT_number 2
_symmetry_cell_setting 'triclinic'
loop_
_space_group_symop_operation_xyz
x,y,z
-x,-y,-z
loop_
_atom_site_type_symbol
_atom_site_label
_atom_site_fract_x
_atom_site_fract_y
_atom_site_fract_z
Si Si1 0.432314 0.952587 0.683504
Si Si2 0.366635 0.179204 0.824863
Si Si3 0.500000 0.500000 0.500000
Si Si4 0.173708 0.495007 0.119943
Si Si5 0.852488 0.078350 0.853960
Si Si6 0.847293 0.857623 0.652365
Si Si7 0.036035 0.503359 0.688704
O O1 0.638768 0.036214 0.796908
O O2 0.243941 0.715440 0.715977
O O3 0.500000 0.000000 0.500000
O O4 0.356558 0.042505 0.741566
O O5 0.369936 0.340487 0.670094
O O6 0.590302 0.319320 0.919756
O O7 0.192749 0.053871 0.955899
O O8 0.623695 0.689598 0.582573
O O9 0.117344 0.281823 0.192157
O O10 0.156230 0.522037 0.287557
O O11 0.000000 0.500000 0.000000
O O12 0.858476 0.995236 0.727268
O O13 0.022511 0.318809 0.813213
O O14 0.000000 0.000000 0.500000
O O15 0.000000 0.500000 0.500000
#
# Coordination Sequence:
#
# PCOD9052717 Si02
#       7
#     2   2   1   2   2   2   2
#     4  12  24  44  79 109 155 207 252 320 389 466
#     4  11  25  49  77 114 156 206 258 323 396 454
#     4  10  26  48  78 104 156 204 256 314 394 466
#     4  11  25  47  76 108 153 204 255 319 383 473
#     4  12  26  46  76 116 154 196 265 320 384 466
#     4  11  27  50  78 110 155 207 257 324 394 458
#     4  12  25  43  74 112 149 198 259 308 387 466
#
# _framework density 26.544091999999999
#
# number of rings (size 3 to 8) (size 9 to 14) (size 15 to 20)
#    0.000    0.615    3.077    3.231    4.308    6.154 
#    0.000    7.692    0.000    0.000    0.000    0.000 
#    0.000    0.000    0.000    0.000    0.000    0.000 
#
# Total GULP energy -72484.346814 kJ/mol
# GULP energy per Si atom -5575.718986 kJ/mol
# Density = 2.648368 g / cm^3
# Si number density = 26.544092 Si / 1000 Ang^3
#
#
#
# Elastic Constant Matrix: (Units=GPa)
#
#
# Indices 1 2 3 4 5 6 
#
# 1 52.2951 45.3440 11.2377 -9.1150 -27.5121 -4.0893
# 2 45.3440 252.3378 48.3108 -31.8895 -26.6172 2.4628
# 3 11.2377 48.3108 143.7654 -37.1414 -35.3791 -1.6588
# 4 -9.1150 -31.8895 -37.1414 49.4730 9.6959 3.2975
# 5 -27.5121 -26.6172 -35.3791 9.6959 66.2825 12.9715
# 6 -4.0893 2.4628 -1.6588 3.2975 12.9715 51.3339
#
#
#
# Elastic Compliance Matrix: (Units=1/GPa)
#
#
# Indices 1 2 3 4 5 6 
#
# 1 0.028424 -0.004108 0.002515 0.002304 0.011241 -0.000446
# 2 -0.004108 0.005101 -0.000995 0.001894 -0.000339 -0.000640
# 3 0.002515 -0.000995 0.010036 0.006397 0.005296 -0.001177
# 4 0.002304 0.001894 0.006397 0.026465 0.001614 -0.001808
# 5 0.011241 -0.000339 0.005296 0.001614 0.023161 -0.004873
# 6 -0.000446 -0.000640 -0.001177 -0.001808 -0.004873 0.020785
#
#
# Mechanical properties :
#
#
# Convention : Reuss Voigt Hill
#
# Bulk Modulus (GPa) = 26.05130 73.13148 49.59139
# Shear Modulus (GPa) = 37.89508 56.31825 47.10667
#
# Velocity S-wave (km/s) = 3.78250 4.61117 4.21724
# Velocity P-wave (km/s) = 5.37699 7.48073 6.51434
#
# Compressibility (1/GPa) = 0.03838580
#
# Stress axis : x y z
#
# Youngs Moduli (GPa) = 35.18109 196.02603 99.64385
#
# Poissons Ratio (x) = 0.80527 -0.25060
# Poissons Ratio (y) = 0.14452 0.09913
# Poissons Ratio (z) = -0.08848 0.19501
#
# Static dielectric constant tensor:
#      x y z
#    x 2.185030 -0.002520 0.113630 
#    y -0.002520 2.013150 0.001530 
#    z 0.113630 0.001530 2.241760 
# 
# From -- ./inp_files/157562.got.cif
#   From: 2010.05.17/outbox.cif.g08.bks.cpg/sg2_79_cif.got.tgz:157562.got - 2010.06.03 11:33:40.
