data_PCOD9052092
_publ_section_title
;
Structure prediction by ZEFSAII (Michael W. Deem and Ramdas Pophale) SiO2 
 PCOD9052092
Probable space group: P -1
;
_chemical_formula_sum "Si O2"
_cell_formula_units_Z 14
_cell_length_a 9.035897
_cell_length_b 5.690181
_cell_length_c 11.878795
_cell_angle_alpha 80.428087
_cell_angle_beta 111.010833
_cell_angle_gamma 81.845421
_cell_volume 548.582988
_symmetry_space_group_name_H-M "P -1"
_symmetry_group_IT_number 2
_symmetry_cell_setting 'triclinic'
loop_
_space_group_symop_operation_xyz
x,y,z
-x,-y,-z
loop_
_atom_site_type_symbol
_atom_site_label
_atom_site_fract_x
_atom_site_fract_y
_atom_site_fract_z
Si Si1 0.450383 0.676447 0.577194
Si Si2 0.053564 0.209949 0.422618
Si Si3 0.870403 0.202267 0.876451
Si Si4 0.312907 0.546644 0.991119
Si Si5 0.272798 0.039649 0.326503
Si Si6 0.810745 0.876247 0.142527
Si Si7 0.746945 0.630524 0.352600
O O1 0.500000 0.500000 0.500000
O O2 0.585683 0.813934 0.643653
O O3 0.396008 0.511822 0.670589
O O4 0.305609 0.864797 0.460376
O O5 0.095829 0.182944 0.304516
O O6 0.206558 0.286681 0.519251
O O7 0.902256 0.432811 0.372717
O O8 0.000000 0.000000 0.500000
O O9 0.994814 0.234099 0.807839
O O10 0.737560 0.088299 0.784012
O O11 0.770798 0.423886 0.907181
O O12 0.000000 0.000000 0.000000
O O13 0.257011 0.312827 0.941092
O O14 0.241485 0.833707 0.916897
O O15 0.500000 0.500000 0.000000
O O16 0.734567 0.847568 0.245882
#
# Coordination Sequence:
#
# PCOD9052092 Si02
#       7
#     2   2   2   2   2   2   2
#     4  11  24  46  67 109 153 201 249 313 396 477
#     4  11  22  40  69 103 147 194 251 317 377 465
#     4  10  25  50  79 114 150 205 269 327 390 466
#     4  11  26  54  78 115 157 200 268 330 397 469
#     4  11  24  45  75 103 155 202 258 319 394 462
#     4  11  26  48  82 114 156 205 262 329 397 467
#     4  11  25  41  69 111 150 195 261 318 389 466
#
# _framework density 25.520298
#
# number of rings (size 3 to 8) (size 9 to 14) (size 15 to 20)
#    0.000    1.143    2.857    1.714    8.000    1.143 
#   12.857    0.000    0.000    0.000    0.000    0.000 
#    0.000    0.000    0.000    0.000    0.000    0.000 
#
# Total GULP energy -78142.665440 kJ/mol
# GULP energy per Si atom -5581.618960 kJ/mol
# Density = 2.546221 g / cm^3
# Si number density = 25.520298 Si / 1000 Ang^3
#
#
#
# Elastic Constant Matrix: (Units=GPa)
#
#
# Indices 1 2 3 4 5 6 
#
# 1 118.2153 30.2584 28.6969 17.8856 -2.6065 5.1860
# 2 30.2584 101.7043 26.1904 7.6492 16.0977 -2.5550
# 3 28.6969 26.1904 51.3693 8.8948 3.6545 4.3432
# 4 17.8856 7.6492 8.8948 58.5868 13.3631 -5.2953
# 5 -2.6065 16.0977 3.6545 13.3631 29.9406 2.6860
# 6 5.1860 -2.5550 4.3432 -5.2953 2.6860 61.0778
#
#
#
# Elastic Compliance Matrix: (Units=1/GPa)
#
#
# Indices 1 2 3 4 5 6 
#
# 1 0.010858 -0.002593 -0.004364 -0.003456 0.004524 -0.001219
# 2 -0.002593 0.013014 -0.005086 0.001724 -0.007516 0.001606
# 3 -0.004364 -0.005086 0.024978 -0.002047 0.000382 -0.001813
# 4 -0.003456 0.001724 -0.002047 0.020865 -0.010540 0.002784
# 5 0.004524 -0.007516 0.000382 -0.010540 0.042808 -0.003522
# 6 -0.001219 0.001606 -0.001813 0.002784 -0.003522 0.017068
#
#
# Mechanical properties :
#
#
# Convention : Reuss Voigt Hill
#
# Bulk Modulus (GPa) = 40.38170 49.06448 44.72309
# Shear Modulus (GPa) = 30.87683 42.33058 36.60371
#
# Velocity S-wave (km/s) = 3.48213 4.07714 3.79132
# Velocity P-wave (km/s) = 5.65903 6.43673 6.06037
#
# Compressibility (1/GPa) = 0.02476369
#
# Stress axis : x y z
#
# Youngs Moduli (GPa) = 92.09443 76.84037 40.03459
#
# Poissons Ratio (x) = 0.19928 0.17471
# Poissons Ratio (y) = 0.23885 0.20362
# Poissons Ratio (z) = 0.40191 0.39081
#
# Static dielectric constant tensor:
#      x y z
#    x 2.266010 -0.061080 -0.171530 
#    y -0.061080 2.588650 -0.310290 
#    z -0.171530 -0.310290 2.451120 
# 
# From -- ./inp_files/488316.got.cif
#   From: 2010.05.17/outbox.cif.g08.bks.cpg/sg2_245_cif.got.tgz:488316.got - 2010.06.03 11:33:40.
