data_PCOD9052568
_publ_section_title
;
Structure prediction by ZEFSAII (Michael W. Deem and Ramdas Pophale) SiO2 
 PCOD9052568
Probable space group: P -1
;
_chemical_formula_sum "Si O2"
_cell_formula_units_Z 14
_cell_length_a 8.681262
_cell_length_b 14.673972
_cell_length_c 12.947527
_cell_angle_alpha 139.468119
_cell_angle_beta 146.006036
_cell_angle_gamma 44.281075
_cell_volume 582.354327
_symmetry_space_group_name_H-M "P -1"
_symmetry_group_IT_number 2
_symmetry_cell_setting 'triclinic'
loop_
_space_group_symop_operation_xyz
x,y,z
-x,-y,-z
loop_
_atom_site_type_symbol
_atom_site_label
_atom_site_fract_x
_atom_site_fract_y
_atom_site_fract_z
Si Si1 0.169247 0.182421 0.119253
Si Si2 0.782285 0.122729 0.340268
Si Si3 0.150390 0.153712 0.752039
Si Si4 0.298927 0.408929 0.543573
Si Si5 0.592195 0.304967 0.197571
Si Si6 0.667778 0.134759 0.894595
Si Si7 0.601068 0.345390 0.869442
O O1 0.452649 0.118739 0.161885
O O2 0.260416 0.276706 0.340826
O O3 0.980512 0.075169 0.966181
O O4 0.938779 0.294421 0.021461
O O5 0.781716 0.206086 0.304732
O O6 0.904781 0.200154 0.570575
O O7 0.931118 0.955999 0.305151
O O8 0.431456 0.071053 0.767353
O O9 0.280764 0.272849 0.983298
O O10 0.416711 0.528458 0.649183
O O11 0.492590 0.352685 0.700510
O O12 0.000000 0.500000 0.500000
O O13 0.716346 0.251395 0.107191
O O14 0.505233 0.226637 0.786337
O O15 0.500000 0.500000 0.000000
#
# Coordination Sequence:
#
# PCOD9052568 Si02
#       7
#     2   2   2   2   2   2   2
#     4  10  23  36  56  98 111 151 192 245 276 346
#     4  11  23  39  62  81 125 145 199 240 294 327
#     4   9  21  42  61  81 112 164 189 237 289 354
#     4  12  19  34  63  85 121 153 191 231 289 351
#     4  10  21  36  61  88 107 162 191 230 288 359
#     4   8  19  37  60  85 108 149 203 223 286 336
#     4  10  17  35  57  84 113 151 184 240 271 338
#
# _framework density 24.040346
#
# number of rings (size 3 to 8) (size 9 to 14) (size 15 to 20)
#    1.714    0.286    4.286    0.429    2.000    3.429 
#    0.000    1.429    0.000    2.571    0.000    0.000 
#    0.000    0.000    0.000    0.000    0.000    0.000 
#
# Total GULP energy -78004.630366 kJ/mol
# GULP energy per Si atom -5571.759312 kJ/mol
# Density = 2.398563 g / cm^3
# Si number density = 24.040346 Si / 1000 Ang^3
#
#
#
# Elastic Constant Matrix: (Units=GPa)
#
#
# Indices 1 2 3 4 5 6 
#
# 1 59.3092 32.7807 21.6160 -14.1597 -7.3971 15.0767
# 2 32.7807 73.4723 48.7185 0.2874 -20.3929 28.5116
# 3 21.6160 48.7185 129.4737 -24.6837 -15.0084 16.9772
# 4 -14.1597 0.2874 -24.6837 44.2895 9.2852 -1.6707
# 5 -7.3971 -20.3929 -15.0084 9.2852 38.7355 -11.5768
# 6 15.0767 28.5116 16.9772 -1.6707 -11.5768 46.1904
#
#
#
# Elastic Compliance Matrix: (Units=1/GPa)
#
#
# Indices 1 2 3 4 5 6 
#
# 1 0.026095 -0.014124 0.002703 0.010817 -0.004452 -0.001517
# 2 -0.014124 0.033828 -0.010248 -0.013192 0.011268 -0.010157
# 3 0.002703 -0.010248 0.012393 0.008250 -0.001838 0.000726
# 4 0.010817 -0.013192 0.008250 0.032707 -0.009401 0.000407
# 5 -0.004452 0.011268 -0.001838 -0.009401 0.033397 0.003203
# 6 -0.001517 -0.010157 0.000726 0.000407 0.003203 0.028965
#
#
# Mechanical properties :
#
#
# Convention : Reuss Voigt Hill
#
# Bulk Modulus (GPa) = 34.50834 52.05396 43.28115
# Shear Modulus (GPa) = 22.68774 36.45242 29.57008
#
# Velocity S-wave (km/s) = 3.07536 3.89820 3.51097
# Velocity P-wave (km/s) = 5.19576 6.47773 5.87184
#
# Compressibility (1/GPa) = 0.02897850
#
# Stress axis : x y z
#
# Youngs Moduli (GPa) = 38.32124 29.56102 80.69080
#
# Poissons Ratio (x) = 0.41753 -0.21812
# Poissons Ratio (y) = 0.54126 0.82691
# Poissons Ratio (z) = -0.10359 0.30294
#
# Static dielectric constant tensor:
#      x y z
#    x 1.986750 0.032930 0.050900 
#    y 0.032930 1.982120 -0.027650 
#    z 0.050900 -0.027650 1.923030 
# 
# From -- ./inp_files/504220.got.cif
#   From: 2010.05.17/outbox.cif.g08.bks.cpg/sg2_253_cif.got.tgz:504220.got - 2010.06.03 11:33:40.
