data_PCOD9052326
_publ_section_title
;
Structure prediction by ZEFSAII (Michael W. Deem and Ramdas Pophale) SiO2 
 PCOD9052326
Probable space group: P -1
;
_chemical_formula_sum "Si O2"
_cell_formula_units_Z 16
_cell_length_a 15.159415
_cell_length_b 9.639579
_cell_length_c 9.741186
_cell_angle_alpha 148.903652
_cell_angle_beta 88.040381
_cell_angle_gamma 83.477116
_cell_volume 706.058156
_symmetry_space_group_name_H-M "P -1"
_symmetry_group_IT_number 2
_symmetry_cell_setting 'triclinic'
loop_
_space_group_symop_operation_xyz
x,y,z
-x,-y,-z
loop_
_atom_site_type_symbol
_atom_site_label
_atom_site_fract_x
_atom_site_fract_y
_atom_site_fract_z
Si Si1 0.227756 0.295721 0.210058
Si Si2 0.558014 0.852433 0.002640
Si Si3 0.953394 0.130473 0.754553
Si Si4 0.529443 0.278009 0.619048
Si Si5 0.145124 0.945311 0.712298
Si Si6 0.647933 0.408429 0.956223
Si Si7 0.219318 0.084802 0.332778
Si Si8 0.200295 0.328434 0.825128
O O1 0.175165 0.612536 0.440122
O O2 0.219546 0.243733 0.327413
O O3 0.334503 0.223674 0.104027
O O4 0.182890 0.082427 0.953690
O O5 0.539835 0.045848 0.304489
O O6 0.531820 0.567483 0.792194
O O7 0.500000 0.000000 0.000000
O O8 0.875592 0.993502 0.698730
O O9 0.898280 0.446184 0.987729
O O10 0.000000 0.000000 0.500000
O O11 0.036089 0.075420 0.811207
O O12 0.434694 0.350390 0.770521
O O13 0.607662 0.244789 0.703502
O O14 0.189652 0.057884 0.673979
O O15 0.725052 0.538847 0.999114
O O16 0.697998 0.196294 0.892546
O O17 0.231212 0.267968 0.616660
#
# Coordination Sequence:
#
# PCOD9052326 Si02
#       8
#     2   2   2   2   2   2   2   2
#     4  12  30  47  73 110 154 194 245 302 381 435
#     4  12  27  47  73 102 154 199 246 293 379 449
#     4  11  24  47  76 111 143 192 252 303 369 438
#     4  11  26  46  74 111 141 197 253 311 363 439
#     4  12  27  48  76 108 148 195 247 306 363 451
#     4  10  26  44  75 109 149 188 257 318 366 429
#     4  11  27  46  74 107 150 196 243 308 373 439
#     4  11  25  45  80 103 149 197 249 305 371 442
#
# _framework density 22.661024000000001
#
# number of rings (size 3 to 8) (size 9 to 14) (size 15 to 20)
#    0.000    0.750    1.250    3.750   15.750    2.000 
#    0.000    0.000    0.000    0.000    0.000    0.000 
#    0.000    0.000    0.000    0.000    0.000    0.000 
#
# Total GULP energy -89677.784134 kJ/mol
# GULP energy per Si atom -5604.861508 kJ/mol
# Density = 2.260945 g / cm^3
# Si number density = 22.661024 Si / 1000 Ang^3
#
#
#
# Elastic Constant Matrix: (Units=GPa)
#
#
# Indices 1 2 3 4 5 6 
#
# 1 127.2313 32.9376 16.5864 2.9088 -12.7362 -22.5942
# 2 32.9376 121.5639 17.1240 -10.9662 -17.0727 2.6447
# 3 16.5864 17.1240 89.5980 -11.0596 -13.2218 7.6650
# 4 2.9088 -10.9662 -11.0596 37.2600 -3.0374 4.5199
# 5 -12.7362 -17.0727 -13.2218 -3.0374 30.5938 2.1260
# 6 -22.5942 2.6447 7.6650 4.5199 2.1260 28.5749
#
#
#
# Elastic Compliance Matrix: (Units=1/GPa)
#
#
# Indices 1 2 3 4 5 6 
#
# 1 0.010967 -0.003068 -0.002692 -0.003749 0.000608 0.010226
# 2 -0.003068 0.010251 0.000319 0.004336 0.005327 -0.004542
# 3 -0.002692 0.000319 0.013834 0.005787 0.006114 -0.007239
# 4 -0.003749 0.004336 0.005787 0.031993 0.007267 -0.010519
# 5 0.000608 0.005327 0.006114 0.007267 0.039676 -0.005754
# 6 0.010226 -0.004542 -0.007239 -0.010519 -0.005754 0.047535
#
#
# Mechanical properties :
#
#
# Convention : Reuss Voigt Hill
#
# Bulk Modulus (GPa) = 41.37311 52.40991 46.89151
# Shear Modulus (GPa) = 28.86928 37.40210 33.13569
#
# Velocity S-wave (km/s) = 3.57313 4.06705 3.82806
# Velocity P-wave (km/s) = 5.94307 6.72551 6.34636
#
# Compressibility (1/GPa) = 0.02417029
#
# Stress axis : x y z
#
# Youngs Moduli (GPa) = 91.18100 97.55587 72.28504
#
# Poissons Ratio (x) = 0.29927 0.19458
# Poissons Ratio (y) = 0.27971 -0.02304
# Poissons Ratio (z) = 0.24544 -0.03109
#
# Static dielectric constant tensor:
#      x y z
#    x 1.878460 -0.043760 0.008530 
#    y -0.043760 1.867510 0.014530 
#    z 0.008530 0.014530 1.848260 
# 
# From -- ./inp_files/299856.got.cif
#   From: 2010.05.17/outbox.cif.g08.bks.cpg/sg2_150_cif.got.tgz:299856.got - 2010.06.03 11:33:40.
