data_PCOD9052735
_publ_section_title
;
Structure prediction by ZEFSAII (Michael W. Deem and Ramdas Pophale) SiO2 
 PCOD9052735
Probable space group: P -1
;
_chemical_formula_sum "Si O2"
_cell_formula_units_Z 12
_cell_length_a 8.456319
_cell_length_b 11.879243
_cell_length_c 7.932308
_cell_angle_alpha 122.055248
_cell_angle_beta 54.497816
_cell_angle_gamma 123.795537
_cell_volume 513.050175
_symmetry_space_group_name_H-M "P -1"
_symmetry_group_IT_number 2
_symmetry_cell_setting 'triclinic'
loop_
_space_group_symop_operation_xyz
x,y,z
-x,-y,-z
loop_
_atom_site_type_symbol
_atom_site_label
_atom_site_fract_x
_atom_site_fract_y
_atom_site_fract_z
Si Si1 0.881635 0.606900 0.629126
Si Si2 0.575925 0.886309 0.466709
Si Si3 0.064734 0.139336 0.960760
Si Si4 0.527826 0.594762 0.384627
Si Si5 0.014928 0.358579 0.799194
Si Si6 0.723219 0.074079 0.834980
O O1 0.634064 0.520316 0.727440
O O2 0.000000 0.500000 0.500000
O O3 0.937058 0.651938 0.436196
O O4 0.956382 0.734255 0.815531
O O5 0.698523 0.831627 0.210456
O O6 0.461054 0.735986 0.522375
O O7 0.500000 0.000000 0.500000
O O8 0.722270 0.983961 0.598282
O O9 0.905427 0.090062 0.865809
O O10 0.000000 0.000000 0.000000
O O11 0.500000 0.500000 0.500000
O O12 0.776925 0.650166 0.247688
O O13 0.789611 0.238017 0.872156
O O14 0.000000 0.500000 0.000000
O O15 0.500000 0.000000 0.000000
#
# Coordination Sequence:
#
# PCOD9052735 Si02
#       6
#     2   2   2   2   2   2
#     4  11  27  48  79 114 158 197 266 328 396 471
#     4  12  28  50  79 114 157 206 267 324 404 466
#     4  12  27  48  75 113 155 208 263 327 393 476
#     4  10  26  48  81 109 156 204 264 321 399 467
#     4  11  25  49  79 112 152 209 263 319 399 470
#     4  12  28  47  77 109 158 205 262 326 395 465
#
# _framework density 23.389524999999999
#
# number of rings (size 3 to 8) (size 9 to 14) (size 15 to 20)
#    0.000    0.667    1.667    3.500   16.333    2.000 
#    0.000    0.000    0.000    0.000    0.000    0.000 
#    0.000    0.000    0.000    0.000    0.000    0.000 
#
# Total GULP energy -66899.208945 kJ/mol
# GULP energy per Si atom -5574.934079 kJ/mol
# Density = 2.333629 g / cm^3
# Si number density = 23.389525 Si / 1000 Ang^3
#
#
#
# Elastic Constant Matrix: (Units=GPa)
#
#
# Indices 1 2 3 4 5 6 
#
# 1 129.4126 39.3283 42.8422 13.7992 2.7716 -3.8778
# 2 39.3283 163.3726 43.2375 15.0545 -1.7496 5.7859
# 3 42.8422 43.2375 123.9457 23.1579 1.7382 -1.8242
# 4 13.7992 15.0545 23.1579 48.1824 9.6285 -6.4997
# 5 2.7716 -1.7496 1.7382 9.6285 39.6512 4.1798
# 6 -3.8778 5.7859 -1.8242 -6.4997 4.1798 46.5386
#
#
#
# Elastic Compliance Matrix: (Units=1/GPa)
#
#
# Indices 1 2 3 4 5 6 
#
# 1 0.009116 -0.001506 -0.002467 -0.000749 -0.000497 0.000790
# 2 -0.001506 0.007128 -0.001751 -0.001329 0.000962 -0.001352
# 3 -0.002467 -0.001751 0.010232 -0.003805 0.000589 -0.000171
# 4 -0.000749 -0.001329 -0.003805 0.025021 -0.006339 0.004018
# 5 -0.000497 0.000962 0.000589 -0.006339 0.027176 -0.003464
# 6 0.000790 -0.001352 -0.000171 0.004018 -0.003464 0.022587
#
#
# Mechanical properties :
#
#
# Convention : Reuss Voigt Hill
#
# Bulk Modulus (GPa) = 66.54659 74.17187 70.35923
# Shear Modulus (GPa) = 42.47513 46.29597 44.38555
#
# Velocity S-wave (km/s) = 4.26607 4.45381 4.36095
# Velocity P-wave (km/s) = 7.26491 7.63079 7.45010
#
# Compressibility (1/GPa) = 0.01502707
#
# Stress axis : x y z
#
# Youngs Moduli (GPa) = 109.70070 140.30145 97.73500
#
# Poissons Ratio (x) = 0.21126 0.24113
# Poissons Ratio (y) = 0.16519 0.17114
# Poissons Ratio (z) = 0.27065 0.24567
#
# Static dielectric constant tensor:
#      x y z
#    x 1.872840 -0.022620 -0.021470 
#    y -0.022620 1.901460 -0.096140 
#    z -0.021470 -0.096140 1.755490 
# 
# From -- ./inp_files/190569.got.cif
#   From: 2010.05.17/outbox.cif.g08.bks.cpg/sg2_96_cif.got.tgz:190569.got - 2010.06.03 11:33:40.
