data_PCOD9052467
_publ_section_title
;
Structure prediction by ZEFSAII (Michael W. Deem and Ramdas Pophale) SiO2 
 PCOD9052467
Probable space group: P -1
;
_chemical_formula_sum "Si O2"
_cell_formula_units_Z 13
_cell_length_a 10.596159
_cell_length_b 10.153008
_cell_length_c 11.881747
_cell_angle_alpha 97.850159
_cell_angle_beta 47.756451
_cell_angle_gamma 62.173944
_cell_volume 607.367690
_symmetry_space_group_name_H-M "P -1"
_symmetry_group_IT_number 2
_symmetry_cell_setting 'triclinic'
loop_
_space_group_symop_operation_xyz
x,y,z
-x,-y,-z
loop_
_atom_site_type_symbol
_atom_site_label
_atom_site_fract_x
_atom_site_fract_y
_atom_site_fract_z
Si Si1 0.000000 0.500000 0.500000
Si Si2 0.182315 0.561672 0.721372
Si Si3 0.702325 0.149298 0.661808
Si Si4 0.655358 0.785212 0.940783
Si Si5 0.106180 0.820142 0.991154
Si Si6 0.393746 0.918029 0.523548
Si Si7 0.331333 0.544380 0.384196
O O1 0.798348 0.616291 0.739588
O O2 0.912496 0.397465 0.504619
O O3 0.388348 0.318789 0.591445
O O4 0.291275 0.575853 0.547642
O O5 0.890281 0.689694 0.873524
O O6 0.145061 0.670232 0.868574
O O7 0.654753 0.076151 0.578778
O O8 0.624647 0.339158 0.682733
O O9 0.543888 0.187139 0.866243
O O10 0.000000 0.000000 0.500000
O O11 0.500000 0.000000 0.000000
O O12 0.398179 0.691257 0.834880
O O13 0.889637 0.928458 0.228957
O O14 0.000000 0.000000 0.000000
O O15 0.500000 0.000000 0.500000
#
# Coordination Sequence:
#
# PCOD9052467 Si02
#       7
#     1   2   2   2   2   2   2
#     4  10  26  46  72 100 142 192 246 292 378 442
#     4  11  24  48  72 106 151 189 245 305 368 445
#     4  12  27  48  73 109 153 194 248 314 371 443
#     4  11  27  48  74 103 149 194 243 306 375 444
#     4  12  24  42  77 104 144 194 244 299 371 441
#     4  12  28  46  74 112 148 194 249 304 376 443
#     4  11  24  46  72 108 146 190 249 308 367 443
#
# _framework density 21.403839000000001
#
# number of rings (size 3 to 8) (size 9 to 14) (size 15 to 20)
#    0.000    0.615    3.077    4.154    6.462    6.769 
#    0.000    0.000    0.000    0.000    0.000    0.000 
#    0.000    0.000    0.000    0.000    0.000    0.000 
#
# Total GULP energy -72396.857973 kJ/mol
# GULP energy per Si atom -5568.989075 kJ/mol
# Density = 2.135512 g / cm^3
# Si number density = 21.403839 Si / 1000 Ang^3
#
#
#
# Elastic Constant Matrix: (Units=GPa)
#
#
# Indices 1 2 3 4 5 6 
#
# 1 108.0363 32.1570 39.3581 -6.9098 0.7954 3.7166
# 2 32.1570 110.1772 51.5641 -12.0953 2.3857 -0.2539
# 3 39.3581 51.5641 171.8908 -36.7375 -1.7101 -4.2626
# 4 -6.9098 -12.0953 -36.7375 45.4235 -0.1150 -5.5614
# 5 0.7954 2.3857 -1.7101 -0.1150 51.5297 4.9292
# 6 3.7166 -0.2539 -4.2626 -5.5614 4.9292 30.4476
#
#
#
# Elastic Compliance Matrix: (Units=1/GPa)
#
#
# Indices 1 2 3 4 5 6 
#
# 1 0.010662 -0.002282 -0.001969 -0.000792 0.000041 -0.001747
# 2 -0.002282 0.011070 -0.002708 0.000429 -0.000582 0.000164
# 3 -0.001969 -0.002708 0.008453 0.006120 0.000212 0.002485
# 4 -0.000792 0.000429 0.006120 0.027701 -0.000323 0.006069
# 5 0.000041 -0.000582 0.000212 -0.000323 0.019749 -0.003236
# 6 -0.001747 0.000164 0.002485 0.006069 -0.003236 0.035038
#
#
# Mechanical properties :
#
#
# Convention : Reuss Voigt Hill
#
# Bulk Modulus (GPa) = 61.47879 70.69585 66.08732
# Shear Modulus (GPa) = 37.87499 43.28181 40.57840
#
# Velocity S-wave (km/s) = 4.21116 4.50171 4.35886
# Velocity P-wave (km/s) = 7.24091 7.75382 7.50175
#
# Compressibility (1/GPa) = 0.01626577
#
# Stress axis : x y z
#
# Youngs Moduli (GPa) = 93.79208 90.33452 118.30515
#
# Poissons Ratio (x) = 0.20617 0.23292
# Poissons Ratio (y) = 0.21406 0.32040
# Poissons Ratio (z) = 0.18466 0.24465
#
# Static dielectric constant tensor:
#      x y z
#    x 1.825770 -0.116340 -0.062060 
#    y -0.116340 2.066550 0.160250 
#    z -0.062060 0.160250 1.914580 
# 
# From -- ./inp_files/189626.got.cif
#   From: 2010.05.17/outbox.cif.g08.bks.cpg/sg2_95_cif.got.tgz:189626.got - 2010.06.03 11:33:40.
