data_PCOD9052273
_publ_section_title
;
Structure prediction by ZEFSAII (Michael W. Deem and Ramdas Pophale) SiO2 
 PCOD9052273
Probable space group: P -1
;
_chemical_formula_sum "Si O2"
_cell_formula_units_Z 15
_cell_length_a 7.930743
_cell_length_b 15.505792
_cell_length_c 8.142289
_cell_angle_alpha 98.861609
_cell_angle_beta 52.584857
_cell_angle_gamma 67.456960
_cell_volume 623.984572
_symmetry_space_group_name_H-M "P -1"
_symmetry_group_IT_number 2
_symmetry_cell_setting 'triclinic'
loop_
_space_group_symop_operation_xyz
x,y,z
-x,-y,-z
loop_
_atom_site_type_symbol
_atom_site_label
_atom_site_fract_x
_atom_site_fract_y
_atom_site_fract_z
Si Si1 0.387311 0.434003 0.504568
Si Si2 0.179367 0.228127 0.453481
Si Si3 0.500000 0.000000 0.000000
Si Si4 0.424951 0.775177 0.526399
Si Si5 0.309728 0.720382 0.037557
Si Si6 0.014351 0.094704 0.954849
Si Si7 0.409290 0.137447 0.797776
Si Si8 0.151922 0.347459 0.180188
O O1 0.500000 0.500000 0.500000
O O2 0.428719 0.354280 0.604183
O O3 0.076426 0.525520 0.677161
O O4 0.547993 0.360811 0.226985
O O5 0.403772 0.216519 0.433054
O O6 0.111498 0.310301 0.368490
O O7 0.917725 0.275677 0.731825
O O8 0.304042 0.108778 0.270000
O O9 0.523782 0.077601 0.884069
O O10 0.132025 0.824226 0.778564
O O11 0.396824 0.853871 0.425355
O O12 0.157617 0.842027 0.084730
O O13 0.552076 0.686221 0.000719
O O14 0.287139 0.079908 0.774913
O O15 0.000000 0.000000 0.000000
O O16 0.169135 0.267113 0.009532
#
# Coordination Sequence:
#
# PCOD9052273 Si02
#       8
#     2   2   1   2   2   2   2   2
#     4  11  25  47  75 104 150 190 240 306 360 430
#     4  11  23  45  71 102 146 185 242 294 358 435
#     4  10  26  44  70 104 146 188 232 302 362 406
#     4  11  24  44  72 102 139 191 244 293 359 432
#     4  11  24  43  70 107 141 189 243 292 363 430
#     4  11  23  40  69 102 139 185 239 296 355 426
#     4  11  25  44  70 103 142 186 242 297 353 437
#     4  11  24  46  68 104 151 182 237 308 356 418
#
# _framework density 24.039055000000001
#
# number of rings (size 3 to 8) (size 9 to 14) (size 15 to 20)
#    0.000    1.067    4.000    2.800    3.733    5.333 
#    0.000    3.333    0.000    0.000    0.000    0.000 
#    0.000    0.000    0.000    0.000    0.000    0.000 
#
# Total GULP energy -83590.181174 kJ/mol
# GULP energy per Si atom -5572.678745 kJ/mol
# Density = 2.398434 g / cm^3
# Si number density = 24.039055 Si / 1000 Ang^3
#
#
#
# Elastic Constant Matrix: (Units=GPa)
#
#
# Indices 1 2 3 4 5 6 
#
# 1 69.2311 -3.9521 13.8991 -2.6697 -10.0538 22.4534
# 2 -3.9521 104.8820 11.2437 -10.4829 -1.0677 11.8529
# 3 13.8991 11.2437 89.6786 -16.1177 -14.4334 13.6314
# 4 -2.6697 -10.4829 -16.1177 38.9310 11.9469 3.9021
# 5 -10.0538 -1.0677 -14.4334 11.9469 22.4242 -5.1635
# 6 22.4534 11.8529 13.6314 3.9021 -5.1635 30.7866
#
#
#
# Elastic Compliance Matrix: (Units=1/GPa)
#
#
# Indices 1 2 3 4 5 6 
#
# 1 0.020359 0.002795 -0.000022 0.002325 0.004448 -0.015463
# 2 0.002795 0.010891 -0.000317 0.004446 -0.002427 -0.007062
# 3 -0.000022 -0.000317 0.013693 0.004606 0.005030 -0.005665
# 4 0.002325 0.004446 0.004606 0.035707 -0.017788 -0.012956
# 5 0.004448 -0.002427 0.005030 -0.017788 0.061019 0.007952
# 6 -0.015463 -0.007062 -0.005665 -0.012956 0.007952 0.051962
#
#
# Mechanical properties :
#
#
# Convention : Reuss Voigt Hill
#
# Bulk Modulus (GPa) = 20.05808 34.01924 27.03866
# Shear Modulus (GPa) = 24.35013 34.60175 29.47594
#
# Velocity S-wave (km/s) = 3.18613 3.79806 3.50547
# Velocity P-wave (km/s) = 4.67945 5.78066 5.25896
#
# Compressibility (1/GPa) = 0.04985522
#
# Stress axis : x y z
#
# Youngs Moduli (GPa) = 49.11841 91.81477 73.03234
#
# Poissons Ratio (x) = -0.25659 0.00158
# Poissons Ratio (y) = -0.13727 0.02314
# Poissons Ratio (z) = 0.00106 0.02909
#
# Static dielectric constant tensor:
#      x y z
#    x 1.980550 -0.032180 0.036660 
#    y -0.032180 1.903710 0.030100 
#    z 0.036660 0.030100 1.972410 
# 
# From -- ./inp_files/201756.got.cif
#   From: 2010.05.17/outbox.cif.g08.bks.cpg/sg2_101_cif.got.tgz:201756.got - 2010.06.03 11:33:40.
