data_PCOD9052243
_publ_section_title
;
Structure prediction by ZEFSAII (Michael W. Deem and Ramdas Pophale) SiO2 
 PCOD9052243
Probable space group: P -1
;
_chemical_formula_sum "Si O2"
_cell_formula_units_Z 13
_cell_length_a 9.027683
_cell_length_b 15.071176
_cell_length_c 14.703434
_cell_angle_alpha 18.873791
_cell_angle_beta 124.521123
_cell_angle_gamma 126.183042
_cell_volume 522.076016
_symmetry_space_group_name_H-M "P -1"
_symmetry_group_IT_number 2
_symmetry_cell_setting 'triclinic'
loop_
_space_group_symop_operation_xyz
x,y,z
-x,-y,-z
loop_
_atom_site_type_symbol
_atom_site_label
_atom_site_fract_x
_atom_site_fract_y
_atom_site_fract_z
Si Si1 0.531249 0.664353 0.469798
Si Si2 0.605451 0.477076 0.966159
Si Si3 0.077097 0.004852 0.783779
Si Si4 0.577104 0.833313 0.965299
Si Si5 0.000000 0.000000 0.000000
Si Si6 0.142870 0.956389 0.513851
Si Si7 0.864337 0.461353 0.621400
O O1 0.720020 0.835881 0.328833
O O2 0.547519 0.377677 0.802276
O O3 0.357058 0.598980 0.404698
O O4 0.472214 0.866576 0.329283
O O5 0.780588 0.327745 0.179115
O O6 0.500000 0.500000 0.000000
O O7 0.468177 0.294499 0.025036
O O8 0.684700 0.791130 0.658076
O O9 0.045592 0.204301 0.666726
O O10 0.944318 0.017405 0.641399
O O11 0.077023 0.692448 0.119384
O O12 0.784509 0.840440 0.057230
O O13 0.074988 0.726082 0.252741
O O14 0.000000 0.000000 0.500000
#
# Coordination Sequence:
#
# PCOD9052243 Si02
#       7
#     2   2   2   2   1   2   2
#     4  11  23  44  66 105 132 185 218 291 353 420
#     4  12  27  48  71 108 145 195 242 306 359 429
#     4  12  24  41  73  98 140 174 237 288 345 417
#     4  11  24  43  72  93 143 177 234 277 358 417
#     4  10  26  44  66  98 132 180 224 278 342 418
#     4  12  27  48  74 108 144 194 248 298 365 425
#     4  11  24  42  66 102 138 180 227 284 353 413
#
# _framework density 24.900590000000001
#
# number of rings (size 3 to 8) (size 9 to 14) (size 15 to 20)
#    0.000    0.615    0.000    8.308    4.308    5.538 
#    0.000    0.000    0.000    0.000    0.000    0.000 
#    0.000    0.000    0.000    0.000    0.000    0.000 
#
# Total GULP energy -72689.249053 kJ/mol
# GULP energy per Si atom -5591.480696 kJ/mol
# Density = 2.484392 g / cm^3
# Si number density = 24.900590 Si / 1000 Ang^3
#
#
#
# Elastic Constant Matrix: (Units=GPa)
#
#
# Indices 1 2 3 4 5 6 
#
# 1 101.3453 -8.2780 -15.0084 -11.9355 18.7295 -9.3886
# 2 -8.2780 141.0953 9.4703 -4.8941 15.5301 -26.4970
# 3 -15.0084 9.4703 107.2873 -7.9787 4.4182 0.5436
# 4 -11.9355 -4.8941 -7.9787 42.3537 1.0920 -4.8214
# 5 18.7295 15.5301 4.4182 1.0920 39.1299 -10.1956
# 6 -9.3886 -26.4970 0.5436 -4.8214 -10.1956 28.8620
#
#
#
# Elastic Compliance Matrix: (Units=1/GPa)
#
#
# Indices 1 2 3 4 5 6 
#
# 1 0.012518 0.002340 0.002133 0.004910 -0.006029 0.004870
# 2 0.002340 0.009277 -0.000226 0.002761 -0.002549 0.008843
# 3 0.002133 -0.000226 0.009912 0.002493 -0.002130 -0.000036
# 4 0.004910 0.002761 0.002493 0.026720 -0.002473 0.007675
# 5 -0.006029 -0.002549 -0.002130 -0.002473 0.031439 0.006431
# 6 0.004870 0.008843 -0.000036 0.007675 0.006431 0.047905
#
#
# Mechanical properties :
#
#
# Convention : Reuss Voigt Hill
#
# Bulk Modulus (GPa) = 24.87476 35.78842 30.33159
# Shear Modulus (GPa) = 35.04404 46.30538 40.67471
#
# Velocity S-wave (km/s) = 3.75555 4.31700 4.04602
# Velocity P-wave (km/s) = 5.36813 6.26517 5.83392
#
# Compressibility (1/GPa) = 0.04020140
#
# Stress axis : x y z
#
# Youngs Moduli (GPa) = 79.88520 107.79519 100.88323
#
# Poissons Ratio (x) = -0.25222 -0.21522
# Poissons Ratio (y) = -0.18691 0.02280
# Poissons Ratio (z) = -0.17042 0.02437
#
# Static dielectric constant tensor:
#      x y z
#    x 2.026390 -0.043240 -0.000620 
#    y -0.043240 1.864810 -0.014670 
#    z -0.000620 -0.014670 1.898730 
# 
# From -- ./inp_files/315973.got.cif
#   From: 2010.05.17/outbox.cif.g08.bks.cpg/sg2_158_cif.got.tgz:315973.got - 2010.06.03 11:33:40.
