data_PCOD9052703
_publ_section_title
;
Structure prediction by ZEFSAII (Michael W. Deem and Ramdas Pophale) SiO2 
 PCOD9052703
Probable space group: P -1
;
_chemical_formula_sum "Si O2"
_cell_formula_units_Z 13
_cell_length_a 8.061153
_cell_length_b 12.164730
_cell_length_c 8.991151
_cell_angle_alpha 82.641929
_cell_angle_beta 79.542924
_cell_angle_gamma 35.515698
_cell_volume 503.390072
_symmetry_space_group_name_H-M "P -1"
_symmetry_group_IT_number 2
_symmetry_cell_setting 'triclinic'
loop_
_space_group_symop_operation_xyz
x,y,z
-x,-y,-z
loop_
_atom_site_type_symbol
_atom_site_label
_atom_site_fract_x
_atom_site_fract_y
_atom_site_fract_z
Si Si1 0.765717 0.292334 0.319621
Si Si2 0.179474 0.970405 0.092813
Si Si3 0.234458 0.378332 0.854584
Si Si4 0.697802 0.607263 0.474186
Si Si5 0.129922 0.185185 0.847067
Si Si6 0.500000 0.500000 0.000000
Si Si7 0.249816 0.042104 0.530408
O O1 0.465290 0.407047 0.416743
O O2 0.983611 0.212110 0.433900
O O3 0.675336 0.396618 0.158434
O O4 0.990653 0.081671 0.250219
O O5 0.466768 0.747426 0.099659
O O6 0.252246 0.047941 0.987894
O O7 0.000000 0.000000 0.000000
O O8 0.212179 0.464534 0.697977
O O9 0.266206 0.235064 0.812392
O O10 0.000000 0.500000 0.000000
O O11 0.000000 0.500000 0.500000
O O12 0.431886 0.836500 0.490631
O O13 0.154363 0.100311 0.708064
O O14 0.795450 0.382248 0.896893
O O15 0.500000 0.000000 0.500000
#
# Coordination Sequence:
#
# PCOD9052703 Si02
#       7
#     2   2   2   2   2   1   2
#     4  11  25  49  79 108 154 202 263 320 392 468
#     4  11  25  46  75 106 150 201 255 315 384 461
#     4  12  28  47  74 110 156 205 256 317 387 456
#     4  12  27  49  76 114 156 201 262 323 392 466
#     4  11  25  47  74 109 154 197 259 312 389 460
#     4  10  26  48  76 110 152 194 260 320 386 446
#     4  12  25  48  80 113 156 204 254 323 397 470
#
# _framework density 25.824902999999999
#
# number of rings (size 3 to 8) (size 9 to 14) (size 15 to 20)
#    0.000    0.615    3.077    2.769   10.769    1.846 
#    0.000    0.000    0.000    0.000    0.000    0.000 
#    0.000    0.000    0.000    0.000    0.000    0.000 
#
# Total GULP energy -72379.385059 kJ/mol
# GULP energy per Si atom -5567.645005 kJ/mol
# Density = 2.576612 g / cm^3
# Si number density = 25.824903 Si / 1000 Ang^3
#
#
#
# Elastic Constant Matrix: (Units=GPa)
#
#
# Indices 1 2 3 4 5 6 
#
# 1 80.7824 32.4589 59.3622 -8.1973 4.1533 -29.7556
# 2 32.4589 143.6133 72.8546 -4.9768 9.5619 -34.7946
# 3 59.3622 72.8546 203.1437 16.4193 3.4639 -36.6029
# 4 -8.1973 -4.9768 16.4193 58.3264 -10.7787 8.5671
# 5 4.1533 9.5619 3.4639 -10.7787 43.2251 -6.1523
# 6 -29.7556 -34.7946 -36.6029 8.5671 -6.1523 64.0798
#
#
#
# Elastic Compliance Matrix: (Units=1/GPa)
#
#
# Indices 1 2 3 4 5 6 
#
# 1 0.018020 -0.000490 -0.004398 0.003004 0.000220 0.005209
# 2 -0.000490 0.009280 -0.002679 0.000815 -0.001152 0.003061
# 3 -0.004398 -0.002679 0.007667 -0.003236 -0.000222 0.001294
# 4 0.003004 0.000815 -0.003236 0.019684 0.004383 -0.002222
# 5 0.000220 -0.001152 -0.000222 0.004383 0.024640 0.001130
# 6 0.005209 0.003061 0.001294 -0.002222 0.001130 0.020831
#
#
# Mechanical properties :
#
#
# Convention : Reuss Voigt Hill
#
# Bulk Modulus (GPa) = 50.42484 84.09896 67.26190
# Shear Modulus (GPa) = 41.02818 50.65050 45.83934
#
# Velocity S-wave (km/s) = 3.99018 4.43347 4.21765
# Velocity P-wave (km/s) = 6.38724 7.67094 7.05833
#
# Compressibility (1/GPa) = 0.01983150
#
# Stress axis : x y z
#
# Youngs Moduli (GPa) = 55.49429 107.76072 130.42558
#
# Poissons Ratio (x) = 0.05283 0.57361
# Poissons Ratio (y) = 0.02721 0.34947
# Poissons Ratio (z) = 0.24406 0.28874
#
# Static dielectric constant tensor:
#      x y z
#    x 2.338930 0.130340 -0.083830 
#    y 0.130340 2.053460 -0.045250 
#    z -0.083830 -0.045250 2.081040 
# 
# From -- ./inp_files/201411.got.cif
#   From: 2010.05.17/outbox.cif.g08.bks.cpg/sg2_101_cif.got.tgz:201411.got - 2010.06.03 11:33:40.
