data_PCOD9052949
_publ_section_title
;
Structure prediction by ZEFSAII (Michael W. Deem and Ramdas Pophale) SiO2 
 PCOD9052949
Probable space group: P -1
;
_chemical_formula_sum "Si O2"
_cell_formula_units_Z 14
_cell_length_a 7.583073
_cell_length_b 7.297439
_cell_length_c 12.179079
_cell_angle_alpha 58.593548
_cell_angle_beta 71.875672
_cell_angle_gamma 54.785212
_cell_volume 469.893658
_symmetry_space_group_name_H-M "P -1"
_symmetry_group_IT_number 2
_symmetry_cell_setting 'triclinic'
loop_
_space_group_symop_operation_xyz
x,y,z
-x,-y,-z
loop_
_atom_site_type_symbol
_atom_site_label
_atom_site_fract_x
_atom_site_fract_y
_atom_site_fract_z
Si Si1 0.819148 0.258580 0.309762
Si Si2 0.473520 0.045627 0.751090
Si Si3 0.682646 0.737680 0.601737
Si Si4 0.487250 0.579377 0.101758
Si Si5 0.150558 0.953261 0.185033
Si Si6 0.814596 0.719076 0.083300
Si Si7 0.818457 0.425098 0.477756
O O1 0.613188 0.367700 0.237074
O O2 0.904987 0.453043 0.209637
O O3 0.775283 0.263740 0.445644
O O4 0.983156 0.003450 0.297775
O O5 0.294862 0.070165 0.866091
O O6 0.324004 0.294699 0.632559
O O7 0.620715 0.810319 0.719325
O O8 0.640508 0.085133 0.778067
O O9 0.721321 0.496521 0.596807
O O10 0.926297 0.684337 0.550983
O O11 0.500000 0.000000 0.500000
O O12 0.626076 0.717547 0.046832
O O13 0.242433 0.742525 0.140594
O O14 0.500000 0.500000 0.000000
O O15 0.057927 0.206515 0.048743
#
# Coordination Sequence:
#
# PCOD9052949 Si02
#       7
#     2   2   2   2   2   2   2
#     4   9  18  27  45  62  87 119 147 176 215 256
#     4   9  15  24  38  58  81 116 137 172 212 252
#     4   9  16  23  39  54  84 115 139 170 219 261
#     4   9  19  30  41  61  88 116 153 182 208 249
#     4  11  16  29  46  61  89 120 146 175 215 257
#     4   8  18  29  42  65  88 116 149 175 211 257
#     4   9  15  26  35  61  82 111 143 176 209 264
#
# _framework density 29.793977000000002
#
# number of rings (size 3 to 8) (size 9 to 14) (size 15 to 20)
#    0.857    2.000    2.857    2.143    0.000    0.571 
#    0.000    0.000    0.000    0.000    0.000    0.000 
#    0.000    4.571    0.000   52.714    0.000    3.286 
#
# Total GULP energy -78236.510035 kJ/mol
# GULP energy per Si atom -5588.322145 kJ/mol
# Density = 2.972616 g / cm^3
# Si number density = 29.793977 Si / 1000 Ang^3
#
#
#
# Elastic Constant Matrix: (Units=GPa)
#
#
# Indices 1 2 3 4 5 6 
#
# 1 78.3201 40.4003 44.5514 12.0644 5.5700 -18.3047
# 2 40.4003 182.4356 70.4242 63.5945 1.3215 -20.8871
# 3 44.5514 70.4242 251.9736 85.6130 -16.5924 -1.1045
# 4 12.0644 63.5945 85.6130 88.4502 -11.0045 -2.7438
# 5 5.5700 1.3215 -16.5924 -11.0045 42.5269 2.2041
# 6 -18.3047 -20.8871 -1.1045 -2.7438 2.2041 46.3021
#
#
#
# Elastic Compliance Matrix: (Units=1/GPa)
#
#
# Indices 1 2 3 4 5 6 
#
# 1 0.017283 -0.002779 -0.003376 0.002704 -0.003096 0.005806
# 2 -0.002779 0.008395 0.000025 -0.005794 -0.001512 0.002417
# 3 -0.003376 0.000025 0.006639 -0.005833 0.001605 -0.001587
# 4 0.002704 -0.005794 -0.005833 0.021109 0.003042 -0.000578
# 5 -0.003096 -0.001512 0.001605 0.003042 0.025531 -0.002902
# 6 0.005806 0.002417 -0.001587 -0.000578 -0.002902 0.025049
#
#
# Mechanical properties :
#
#
# Convention : Reuss Voigt Hill
#
# Bulk Modulus (GPa) = 49.86177 91.49790 70.67983
# Shear Modulus (GPa) = 40.66626 59.27939 49.97283
#
# Velocity S-wave (km/s) = 3.69848 4.46538 4.09990
# Velocity P-wave (km/s) = 5.91694 7.57384 6.79608
#
# Compressibility (1/GPa) = 0.02005545
#
# Stress axis : x y z
#
# Youngs Moduli (GPa) = 57.86101 119.12462 150.61739
#
# Poissons Ratio (x) = 0.33109 0.50848
# Poissons Ratio (y) = 0.16082 -0.00373
# Poissons Ratio (z) = 0.19534 -0.00295
#
# Static dielectric constant tensor:
#      x y z
#    x 2.355420 0.077640 0.002740 
#    y 0.077640 2.451590 -0.057660 
#    z 0.002740 -0.057660 2.348520 
# 
# From -- ./inp_files/513463.got.cif
#   From: 2010.05.17/outbox.cif.g08.bks.cpg/sg2_257_cif.got.tgz:513463.got - 2010.06.03 11:33:40.
