data_PCOD9052229
_publ_section_title
;
Structure prediction by ZEFSAII (Michael W. Deem and Ramdas Pophale) SiO2 
 PCOD9052229
Probable space group: P -1
;
_chemical_formula_sum "Si O2"
_cell_formula_units_Z 16
_cell_length_a 14.529868
_cell_length_b 11.416037
_cell_length_c 13.647870
_cell_angle_alpha 147.216098
_cell_angle_beta 51.697317
_cell_angle_gamma 104.128983
_cell_volume 729.481189
_symmetry_space_group_name_H-M "P -1"
_symmetry_group_IT_number 2
_symmetry_cell_setting 'triclinic'
loop_
_space_group_symop_operation_xyz
x,y,z
-x,-y,-z
loop_
_atom_site_type_symbol
_atom_site_label
_atom_site_fract_x
_atom_site_fract_y
_atom_site_fract_z
Si Si1 0.166421 0.017039 0.747792
Si Si2 0.049152 0.582018 0.116321
Si Si3 0.850343 0.427056 0.612326
Si Si4 0.258064 0.091111 0.341956
Si Si5 0.488088 0.676482 0.223801
Si Si6 0.049566 0.564236 0.664371
Si Si7 0.678152 0.434597 0.113853
Si Si8 0.493631 0.992847 0.279856
O O1 0.123163 0.863489 0.599883
O O2 0.350354 0.777718 0.458457
O O3 0.131561 0.300128 0.930499
O O4 0.076060 0.125580 0.985728
O O5 0.889568 0.834751 0.452011
O O6 0.158825 0.637443 0.043078
O O7 0.000000 0.500000 0.000000
O O8 0.963039 0.439468 0.611786
O O9 0.887474 0.431624 0.477616
O O10 0.673188 0.716371 0.951238
O O11 0.384961 0.021457 0.287048
O O12 0.185318 0.362935 0.512273
O O13 0.320445 0.820745 0.045262
O O14 0.633062 0.506971 0.079194
O O15 0.454567 0.937458 0.373061
O O16 0.500000 0.500000 0.000000
O O17 0.559155 0.698865 0.450381
#
# Coordination Sequence:
#
# PCOD9052229 Si02
#       8
#     2   2   2   2   2   2   2   2
#     4  11  22  40  66  90 128 162 202 260 309 375
#     4  11  23  37  58  94 131 165 206 243 311 390
#     4  11  24  44  68  88 124 163 213 273 305 365
#     4  11  24  41  60  92 127 167 211 257 309 376
#     4  12  22  38  62  99 131 163 206 247 319 383
#     4  10  26  44  64  95 116 165 225 256 314 363
#     4  12  24  38  62  90 135 174 197 254 315 374
#     4  12  24  41  63  95 130 165 209 253 317 380
#
# _framework density 21.933395999999998
#
# number of rings (size 3 to 8) (size 9 to 14) (size 15 to 20)
#    0.000    0.750    5.000    1.875    5.250    0.500 
#    0.000    0.625    0.000    0.000    0.000    0.000 
#    0.000    0.000    0.000    0.000    0.000    0.000 
#
# Total GULP energy -89337.204576 kJ/mol
# GULP energy per Si atom -5583.575286 kJ/mol
# Density = 2.188347 g / cm^3
# Si number density = 21.933396 Si / 1000 Ang^3
#
#
#
# Elastic Constant Matrix: (Units=GPa)
#
#
# Indices 1 2 3 4 5 6 
#
# 1 91.5085 5.1940 18.3256 -0.9529 -5.3224 -2.7589
# 2 5.1940 33.4338 16.2417 -12.2617 -4.0282 -3.7406
# 3 18.3256 16.2417 127.6123 -7.3206 24.0913 7.2648
# 4 -0.9529 -12.2617 -7.3206 26.1985 0.1206 7.8950
# 5 -5.3224 -4.0282 24.0913 0.1206 34.2461 7.9248
# 6 -2.7589 -3.7406 7.2648 7.8950 7.9248 26.2270
#
#
#
# Elastic Compliance Matrix: (Units=1/GPa)
#
#
# Indices 1 2 3 4 5 6 
#
# 1 0.011623 -0.000476 -0.002305 -0.000786 0.003123 0.001086
# 2 -0.000476 0.040044 -0.005641 0.017291 0.008684 -0.000605
# 3 -0.002305 -0.005641 0.010549 0.000798 -0.008033 -0.001782
# 4 -0.000786 0.017291 0.000798 0.050806 0.004527 -0.014499
# 5 0.003123 0.008684 -0.008033 0.004527 0.038470 -0.009195
# 6 0.001086 -0.000605 -0.001782 -0.014499 -0.009195 0.045793
#
#
# Mechanical properties :
#
#
# Convention : Reuss Voigt Hill
#
# Bulk Modulus (GPa) = 22.04060 36.89748 29.46904
# Shear Modulus (GPa) = 21.80994 31.52053 26.66523
#
# Velocity S-wave (km/s) = 3.15679 3.79503 3.49052
# Velocity P-wave (km/s) = 4.83299 6.00516 5.45068
#
# Compressibility (1/GPa) = 0.04537082
#
# Stress axis : x y z
#
# Youngs Moduli (GPa) = 86.03771 24.97249 94.79606
#
# Poissons Ratio (x) = 0.01189 0.21851
# Poissons Ratio (y) = 0.04098 0.53476
# Poissons Ratio (z) = 0.19832 0.14087
#
# Static dielectric constant tensor:
#      x y z
#    x 1.792940 0.039750 0.037960 
#    y 0.039750 1.845700 0.012000 
#    z 0.037960 0.012000 1.833200 
# 
# From -- ./inp_files/532790.got.cif
#   From: 2010.05.17/outbox.cif.g08.bks.cpg/sg2_267_cif.got.tgz:532790.got - 2010.06.03 11:33:40.
