data_PCOD9052121
_publ_section_title
;
Structure prediction by ZEFSAII (Michael W. Deem and Ramdas Pophale) SiO2 
 PCOD9052121
Probable space group: P -1
;
_chemical_formula_sum "Si O2"
_cell_formula_units_Z 12
_cell_length_a 9.967791
_cell_length_b 9.763913
_cell_length_c 4.574350
_cell_angle_alpha 77.111361
_cell_angle_beta 84.530589
_cell_angle_gamma 76.339501
_cell_volume 421.276688
_symmetry_space_group_name_H-M "P -1"
_symmetry_group_IT_number 2
_symmetry_cell_setting 'triclinic'
loop_
_space_group_symop_operation_xyz
x,y,z
-x,-y,-z
loop_
_atom_site_type_symbol
_atom_site_label
_atom_site_fract_x
_atom_site_fract_y
_atom_site_fract_z
Si Si1 0.526766 0.853666 0.746546
Si Si2 0.184234 0.189600 0.963044
Si Si3 0.293294 0.772965 0.242781
Si Si4 0.116299 0.389962 0.356370
Si Si5 0.125083 0.925948 0.729606
Si Si6 0.384138 0.460437 0.247594
O O1 0.410267 0.832354 0.012757
O O2 0.552182 0.707330 0.616854
O O3 0.500000 0.000000 0.500000
O O4 0.330705 0.149503 0.110084
O O5 0.191995 0.295802 0.649104
O O6 0.141473 0.056966 0.876711
O O7 0.078250 0.278713 0.183234
O O8 0.162068 0.799160 0.030867
O O9 0.243774 0.864919 0.496413
O O10 0.342269 0.602656 0.388952
O O11 0.233816 0.456260 0.145535
O O12 0.000000 0.500000 0.500000
O O13 0.000000 0.000000 0.500000
O O14 0.500000 0.500000 0.000000
#
# Coordination Sequence:
#
# PCOD9052121 Si02
#       6
#     2   2   2   2   2   2
#     4  10  25  51  89 121 161 211 285 354 419 498
#     4  11  27  51  80 124 162 213 284 351 410 500
#     4  11  27  49  83 115 164 224 269 345 424 497
#     4  11  25  49  85 120 166 219 279 347 422 504
#     4  12  29  53  77 117 166 223 279 341 414 505
#     4   9  23  51  78 121 164 214 272 342 426 495
#
# _framework density 28.484839000000001
#
# number of rings (size 3 to 8) (size 9 to 14) (size 15 to 20)
#    0.000    1.333    0.000    2.000    9.333    8.000 
#    0.000    8.333    0.000    0.000    0.000    0.000 
#    0.000    0.000    0.000    0.000    0.000    0.000 
#
# Total GULP energy -67160.263050 kJ/mol
# GULP energy per Si atom -5596.688587 kJ/mol
# Density = 2.842001 g / cm^3
# Si number density = 28.484839 Si / 1000 Ang^3
#
#
#
# Elastic Constant Matrix: (Units=GPa)
#
#
# Indices 1 2 3 4 5 6 
#
# 1 113.8253 73.8450 45.7501 15.8066 28.2993 -9.8013
# 2 73.8450 270.1546 92.9442 25.7944 3.3421 -10.5650
# 3 45.7501 92.9442 174.5482 22.4674 22.3598 -13.2378
# 4 15.8066 25.7944 22.4674 75.5119 -5.4722 -0.9213
# 5 28.2993 3.3421 22.3598 -5.4722 65.2915 17.2783
# 6 -9.8013 -10.5650 -13.2378 -0.9213 17.2783 38.0777
#
#
#
# Elastic Compliance Matrix: (Units=1/GPa)
#
#
# Indices 1 2 3 4 5 6 
#
# 1 0.013508 -0.003086 -0.000238 -0.002163 -0.007335 0.005814
# 2 -0.003086 0.005310 -0.002332 -0.000333 0.002129 -0.001106
# 3 -0.000238 -0.002332 0.008005 -0.001754 -0.003641 0.003684
# 4 -0.002163 -0.000333 -0.001754 0.014550 0.003426 -0.002462
# 5 -0.007335 0.002129 -0.003641 0.003426 0.023384 -0.013091
# 6 0.005814 -0.001106 0.003684 -0.002462 -0.013091 0.034613
#
#
# Mechanical properties :
#
#
# Convention : Reuss Voigt Hill
#
# Bulk Modulus (GPa) = 64.47599 109.28965 86.88282
# Shear Modulus (GPa) = 43.15862 58.84214 51.00038
#
# Velocity S-wave (km/s) = 3.89671 4.54997 4.23595
# Velocity P-wave (km/s) = 6.55211 8.12735 7.38187
#
# Compressibility (1/GPa) = 0.01550965
#
# Stress axis : x y z
#
# Youngs Moduli (GPa) = 74.03244 188.33771 124.92168
#
# Poissons Ratio (x) = 0.58112 0.02979
# Poissons Ratio (y) = 0.22843 0.29135
# Poissons Ratio (z) = 0.01765 0.43926
#
# Static dielectric constant tensor:
#      x y z
#    x 2.382200 0.002820 -0.014140 
#    y 0.002820 2.282090 -0.013860 
#    z -0.014140 -0.013860 2.172370 
# 
# From -- ./inp_files/57623.got.cif
#   From: 2010.05.17/outbox.cif.g08.bks.cpg/sg2_29_cif.got.tgz:57623.got - 2010.06.03 11:33:40.
