data_PCOD9052754
_publ_section_title
;
Structure prediction by ZEFSAII (Michael W. Deem and Ramdas Pophale) SiO2 
 PCOD9052754
Probable space group: P -1
;
_chemical_formula_sum "Si O2"
_cell_formula_units_Z 15
_cell_length_a 13.162480
_cell_length_b 9.280096
_cell_length_c 11.746139
_cell_angle_alpha 142.326869
_cell_angle_beta 123.182116
_cell_angle_gamma 49.332588
_cell_volume 663.576241
_symmetry_space_group_name_H-M "P -1"
_symmetry_group_IT_number 2
_symmetry_cell_setting 'triclinic'
loop_
_space_group_symop_operation_xyz
x,y,z
-x,-y,-z
loop_
_atom_site_type_symbol
_atom_site_label
_atom_site_fract_x
_atom_site_fract_y
_atom_site_fract_z
Si Si1 0.376786 0.962095 0.953142
Si Si2 0.235911 0.634562 0.599416
Si Si3 0.000000 0.000000 0.000000
Si Si4 0.216012 0.783758 0.198917
Si Si5 0.557659 0.664904 0.065379
Si Si6 0.997083 0.147231 0.706666
Si Si7 0.651459 0.825410 0.439714
Si Si8 0.868927 0.648723 0.829433
O O1 0.350881 0.740328 0.729487
O O2 0.427610 0.875706 0.058224
O O3 0.500000 0.000000 0.000000
O O4 0.236137 0.204601 0.042749
O O5 0.275952 0.445542 0.615655
O O6 0.203973 0.478596 0.380598
O O7 0.104510 0.910914 0.700645
O O8 0.082823 0.165760 0.097048
O O9 0.880661 0.137875 0.920270
O O10 0.138658 0.768996 0.254226
O O11 0.265209 0.008847 0.388192
O O12 0.343166 0.516604 0.082234
O O13 0.636064 0.770295 0.264152
O O14 0.500000 0.500000 0.000000
O O15 0.995406 0.414581 0.822701
O O16 0.000000 0.000000 0.500000
O O17 0.500000 0.000000 0.500000
#
# Coordination Sequence:
#
# PCOD9052754 Si02
#       8
#     2   2   1   2   2   2   2   2
#     4  12  26  44  72 107 147 197 248 308 379 458
#     4  11  24  46  73 104 148 198 248 314 377 445
#     4  12  26  44  80 110 144 202 250 314 388 438
#     4  12  26  45  73 110 148 198 250 313 381 449
#     4  12  24  42  71 108 142 190 250 303 379 448
#     4  10  26  49  73 105 151 200 254 309 380 456
#     4  12  24  44  74 106 153 193 248 316 374 451
#     4  11  25  49  73 107 152 192 255 315 378 454
#
# _framework density 22.604787999999999
#
# number of rings (size 3 to 8) (size 9 to 14) (size 15 to 20)
#    0.000    0.533    4.000    3.200    1.867    8.533 
#    0.000    0.000    0.000    0.000    0.000    0.000 
#    0.000    0.000    0.000    0.000    0.000    0.000 
#
# Total GULP energy -83519.126211 kJ/mol
# GULP energy per Si atom -5567.941747 kJ/mol
# Density = 2.255334 g / cm^3
# Si number density = 22.604788 Si / 1000 Ang^3
#
#
#
# Elastic Constant Matrix: (Units=GPa)
#
#
# Indices 1 2 3 4 5 6 
#
# 1 115.2967 13.1552 40.4777 26.0805 13.4397 5.7042
# 2 13.1552 132.8702 16.8718 18.8917 1.3868 3.4030
# 3 40.4777 16.8718 122.5342 -2.7012 21.2672 -14.7259
# 4 26.0805 18.8917 -2.7012 33.2031 -7.6405 10.5540
# 5 13.4397 1.3868 21.2672 -7.6405 43.9314 -1.3337
# 6 5.7042 3.4030 -14.7259 10.5540 -1.3337 27.7241
#
#
#
# Elastic Compliance Matrix: (Units=1/GPa)
#
#
# Indices 1 2 3 4 5 6 
#
# 1 0.013267 0.000990 -0.004133 -0.012083 -0.004211 -0.000649
# 2 0.000990 0.008467 -0.001439 -0.005994 -0.000909 0.000231
# 3 -0.004133 -0.001439 0.011084 0.002300 -0.003478 0.005872
# 4 -0.012083 -0.005994 0.002300 0.050256 0.011083 -0.014155
# 5 -0.004211 -0.000909 -0.003478 0.011083 0.027577 -0.003762
# 6 -0.000649 0.000231 0.005872 -0.014155 -0.003762 0.044501
#
#
# Mechanical properties :
#
#
# Convention : Reuss Voigt Hill
#
# Bulk Modulus (GPa) = 42.27609 56.85672 49.56641
# Shear Modulus (GPa) = 29.03571 40.98481 35.01026
#
# Velocity S-wave (km/s) = 3.58787 4.26267 3.93975
# Velocity P-wave (km/s) = 5.99221 7.03095 6.53226
#
# Compressibility (1/GPa) = 0.02365403
#
# Stress axis : x y z
#
# Youngs Moduli (GPa) = 75.37270 118.10843 90.21771
#
# Poissons Ratio (x) = -0.11690 0.37283
# Poissons Ratio (y) = -0.07460 0.12986
# Poissons Ratio (z) = 0.31148 0.17001
#
# Static dielectric constant tensor:
#      x y z
#    x 1.823710 -0.071460 0.043790 
#    y -0.071460 1.964480 -0.026920 
#    z 0.043790 -0.026920 1.841980 
# 
# From -- ./inp_files/420195.got.cif
#   From: 2010.05.17/outbox.cif.g08.bks.cpg/sg2_211_cif.got.tgz:420195.got - 2010.06.03 11:33:40.
