data_PCOD9052396
_publ_section_title
;
Structure prediction by ZEFSAII (Michael W. Deem and Ramdas Pophale) SiO2 
 PCOD9052396
Probable space group: P -1
;
_chemical_formula_sum "Si O2"
_cell_formula_units_Z 12
_cell_length_a 9.328591
_cell_length_b 7.622932
_cell_length_c 14.182655
_cell_angle_alpha 62.838283
_cell_angle_beta 60.980104
_cell_angle_gamma 32.582070
_cell_volume 472.475847
_symmetry_space_group_name_H-M "P -1"
_symmetry_group_IT_number 2
_symmetry_cell_setting 'triclinic'
loop_
_space_group_symop_operation_xyz
x,y,z
-x,-y,-z
loop_
_atom_site_type_symbol
_atom_site_label
_atom_site_fract_x
_atom_site_fract_y
_atom_site_fract_z
Si Si1 0.247643 0.509041 0.738011
Si Si2 0.675616 0.601160 0.812391
Si Si3 0.165433 0.834072 0.870519
Si Si4 0.789293 0.164069 0.610848
Si Si5 0.285774 0.318984 0.425648
Si Si6 0.988611 0.403481 0.927312
O O1 0.278385 0.595893 0.805575
O O2 0.506164 0.326231 0.638860
O O3 0.205563 0.317544 0.817179
O O4 0.964856 0.861439 0.699955
O O5 0.425709 0.690335 0.867768
O O6 0.666655 0.739459 0.687030
O O7 0.719902 0.667055 0.882329
O O8 0.953891 0.202964 0.813093
O O9 0.006457 0.828298 0.986747
O O10 0.715568 0.447850 0.606978
O O11 0.000000 0.000000 0.500000
O O12 0.000000 0.500000 0.500000
O O13 0.500000 0.000000 0.500000
O O14 0.000000 0.500000 0.000000
#
# Coordination Sequence:
#
# PCOD9052396 Si02
#       6
#     2   2   2   2   2   2
#     4  11  23  47  69 108 152 192 242 307 376 447
#     4  12  24  47  75 106 152 197 252 308 372 438
#     4  11  22  46  75 105 147 198 247 305 367 451
#     4  12  26  48  74 106 151 196 249 313 380 435
#     4  12  26  47  77 107 149 196 261 307 367 449
#     4  10  26  45  76 113 149 194 249 307 376 453
#
# _framework density 25.398125
#
# number of rings (size 3 to 8) (size 9 to 14) (size 15 to 20)
#    0.000    0.667    3.333    3.500    2.333    2.667 
#    0.000    7.500    0.000    0.000    0.000    0.000 
#    0.000    0.000    0.000    0.000    0.000    0.000 
#
# Total GULP energy -67234.582903 kJ/mol
# GULP energy per Si atom -5602.881909 kJ/mol
# Density = 2.534032 g / cm^3
# Si number density = 25.398125 Si / 1000 Ang^3
#
#
#
# Elastic Constant Matrix: (Units=GPa)
#
#
# Indices 1 2 3 4 5 6 
#
# 1 161.5204 49.7627 49.3985 -12.7570 -15.0379 -6.5519
# 2 49.7627 132.0544 42.9424 -13.2678 -11.4164 -24.7837
# 3 49.3985 42.9424 151.6861 -12.6867 -9.2848 -2.1473
# 4 -12.7570 -13.2678 -12.6867 46.9778 -10.3962 -1.8779
# 5 -15.0379 -11.4164 -9.2848 -10.3962 59.7625 2.5998
# 6 -6.5519 -24.7837 -2.1473 -1.8779 2.5998 46.0379
#
#
#
# Elastic Compliance Matrix: (Units=1/GPa)
#
#
# Indices 1 2 3 4 5 6 
#
# 1 0.007583 -0.002075 -0.001681 0.001344 0.001491 -0.000145
# 2 -0.002075 0.010289 -0.001887 0.002334 0.001331 0.005176
# 3 -0.001681 -0.001887 0.007807 0.001235 0.000682 -0.000879
# 4 0.001344 0.002334 0.001235 0.023845 0.005028 0.002194
# 5 0.001491 0.001331 0.000682 0.005028 0.018337 0.000130
# 6 -0.000145 0.005176 -0.000879 0.002194 0.000130 0.024528
#
#
# Mechanical properties :
#
#
# Convention : Reuss Voigt Hill
#
# Bulk Modulus (GPa) = 69.47226 81.05200 75.26213
# Shear Modulus (GPa) = 46.09461 50.76613 48.43037
#
# Velocity S-wave (km/s) = 4.26477 4.47566 4.37148
# Velocity P-wave (km/s) = 7.18774 7.66098 7.42813
#
# Compressibility (1/GPa) = 0.01439423
#
# Stress axis : x y z
#
# Youngs Moduli (GPa) = 131.86775 97.19020 128.09342
#
# Poissons Ratio (x) = 0.20162 0.21529
# Poissons Ratio (y) = 0.27356 0.24174
# Poissons Ratio (z) = 0.22164 0.18342
#
# Static dielectric constant tensor:
#      x y z
#    x 2.016520 0.078700 0.061960 
#    y 0.078700 2.021650 0.035090 
#    z 0.061960 0.035090 2.017160 
# 
# From -- ./inp_files/494449.got.cif
#   From: 2010.05.17/outbox.cif.g08.bks.cpg/sg2_248_cif.got.tgz:494449.got - 2010.06.03 11:33:40.
