data_PCOD9052319
_publ_section_title
;
Structure prediction by ZEFSAII (Michael W. Deem and Ramdas Pophale) SiO2 
 PCOD9052319
Probable space group: P -1
;
_chemical_formula_sum "Si O2"
_cell_formula_units_Z 15
_cell_length_a 9.160384
_cell_length_b 9.334509
_cell_length_c 11.362449
_cell_angle_alpha 47.579563
_cell_angle_beta 63.308785
_cell_angle_gamma 62.819076
_cell_volume 623.138400
_symmetry_space_group_name_H-M "P -1"
_symmetry_group_IT_number 2
_symmetry_cell_setting 'triclinic'
loop_
_space_group_symop_operation_xyz
x,y,z
-x,-y,-z
loop_
_atom_site_type_symbol
_atom_site_label
_atom_site_fract_x
_atom_site_fract_y
_atom_site_fract_z
Si Si1 0.625852 0.431914 0.101328
Si Si2 0.000000 0.000000 0.000000
Si Si3 0.108677 0.020730 0.215620
Si Si4 0.419586 0.827324 0.341958
Si Si5 0.669713 0.992901 0.279046
Si Si6 0.677527 0.505409 0.291487
Si Si7 0.899683 0.688267 0.508866
Si Si8 0.935384 0.592636 0.817468
O O1 0.578838 0.533759 0.187857
O O2 0.652388 0.196871 0.242266
O O3 0.500000 0.500000 0.000000
O O4 0.806002 0.473707 0.981455
O O5 0.182835 0.012209 0.866249
O O6 0.933940 0.946353 0.923437
O O7 0.074100 0.209942 0.210232
O O8 0.301575 0.914176 0.228820
O O9 0.004547 0.858670 0.380904
O O10 0.490096 0.996781 0.285827
O O11 0.582978 0.669072 0.325442
O O12 0.324571 0.708228 0.531088
O O13 0.728398 0.796149 0.446652
O O14 0.868764 0.515524 0.197576
O O15 0.879652 0.627654 0.682683
O O16 0.000000 0.500000 0.500000
#
# Coordination Sequence:
#
# PCOD9052319 Si02
#       8
#     2   1   2   2   2   2   2   2
#     4  12  30  48  74 114 157 200 253 322 387 451
#     4  10  26  44  74 106 150 186 262 302 394 442
#     4  11  25  48  77 111 147 202 255 322 379 465
#     4  11  26  45  78 108 151 198 255 316 375 456
#     4  11  27  46  74 112 152 202 243 321 378 462
#     4  11  26  47  72 110 148 199 259 309 384 453
#     4  11  25  45  78 113 151 199 257 310 382 462
#     4  12  26  50  81 109 153 206 258 313 388 464
#
# _framework density 24.0717
#
# number of rings (size 3 to 8) (size 9 to 14) (size 15 to 20)
#    0.000    0.800    1.333    4.000   14.933    1.067 
#    0.000    0.000    0.000    0.000    0.000    0.000 
#    0.000    0.000    0.000    0.000    0.000    0.000 
#
# Total GULP energy -83782.936166 kJ/mol
# GULP energy per Si atom -5585.529078 kJ/mol
# Density = 2.401691 g / cm^3
# Si number density = 24.071700 Si / 1000 Ang^3
#
#
#
# Elastic Constant Matrix: (Units=GPa)
#
#
# Indices 1 2 3 4 5 6 
#
# 1 136.8508 30.2937 31.6701 3.9779 1.4939 11.8325
# 2 30.2937 71.8625 41.4846 -2.6708 7.4423 14.6172
# 3 31.6701 41.4846 62.4330 11.3036 7.3769 21.3477
# 4 3.9779 -2.6708 11.3036 32.6362 13.5520 3.1915
# 5 1.4939 7.4423 7.3769 13.5520 52.0049 4.1551
# 6 11.8325 14.6172 21.3477 3.1915 4.1551 38.7367
#
#
#
# Elastic Compliance Matrix: (Units=1/GPa)
#
#
# Indices 1 2 3 4 5 6 
#
# 1 0.008430 -0.001875 -0.002934 -0.000370 0.000561 -0.000280
# 2 -0.001875 0.025439 -0.017335 0.009840 -0.003701 0.000113
# 3 -0.002934 -0.017335 0.034862 -0.012831 0.001835 -0.010915
# 4 -0.000370 0.009840 -0.012831 0.040008 -0.010104 0.001258
# 5 0.000561 -0.003701 0.001835 -0.010104 0.022222 -0.001338
# 6 -0.000280 0.000113 -0.010915 0.001258 -0.001338 0.031913
#
#
# Mechanical properties :
#
#
# Convention : Reuss Voigt Hill
#
# Bulk Modulus (GPa) = 40.91085 53.11591 47.01338
# Shear Modulus (GPa) = 23.22229 35.85542 29.53886
#
# Velocity S-wave (km/s) = 3.10935 3.86362 3.50683
# Velocity P-wave (km/s) = 5.47020 6.48206 5.99751
#
# Compressibility (1/GPa) = 0.02444339
#
# Stress axis : x y z
#
# Youngs Moduli (GPa) = 118.62250 39.30947 28.68423
#
# Poissons Ratio (x) = 0.07370 0.08416
# Poissons Ratio (y) = 0.22241 0.49725
# Poissons Ratio (z) = 0.34802 0.68144
#
# Static dielectric constant tensor:
#      x y z
#    x 1.905840 -0.028560 0.002200 
#    y -0.028560 1.887980 -0.056790 
#    z 0.002200 -0.056790 1.951940 
# 
# From -- ./inp_files/336655.got.cif
#   From: 2010.05.17/outbox.cif.g08.bks.cpg/sg2_169_cif.got.tgz:336655.got - 2010.06.03 11:33:40.
