data_PCOD9052682
_publ_section_title
;
Structure prediction by ZEFSAII (Michael W. Deem and Ramdas Pophale) SiO2 
 PCOD9052682
Probable space group: P -1
;
_chemical_formula_sum "Si O2"
_cell_formula_units_Z 13
_cell_length_a 5.411593
_cell_length_b 9.214947
_cell_length_c 11.874880
_cell_angle_alpha 71.889804
_cell_angle_beta 87.798348
_cell_angle_gamma 114.484702
_cell_volume 502.554685
_symmetry_space_group_name_H-M "P -1"
_symmetry_group_IT_number 2
_symmetry_cell_setting 'triclinic'
loop_
_space_group_symop_operation_xyz
x,y,z
-x,-y,-z
loop_
_atom_site_type_symbol
_atom_site_label
_atom_site_fract_x
_atom_site_fract_y
_atom_site_fract_z
Si Si1 0.827787 0.524621 0.599050
Si Si2 0.142594 0.929138 0.104960
Si Si3 0.900311 0.957446 0.691277
Si Si4 0.696352 0.271613 0.010824
Si Si5 0.500000 0.000000 0.500000
Si Si6 0.575272 0.763228 0.448042
Si Si7 0.856480 0.601967 0.832587
O O1 0.722165 0.662823 0.529093
O O2 0.559171 0.335725 0.638690
O O3 0.913234 0.556600 0.718160
O O4 0.000000 0.500000 0.500000
O O5 0.142765 0.765467 0.086548
O O6 0.024350 0.913560 0.235581
O O7 0.447606 0.085606 0.079159
O O8 0.000000 0.000000 0.000000
O O9 0.683137 0.975767 0.610464
O O10 0.796377 0.764821 0.780883
O O11 0.207468 0.030704 0.608948
O O12 0.631483 0.424025 0.933052
O O13 0.884231 0.332847 0.103098
O O14 0.362892 0.790944 0.525431
#
# Coordination Sequence:
#
# PCOD9052682 Si02
#       7
#     2   2   2   2   1   2   2
#     4  11  26  48  71 106 150 195 242 307 375 447
#     4  11  25  47  77 107 143 192 252 303 374 441
#     4  12  27  45  74 109 147 195 247 314 372 446
#     4  10  26  48  73 108 146 193 248 305 376 440
#     4  12  26  46  74 104 146 200 248 306 372 444
#     4  11  27  45  71 109 144 192 253 300 374 446
#     4  11  25  49  70 108 150 188 245 308 368 442
#
# _framework density 25.867829
#
# number of rings (size 3 to 8) (size 9 to 14) (size 15 to 20)
#    0.000    0.923    3.077    1.385   10.769    0.615 
#    0.000    0.000    0.000    0.000    0.000    0.000 
#    0.000    0.000    0.000    0.000    0.000    0.000 
#
# Total GULP energy -72524.268395 kJ/mol
# GULP energy per Si atom -5578.789877 kJ/mol
# Density = 2.580895 g / cm^3
# Si number density = 25.867829 Si / 1000 Ang^3
#
#
#
# Elastic Constant Matrix: (Units=GPa)
#
#
# Indices 1 2 3 4 5 6 
#
# 1 47.3456 38.3803 45.8392 -5.0138 15.0662 -23.1935
# 2 38.3803 169.0710 67.9337 25.6047 7.5486 -30.3991
# 3 45.8392 67.9337 160.9991 40.1744 18.2761 -15.6235
# 4 -5.0138 25.6047 40.1744 63.5870 -7.5120 4.0071
# 5 15.0662 7.5486 18.2761 -7.5120 32.8914 -0.3715
# 6 -23.1935 -30.3991 -15.6235 4.0071 -0.3715 46.6701
#
#
#
# Elastic Compliance Matrix: (Units=1/GPa)
#
#
# Indices 1 2 3 4 5 6 
#
# 1 0.049497 -0.004559 -0.011804 0.010677 -0.012441 0.016662
# 2 -0.004559 0.008469 -0.001183 -0.003207 0.000105 0.003131
# 3 -0.011804 -0.001183 0.012392 -0.008547 -0.003179 -0.001780
# 4 0.010677 -0.003207 -0.008547 0.024082 0.006076 -0.001663
# 5 -0.012441 0.000105 -0.003179 0.006076 0.039149 -0.007389
# 6 0.016662 0.003131 -0.001780 -0.001663 -0.007389 0.031235
#
#
# Mechanical properties :
#
#
# Convention : Reuss Voigt Hill
#
# Bulk Modulus (GPa) = 28.35624 75.74690 52.05157
# Shear Modulus (GPa) = 23.62139 43.64718 33.63428
#
# Velocity S-wave (km/s) = 3.02513 4.11215 3.60979
# Velocity P-wave (km/s) = 4.81535 7.20363 6.12698
#
# Compressibility (1/GPa) = 0.03526561
#
# Stress axis : x y z
#
# Youngs Moduli (GPa) = 20.20311 118.07830 80.69475
#
# Poissons Ratio (x) = 0.53832 0.95254
# Poissons Ratio (y) = 0.09211 0.09549
# Poissons Ratio (z) = 0.23848 0.13973
#
# Static dielectric constant tensor:
#      x y z
#    x 1.395060 0.290900 0.140970 
#    y 0.290900 2.064660 -0.098420 
#    z 0.140970 -0.098420 1.867630 
# 
# From -- ./inp_files/24213.got.cif
#   From: 2010.05.17/outbox.cif.g08.bks.cpg/sg2_13_cif.got.tgz:24213.got - 2010.06.03 11:33:40.
