data_PCOD9052722
_publ_section_title
;
Structure prediction by ZEFSAII (Michael W. Deem and Ramdas Pophale) SiO2 
 PCOD9052722
Probable space group: P -1
;
_chemical_formula_sum "Si O2"
_cell_formula_units_Z 13
_cell_length_a 9.233547
_cell_length_b 8.172127
_cell_length_c 8.785970
_cell_angle_alpha 126.820547
_cell_angle_beta 94.019446
_cell_angle_gamma 100.206216
_cell_volume 509.076364
_symmetry_space_group_name_H-M "P -1"
_symmetry_group_IT_number 2
_symmetry_cell_setting 'triclinic'
loop_
_space_group_symop_operation_xyz
x,y,z
-x,-y,-z
loop_
_atom_site_type_symbol
_atom_site_label
_atom_site_fract_x
_atom_site_fract_y
_atom_site_fract_z
Si Si1 0.770146 0.421312 0.366661
Si Si2 0.947391 0.199962 0.046089
Si Si3 0.000000 0.500000 0.000000
Si Si4 0.127235 0.217233 0.614517
Si Si5 0.470481 0.217402 0.071216
Si Si6 0.269825 0.476946 0.249722
Si Si7 0.459959 0.189741 0.693732
O O1 0.871338 0.661089 0.478310
O O2 0.614697 0.389788 0.246699
O O3 0.735758 0.395708 0.526715
O O4 0.854343 0.263383 0.211058
O O5 0.099251 0.407211 0.134467
O O6 0.880366 0.239891 0.901586
O O7 0.000000 0.000000 0.000000
O O8 0.097274 0.384398 0.827437
O O9 0.291367 0.185251 0.631394
O O10 0.000000 0.000000 0.500000
O O11 0.322808 0.264016 0.161016
O O12 0.456539 0.195576 0.878327
O O13 0.500000 0.000000 0.000000
O O14 0.402173 0.607175 0.226703
O O15 0.500000 0.000000 0.500000
#
# Coordination Sequence:
#
# PCOD9052722 Si02
#       7
#     2   2   1   2   2   2   2
#     4  11  26  47  75 112 151 206 255 318 392 465
#     4  11  26  46  76 109 156 208 263 316 397 461
#     4  10  26  48  78 110 154 204 268 324 392 466
#     4  11  27  49  79 111 157 203 265 322 398 470
#     4  12  26  48  75 107 152 199 255 318 388 463
#     4  12  26  48  74 109 157 193 259 318 382 471
#     4  12  29  47  80 114 151 204 256 322 401 464
#
# _framework density 25.536442000000001
#
# number of rings (size 3 to 8) (size 9 to 14) (size 15 to 20)
#    0.000    0.615    1.538    4.154   12.923    1.231 
#    0.000    0.000    0.000    0.000    0.000    0.000 
#    0.000    0.000    0.000    0.000    0.000    0.000 
#
# Total GULP energy -72591.156796 kJ/mol
# GULP energy per Si atom -5583.935138 kJ/mol
# Density = 2.547832 g / cm^3
# Si number density = 25.536442 Si / 1000 Ang^3
#
#
#
# Elastic Constant Matrix: (Units=GPa)
#
#
# Indices 1 2 3 4 5 6 
#
# 1 182.3074 24.4422 51.3586 7.2861 -27.6792 1.7329
# 2 24.4422 100.5090 10.7541 4.6408 -14.0812 -1.4667
# 3 51.3586 10.7541 100.6582 -14.8620 -23.3443 -3.5718
# 4 7.2861 4.6408 -14.8620 44.1808 9.2300 -2.9899
# 5 -27.6792 -14.0812 -23.3443 9.2300 57.1818 8.8127
# 6 1.7329 -1.4667 -3.5718 -2.9899 8.8127 34.6311
#
#
#
# Elastic Compliance Matrix: (Units=1/GPa)
#
#
# Indices 1 2 3 4 5 6 
#
# 1 0.007080 -0.000894 -0.003411 -0.002860 0.002528 -0.001634
# 2 -0.000894 0.010603 -0.000384 -0.001599 0.002322 -0.000275
# 3 -0.003411 -0.000384 0.013043 0.004516 0.002664 0.001212
# 4 -0.002860 -0.001599 0.004516 0.026058 -0.004757 0.004001
# 5 0.002528 0.002322 0.002664 -0.004757 0.022028 -0.005770
# 6 -0.001634 -0.000275 0.001212 0.004001 -0.005770 0.030885
#
#
# Mechanical properties :
#
#
# Convention : Reuss Voigt Hill
#
# Bulk Modulus (GPa) = 46.84216 61.84272 54.34244
# Shear Modulus (GPa) = 39.62282 46.99336 43.30809
#
# Velocity S-wave (km/s) = 3.94333 4.29446 4.12264
# Velocity P-wave (km/s) = 6.25430 6.98999 6.63235
#
# Compressibility (1/GPa) = 0.02134829
#
# Stress axis : x y z
#
# Youngs Moduli (GPa) = 141.25170 94.31255 76.66741
#
# Poissons Ratio (x) = 0.08435 0.26148
# Poissons Ratio (y) = 0.12634 0.02943
# Poissons Ratio (z) = 0.48175 0.03620
#
# Static dielectric constant tensor:
#      x y z
#    x 2.433660 -0.435600 0.471530 
#    y -0.435600 2.784130 -0.333610 
#    z 0.471530 -0.333610 2.429740 
# 
# From -- ./inp_files/160334.got.cif
#   From: 2010.05.17/outbox.cif.g08.bks.cpg/sg2_81_cif.got.tgz:160334.got - 2010.06.03 11:33:40.
