data_PCOD9052456
_publ_section_title
;
Structure prediction by ZEFSAII (Michael W. Deem and Ramdas Pophale) SiO2 
 PCOD9052456
Probable space group: P -1
;
_chemical_formula_sum "Si O2"
_cell_formula_units_Z 16
_cell_length_a 8.429150
_cell_length_b 9.251797
_cell_length_c 12.848755
_cell_angle_alpha 53.696816
_cell_angle_beta 101.910968
_cell_angle_gamma 74.301589
_cell_volume 685.137055
_symmetry_space_group_name_H-M "P -1"
_symmetry_group_IT_number 2
_symmetry_cell_setting 'triclinic'
loop_
_space_group_symop_operation_xyz
x,y,z
-x,-y,-z
loop_
_atom_site_type_symbol
_atom_site_label
_atom_site_fract_x
_atom_site_fract_y
_atom_site_fract_z
Si Si1 0.853151 0.022245 0.560496
Si Si2 0.503447 0.090408 0.783581
Si Si3 0.027649 0.779926 0.138704
Si Si4 0.698301 0.289928 0.615356
Si Si5 0.320382 0.279694 0.881941
Si Si6 0.579967 0.084915 0.329320
Si Si7 0.213350 0.677981 0.826659
Si Si8 0.815245 0.529292 0.900957
O O1 0.768340 0.223111 0.535936
O O2 0.685133 0.013838 0.483654
O O3 0.000000 0.000000 0.500000
O O4 0.991750 0.837242 0.732207
O O5 0.665233 0.114405 0.740305
O O6 0.424185 0.250668 0.799414
O O7 0.377282 0.100810 0.664732
O O8 0.560075 0.876477 0.942189
O O9 0.149875 0.705210 0.291417
O O10 0.122554 0.604595 0.137880
O O11 0.831740 0.790954 0.129142
O O12 0.000000 0.000000 0.000000
O O13 0.500000 0.500000 0.500000
O O14 0.241866 0.506274 0.819339
O O15 0.673120 0.210573 0.238229
O O16 0.356918 0.239657 0.238056
O O17 0.270117 0.574754 0.990136
O O18 0.000000 0.500000 0.000000
#
# Coordination Sequence:
#
# PCOD9052456 Si02
#       8
#     2   2   2   2   2   2   2   2
#     4  10  26  46  71 102 145 187 245 293 355 431
#     4  11  26  44  70 108 147 183 242 300 356 428
#     4  12  25  42  72 100 141 187 232 294 363 417
#     4  12  28  48  72 104 148 192 239 297 360 433
#     4  11  25  44  70 110 145 182 240 300 356 432
#     4  11  25  45  71 100 139 192 230 296 365 419
#     4  11  24  43  73 100 143 186 238 298 355 431
#     4  12  24  42  69 105 137 179 245 297 353 425
#
# _framework density 23.352990999999999
#
# number of rings (size 3 to 8) (size 9 to 14) (size 15 to 20)
#    0.000    0.750    3.750    1.875   12.250    1.500 
#    0.000    1.250    0.000    0.000    0.000    0.000 
#    0.000    0.000    0.000    0.000    0.000    0.000 
#
# Total GULP energy -89479.781245 kJ/mol
# GULP energy per Si atom -5592.486328 kJ/mol
# Density = 2.329984 g / cm^3
# Si number density = 23.352991 Si / 1000 Ang^3
#
#
#
# Elastic Constant Matrix: (Units=GPa)
#
#
# Indices 1 2 3 4 5 6 
#
# 1 84.3611 14.0259 12.4929 15.7500 -0.6725 -5.5683
# 2 14.0259 120.3844 22.7450 24.8868 10.3090 -22.0312
# 3 12.4929 22.7450 90.7483 22.8401 18.2183 -13.9763
# 4 15.7500 24.8868 22.8401 42.2198 4.6723 7.1112
# 5 -0.6725 10.3090 18.2183 4.6723 47.9552 2.2392
# 6 -5.5683 -22.0312 -13.9763 7.1112 2.2392 38.3732
#
#
#
# Elastic Compliance Matrix: (Units=1/GPa)
#
#
# Indices 1 2 3 4 5 6 
#
# 1 0.013061 0.000093 -0.000145 -0.005398 0.000611 0.002861
# 2 0.000093 0.011758 0.001145 -0.008816 -0.002521 0.008962
# 3 -0.000145 0.001145 0.015695 -0.009922 -0.005642 0.008521
# 4 -0.005398 -0.008816 -0.009922 0.038807 0.002593 -0.016801
# 5 0.000611 -0.002521 -0.005642 0.002593 0.023540 -0.005268
# 6 0.002861 0.008962 0.008521 -0.016801 -0.005268 0.038145
#
#
# Mechanical properties :
#
#
# Convention : Reuss Voigt Hill
#
# Bulk Modulus (GPa) = 23.41874 43.78015 33.59945
# Shear Modulus (GPa) = 32.66865 42.12497 37.39681
#
# Velocity S-wave (km/s) = 3.74425 4.25177 4.00606
# Velocity P-wave (km/s) = 5.36120 6.54914 5.98472
#
# Compressibility (1/GPa) = 0.04270084
#
# Stress axis : x y z
#
# Youngs Moduli (GPa) = 76.56181 85.04910 63.71600
#
# Poissons Ratio (x) = -0.00789 0.00922
# Poissons Ratio (y) = -0.00710 -0.07298
# Poissons Ratio (z) = 0.01108 -0.09741
#
# Static dielectric constant tensor:
#      x y z
#    x 1.936820 -0.039990 -0.058560 
#    y -0.039990 1.795810 -0.064370 
#    z -0.058560 -0.064370 1.929430 
# 
# From -- ./inp_files/381751.got.cif
#   From: 2010.05.17/outbox.cif.g08.bks.cpg/sg2_191_cif.got.tgz:381751.got - 2010.06.03 11:33:40.
