data_PCOD9052782
_publ_section_title
;
Structure prediction by ZEFSAII (Michael W. Deem and Ramdas Pophale) SiO2 
 PCOD9052782
Probable space group: P -1
;
_chemical_formula_sum "Si O2"
_cell_formula_units_Z 10
_cell_length_a 4.668700
_cell_length_b 11.689529
_cell_length_c 10.757328
_cell_angle_alpha 43.592972
_cell_angle_beta 67.725633
_cell_angle_gamma 80.083711
_cell_volume 369.755466
_symmetry_space_group_name_H-M "P -1"
_symmetry_group_IT_number 2
_symmetry_cell_setting 'triclinic'
loop_
_space_group_symop_operation_xyz
x,y,z
-x,-y,-z
loop_
_atom_site_type_symbol
_atom_site_label
_atom_site_fract_x
_atom_site_fract_y
_atom_site_fract_z
Si Si1 0.229107 0.892775 0.209452
Si Si2 0.603821 0.394383 0.416496
Si Si3 0.183278 0.634038 0.233208
Si Si4 0.436198 0.675495 0.811784
Si Si5 0.808719 0.815338 0.844820
O O1 0.360147 0.765917 0.381505
O O2 0.050125 0.776252 0.222676
O O3 0.078226 0.019939 0.220732
O O4 0.500000 0.000000 0.000000
O O5 0.333871 0.507095 0.398052
O O6 0.540162 0.336759 0.330207
O O7 0.927425 0.523655 0.277780
O O8 0.489386 0.724336 0.036675
O O9 0.684752 0.823209 0.717779
O O10 0.500000 0.500000 0.000000
O O11 0.909401 0.289221 0.127960
#
# Coordination Sequence:
#
# PCOD9052782 Si02
#       5
#     2   2   2   2   2
#     4  10  26  50  72 106 147 186 238 300 359 420
#     4  12  25  44  76 107 141 192 239 290 352 425
#     4  11  24  44  75 107 142 187 240 289 351 430
#     4  12  25  43  74 108 146 184 240 293 351 431
#     4  11  25  44  74 106 146 188 229 297 364 412
#
# _framework density 27.044899999999998
#
# number of rings (size 3 to 8) (size 9 to 14) (size 15 to 20)
#    0.000    0.800    2.000    4.200    0.000    4.800 
#    0.000   11.000    0.000    0.000    0.000    0.000 
#    0.000    0.000    0.000    0.000    0.000    0.000 
#
# Total GULP energy -56087.270830 kJ/mol
# GULP energy per Si atom -5608.727083 kJ/mol
# Density = 2.698334 g / cm^3
# Si number density = 27.044900 Si / 1000 Ang^3
#
#
#
# Elastic Constant Matrix: (Units=GPa)
#
#
# Indices 1 2 3 4 5 6 
#
# 1 154.7794 59.1020 11.8075 -11.2986 10.4125 0.9563
# 2 59.1020 226.9654 56.7423 -6.9795 16.8396 -16.1622
# 3 11.8075 56.7423 90.4820 9.3532 0.4418 6.7827
# 4 -11.2986 -6.9795 9.3532 39.4339 10.9721 8.5122
# 5 10.4125 16.8396 0.4418 10.9721 26.3856 -1.6470
# 6 0.9563 -16.1622 6.7827 8.5122 -1.6470 44.9538
#
#
#
# Elastic Compliance Matrix: (Units=1/GPa)
#
#
# Indices 1 2 3 4 5 6 
#
# 1 0.007582 -0.001710 -0.000114 0.003131 -0.003292 -0.001472
# 2 -0.001710 0.006460 -0.004226 0.002300 -0.004184 0.002408
# 3 -0.000114 -0.004226 0.014392 -0.004841 0.004351 -0.002612
# 4 0.003131 0.002300 -0.004841 0.033731 -0.016993 -0.005519
# 5 -0.003292 -0.004184 0.004351 -0.016993 0.049045 0.002924
# 6 -0.001472 0.002408 -0.002612 -0.005519 0.002924 0.024688
#
#
# Mechanical properties :
#
#
# Convention : Reuss Voigt Hill
#
# Bulk Modulus (GPa) = 61.22381 80.83671 71.03026
# Shear Modulus (GPa) = 32.58537 45.12634 38.85585
#
# Velocity S-wave (km/s) = 3.47488 4.08925 3.79452
# Velocity P-wave (km/s) = 6.22790 7.22846 6.74675
#
# Compressibility (1/GPa) = 0.01633351
#
# Stress axis : x y z
#
# Youngs Moduli (GPa) = 131.89854 154.78933 69.48277
#
# Poissons Ratio (x) = 0.26469 0.00793
# Poissons Ratio (y) = 0.22555 0.29364
# Poissons Ratio (z) = 0.01506 0.65415
#
# Static dielectric constant tensor:
#      x y z
#    x 2.067790 0.028950 -0.045100 
#    y 0.028950 2.190470 0.020410 
#    z -0.045100 0.020410 2.162300 
# 
# From -- ./inp_files/307.got.cif
#   From: 2010.05.17/outbox.cif.g08.bks.cpg/sg2_1_cif.got.tgz:307.got - 2010.06.03 11:33:40.
