data_PCOD9052702
_publ_section_title
;
Structure prediction by ZEFSAII (Michael W. Deem and Ramdas Pophale) SiO2 
 PCOD9052702
Probable space group: P -1
;
_chemical_formula_sum "Si O2"
_cell_formula_units_Z 12
_cell_length_a 13.862035
_cell_length_b 9.671048
_cell_length_c 18.251113
_cell_angle_alpha 33.620971
_cell_angle_beta 24.188248
_cell_angle_gamma 45.282915
_cell_volume 537.914700
_symmetry_space_group_name_H-M "P -1"
_symmetry_group_IT_number 2
_symmetry_cell_setting 'triclinic'
loop_
_space_group_symop_operation_xyz
x,y,z
-x,-y,-z
loop_
_atom_site_type_symbol
_atom_site_label
_atom_site_fract_x
_atom_site_fract_y
_atom_site_fract_z
Si Si1 0.444319 0.334055 0.725958
Si Si2 0.052278 0.561676 0.850258
Si Si3 0.722911 0.921722 0.699285
Si Si4 0.519876 0.289545 0.330958
Si Si5 0.337598 0.872932 0.100694
Si Si6 0.175092 0.178253 0.481613
O O1 0.718574 0.561601 0.265639
O O2 0.533670 0.547059 0.633705
O O3 0.276281 0.091704 0.993590
O O4 0.647709 0.194914 0.619024
O O5 0.119154 0.865552 0.658623
O O6 0.000000 0.500000 0.000000
O O7 0.794975 0.420362 0.056005
O O8 0.527851 0.778682 0.958299
O O9 0.709062 0.763076 0.704459
O O10 0.000000 0.000000 0.500000
O O11 0.500000 0.000000 0.500000
O O12 0.338190 0.280923 0.393470
O O13 0.079061 0.741379 0.371984
O O14 0.500000 0.000000 0.000000
#
# Coordination Sequence:
#
# PCOD9052702 Si02
#       6
#     2   2   2   2   2   2
#     4   9  19  37  58  88 124 151 203 242 296 366
#     4  10  17  35  57  89 120 156 193 241 302 359
#     4  10  22  38  61  91 115 162 211 242 301 356
#     4  11  19  34  63  95 120 160 199 239 308 368
#     4  10  19  38  64  83 115 161 202 246 294 353
#     4  12  20  37  67  86 125 158 195 258 299 350
#
# _framework density 22.30837
#
# number of rings (size 3 to 8) (size 9 to 14) (size 15 to 20)
#    1.000    0.667    8.333    0.000    0.000    0.667 
#    0.000    5.833    0.000    3.000    0.000    0.000 
#    0.000    0.000    0.000    0.000    0.000    0.000 
#
# Total GULP energy -66887.780763 kJ/mol
# GULP energy per Si atom -5573.981730 kJ/mol
# Density = 2.225760 g / cm^3
# Si number density = 22.308370 Si / 1000 Ang^3
#
#
#
# Elastic Constant Matrix: (Units=GPa)
#
#
# Indices 1 2 3 4 5 6 
#
# 1 102.4034 34.9577 59.2068 23.4153 -34.7192 14.7734
# 2 34.9577 111.6700 76.6007 11.6034 -15.7170 2.7080
# 3 59.2068 76.6007 94.2020 39.3000 -21.2267 13.7749
# 4 23.4153 11.6034 39.3000 46.0741 -4.3936 4.0411
# 5 -34.7192 -15.7170 -21.2267 -4.3936 55.2532 0.7991
# 6 14.7734 2.7080 13.7749 4.0411 0.7991 47.7168
#
#
#
# Elastic Compliance Matrix: (Units=1/GPa)
#
#
# Indices 1 2 3 4 5 6 
#
# 1 0.019421 0.006149 -0.016715 0.003762 0.007859 -0.001987
# 2 0.006149 0.032465 -0.040969 0.023019 -0.000898 0.006146
# 3 -0.016715 -0.040969 0.075072 -0.043982 0.003338 -0.010503
# 4 0.003762 0.023019 -0.043982 0.050597 -0.004048 0.006008
# 5 0.007859 -0.000898 0.003338 -0.004048 0.023791 -0.003402
# 6 -0.001987 0.006146 -0.010503 0.006008 -0.003402 0.023803
#
#
# Mechanical properties :
#
#
# Convention : Reuss Voigt Hill
#
# Bulk Modulus (GPa) = 41.85921 72.20066 57.02993
# Shear Modulus (GPa) = 14.87292 38.97616 26.92454
#
# Velocity S-wave (km/s) = 2.58485 4.18443 3.47785
# Velocity P-wave (km/s) = 5.26434 7.46867 6.46120
#
# Compressibility (1/GPa) = 0.02388961
#
# Stress axis : x y z
#
# Youngs Moduli (GPa) = 51.49023 30.80218 13.32063
#
# Poissons Ratio (x) = -0.18942 0.22265
# Poissons Ratio (y) = -0.31664 0.54573
# Poissons Ratio (z) = 0.86066 1.26192
#
# Static dielectric constant tensor:
#      x y z
#    x 1.824640 -0.036730 0.031330 
#    y -0.036730 1.889000 0.019480 
#    z 0.031330 0.019480 1.936120 
# 
# From -- ./inp_files/536713.got.cif
#   From: 2010.05.17/outbox.cif.g08.bks.cpg/sg2_269_cif.got.tgz:536713.got - 2010.06.03 11:33:40.
