data_PCOD9052650
_publ_section_title
;
Structure prediction by ZEFSAII (Michael W. Deem and Ramdas Pophale) SiO2 
 PCOD9052650
Probable space group: P -1
;
_chemical_formula_sum "Si O2"
_cell_formula_units_Z 16
_cell_length_a 12.489022
_cell_length_b 12.115069
_cell_length_c 11.327003
_cell_angle_alpha 121.954751
_cell_angle_beta 68.865264
_cell_angle_gamma 150.751530
_cell_volume 688.985885
_symmetry_space_group_name_H-M "P -1"
_symmetry_group_IT_number 2
_symmetry_cell_setting 'triclinic'
loop_
_space_group_symop_operation_xyz
x,y,z
-x,-y,-z
loop_
_atom_site_type_symbol
_atom_site_label
_atom_site_fract_x
_atom_site_fract_y
_atom_site_fract_z
Si Si1 0.107131 0.502016 0.180669
Si Si2 0.659190 0.029455 0.972863
Si Si3 0.323116 0.218655 0.770246
Si Si4 0.567730 0.379388 0.999695
Si Si5 0.058522 0.179654 0.498495
Si Si6 0.854460 0.170088 0.721624
Si Si7 0.555434 0.365268 0.531937
Si Si8 0.746494 0.310068 0.530054
O O1 0.239765 0.535802 0.061844
O O2 0.180680 0.722391 0.257650
O O3 0.179864 0.534697 0.299315
O O4 0.841723 0.243032 0.120358
O O5 0.805388 0.141340 0.861684
O O6 0.500000 0.000000 0.000000
O O7 0.540150 0.785144 0.932393
O O8 0.390301 0.216195 0.866677
O O9 0.514694 0.376593 0.686069
O O10 0.102960 0.962498 0.635355
O O11 0.326338 0.375304 0.884468
O O12 0.074192 0.319284 0.660624
O O13 0.299895 0.396838 0.466838
O O14 0.000000 0.000000 0.500000
O O15 0.678426 0.895475 0.584262
O O16 0.674336 0.339847 0.475594
O O17 0.000000 0.500000 0.500000
O O18 0.500000 0.000000 0.500000
#
# Coordination Sequence:
#
# PCOD9052650 Si02
#       8
#     2   2   2   2   2   2   2   2
#     4  12  26  44  73 108 149 195 244 319 385 463
#     4  12  29  43  74 105 147 195 247 311 389 464
#     4  10  26  48  70 105 143 194 252 308 376 461
#     4  11  26  47  71 101 150 193 249 308 381 459
#     4  11  28  45  76 101 144 191 254 312 385 456
#     4  11  26  46  67 107 143 184 249 302 390 448
#     4  11  25  45  73 104 143 191 246 319 377 459
#     4  12  27  45  79 114 156 200 254 323 394 468
#
# _framework density 23.222535000000001
#
# number of rings (size 3 to 8) (size 9 to 14) (size 15 to 20)
#    0.000    0.750    3.750    1.125   14.000    1.000 
#    0.000    2.500    0.000    0.000    0.000    0.000 
#    0.000    0.000    0.000    0.000    0.000    0.000 
#
# Total GULP energy -89206.403096 kJ/mol
# GULP energy per Si atom -5575.400193 kJ/mol
# Density = 2.316968 g / cm^3
# Si number density = 23.222535 Si / 1000 Ang^3
#
#
#
# Elastic Constant Matrix: (Units=GPa)
#
#
# Indices 1 2 3 4 5 6 
#
# 1 109.7811 18.9603 13.3706 3.3634 -11.0843 1.1889
# 2 18.9603 65.5801 3.7395 -3.6972 1.8688 -6.4475
# 3 13.3706 3.7395 74.1744 -2.9029 -5.5541 9.8220
# 4 3.3634 -3.6972 -2.9029 29.9513 5.5769 2.8709
# 5 -11.0843 1.8688 -5.5541 5.5769 36.7543 -2.0960
# 6 1.1889 -6.4475 9.8220 2.8709 -2.0960 36.6110
#
#
#
# Elastic Compliance Matrix: (Units=1/GPa)
#
#
# Indices 1 2 3 4 5 6 
#
# 1 0.010241 -0.003110 -0.001514 -0.002297 0.003361 -0.000102
# 2 -0.003110 0.016674 -0.000728 0.002448 -0.002101 0.002921
# 3 -0.001514 -0.000728 0.014484 0.001628 0.001293 -0.004019
# 4 -0.002297 0.002448 0.001628 0.035543 -0.006139 -0.003070
# 5 0.003361 -0.002101 0.001293 -0.006139 0.029532 0.001346
# 6 -0.000102 0.002921 -0.004019 -0.003070 0.001346 0.029228
#
#
# Mechanical properties :
#
#
# Convention : Reuss Voigt Hill
#
# Bulk Modulus (GPa) = 32.57844 35.74181 34.16013
# Shear Modulus (GPa) = 31.92077 34.89434 33.40756
#
# Velocity S-wave (km/s) = 3.71153 3.88055 3.79698
# Velocity P-wave (km/s) = 5.69443 5.95841 5.82791
#
# Compressibility (1/GPa) = 0.03069514
#
# Stress axis : x y z
#
# Youngs Moduli (GPa) = 97.64373 59.97296 69.04141
#
# Poissons Ratio (x) = 0.18651 0.10454
# Poissons Ratio (y) = 0.30365 0.05028
# Poissons Ratio (z) = 0.14784 0.04368
#
# Static dielectric constant tensor:
#      x y z
#    x 1.904540 0.089450 -0.005990 
#    y 0.089450 2.035140 -0.028200 
#    z -0.005990 -0.028200 1.875770 
# 
# From -- ./inp_files/410906.got.cif
#   From: 2010.05.17/outbox.cif.g08.bks.cpg/sg2_206_cif.got.tgz:410906.got - 2010.06.03 11:33:40.
