data_PCOD9052398
_publ_section_title
;
Structure prediction by ZEFSAII (Michael W. Deem and Ramdas Pophale) SiO2 
 PCOD9052398
Probable space group: P -1
;
_chemical_formula_sum "Si O2"
_cell_formula_units_Z 16
_cell_length_a 17.109970
_cell_length_b 8.205431
_cell_length_c 12.232717
_cell_angle_alpha 49.606477
_cell_angle_beta 33.527691
_cell_angle_gamma 51.490952
_cell_volume 708.455630
_symmetry_space_group_name_H-M "P -1"
_symmetry_group_IT_number 2
_symmetry_cell_setting 'triclinic'
loop_
_space_group_symop_operation_xyz
x,y,z
-x,-y,-z
loop_
_atom_site_type_symbol
_atom_site_label
_atom_site_fract_x
_atom_site_fract_y
_atom_site_fract_z
Si Si1 0.065727 0.212691 0.305859
Si Si2 0.342471 0.660222 0.891596
Si Si3 0.664916 0.997381 0.056890
Si Si4 0.425852 0.319879 0.101278
Si Si5 0.887549 0.728818 0.525419
Si Si6 0.117276 0.441086 0.793335
Si Si7 0.571413 0.622632 0.458884
Si Si8 0.926705 0.046177 0.950761
O O1 0.132962 0.234771 0.337089
O O2 0.952052 0.417868 0.294589
O O3 0.191534 0.135491 0.105610
O O4 0.000000 0.000000 0.500000
O O5 0.463990 0.697724 0.651519
O O6 0.311341 0.811669 0.970768
O O7 0.395175 0.416633 0.975321
O O8 0.187276 0.729337 0.990568
O O9 0.594188 0.838693 0.280118
O O10 0.546841 0.105424 0.059894
O O11 0.267096 0.290525 0.339464
O O12 0.500000 0.500000 0.000000
O O13 0.000000 0.500000 0.500000
O O14 0.965986 0.900229 0.293518
O O15 0.272019 0.495241 0.624758
O O16 0.139639 0.174908 0.884427
O O17 0.000000 0.500000 0.000000
O O18 0.500000 0.500000 0.500000
O O19 0.000000 0.000000 0.000000
#
# Coordination Sequence:
#
# PCOD9052398 Si02
#       8
#     2   2   2   2   2   2   2   2
#     4  12  28  47  79 108 152 196 255 318 378 450
#     4  11  24  49  71 108 147 195 248 310 373 453
#     4  11  25  50  70 107 148 198 248 310 375 445
#     4  10  26  45  78 103 152 192 255 303 381 444
#     4  12  26  48  77 114 149 200 254 311 379 455
#     4  12  26  49  74 109 153 197 250 315 381 443
#     4  12  29  45  77 107 154 197 254 306 382 451
#     4  12  27  45  79 109 151 195 254 308 378 450
#
# _framework density 22.584334999999999
#
# number of rings (size 3 to 8) (size 9 to 14) (size 15 to 20)
#    0.000    0.500    3.750    2.625    8.750    3.500 
#    0.000    0.000    0.000    0.000    0.000    0.000 
#    0.000    0.000    0.000    0.000    0.000    0.000 
#
# Total GULP energy -89213.755172 kJ/mol
# GULP energy per Si atom -5575.859698 kJ/mol
# Density = 2.253293 g / cm^3
# Si number density = 22.584335 Si / 1000 Ang^3
#
#
#
# Elastic Constant Matrix: (Units=GPa)
#
#
# Indices 1 2 3 4 5 6 
#
# 1 132.4355 42.0648 45.8888 -1.9118 -12.9530 -27.2237
# 2 42.0648 69.4414 27.7570 -5.9851 1.0885 -36.6748
# 3 45.8888 27.7570 138.0965 -4.7141 3.8604 -16.7899
# 4 -1.9118 -5.9851 -4.7141 46.1106 -3.5014 8.3872
# 5 -12.9530 1.0885 3.8604 -3.5014 45.6335 -5.3969
# 6 -27.2237 -36.6748 -16.7899 8.3872 -5.3969 53.5154
#
#
#
# Elastic Compliance Matrix: (Units=1/GPa)
#
#
# Indices 1 2 3 4 5 6 
#
# 1 0.010574 -0.004468 -0.002491 -0.000487 0.003514 0.001966
# 2 -0.004468 0.025621 -0.001874 0.000285 0.000034 0.014656
# 3 -0.002491 -0.001874 0.008487 0.000435 -0.001358 -0.000094
# 4 -0.000487 0.000285 0.000435 0.022439 0.001148 -0.003317
# 5 0.003514 0.000034 -0.001358 0.001148 0.023537 0.003579
# 6 0.001966 0.014656 -0.000094 -0.003317 0.003579 0.030582
#
#
# Mechanical properties :
#
#
# Convention : Reuss Voigt Hill
#
# Bulk Modulus (GPa) = 37.01711 63.48829 50.25270
# Shear Modulus (GPa) = 33.80386 44.00277 38.90331
#
# Velocity S-wave (km/s) = 3.87303 4.41883 4.15490
# Velocity P-wave (km/s) = 6.03545 7.36257 6.73179
#
# Compressibility (1/GPa) = 0.02701454
#
# Stress axis : x y z
#
# Youngs Moduli (GPa) = 94.57022 39.03037 117.82311
#
# Poissons Ratio (x) = 0.17440 0.29355
# Poissons Ratio (y) = 0.42256 0.22084
# Poissons Ratio (z) = 0.23562 0.07315
#
# Static dielectric constant tensor:
#      x y z
#    x 4.234870 -2.589190 -2.533140 
#    y -2.589190 4.841570 2.756600 
#    z -2.533140 2.756600 4.436040 
# 
# From -- ./inp_files/461876.got.cif
#   From: 2010.05.17/outbox.cif.g08.bks.cpg/sg2_231_cif.got.tgz:461876.got - 2010.06.03 11:33:40.
