data_PCOD9052788
_publ_section_title
;
Structure prediction by ZEFSAII (Michael W. Deem and Ramdas Pophale) SiO2 
 PCOD9052788
Probable space group: P -1
;
_chemical_formula_sum "Si O2"
_cell_formula_units_Z 12
_cell_length_a 13.157666
_cell_length_b 4.820012
_cell_length_c 9.637209
_cell_angle_alpha 107.878738
_cell_angle_beta 58.772113
_cell_angle_gamma 82.101535
_cell_volume 463.192953
_symmetry_space_group_name_H-M "P -1"
_symmetry_group_IT_number 2
_symmetry_cell_setting 'triclinic'
loop_
_space_group_symop_operation_xyz
x,y,z
-x,-y,-z
loop_
_atom_site_type_symbol
_atom_site_label
_atom_site_fract_x
_atom_site_fract_y
_atom_site_fract_z
Si Si1 0.379035 0.913436 0.021936
Si Si2 0.611466 0.638176 0.464857
Si Si3 0.130649 0.461084 0.323023
Si Si4 0.022169 0.511160 0.822101
Si Si5 0.589924 0.754599 0.199502
Si Si6 0.832848 0.167223 0.408009
O O1 0.247118 0.135161 0.217314
O O2 0.590940 0.455312 0.065165
O O3 0.355984 0.036267 0.899184
O O4 0.500000 0.000000 0.000000
O O5 0.500000 0.500000 0.500000
O O6 0.663066 0.645862 0.274858
O O7 0.706114 0.401188 0.465553
O O8 0.548592 0.991370 0.621571
O O9 0.165476 0.722885 0.418899
O O10 0.000000 0.500000 0.500000
O O11 0.092280 0.514663 0.196790
O O12 0.057816 0.785646 0.764076
O O13 0.143033 0.194611 0.660962
O O14 0.000000 0.500000 0.000000
#
# Coordination Sequence:
#
# PCOD9052788 Si02
#       6
#     2   2   2   2   2   2
#     4  12  26  46  76 110 150 191 256 305 378 443
#     4  11  25  45  73 106 154 191 250 304 391 435
#     4  10  26  50  73 107 152 198 243 307 377 450
#     4  11  26  45  72 104 138 188 251 307 363 439
#     4  11  26  43  70 110 147 191 244 312 371 447
#     4  11  26  45  73 100 143 196 244 297 380 441
#
# _framework density 25.907133999999999
#
# number of rings (size 3 to 8) (size 9 to 14) (size 15 to 20)
#    0.000    1.000    1.667    2.500    9.333    5.333 
#    0.000    0.000    0.000    0.000    0.000    0.000 
#    0.000    0.000    0.000    0.000    0.000    0.000 
#
# Total GULP energy -67167.637412 kJ/mol
# GULP energy per Si atom -5597.303118 kJ/mol
# Density = 2.584817 g / cm^3
# Si number density = 25.907134 Si / 1000 Ang^3
#
#
#
# Elastic Constant Matrix: (Units=GPa)
#
#
# Indices 1 2 3 4 5 6 
#
# 1 100.2627 32.9929 38.2948 13.4437 10.3632 -35.9244
# 2 32.9929 130.3990 36.7754 14.7141 3.2181 3.1239
# 3 38.2948 36.7754 131.9252 16.3967 9.1320 -8.5857
# 4 13.4437 14.7141 16.3967 72.6723 -4.3743 6.5392
# 5 10.3632 3.2181 9.1320 -4.3743 32.6107 -3.0695
# 6 -35.9244 3.1239 -8.5857 6.5392 -3.0695 40.9135
#
#
#
# Elastic Compliance Matrix: (Units=1/GPa)
#
#
# Indices 1 2 3 4 5 6 
#
# 1 0.019362 -0.004026 -0.002622 -0.003951 -0.003942 0.017094
# 2 -0.004026 0.009304 -0.001704 -0.000325 0.000369 -0.004523
# 3 -0.002622 -0.001704 0.009087 -0.001308 -0.001736 -0.000186
# 4 -0.003951 -0.000325 -0.001308 0.015581 0.003182 -0.005970
# 5 -0.003942 0.000369 -0.001736 0.003182 0.032614 -0.001916
# 6 0.017094 -0.004523 -0.000186 -0.005970 -0.001916 0.040568
#
#
# Mechanical properties :
#
#
# Convention : Reuss Voigt Hill
#
# Bulk Modulus (GPa) = 47.50913 64.30145 55.90529
# Shear Modulus (GPa) = 33.28110 46.20756 39.74433
#
# Velocity S-wave (km/s) = 3.58806 4.22783 3.92102
# Velocity P-wave (km/s) = 5.96185 6.97901 6.49039
#
# Compressibility (1/GPa) = 0.02104858
#
# Stress axis : x y z
#
# Youngs Moduli (GPa) = 51.64801 107.48013 110.04946
#
# Poissons Ratio (x) = 0.43271 0.28851
# Poissons Ratio (y) = 0.20793 0.18758
# Poissons Ratio (z) = 0.13540 0.18320
#
# Static dielectric constant tensor:
#      x y z
#    x 2.139950 -0.036580 -0.090860 
#    y -0.036580 1.986070 0.037050 
#    z -0.090860 0.037050 2.240550 
# 
# From -- ./inp_files/27775.got.cif
#   From: 2010.05.17/outbox.cif.g08.bks.cpg/sg2_14_cif.got.tgz:27775.got - 2010.06.03 11:33:40.
