data_PCOD9052387
_publ_section_title
;
Structure prediction by ZEFSAII (Michael W. Deem and Ramdas Pophale) SiO2 
 PCOD9052387
Probable space group: P -1
;
_chemical_formula_sum "Si O2"
_cell_formula_units_Z 12
_cell_length_a 7.871466
_cell_length_b 5.081663
_cell_length_c 13.060136
_cell_angle_alpha 101.617326
_cell_angle_beta 80.132322
_cell_angle_gamma 82.529652
_cell_volume 496.754811
_symmetry_space_group_name_H-M "P -1"
_symmetry_group_IT_number 2
_symmetry_cell_setting 'triclinic'
loop_
_space_group_symop_operation_xyz
x,y,z
-x,-y,-z
loop_
_atom_site_type_symbol
_atom_site_label
_atom_site_fract_x
_atom_site_fract_y
_atom_site_fract_z
Si Si1 0.473464 0.517987 0.382752
Si Si2 0.179094 0.874307 0.914851
Si Si3 0.586969 0.904541 0.243116
Si Si4 0.046365 0.459377 0.195843
Si Si5 0.282752 0.863106 0.117097
Si Si6 0.063572 0.699896 0.427919
O O1 0.500000 0.500000 0.500000
O O2 0.512765 0.213735 0.310703
O O3 0.414404 0.288364 0.673661
O O4 0.272494 0.646284 0.393796
O O5 0.240422 0.054500 0.833457
O O6 0.123866 0.610891 0.848767
O O7 0.318955 0.842820 0.989810
O O8 0.000000 0.000000 0.000000
O O9 0.451579 0.815670 0.167763
O O10 0.169255 0.162003 0.178830
O O11 0.998648 0.623783 0.317815
O O12 0.163349 0.634918 0.133368
O O13 0.000000 0.500000 0.500000
O O14 0.000000 0.000000 0.500000
#
# Coordination Sequence:
#
# PCOD9052387 Si02
#       6
#     2   2   2   2   2   2
#     4  12  28  51  73 110 149 197 255 306 370 448
#     4  10  26  45  73 112 148 193 247 307 367 447
#     4  12  24  48  76 105 150 200 243 308 372 441
#     4  11  23  45  69 104 151 186 244 300 371 436
#     4  11  21  45  73 101 145 192 241 299 363 445
#     4  12  25  46  77 105 146 194 250 312 372 435
#
# _framework density 24.156784999999999
#
# number of rings (size 3 to 8) (size 9 to 14) (size 15 to 20)
#    0.000    0.667    3.333    3.500    2.333    5.333 
#    0.000    5.833    0.000    0.000    0.000    0.000 
#    0.000    0.000    0.000    0.000    0.000    0.000 
#
# Total GULP energy -67255.965649 kJ/mol
# GULP energy per Si atom -5604.663804 kJ/mol
# Density = 2.410180 g / cm^3
# Si number density = 24.156785 Si / 1000 Ang^3
#
#
#
# Elastic Constant Matrix: (Units=GPa)
#
#
# Indices 1 2 3 4 5 6 
#
# 1 92.6262 44.0857 49.5718 7.5927 -9.7162 21.0963
# 2 44.0857 197.3706 74.9925 -12.1174 -11.1265 26.6323
# 3 49.5718 74.9925 190.2821 -2.9364 9.3052 18.0434
# 4 7.5927 -12.1174 -2.9364 43.7718 10.7804 -11.1396
# 5 -9.7162 -11.1265 9.3052 10.7804 47.9181 -2.0946
# 6 21.0963 26.6323 18.0434 -11.1396 -2.0946 37.2255
#
#
#
# Elastic Compliance Matrix: (Units=1/GPa)
#
#
# Indices 1 2 3 4 5 6 
#
# 1 0.016101 -0.001411 -0.003183 -0.006666 0.004692 -0.008303
# 2 -0.001411 0.006647 -0.002056 0.000959 0.001327 -0.002598
# 3 -0.003183 -0.002056 0.007042 0.001144 -0.002746 0.000050
# 4 -0.006666 0.000959 0.001144 0.028904 -0.007383 0.010771
# 5 0.004692 0.001327 -0.002746 -0.007383 0.024186 -0.003126
# 6 -0.008303 -0.002598 0.000050 0.010771 -0.003126 0.036450
#
#
# Mechanical properties :
#
#
# Convention : Reuss Voigt Hill
#
# Bulk Modulus (GPa) = 60.64518 90.84209 75.74364
# Shear Modulus (GPa) = 36.19834 46.55833 41.37834
#
# Velocity S-wave (km/s) = 3.87521 4.39491 4.14322
# Velocity P-wave (km/s) = 6.72178 7.96495 7.36963
#
# Compressibility (1/GPa) = 0.01648936
#
# Stress axis : x y z
#
# Youngs Moduli (GPa) = 62.10765 150.43940 142.00159
#
# Poissons Ratio (x) = 0.21231 0.45205
# Poissons Ratio (y) = 0.08765 0.29194
# Poissons Ratio (z) = 0.19772 0.30928
#
# Static dielectric constant tensor:
#      x y z
#    x 2.042200 -0.077660 0.035090 
#    y -0.077660 1.917610 -0.024710 
#    z 0.035090 -0.024710 1.956800 
# 
# From -- ./inp_files/371962.got.cif
#   From: 2010.05.17/outbox.cif.g08.bks.cpg/sg2_186_cif.got.tgz:371962.got - 2010.06.03 11:33:40.
