data_PCOD9052096
_publ_section_title
;
Structure prediction by ZEFSAII (Michael W. Deem and Ramdas Pophale) SiO2 
 PCOD9052096
Probable space group: P -1
;
_chemical_formula_sum "Si O2"
_cell_formula_units_Z 14
_cell_length_a 5.466972
_cell_length_b 20.850361
_cell_length_c 5.259331
_cell_angle_alpha 92.628576
_cell_angle_beta 95.318134
_cell_angle_gamma 63.651229
_cell_volume 534.899473
_symmetry_space_group_name_H-M "P -1"
_symmetry_group_IT_number 2
_symmetry_cell_setting 'triclinic'
loop_
_space_group_symop_operation_xyz
x,y,z
-x,-y,-z
loop_
_atom_site_type_symbol
_atom_site_label
_atom_site_fract_x
_atom_site_fract_y
_atom_site_fract_z
Si Si1 0.861042 0.422311 0.317946
Si Si2 0.063092 0.935034 0.690700
Si Si3 0.841439 0.800029 0.166344
Si Si4 0.681893 0.681733 0.980971
Si Si5 0.406372 0.959042 0.173646
Si Si6 0.813907 0.218577 0.329850
Si Si7 0.591434 0.585197 0.355770
O O1 0.684620 0.504971 0.240419
O O2 0.007814 0.368905 0.088659
O O3 0.133627 0.419170 0.481085
O O4 0.662891 0.402956 0.478354
O O5 0.214136 0.853598 0.613098
O O6 0.739634 0.964827 0.672289
O O7 0.000000 0.000000 0.500000
O O8 0.198006 0.938552 0.975425
O O9 0.641742 0.881417 0.242294
O O10 0.043099 0.767039 0.413802
O O11 0.679853 0.752305 0.116559
O O12 0.001167 0.797216 0.914658
O O13 0.476502 0.715967 0.733845
O O14 0.558995 0.639943 0.135960
O O15 0.500000 0.000000 0.000000
#
# Coordination Sequence:
#
# PCOD9052096 Si02
#       7
#     2   2   2   2   2   2   2
#     4  10  25  50  83 121 166 218 282 339 424 502
#     4  11  25  44  75 105 151 206 274 340 410 488
#     4  12  30  49  78 114 161 215 276 339 426 495
#     4  12  29  48  80 117 171 214 272 346 427 501
#     4  11  23  46  70 105 146 207 266 336 400 487
#     4  12  30  50  75 119 160 213 276 348 414 509
#     4  10  25  50  83 122 164 220 279 346 411 520
#
# _framework density 26.173141999999999
#
# number of rings (size 3 to 8) (size 9 to 14) (size 15 to 20)
#    0.000    0.857    2.857    1.286   12.000    1.143 
#    0.000    4.286    0.000    2.571    0.000    0.000 
#    0.000    0.000    0.000    0.000    0.000    0.000 
#
# Total GULP energy -77992.232997 kJ/mol
# GULP energy per Si atom -5570.873786 kJ/mol
# Density = 2.611357 g / cm^3
# Si number density = 26.173142 Si / 1000 Ang^3
#
#
#
# Elastic Constant Matrix: (Units=GPa)
#
#
# Indices 1 2 3 4 5 6 
#
# 1 128.1223 59.6436 26.4504 -1.7876 -20.7615 2.3959
# 2 59.6436 210.6342 37.4143 -3.6371 -15.8203 14.3168
# 3 26.4504 37.4143 95.8875 -7.4377 7.6468 0.9249
# 4 -1.7876 -3.6371 -7.4377 29.0601 7.0335 -9.0821
# 5 -20.7615 -15.8203 7.6468 7.0335 49.0680 -1.7800
# 6 2.3959 14.3168 0.9249 -9.0821 -1.7800 27.2987
#
#
#
# Elastic Compliance Matrix: (Units=1/GPa)
#
#
# Indices 1 2 3 4 5 6 
#
# 1 0.009908 -0.002123 -0.002319 -0.001167 0.004043 0.000198
# 2 -0.002123 0.005992 -0.001926 -0.001212 0.001391 -0.003203
# 3 -0.002319 -0.001926 0.012472 0.004426 -0.004108 0.001996
# 4 -0.001167 -0.001212 0.004426 0.041356 -0.006998 0.013890
# 5 0.004043 0.001391 -0.004108 -0.006998 0.024121 -0.001701
# 6 0.000198 -0.003203 0.001996 0.013890 -0.001701 0.042737
#
#
# Mechanical properties :
#
#
# Convention : Reuss Voigt Hill
#
# Bulk Modulus (GPa) = 63.96453 75.74007 69.85230
# Shear Modulus (GPa) = 32.35509 41.82774 37.09141
#
# Velocity S-wave (km/s) = 3.51977 4.00198 3.76860
# Velocity P-wave (km/s) = 6.40394 7.09615 6.75891
#
# Compressibility (1/GPa) = 0.01563367
#
# Stress axis : x y z
#
# Youngs Moduli (GPa) = 100.93309 166.88006 80.17929
#
# Poissons Ratio (x) = 0.35435 0.18596
# Poissons Ratio (y) = 0.21432 0.15446
# Poissons Ratio (z) = 0.23409 0.32148
#
# Static dielectric constant tensor:
#      x y z
#    x 2.079890 -0.024050 0.051890 
#    y -0.024050 2.021650 0.022520 
#    z 0.051890 0.022520 2.044330 
# 
# From -- ./inp_files/11466.got.cif
#   From: 2010.05.17/outbox.cif.g08.bks.cpg/sg2_6_cif.got.tgz:11466.got - 2010.06.03 11:33:40.
