data_PCOD9052430
_publ_section_title
;
Structure prediction by ZEFSAII (Michael W. Deem and Ramdas Pophale) SiO2 
 PCOD9052430
Probable space group: P -1
;
_chemical_formula_sum "Si O2"
_cell_formula_units_Z 10
_cell_length_a 5.341572
_cell_length_b 11.510323
_cell_length_c 11.560684
_cell_angle_alpha 33.647105
_cell_angle_beta 97.594612
_cell_angle_gamma 106.524323
_cell_volume 370.171334
_symmetry_space_group_name_H-M "P -1"
_symmetry_group_IT_number 2
_symmetry_cell_setting 'triclinic'
loop_
_space_group_symop_operation_xyz
x,y,z
-x,-y,-z
loop_
_atom_site_type_symbol
_atom_site_label
_atom_site_fract_x
_atom_site_fract_y
_atom_site_fract_z
Si Si1 0.842733 0.202470 0.218201
Si Si2 0.788089 0.720412 0.601885
Si Si3 0.635126 0.664957 0.006773
Si Si4 0.276721 0.548429 0.409847
Si Si5 0.682133 0.901597 0.057206
O O1 0.977412 0.228063 0.331594
O O2 0.087375 0.313966 0.053984
O O3 0.587315 0.282192 0.130671
O O4 0.759778 0.953023 0.374716
O O5 0.817061 0.577159 0.614154
O O6 0.509364 0.579466 0.755678
O O7 0.645469 0.823979 0.984693
O O8 0.356970 0.836123 0.147579
O O9 0.373202 0.352577 0.660330
O O10 0.000000 0.500000 0.500000
O O11 0.000000 0.000000 0.000000
#
# Coordination Sequence:
#
# PCOD9052430 Si02
#       5
#     2   2   2   2   2
#     4  11  25  44  75 101 136 187 225 290 352 411
#     4  10  26  46  69 106 140 176 241 282 345 422
#     4  11  25  44  70 102 140 179 232 288 348 410
#     4  11  26  43  68  99 137 181 223 290 344 404
#     4  11  24  42  66  98 135 179 230 277 342 417
#
# _framework density 27.014517999999999
#
# number of rings (size 3 to 8) (size 9 to 14) (size 15 to 20)
#    0.000    1.200    0.000    3.600    8.400   11.200 
#    0.000    0.000    0.000    0.000    0.000    0.000 
#    0.000    0.000    0.000    0.000    0.000    0.000 
#
# Total GULP energy -55934.435924 kJ/mol
# GULP energy per Si atom -5593.443592 kJ/mol
# Density = 2.695303 g / cm^3
# Si number density = 27.014518 Si / 1000 Ang^3
#
#
#
# Elastic Constant Matrix: (Units=GPa)
#
#
# Indices 1 2 3 4 5 6 
#
# 1 224.6139 51.0961 64.2176 1.3738 8.4122 11.5207
# 2 51.0961 186.9397 55.0811 -10.6920 -19.5779 -14.5140
# 3 64.2176 55.0811 150.0828 -42.1455 -7.7757 7.9323
# 4 1.3738 -10.6920 -42.1455 69.5496 -3.9922 -7.3894
# 5 8.4122 -19.5779 -7.7757 -3.9922 46.0125 0.1755
# 6 11.5207 -14.5140 7.9323 -7.3894 0.1755 50.3291
#
#
#
# Elastic Compliance Matrix: (Units=1/GPa)
#
#
# Indices 1 2 3 4 5 6 
#
# 1 0.005656 -0.001254 -0.002601 -0.002172 -0.002190 -0.001558
# 2 -0.001254 0.006744 -0.001818 0.000395 0.002816 0.002567
# 3 -0.002601 -0.001818 0.010276 0.006041 0.001965 -0.000668
# 4 -0.002172 0.000395 0.006041 0.018578 0.003189 0.002375
# 5 -0.002190 0.002816 0.001965 0.003189 0.023935 0.001388
# 6 -0.001558 0.002567 -0.000668 0.002375 0.001388 0.021415
#
#
# Mechanical properties :
#
#
# Convention : Reuss Voigt Hill
#
# Bulk Modulus (GPa) = 88.24625 100.26955 94.25790
# Shear Modulus (GPa) = 49.15063 59.26101 54.20582
#
# Velocity S-wave (km/s) = 4.27009 4.68875 4.48431
# Velocity P-wave (km/s) = 7.55306 8.15536 7.85998
#
# Compressibility (1/GPa) = 0.01133193
#
# Stress axis : x y z
#
# Youngs Moduli (GPa) = 176.79814 148.27044 97.30950
#
# Poissons Ratio (x) = 0.18595 0.25309
# Poissons Ratio (y) = 0.22173 0.17687
# Poissons Ratio (z) = 0.45983 0.26949
#
# Static dielectric constant tensor:
#      x y z
#    x 1.869760 -0.131790 0.024190 
#    y -0.131790 2.113760 -0.065640 
#    z 0.024190 -0.065640 2.339480 
# 
# From -- ./inp_files/18697.got.cif
#   From: 2010.05.17/outbox.cif.g08.bks.cpg/sg2_10_cif.got.tgz:18697.got - 2010.06.03 11:33:40.
