data_PCOD9052144
_publ_section_title
;
Structure prediction by ZEFSAII (Michael W. Deem and Ramdas Pophale) SiO2 
 PCOD9052144
Probable space group: P -1
;
_chemical_formula_sum "Si O2"
_cell_formula_units_Z 14
_cell_length_a 20.284107
_cell_length_b 9.487708
_cell_length_c 11.816143
_cell_angle_alpha 143.978659
_cell_angle_beta 150.710200
_cell_angle_gamma 37.242162
_cell_volume 620.900582
_symmetry_space_group_name_H-M "P -1"
_symmetry_group_IT_number 2
_symmetry_cell_setting 'triclinic'
loop_
_space_group_symop_operation_xyz
x,y,z
-x,-y,-z
loop_
_atom_site_type_symbol
_atom_site_label
_atom_site_fract_x
_atom_site_fract_y
_atom_site_fract_z
Si Si1 0.613092 0.249532 0.389811
Si Si2 0.650177 0.907561 0.012767
Si Si3 0.842753 0.352449 0.929197
Si Si4 0.448208 0.675220 0.278219
Si Si5 0.212690 0.463299 0.710004
Si Si6 0.562807 0.805093 0.309460
Si Si7 0.980826 0.856638 0.714799
O O1 0.479285 0.175057 0.182794
O O2 0.705861 0.260224 0.645025
O O3 0.563547 0.529943 0.447126
O O4 0.680259 0.082082 0.271244
O O5 0.783171 0.655204 0.025583
O O6 0.573430 0.072853 0.897255
O O7 0.923193 0.260735 0.107018
O O8 0.942416 0.158696 0.860150
O O9 0.515612 0.656554 0.242558
O O10 0.396212 0.966410 0.421859
O O11 0.329362 0.536688 0.007142
O O12 0.300203 0.354255 0.658616
O O13 0.077690 0.715595 0.664470
O O14 0.149862 0.255937 0.535995
#
# Coordination Sequence:
#
# PCOD9052144 Si02
#       7
#     2   2   2   2   2   2   2
#     4  11  23  36  64  99 128 159 207 277 328 363
#     4  11  23  36  64  99 128 159 207 277 328 363
#     4  11  23  40  57  91 131 166 210 263 308 382
#     4  11  24  42  68 100 129 166 205 264 334 384
#     4  11  23  42  63  95 127 168 218 259 302 396
#     4  11  24  42  68 100 129 166 205 264 334 384
#     4  10  26  40  62  90 134 178 214 252 316 366
#
# _framework density 22.547892999999998
#
# number of rings (size 3 to 8) (size 9 to 14) (size 15 to 20)
#    0.000    1.143    2.857    2.571   16.000    0.000 
#    0.000    0.000    0.000    5.143    0.000    0.000 
#    0.000    0.000    0.000    0.000    0.000    0.000 
#
# Total GULP energy -78181.585474 kJ/mol
# GULP energy per Si atom -5584.398962 kJ/mol
# Density = 2.249657 g / cm^3
# Si number density = 22.547893 Si / 1000 Ang^3
#
#
#
# Elastic Constant Matrix: (Units=GPa)
#
#
# Indices 1 2 3 4 5 6 
#
# 1 81.0933 40.6271 26.2452 -2.8781 -5.7002 -24.2929
# 2 40.6271 95.3410 14.1431 12.5928 0.7767 -26.7432
# 3 26.2452 14.1431 118.0619 1.4252 -5.9590 2.5108
# 4 -2.8781 12.5928 1.4252 30.1278 -8.0914 -18.7010
# 5 -5.7002 0.7767 -5.9590 -8.0914 20.1143 6.2533
# 6 -24.2929 -26.7432 2.5108 -18.7010 6.2533 53.5049
#
#
#
# Elastic Compliance Matrix: (Units=1/GPa)
#
#
# Indices 1 2 3 4 5 6 
#
# 1 0.021391 -0.007615 -0.003836 0.013635 0.007607 0.009963
# 2 -0.007615 0.015545 -0.000470 -0.007432 -0.006669 0.002517
# 3 -0.003836 -0.000470 0.009577 -0.002234 0.001937 -0.003433
# 4 0.013635 -0.007432 -0.002234 0.055100 0.019576 0.019551
# 5 0.007607 -0.006669 0.001937 0.019576 0.060645 -0.000216
# 6 0.009963 0.002517 -0.003433 0.019551 -0.000216 0.031491
#
#
# Mechanical properties :
#
#
# Convention : Reuss Voigt Hill
#
# Bulk Modulus (GPa) = 44.10601 50.72521 47.41561
# Shear Modulus (GPa) = 22.20783 34.98144 28.59463
#
# Velocity S-wave (km/s) = 3.14175 3.94309 3.56501
# Velocity P-wave (km/s) = 5.72401 6.57846 6.16605
#
# Compressibility (1/GPa) = 0.02267265
#
# Stress axis : x y z
#
# Youngs Moduli (GPa) = 46.74920 64.32973 104.41905
#
# Poissons Ratio (x) = 0.48984 0.40050
# Poissons Ratio (y) = 0.35597 0.04907
# Poissons Ratio (z) = 0.17931 0.03023
#
# Static dielectric constant tensor:
#      x y z
#    x 1.845350 -0.103070 -0.037750 
#    y -0.103070 1.942930 -0.010870 
#    z -0.037750 -0.010870 1.887660 
# 
# From -- ./inp_files/469686.got.cif
#   From: 2010.05.17/outbox.cif.g08.bks.cpg/sg2_235_cif.got.tgz:469686.got - 2010.06.03 11:33:40.
