data_PCOD9052994
_publ_section_title
;
Structure prediction by ZEFSAII (Michael W. Deem and Ramdas Pophale) SiO2 
 PCOD9052994
Probable space group: P -1
;
_chemical_formula_sum "Si O2"
_cell_formula_units_Z 16
_cell_length_a 9.124136
_cell_length_b 13.477290
_cell_length_c 5.317942
_cell_angle_alpha 72.801649
_cell_angle_beta 103.363542
_cell_angle_gamma 107.650105
_cell_volume 588.059804
_symmetry_space_group_name_H-M "P -1"
_symmetry_group_IT_number 2
_symmetry_cell_setting 'triclinic'
loop_
_space_group_symop_operation_xyz
x,y,z
-x,-y,-z
loop_
_atom_site_type_symbol
_atom_site_label
_atom_site_fract_x
_atom_site_fract_y
_atom_site_fract_z
Si Si1 0.825622 0.022383 0.559184
Si Si2 0.943097 0.432715 0.776599
Si Si3 0.405914 0.887126 0.901250
Si Si4 0.128164 0.784199 0.250831
Si Si5 0.647272 0.472495 0.829584
Si Si6 0.755280 0.903355 0.123653
Si Si7 0.628218 0.675512 0.435915
Si Si8 0.368634 0.692581 0.684750
O O1 0.663309 0.055922 0.400280
O O2 0.923432 0.129420 0.660847
O O3 0.854796 0.975678 0.333083
O O4 0.806906 0.933619 0.836161
O O5 0.978322 0.315220 0.869776
O O6 0.758187 0.420002 0.742662
O O7 0.000000 0.500000 0.500000
O O8 0.000000 0.500000 0.000000
O O9 0.422928 0.773877 0.875457
O O10 0.264183 0.850924 0.071890
O O11 0.582391 0.930151 0.043181
O O12 0.210053 0.718326 0.521529
O O13 0.694887 0.598736 0.704777
O O14 0.471491 0.412874 0.727464
O O15 0.660980 0.429271 0.144735
O O16 0.735354 0.778933 0.272169
O O17 0.506178 0.719887 0.519525
#
# Coordination Sequence:
#
# PCOD9052994 Si02
#       8
#     2   2   2   2   2   2   2   2
#     4  11  25  32  57  78 131 166 204 251 300 372
#     4  12  26  44  69  94 125 157 208 273 314 367
#     4  11  20  33  54  81 129 169 206 245 298 382
#     4  11  22  39  57  89 123 167 205 250 323 374
#     4  11  23  41  58  93 123 177 205 251 322 369
#     4  12  21  36  49  92 118 172 208 246 298 356
#     4  11  23  36  62  85 136 170 211 247 299 391
#     4  11  17  36  59  84 125 174 204 248 300 380
#
# _framework density 27.208117000000001
#
# number of rings (size 3 to 8) (size 9 to 14) (size 15 to 20)
#    0.000    0.750    6.250    2.625    3.500    0.000 
#    0.000    0.000    0.000    0.000    0.000    5.250 
#    0.000    0.000    0.000    0.000    0.000    0.000 
#
# Total GULP energy -89527.686818 kJ/mol
# GULP energy per Si atom -5595.480426 kJ/mol
# Density = 2.714619 g / cm^3
# Si number density = 27.208117 Si / 1000 Ang^3
#
#
#
# Elastic Constant Matrix: (Units=GPa)
#
#
# Indices 1 2 3 4 5 6 
#
# 1 77.8207 38.5228 24.5421 8.0575 -23.4246 -8.1686
# 2 38.5228 169.4181 80.9699 -9.7086 -5.5730 -1.8902
# 3 24.5421 80.9699 178.7531 -15.2930 -14.0354 10.7309
# 4 8.0575 -9.7086 -15.2930 64.1588 -4.4980 -3.5162
# 5 -23.4246 -5.5730 -14.0354 -4.4980 34.1245 6.7081
# 6 -8.1686 -1.8902 10.7309 -3.5162 6.7081 45.9609
#
#
#
# Elastic Compliance Matrix: (Units=1/GPa)
#
#
# Indices 1 2 3 4 5 6 
#
# 1 0.018668 -0.003898 -0.000147 -0.002084 0.011579 0.001342
# 2 -0.003898 0.008419 -0.003489 0.000786 -0.002817 0.000939
# 3 -0.000147 -0.003489 0.007702 0.001419 0.003140 -0.002317
# 4 -0.002084 0.000786 0.001419 0.016423 0.001370 0.000387
# 5 0.011579 -0.002817 0.003140 0.001370 0.039129 -0.004397
# 6 0.001342 0.000939 -0.002317 0.000387 -0.004397 0.023247
#
#
# Mechanical properties :
#
#
# Convention : Reuss Voigt Hill
#
# Bulk Modulus (GPa) = 50.70653 79.34019 65.02336
# Shear Modulus (GPa) = 36.97413 47.64599 42.31006
#
# Velocity S-wave (km/s) = 3.69038 4.18924 3.94769
# Velocity P-wave (km/s) = 6.06923 7.25420 6.68801
#
# Compressibility (1/GPa) = 0.01972133
#
# Stress axis : x y z
#
# Youngs Moduli (GPa) = 53.56738 118.77685 129.83815
#
# Poissons Ratio (x) = 0.46300 0.01910
# Poissons Ratio (y) = 0.20881 0.45297
# Poissons Ratio (z) = 0.00788 0.41438
#
# Static dielectric constant tensor:
#      x y z
#    x 2.265080 0.053980 0.114700 
#    y 0.053980 2.303620 0.106180 
#    z 0.114700 0.106180 2.188760 
# 
# From -- ./inp_files/75848.got.cif
#   From: 2010.05.17/outbox.cif.g08.bks.cpg/sg2_38_cif.got.tgz:75848.got - 2010.06.03 11:33:40.
