data_PCOD9052542
_publ_section_title
;
Structure prediction by ZEFSAII (Michael W. Deem and Ramdas Pophale) SiO2 
 PCOD9052542
Probable space group: P -1
;
_chemical_formula_sum "Si O2"
_cell_formula_units_Z 15
_cell_length_a 13.275766
_cell_length_b 9.826495
_cell_length_c 5.255079
_cell_angle_alpha 71.326881
_cell_angle_beta 98.285961
_cell_angle_gamma 107.645199
_cell_volume 618.063081
_symmetry_space_group_name_H-M "P -1"
_symmetry_group_IT_number 2
_symmetry_cell_setting 'triclinic'
loop_
_space_group_symop_operation_xyz
x,y,z
-x,-y,-z
loop_
_atom_site_type_symbol
_atom_site_label
_atom_site_fract_x
_atom_site_fract_y
_atom_site_fract_z
Si Si1 0.914054 0.562505 0.795537
Si Si2 0.730471 0.115972 0.492802
Si Si3 0.369325 0.208569 0.275307
Si Si4 0.168918 0.262670 0.908454
Si Si5 0.976453 0.124284 0.608000
Si Si6 0.500000 0.500000 0.000000
Si Si7 0.723644 0.297453 0.866682
Si Si8 0.338972 0.446281 0.518219
O O1 0.836434 0.409221 0.753839
O O2 0.980523 0.706254 0.581622
O O3 0.850806 0.627821 0.948018
O O4 0.000000 0.500000 0.000000
O O5 0.850074 0.099315 0.590516
O O6 0.695225 0.179357 0.701224
O O7 0.647198 0.954444 0.520967
O O8 0.731117 0.222593 0.185648
O O9 0.372416 0.326196 0.432128
O O10 0.261357 0.195155 0.082958
O O11 0.464998 0.308993 0.088245
O O12 0.222222 0.361655 0.627122
O O13 0.058984 0.144510 0.864544
O O14 0.000000 0.000000 0.500000
O O15 0.409893 0.498461 0.756235
O O16 0.653584 0.414476 0.748627
#
# Coordination Sequence:
#
# PCOD9052542 Si02
#       8
#     2   2   2   2   2   1   2   2
#     4  12  23  39  63  97 145 197 247 286 347 425
#     4  12  29  45  71 106 158 192 247 299 371 421
#     4  11  25  48  75 104 138 189 242 312 366 448
#     4  11  22  40  70  99 143 193 251 295 353 419
#     4  12  26  39  64 104 146 201 250 304 342 422
#     4  10  26  46  86 106 136 174 254 304 380 446
#     4  12  26  46  70 107 147 201 235 302 364 440
#     4  11  23  46  78 105 139 186 252 296 373 443
#
# _framework density 24.269368
#
# number of rings (size 3 to 8) (size 9 to 14) (size 15 to 20)
#    0.000    0.533    4.000    3.600    7.467    2.133 
#    0.000    1.333    0.000    0.000    0.000    0.000 
#    0.000    0.000    0.000    0.000    0.000    0.000 
#
# Total GULP energy -83573.307831 kJ/mol
# GULP energy per Si atom -5571.553855 kJ/mol
# Density = 2.421413 g / cm^3
# Si number density = 24.269368 Si / 1000 Ang^3
#
#
#
# Elastic Constant Matrix: (Units=GPa)
#
#
# Indices 1 2 3 4 5 6 
#
# 1 -53.2733 115.8648 55.4972 20.9849 -82.1536 141.5175
# 2 115.8648 77.5813 4.4335 -32.6469 61.0270 -67.7726
# 3 55.4972 4.4335 74.2585 -11.0514 28.2145 -12.8476
# 4 20.9849 -32.6469 -11.0514 39.2444 25.7446 -51.0685
# 5 -82.1536 61.0270 28.2145 25.7446 -5.4733 77.9871
# 6 141.5175 -67.7726 -12.8476 -51.0685 77.9871 -96.6006
#
#
#
# Elastic Compliance Matrix: (Units=1/GPa)
#
#
# Indices 1 2 3 4 5 6 
#
# 1 0.010919 -0.001090 -0.004027 0.008070 -0.002553 0.010970
# 2 -0.001090 0.008293 -0.000928 -0.001438 -0.000401 -0.006856
# 3 -0.004027 -0.000928 0.015900 -0.002998 -0.003393 -0.008517
# 4 0.008070 -0.001438 -0.002998 0.022124 0.002542 0.003586
# 5 -0.002553 -0.000401 -0.003393 0.002542 0.020603 0.012281
# 6 0.010970 -0.006856 -0.008517 0.003586 0.012281 0.019680
#
#
# Mechanical properties :
#
#
# Convention : Reuss Voigt Hill
#
# Bulk Modulus (GPa) = 43.43476 50.01748 46.72612
# Shear Modulus (GPa) = 42.63166 -17.71449 12.45858
#
# Velocity S-wave (km/s) = 4.19573 -2.70462 2.26817
# Velocity P-wave (km/s) = 6.43491 3.30163 5.11414
#
# Compressibility (1/GPa) = 0.02302304
#
# Stress axis : x y z
#
# Youngs Moduli (GPa) = 91.57936 120.58707 62.89113
#
# Poissons Ratio (x) = 0.13150 0.25323
# Poissons Ratio (y) = 0.09987 0.05835
# Poissons Ratio (z) = 0.36875 0.11189
#
# Static dielectric constant tensor:
#      x y z
#    x 2.003180 -0.072520 0.009690 
#    y -0.072520 1.926920 0.074050 
#    z 0.009690 0.074050 2.103650 
# 
# From -- ./inp_files/34766.got.cif
#   From: 2010.05.17/outbox.cif.g08.bks.cpg/sg2_18_cif.got.tgz:34766.got - 2010.06.03 11:33:40.
