data_PCOD9052557
_publ_section_title
;
Structure prediction by ZEFSAII (Michael W. Deem and Ramdas Pophale) SiO2 
 PCOD9052557
Probable space group: P -1
;
_chemical_formula_sum "Si O2"
_cell_formula_units_Z 14
_cell_length_a 9.196627
_cell_length_b 12.548427
_cell_length_c 8.700080
_cell_angle_alpha 125.772808
_cell_angle_beta 46.854811
_cell_angle_gamma 116.810975
_cell_volume 592.116474
_symmetry_space_group_name_H-M "P -1"
_symmetry_group_IT_number 2
_symmetry_cell_setting 'triclinic'
loop_
_space_group_symop_operation_xyz
x,y,z
-x,-y,-z
loop_
_atom_site_type_symbol
_atom_site_label
_atom_site_fract_x
_atom_site_fract_y
_atom_site_fract_z
Si Si1 0.910019 0.159607 0.331220
Si Si2 0.712962 0.757283 0.535924
Si Si3 0.348308 0.964720 0.213669
Si Si4 0.325487 0.107022 0.832688
Si Si5 0.430692 0.695454 0.409566
Si Si6 0.505555 0.435154 0.269499
Si Si7 0.120481 0.707031 0.198807
O O1 0.788027 0.255049 0.395879
O O2 0.902690 0.229910 0.561319
O O3 0.779445 0.017159 0.294533
O O4 0.132876 0.145139 0.099805
O O5 0.534121 0.742026 0.532149
O O6 0.629354 0.700766 0.711597
O O7 0.893638 0.672085 0.284149
O O8 0.783376 0.910660 0.590634
O O9 0.495628 0.940558 0.230359
O O10 0.219394 0.833348 0.145979
O O11 0.500000 0.000000 0.000000
O O12 0.432460 0.227715 0.756413
O O13 0.425966 0.537274 0.291717
O O14 0.500000 0.500000 0.500000
O O15 0.721323 0.399518 0.024602
#
# Coordination Sequence:
#
# PCOD9052557 Si02
#       7
#     2   2   2   2   2   2   2
#     4  11  24  42  71 104 135 178 225 276 345 403
#     4  11  24  43  70 103 135 176 227 281 337 402
#     4  12  22  41  72 100 140 171 217 288 341 400
#     4  11  24  44  69 103 140 177 222 277 345 405
#     4  11  23  45  70  92 139 185 225 275 335 402
#     4  10  26  47  68  96 138 182 231 276 336 398
#     4  12  25  43  70 104 135 176 231 279 339 398
#
# _framework density 23.643995
#
# number of rings (size 3 to 8) (size 9 to 14) (size 15 to 20)
#    0.000    0.857    4.286    2.571    0.000    8.571 
#    0.000    1.429    0.000    0.000    0.000    0.000 
#    0.000    0.000    0.000    0.000    0.000    0.000 
#
# Total GULP energy -78147.854806 kJ/mol
# GULP energy per Si atom -5581.989629 kJ/mol
# Density = 2.359018 g / cm^3
# Si number density = 23.643995 Si / 1000 Ang^3
#
#
#
# Elastic Constant Matrix: (Units=GPa)
#
#
# Indices 1 2 3 4 5 6 
#
# 1 69.3791 41.7040 41.3503 1.5704 -13.2490 -7.3935
# 2 41.7040 155.0346 40.5187 1.4303 -15.2766 -26.9191
# 3 41.3503 40.5187 171.7385 -2.9767 -31.7688 -11.0376
# 4 1.5704 1.4303 -2.9767 39.7569 -2.5720 0.4045
# 5 -13.2490 -15.2766 -31.7688 -2.5720 47.9086 5.2072
# 6 -7.3935 -26.9191 -11.0376 0.4045 5.2072 24.6190
#
#
#
# Elastic Compliance Matrix: (Units=1/GPa)
#
#
# Indices 1 2 3 4 5 6 
#
# 1 0.019248 -0.004243 -0.003364 -0.000737 0.001779 -0.000732
# 2 -0.004243 0.009259 -0.000530 -0.000260 0.000488 0.008513
# 3 -0.003364 -0.000530 0.007549 0.000957 0.003853 0.000964
# 4 -0.000737 -0.000260 0.000957 0.025389 0.001806 -0.000876
# 5 0.001779 0.000488 0.003853 0.001806 0.024434 -0.002402
# 6 -0.000732 0.008513 0.000964 -0.000876 -0.002402 0.050662
#
#
# Mechanical properties :
#
#
# Convention : Reuss Voigt Hill
#
# Bulk Modulus (GPa) = 50.55282 71.47760 61.01521
# Shear Modulus (GPa) = 31.36603 40.62885 35.99744
#
# Velocity S-wave (km/s) = 3.64620 4.14981 3.90613
# Velocity P-wave (km/s) = 6.25728 7.29778 6.79747
#
# Compressibility (1/GPa) = 0.01978129
#
# Stress axis : x y z
#
# Youngs Moduli (GPa) = 51.95448 108.00622 132.46644
#
# Poissons Ratio (x) = 0.45831 0.44560
# Poissons Ratio (y) = 0.22046 0.07018
# Poissons Ratio (z) = 0.17477 0.05722
#
# Static dielectric constant tensor:
#      x y z
#    x 1.944860 0.056860 0.055790 
#    y 0.056860 2.077840 0.127420 
#    z 0.055790 0.127420 2.022430 
# 
# From -- ./inp_files/189650.got.cif
#   From: 2010.05.17/outbox.cif.g08.bks.cpg/sg2_95_cif.got.tgz:189650.got - 2010.06.03 11:33:40.
