data_PCOD9052635
_publ_section_title
;
Structure prediction by ZEFSAII (Michael W. Deem and Ramdas Pophale) SiO2 
 PCOD9052635
Probable space group: P -1
;
_chemical_formula_sum "Si O2"
_cell_formula_units_Z 14
_cell_length_a 20.549756
_cell_length_b 10.078641
_cell_length_c 15.799470
_cell_angle_alpha 27.311996
_cell_angle_beta 160.453073
_cell_angle_gamma 145.878153
_cell_volume 501.394172
_symmetry_space_group_name_H-M "P -1"
_symmetry_group_IT_number 2
_symmetry_cell_setting 'triclinic'
loop_
_space_group_symop_operation_xyz
x,y,z
-x,-y,-z
loop_
_atom_site_type_symbol
_atom_site_label
_atom_site_fract_x
_atom_site_fract_y
_atom_site_fract_z
Si Si1 0.696656 0.344666 0.369126
Si Si2 0.244917 0.692479 0.186300
Si Si3 0.768703 0.062317 0.142469
Si Si4 0.241886 0.490777 0.466908
Si Si5 0.310172 0.037008 0.577486
Si Si6 0.613052 0.567556 0.783133
Si Si7 0.074010 0.577965 0.637910
O O1 0.698887 0.317271 0.489090
O O2 0.751241 0.072948 0.528434
O O3 0.876988 0.550252 0.463707
O O4 0.500000 0.500000 0.000000
O O5 0.138841 0.664372 0.162900
O O6 0.279473 0.374299 0.368887
O O7 0.461283 0.790251 0.422410
O O8 0.163092 0.875657 0.904238
O O9 0.855596 0.797432 0.457166
O O10 0.735500 0.357366 0.988866
O O11 0.543357 0.974503 0.904122
O O12 0.445984 0.398040 0.722758
O O13 0.194484 0.858755 0.606501
O O14 0.766607 0.647995 0.995756
O O15 0.000000 0.500000 0.500000
#
# Coordination Sequence:
#
# PCOD9052635 Si02
#       7
#     2   2   2   2   2   2   2
#     4  11  21  35  57  86 119 155 193 242 300 348
#     4   9  21  34  66  91 114 155 199 240 281 347
#     4  11  17  35  66  88 118 153 197 240 284 346
#     4  10  19  33  59  90 116 149 196 233 292 347
#     4  10  17  35  57  85 114 148 196 237 279 344
#     4   9  17  33  56  88 110 145 202 235 275 343
#     4  10  19  32  57  86 116 156 196 240 286 346
#
# _framework density 27.922142000000001
#
# number of rings (size 3 to 8) (size 9 to 14) (size 15 to 20)
#    0.857    1.143    2.857    3.857    0.000    0.000 
#    0.000    3.571    0.000   18.857    0.000    0.000 
#    0.000    0.000    0.000    0.000    0.000    0.000 
#
# Total GULP energy -78199.870879 kJ/mol
# GULP energy per Si atom -5585.705063 kJ/mol
# Density = 2.785859 g / cm^3
# Si number density = 27.922142 Si / 1000 Ang^3
#
#
#
# Elastic Constant Matrix: (Units=GPa)
#
#
# Indices 1 2 3 4 5 6 
#
# 1 195.3688 21.8817 57.2131 -6.3952 -45.1630 -1.1780
# 2 21.8817 62.0985 28.7817 -9.6033 -20.5496 -0.6598
# 3 57.2131 28.7817 146.9149 33.1673 -29.6221 4.4535
# 4 -6.3952 -9.6033 33.1673 28.1842 -1.7085 -1.7876
# 5 -45.1630 -20.5496 -29.6221 -1.7085 54.0920 8.8056
# 6 -1.1780 -0.6598 4.4535 -1.7876 8.8056 61.9836
#
#
#
# Elastic Compliance Matrix: (Units=1/GPa)
#
#
# Indices 1 2 3 4 5 6 
#
# 1 0.007451 0.001989 -0.003906 0.007269 0.005078 -0.000068
# 2 0.001989 0.024694 -0.008649 0.019491 0.006837 0.000513
# 3 -0.003906 -0.008649 0.015341 -0.021929 0.001505 -0.002115
# 4 0.007269 0.019491 -0.021929 0.069988 0.003106 0.003498
# 5 0.005078 0.006837 0.001505 0.003106 0.026843 -0.003663
# 6 -0.000068 0.000513 -0.002115 0.003498 -0.003663 0.016911
#
#
# Mechanical properties :
#
#
# Convention : Reuss Voigt Hill
#
# Bulk Modulus (GPa) = 37.94811 68.90390 53.42600
# Shear Modulus (GPa) = 26.15809 48.61900 37.38855
#
# Velocity S-wave (km/s) = 3.06408 4.17734 3.66324
# Velocity P-wave (km/s) = 5.11256 6.92803 6.08834
#
# Compressibility (1/GPa) = 0.02635177
#
# Stress axis : x y z
#
# Youngs Moduli (GPa) = 134.20639 40.49617 65.18588
#
# Poissons Ratio (x) = -0.08054 0.25464
# Poissons Ratio (y) = -0.26692 0.56382
# Poissons Ratio (z) = 0.52426 0.35027
#
# Static dielectric constant tensor:
#      x y z
#    x 2.935880 0.023160 -0.653360 
#    y 0.023160 2.247440 0.000620 
#    z -0.653360 0.000620 2.755910 
# 
# From -- ./inp_files/579149.got.cif
#   From: 2010.05.17/outbox.cif.g08.bks.cpg/sg2_290_cif.got.tgz:579149.got - 2010.06.03 11:33:40.
