data_PCOD9052452
_publ_section_title
;
Structure prediction by ZEFSAII (Michael W. Deem and Ramdas Pophale) SiO2 
 PCOD9052452
Probable space group: P -1
;
_chemical_formula_sum "Si O2"
_cell_formula_units_Z 15
_cell_length_a 12.015769
_cell_length_b 15.313216
_cell_length_c 11.580631
_cell_angle_alpha 58.840074
_cell_angle_beta 79.077905
_cell_angle_gamma 27.539497
_cell_volume 617.594881
_symmetry_space_group_name_H-M "P -1"
_symmetry_group_IT_number 2
_symmetry_cell_setting 'triclinic'
loop_
_space_group_symop_operation_xyz
x,y,z
-x,-y,-z
loop_
_atom_site_type_symbol
_atom_site_label
_atom_site_fract_x
_atom_site_fract_y
_atom_site_fract_z
Si Si1 0.880715 0.458744 0.106145
Si Si2 0.302633 0.758037 0.767551
Si Si3 0.178931 0.339215 0.317051
Si Si4 0.136033 0.834857 0.204450
Si Si5 0.055871 0.663647 0.059309
Si Si6 0.000000 0.500000 0.500000
Si Si7 0.159101 0.129773 0.795024
Si Si8 0.178924 0.696372 0.645580
O O1 0.876760 0.371323 0.259246
O O2 0.012431 0.443486 0.160174
O O3 0.084307 0.247419 0.099682
O O4 0.510143 0.794547 0.909467
O O5 0.675370 0.475401 0.911061
O O6 0.274940 0.679006 0.752977
O O7 0.084622 0.941896 0.799098
O O8 0.137925 0.983553 0.565057
O O9 0.242044 0.405348 0.244911
O O10 0.978366 0.497089 0.366388
O O11 0.500000 0.000000 0.500000
O O12 0.513794 0.549235 0.332432
O O13 0.098071 0.743922 0.266382
O O14 0.000000 0.000000 0.000000
O O15 0.809988 0.894435 0.054162
O O16 0.067706 0.317638 0.636284
#
# Coordination Sequence:
#
# PCOD9052452 Si02
#       8
#     2   2   2   2   2   1   2   2
#     4  12  25  42  71 100 139 176 231 281 340 412
#     4  11  24  43  66  96 143 174 234 279 344 401
#     4  11  25  45  70  98 133 176 229 278 349 401
#     4  12  23  42  70  98 136 180 227 281 342 405
#     4  11  23  42  67  96 132 179 222 288 330 406
#     4  10  26  46  70  96 136 182 218 290 332 404
#     4  11  24  43  69  99 136 179 232 276 347 399
#     4  11  25  41  65 104 134 183 225 282 340 409
#
# _framework density 24.287765
#
# number of rings (size 3 to 8) (size 9 to 14) (size 15 to 20)
#    0.000    0.800    4.000    2.400    3.733    4.267 
#    0.000    0.000    0.000    0.000    0.000    0.000 
#    0.000    0.000    0.000    0.000    0.000    0.000 
#
# Total GULP energy -83757.922380 kJ/mol
# GULP energy per Si atom -5583.861492 kJ/mol
# Density = 2.423248 g / cm^3
# Si number density = 24.287765 Si / 1000 Ang^3
#
#
#
# Elastic Constant Matrix: (Units=GPa)
#
#
# Indices 1 2 3 4 5 6 
#
# 1 86.4791 12.7130 18.4047 6.2817 -15.4240 9.6539
# 2 12.7130 125.1499 3.5830 45.1923 4.7116 14.0591
# 3 18.4047 3.5830 67.4994 13.7683 -17.8145 -1.2704
# 4 6.2817 45.1923 13.7683 42.2846 15.1726 4.1659
# 5 -15.4240 4.7116 -17.8145 15.1726 43.2227 3.4399
# 6 9.6539 14.0591 -1.2704 4.1659 3.4399 26.3441
#
#
#
# Elastic Compliance Matrix: (Units=1/GPa)
#
#
# Indices 1 2 3 4 5 6 
#
# 1 0.013769 0.000236 -0.001670 -0.003292 0.005791 -0.005488
# 2 0.000236 0.015850 0.005600 -0.021297 0.008621 -0.006033
# 3 -0.001670 0.005600 0.022515 -0.018242 0.014501 -0.000300
# 4 -0.003292 -0.021297 -0.018242 0.062626 -0.028797 0.005549
# 5 0.005791 0.008621 0.014501 -0.028797 0.040890 -0.006809
# 6 -0.005488 -0.006033 -0.000300 0.005549 -0.006809 0.043187
#
#
# Mechanical properties :
#
#
# Convention : Reuss Voigt Hill
#
# Bulk Modulus (GPa) = 16.53815 38.72555 27.63185
# Shear Modulus (GPa) = 23.73482 38.66546 31.20014
#
# Velocity S-wave (km/s) = 3.12947 3.99428 3.58802
# Velocity P-wave (km/s) = 4.45894 6.10340 5.34479
#
# Compressibility (1/GPa) = 0.06046625
#
# Stress axis : x y z
#
# Youngs Moduli (GPa) = 72.62746 63.09220 44.41391
#
# Poissons Ratio (x) = -0.01490 0.07418
# Poissons Ratio (y) = -0.01716 -0.24872
# Poissons Ratio (z) = 0.12131 -0.35332
#
# Static dielectric constant tensor:
#      x y z
#    x 1.922450 0.002090 0.061970 
#    y 0.002090 1.925820 0.024740 
#    z 0.061970 0.024740 1.971170 
# 
# From -- ./inp_files/433806.got.cif
#   From: 2010.05.17/outbox.cif.g08.bks.cpg/sg2_217_cif.got.tgz:433806.got - 2010.06.03 11:33:40.
