data_PCOD9052422
_publ_section_title
;
Structure prediction by ZEFSAII (Michael W. Deem and Ramdas Pophale) SiO2 
 PCOD9052422
Probable space group: P -1
;
_chemical_formula_sum "Si O2"
_cell_formula_units_Z 13
_cell_length_a 8.089102
_cell_length_b 9.453187
_cell_length_c 13.619573
_cell_angle_alpha 113.244542
_cell_angle_beta 114.029063
_cell_angle_gamma 32.066460
_cell_volume 502.350178
_symmetry_space_group_name_H-M "P -1"
_symmetry_group_IT_number 2
_symmetry_cell_setting 'triclinic'
loop_
_space_group_symop_operation_xyz
x,y,z
-x,-y,-z
loop_
_atom_site_type_symbol
_atom_site_label
_atom_site_fract_x
_atom_site_fract_y
_atom_site_fract_z
Si Si1 0.362749 0.575763 0.256390
Si Si2 0.264697 0.233873 0.427932
Si Si3 0.357372 0.750342 0.489531
Si Si4 0.220507 0.102580 0.185027
Si Si5 0.073290 0.394986 0.829669
Si Si6 0.500000 0.000000 0.000000
Si Si7 0.115714 0.956665 0.874264
O O1 0.400125 0.695606 0.368750
O O2 0.678718 0.262821 0.224455
O O3 0.121551 0.618276 0.256544
O O4 0.202215 0.747963 0.165272
O O5 0.467196 0.224004 0.420918
O O6 0.136603 0.216371 0.305942
O O7 0.000000 0.500000 0.500000
O O8 0.500000 0.000000 0.500000
O O9 0.500000 0.500000 0.500000
O O10 0.000000 0.000000 0.500000
O O11 0.153411 0.296288 0.148730
O O12 0.000342 0.110807 0.110281
O O13 0.594434 0.807318 0.199730
O O14 0.200152 0.254832 0.927365
O O15 0.347536 0.927789 0.960325
#
# Coordination Sequence:
#
# PCOD9052422 Si02
#       7
#     2   2   2   2   2   1   2
#     4  11  22  42  63  91 127 175 206 261 317 380
#     4  12  24  41  64  94 134 172 213 257 315 381
#     4  12  23  38  62  93 128 168 218 259 306 377
#     4  12  24  42  65  99 128 169 208 272 318 371
#     4  11  24  42  67  92 131 162 218 264 323 380
#     4  10  26  46  68  96 122 174 212 270 328 394
#     4  11  24  42  67  90 127 162 217 259 325 383
#
# _framework density 25.878363
#
# number of rings (size 3 to 8) (size 9 to 14) (size 15 to 20)
#    0.000    0.615    0.000    9.231    0.000    6.769 
#    0.000    0.000    0.000    0.000    0.000    0.000 
#    0.000    0.000    0.000    0.000    0.000    0.000 
#
# Total GULP energy -72619.743477 kJ/mol
# GULP energy per Si atom -5586.134114 kJ/mol
# Density = 2.581946 g / cm^3
# Si number density = 25.878363 Si / 1000 Ang^3
#
#
#
# Elastic Constant Matrix: (Units=GPa)
#
#
# Indices 1 2 3 4 5 6 
#
# 1 150.5843 14.6739 17.3508 6.3325 39.5879 2.2528
# 2 14.6739 137.4263 -0.4690 -0.6332 9.8510 3.6658
# 3 17.3508 -0.4690 95.8281 2.0517 29.3006 6.6142
# 4 6.3325 -0.6332 2.0517 46.6408 4.1931 -17.4437
# 5 39.5879 9.8510 29.3006 4.1931 41.9016 4.0016
# 6 2.2528 3.6658 6.6142 -17.4437 4.0016 51.4961
#
#
#
# Elastic Compliance Matrix: (Units=1/GPa)
#
#
# Indices 1 2 3 4 5 6 
#
# 1 0.008968 -0.000297 0.001194 -0.000431 -0.009199 0.000045
# 2 -0.000297 0.007462 0.000710 0.000130 -0.001944 -0.000414
# 3 0.001194 0.000710 0.013559 -0.000196 -0.010653 -0.001083
# 4 -0.000431 0.000130 -0.000196 0.025029 -0.002825 0.008733
# 5 -0.009199 -0.001944 -0.010653 -0.002825 0.040958 -0.002231
# 6 0.000045 -0.000414 -0.001083 0.008733 -0.002231 0.022717
#
#
# Mechanical properties :
#
#
# Convention : Reuss Voigt Hill
#
# Bulk Modulus (GPa) = 30.11859 49.66113 39.88986
# Shear Modulus (GPa) = 39.51092 51.49323 45.50208
#
# Velocity S-wave (km/s) = 3.91166 4.46558 4.19776
# Velocity P-wave (km/s) = 5.66262 6.76907 6.24042
#
# Compressibility (1/GPa) = 0.03320208
#
# Stress axis : x y z
#
# Youngs Moduli (GPa) = 111.50794 134.01646 73.75198
#
# Poissons Ratio (x) = 0.03984 -0.08803
# Poissons Ratio (y) = 0.03315 -0.05240
# Poissons Ratio (z) = -0.13309 -0.09521
#
# Static dielectric constant tensor:
#      x y z
#    x 1.612740 0.234510 0.287770 
#    y 0.234510 1.819090 -0.176590 
#    z 0.287770 -0.176590 1.776870 
# 
# From -- ./inp_files/89491.got.cif
#   From: 2010.05.17/outbox.cif.g08.bks.cpg/sg2_45_cif.got.tgz:89491.got - 2010.06.03 11:33:40.
