data_PCOD9052733
_publ_section_title
;
Structure prediction by ZEFSAII (Michael W. Deem and Ramdas Pophale) SiO2 
 PCOD9052733
Probable space group: P -1
;
_chemical_formula_sum "Si O2"
_cell_formula_units_Z 16
_cell_length_a 15.163549
_cell_length_b 26.003419
_cell_length_c 7.739047
_cell_angle_alpha 115.971022
_cell_angle_beta 60.873204
_cell_angle_gamma 162.735278
_cell_volume 786.862590
_symmetry_space_group_name_H-M "P -1"
_symmetry_group_IT_number 2
_symmetry_cell_setting 'triclinic'
loop_
_space_group_symop_operation_xyz
x,y,z
-x,-y,-z
loop_
_atom_site_type_symbol
_atom_site_label
_atom_site_fract_x
_atom_site_fract_y
_atom_site_fract_z
Si Si1 0.173651 0.082282 0.733004
Si Si2 0.383608 0.495777 0.186190
Si Si3 0.493507 0.351940 0.012100
Si Si4 0.357234 0.755284 0.416242
Si Si5 0.522947 0.739630 0.669690
Si Si6 0.220334 0.806816 0.492118
Si Si7 0.632097 0.468588 0.394777
Si Si8 0.057083 0.573573 0.796697
O O1 0.303463 0.090700 0.682256
O O2 0.379135 0.203815 0.541782
O O3 0.252163 0.173509 0.930031
O O4 0.828205 0.899870 0.728140
O O5 0.523195 0.581185 0.370284
O O6 0.018861 0.303184 0.289944
O O7 0.500000 0.500000 0.000000
O O8 0.463390 0.588584 0.113911
O O9 0.449885 0.369514 0.244160
O O10 0.807629 0.486368 0.960434
O O11 0.331842 0.802002 0.415083
O O12 0.231559 0.693325 0.640913
O O13 0.139100 0.587889 0.305134
O O14 0.353601 0.589070 0.634852
O O15 0.318422 0.685433 0.831929
O O16 0.983289 0.679214 0.367276
O O17 0.500000 0.000000 0.500000
#
# Coordination Sequence:
#
# PCOD9052733 Si02
#       8
#     2   2   2   2   2   2   2   2
#     4   9  19  32  61  92 133 164 199 260 323 385
#     4  10  22  44  66  88 124 171 213 273 323 372
#     4  11  20  38  64  93 122 169 212 253 327 387
#     4   9  15  32  60  90 119 167 207 253 316 379
#     4  10  17  35  57  94 132 164 201 253 325 384
#     4  10  20  41  65  91 127 166 216 278 312 363
#     4  10  22  38  65  91 123 163 219 261 310 389
#     4   9  15  30  62  88 118 165 205 247 315 394
#
# _framework density 20.333919000000002
#
# number of rings (size 3 to 8) (size 9 to 14) (size 15 to 20)
#    0.750    1.500    3.750    0.750    0.000    1.500 
#    2.250    1.875    0.000    0.000    0.000    0.000 
#    0.000    0.000    0.000    0.000    0.000    0.000 
#
# Total GULP energy -89196.411256 kJ/mol
# GULP energy per Si atom -5574.775704 kJ/mol
# Density = 2.028764 g / cm^3
# Si number density = 20.333919 Si / 1000 Ang^3
#
#
#
# Elastic Constant Matrix: (Units=GPa)
#
#
# Indices 1 2 3 4 5 6 
#
# 1 52.2490 24.4971 27.6550 3.9114 -14.4184 11.7142
# 2 24.4971 75.4508 23.8055 15.5808 -1.1327 0.3024
# 3 27.6550 23.8055 118.6464 11.5216 3.6166 5.6944
# 4 3.9114 15.5808 11.5216 20.4374 2.9986 0.4306
# 5 -14.4184 -1.1327 3.6166 2.9986 29.0011 -0.7613
# 6 11.7142 0.3024 5.6944 0.4306 -0.7613 34.0366
#
#
#
# Elastic Compliance Matrix: (Units=1/GPa)
#
#
# Indices 1 2 3 4 5 6 
#
# 1 0.033239 -0.008913 -0.006147 0.001688 0.016507 -0.009984
# 2 -0.008913 0.018766 -0.000602 -0.011989 -0.002302 0.003102
# 3 -0.006147 -0.000602 0.010445 -0.003674 -0.003994 0.000331
# 4 0.001688 -0.011989 -0.003674 0.060635 -0.005460 -0.000749
# 5 0.016507 -0.002302 -0.003994 -0.005460 0.043557 -0.003949
# 6 -0.009984 0.003102 0.000331 -0.000749 -0.003949 0.032655
#
#
# Mechanical properties :
#
#
# Convention : Reuss Voigt Hill
#
# Bulk Modulus (GPa) = 32.12837 44.25126 38.18982
# Shear Modulus (GPa) = 20.74712 28.05425 24.40068
#
# Velocity S-wave (km/s) = 3.19771 3.71843 3.46786
# Velocity P-wave (km/s) = 5.42849 6.34391 5.90397
#
# Compressibility (1/GPa) = 0.03112514
#
# Stress axis : x y z
#
# Youngs Moduli (GPa) = 30.08501 53.28676 95.74259
#
# Poissons Ratio (x) = 0.47495 0.58854
# Poissons Ratio (y) = 0.26815 0.05766
# Poissons Ratio (z) = 0.18494 0.03209
#
# Static dielectric constant tensor:
#      x y z
#    x 1.725220 0.020350 0.025430 
#    y 0.020350 1.738520 -0.032750 
#    z 0.025430 -0.032750 1.784760 
# 
# From -- ./inp_files/320138.got.cif
#   From: 2010.05.17/outbox.cif.g08.bks.cpg/sg2_161_cif.got.tgz:320138.got - 2010.06.03 11:33:40.
