data_PCOD9052354
_publ_section_title
;
Structure prediction by ZEFSAII (Michael W. Deem and Ramdas Pophale) SiO2 
 PCOD9052354
Probable space group: P -1
;
_chemical_formula_sum "Si O2"
_cell_formula_units_Z 16
_cell_length_a 12.092425
_cell_length_b 9.410630
_cell_length_c 8.311538
_cell_angle_alpha 107.812073
_cell_angle_beta 129.139740
_cell_angle_gamma 66.082728
_cell_volume 668.933282
_symmetry_space_group_name_H-M "P -1"
_symmetry_group_IT_number 2
_symmetry_cell_setting 'triclinic'
loop_
_space_group_symop_operation_xyz
x,y,z
-x,-y,-z
loop_
_atom_site_type_symbol
_atom_site_label
_atom_site_fract_x
_atom_site_fract_y
_atom_site_fract_z
Si Si1 0.067088 0.132992 0.674256
Si Si2 0.873746 0.263540 0.031296
Si Si3 0.880205 0.417661 0.426352
Si Si4 0.167088 0.069974 0.108695
Si Si5 0.541022 0.833083 0.637162
Si Si6 0.436364 0.356163 0.729169
Si Si7 0.615361 0.907835 0.205473
Si Si8 0.606973 0.520144 0.753624
O O1 0.101005 0.098160 0.878608
O O2 0.218130 0.135379 0.722312
O O3 0.950348 0.298155 0.589631
O O4 0.000000 0.000000 0.500000
O O5 0.773329 0.401418 0.874114
O O6 0.052412 0.204958 0.152921
O O7 0.843623 0.322057 0.207304
O O8 0.831024 0.104402 0.903157
O O9 0.733918 0.542336 0.397750
O O10 0.000000 0.500000 0.500000
O O11 0.328722 0.090450 0.253326
O O12 0.516701 0.751686 0.422664
O O13 0.601911 0.698320 0.781531
O O14 0.401800 0.965810 0.623368
O O15 0.440438 0.236211 0.834754
O O16 0.533156 0.476845 0.834337
O O17 0.500000 0.000000 0.000000
O O18 0.500000 0.500000 0.500000
#
# Coordination Sequence:
#
# PCOD9052354 Si02
#       8
#     2   2   2   2   2   2   2   2
#     4  12  27  45  71 107 143 190 236 300 358 426
#     4  11  26  46  73 103 146 187 238 297 356 433
#     4  12  26  47  71 104 143 182 239 292 361 423
#     4  11  25  46  74 103 139 192 244 289 361 425
#     4  11  25  46  73 105 138 194 238 293 359 428
#     4  11  26  48  73 101 144 189 236 299 362 429
#     4  12  26  46  72 106 145 187 244 293 359 435
#     4  10  26  45  68 109 139 187 236 297 362 423
#
# _framework density 23.918680999999999
#
# number of rings (size 3 to 8) (size 9 to 14) (size 15 to 20)
#    0.000    0.750    3.750    1.875    8.750    3.000 
#    0.000    0.000    0.000    0.000    0.000    0.000 
#    0.000    0.000    0.000    0.000    0.000    0.000 
#
# Total GULP energy -89594.566672 kJ/mol
# GULP energy per Si atom -5599.660417 kJ/mol
# Density = 2.386424 g / cm^3
# Si number density = 23.918681 Si / 1000 Ang^3
#
#
#
# Elastic Constant Matrix: (Units=GPa)
#
#
# Indices 1 2 3 4 5 6 
#
# 1 100.3562 39.0015 -2.3151 -6.6464 -3.0500 4.3707
# 2 39.0015 153.3841 13.6306 -29.7722 -5.1699 7.7949
# 3 -2.3151 13.6306 52.6485 -10.2403 -13.1282 -7.3127
# 4 -6.6464 -29.7722 -10.2403 41.5719 2.5428 -3.8591
# 5 -3.0500 -5.1699 -13.1282 2.5428 31.2930 -1.6008
# 6 4.3707 7.7949 -7.3127 -3.8591 -1.6008 56.2906
#
#
#
# Elastic Compliance Matrix: (Units=1/GPa)
#
#
# Indices 1 2 3 4 5 6 
#
# 1 0.011184 -0.002932 0.001520 -0.000035 0.001234 -0.000232
# 2 -0.002932 0.008430 -0.001401 0.005148 0.000061 -0.000767
# 3 0.001520 -0.001401 0.023212 0.004721 0.009460 0.003684
# 4 -0.000035 0.005148 0.004721 0.029042 0.000565 0.001910
# 5 0.001234 0.000061 0.009460 0.000565 0.036121 0.002191
# 6 -0.000232 -0.000767 0.003684 0.001910 0.002191 0.018561
#
#
# Mechanical properties :
#
#
# Convention : Reuss Voigt Hill
#
# Bulk Modulus (GPa) = 26.88239 45.22476 36.05357
# Shear Modulus (GPa) = 34.58339 42.90255 38.74297
#
# Velocity S-wave (km/s) = 3.80659 4.23979 4.02901
# Velocity P-wave (km/s) = 5.53025 6.55107 6.06218
#
# Compressibility (1/GPa) = 0.03719907
#
# Stress axis : x y z
#
# Youngs Moduli (GPa) = 89.40970 118.62304 43.08077
#
# Poissons Ratio (x) = 0.34783 -0.06547
# Poissons Ratio (y) = 0.26217 0.06037
# Poissons Ratio (z) = -0.13588 0.16623
#
# Static dielectric constant tensor:
#      x y z
#    x 1.904530 0.024410 -0.015240 
#    y 0.024410 1.930660 0.048480 
#    z -0.015240 0.048480 1.976060 
# 
# From -- ./inp_files/207313.got.cif
#   From: 2010.05.17/outbox.cif.g08.bks.cpg/sg2_104_cif.got.tgz:207313.got - 2010.06.03 11:33:40.
