data_PCOD9052926
_publ_section_title
;
Structure prediction by ZEFSAII (Michael W. Deem and Ramdas Pophale) SiO2 
 PCOD9052926
Probable space group: P -1
;
_chemical_formula_sum "Si O2"
_cell_formula_units_Z 15
_cell_length_a 23.445636
_cell_length_b 5.541627
_cell_length_c 13.530035
_cell_angle_alpha 94.327984
_cell_angle_beta 23.432251
_cell_angle_gamma 106.948461
_cell_volume 577.262903
_symmetry_space_group_name_H-M "P -1"
_symmetry_group_IT_number 2
_symmetry_cell_setting 'triclinic'
loop_
_space_group_symop_operation_xyz
x,y,z
-x,-y,-z
loop_
_atom_site_type_symbol
_atom_site_label
_atom_site_fract_x
_atom_site_fract_y
_atom_site_fract_z
Si Si1 0.385945 0.343978 0.893435
Si Si2 0.259928 0.825657 0.562188
Si Si3 0.877181 0.808055 0.303080
Si Si4 0.742909 0.856722 0.708765
Si Si5 0.500000 0.000000 0.000000
Si Si6 0.922725 0.623257 0.703282
Si Si7 0.325502 0.931640 0.823211
Si Si8 0.267733 0.133344 0.734804
O O1 0.567681 0.573377 0.560664
O O2 0.343993 0.038569 0.909225
O O3 0.393645 0.362140 0.999667
O O4 0.229598 0.368563 0.106981
O O5 0.148542 0.477047 0.714198
O O6 0.185359 0.017080 0.652312
O O7 0.284952 0.893207 0.641498
O O8 0.425138 0.945852 0.233066
O O9 0.771845 0.691815 0.570635
O O10 0.076332 0.046423 0.017933
O O11 0.673158 0.023128 0.767295
O O12 0.917922 0.071828 0.497781
O O13 0.000000 0.500000 0.500000
O O14 0.830979 0.403023 0.934445
O O15 0.500000 0.000000 0.500000
O O16 0.281926 0.115042 0.828548
#
# Coordination Sequence:
#
# PCOD9052926 Si02
#       8
#     2   2   2   2   1   2   2   2
#     4  12  28  50  75 121 155 209 267 328 413 488
#     4  11  28  51  78 114 163 206 280 328 409 482
#     4  11  28  52  79 119 153 215 271 334 403 491
#     4  11  27  50  84 111 165 204 273 336 402 485
#     4  10  28  48  78 118 150 212 268 330 404 466
#     4  12  27  50  79 116 157 214 263 329 411 483
#     4  12  28  48  75 114 160 201 266 326 405 492
#     4  12  28  47  81 109 162 207 263 336 409 478
#
# _framework density 25.984694000000001
#
# number of rings (size 3 to 8) (size 9 to 14) (size 15 to 20)
#    0.000    0.533    2.667    2.400   14.933    1.067 
#    0.000    0.000    0.000    0.000    0.000    0.000 
#    0.000    0.000    0.000    0.000    0.000    0.000 
#
# Total GULP energy -83830.489613 kJ/mol
# GULP energy per Si atom -5588.699308 kJ/mol
# Density = 2.592555 g / cm^3
# Si number density = 25.984694 Si / 1000 Ang^3
#
#
#
# Elastic Constant Matrix: (Units=GPa)
#
#
# Indices 1 2 3 4 5 6 
#
# 1 88.5774 20.4431 23.6932 9.3321 14.5389 -1.9414
# 2 20.4431 111.3726 15.8604 -0.2248 -6.0249 6.3498
# 3 23.6932 15.8604 96.4345 8.0520 17.6295 -13.7026
# 4 9.3321 -0.2248 8.0520 49.1279 -5.3098 3.6360
# 5 14.5389 -6.0249 17.6295 -5.3098 59.4972 3.5273
# 6 -1.9414 6.3498 -13.7026 3.6360 3.5273 35.0077
#
#
#
# Elastic Compliance Matrix: (Units=1/GPa)
#
#
# Indices 1 2 3 4 5 6 
#
# 1 0.013169 -0.002383 -0.001897 -0.002621 -0.003191 0.001014
# 2 -0.002383 0.010033 -0.002088 0.001348 0.002525 -0.003164
# 3 -0.001897 -0.002088 0.013038 -0.002691 -0.004212 0.006081
# 4 -0.002621 0.001348 -0.002691 0.022013 0.003783 -0.004111
# 5 -0.003191 0.002525 -0.004212 0.003783 0.019705 -0.004662
# 6 0.001014 -0.003164 0.006081 -0.004111 -0.004662 0.032472
#
#
# Mechanical properties :
#
#
# Convention : Reuss Voigt Hill
#
# Bulk Modulus (GPa) = 42.54691 46.26421 44.40556
# Shear Modulus (GPa) = 38.16714 44.48576 41.32645
#
# Velocity S-wave (km/s) = 3.83669 4.14212 3.99233
# Velocity P-wave (km/s) = 6.00303 6.38116 6.19498
#
# Compressibility (1/GPa) = 0.02350347
#
# Stress axis : x y z
#
# Youngs Moduli (GPa) = 75.93472 99.66756 76.69822
#
# Poissons Ratio (x) = 0.23749 0.14552
# Poissons Ratio (y) = 0.18094 0.16018
# Poissons Ratio (z) = 0.14408 0.20815
#
# Static dielectric constant tensor:
#      x y z
#    x 11.609980 -28.948100 8.074040 
#    y -28.948100 89.790450 -24.465430 
#    z 8.074040 -24.465430 8.856600 
# 
# From -- ./inp_files/543590.got.cif
#   From: 2010.05.17/outbox.cif.g08.bks.cpg/sg2_272_cif.got.tgz:543590.got - 2010.06.03 11:33:40.
