data_PCOD9052961
_publ_section_title
;
Structure prediction by ZEFSAII (Michael W. Deem and Ramdas Pophale) SiO2 
 PCOD9052961
Probable space group: P -1
;
_chemical_formula_sum "Si O2"
_cell_formula_units_Z 12
_cell_length_a 9.949844
_cell_length_b 7.733044
_cell_length_c 12.961745
_cell_angle_alpha 45.317707
_cell_angle_beta 132.180165
_cell_angle_gamma 109.407471
_cell_volume 506.618369
_symmetry_space_group_name_H-M "P -1"
_symmetry_group_IT_number 2
_symmetry_cell_setting 'triclinic'
loop_
_space_group_symop_operation_xyz
x,y,z
-x,-y,-z
loop_
_atom_site_type_symbol
_atom_site_label
_atom_site_fract_x
_atom_site_fract_y
_atom_site_fract_z
Si Si1 0.482512 0.709962 0.316557
Si Si2 0.979222 0.222129 0.600958
Si Si3 0.662614 0.124545 0.186011
Si Si4 0.796398 0.532828 0.007807
Si Si5 0.929817 0.171870 0.027226
Si Si6 0.417923 0.542315 0.745901
O O1 0.500000 0.500000 0.500000
O O2 0.262882 0.823232 0.129869
O O3 0.570507 0.563421 0.319331
O O4 0.582058 0.934503 0.292535
O O5 0.780322 0.255183 0.428396
O O6 0.000000 0.500000 0.500000
O O7 0.165535 0.060297 0.708866
O O8 0.972150 0.098003 0.760927
O O9 0.756741 0.359836 0.154184
O O10 0.485512 0.284339 0.957821
O O11 0.877793 0.348087 0.030011
O O12 0.587519 0.668741 0.803538
O O13 0.933504 0.707707 0.019950
#
# Coordination Sequence:
#
# PCOD9052961 Si02
#       6
#     2   2   2   2   2   2
#     4  11  19  31  50  74 104 133 160 202 249 292
#     4  11  17  26  56  78  97 124 166 209 249 279
#     4   9  18  34  52  74  99 126 168 208 238 290
#     4   7  16  31  52  69  96 131 161 206 248 271
#     4   9  17  31  48  74 103 124 164 208 240 293
#     4   9  18  32  54  73  98 128 167 202 248 288
#
# _framework density 23.686468999999999
#
# number of rings (size 3 to 8) (size 9 to 14) (size 15 to 20)
#    1.000    1.667    3.333    1.500    0.000    0.667 
#    0.000    1.667    0.000    0.000    0.000    2.333 
#    0.000    0.000    0.000    0.000    0.000    0.000 
#
# Total GULP energy -66862.311798 kJ/mol
# GULP energy per Si atom -5571.859316 kJ/mol
# Density = 2.363256 g / cm^3
# Si number density = 23.686469 Si / 1000 Ang^3
#
#
#
# Elastic Constant Matrix: (Units=GPa)
#
#
# Indices 1 2 3 4 5 6 
#
# 1 89.9316 85.2236 71.5937 -12.5878 -14.6245 39.1154
# 2 85.2236 68.0177 23.4773 -21.0167 6.0433 31.0233
# 3 71.5937 23.4773 137.1608 -33.5250 5.0775 20.8186
# 4 -12.5878 -21.0167 -33.5250 18.5160 13.4218 -4.4480
# 5 -14.6245 6.0433 5.0775 13.4218 34.0760 -1.8282
# 6 39.1154 31.0233 20.8186 -4.4480 -1.8282 71.0533
#
#
#
# Elastic Compliance Matrix: (Units=1/GPa)
#
#
# Indices 1 2 3 4 5 6 
#
# 1 0.002343 0.008454 0.006549 0.032269 -0.014461 -0.005252
# 2 0.008454 0.000119 -0.010563 -0.024572 0.014711 -0.002771
# 3 0.006549 -0.010563 0.005301 -0.001212 0.004344 -0.000511
# 4 0.032269 -0.024572 -0.001212 0.044437 0.000676 -0.003881
# 5 -0.014461 0.014711 0.004344 0.000676 0.019661 0.000813
# 6 -0.005252 -0.002771 -0.000511 -0.003881 0.000813 0.018103
#
#
# Mechanical properties :
#
#
# Convention : Reuss Voigt Hill
#
# Bulk Modulus (GPa) = 60.08060 72.85548 66.46804
# Shear Modulus (GPa) = 57.71574 32.38342 45.04958
#
# Velocity S-wave (km/s) = 4.94160 3.70154 4.36582
# Velocity P-wave (km/s) = 7.61441 7.00668 7.31686
#
# Compressibility (1/GPa) = 0.01664431
#
# Stress axis : x y z
#
# Youngs Moduli (GPa) = 426.74380 8375.72554 188.65481
#
# Poissons Ratio (x) = -70.81155 -1.23558
# Poissons Ratio (y) = -3.60785 1.99283
# Poissons Ratio (z) = -2.79493 88.47581
#
# Static dielectric constant tensor:
#      x y z
#    x 2.013960 -0.052790 0.013330 
#    y -0.052790 2.049210 0.065850 
#    z 0.013330 0.065850 1.912650 
# 
# From -- ./inp_files/512685.got.cif
#   From: 2010.05.17/outbox.cif.g08.bks.cpg/sg2_257_cif.got.tgz:512685.got - 2010.06.03 11:33:40.
