data_PCOD9052740
_publ_section_title
;
Structure prediction by ZEFSAII (Michael W. Deem and Ramdas Pophale) SiO2 
 PCOD9052740
Probable space group: P -1
;
_chemical_formula_sum "Si O2"
_cell_formula_units_Z 14
_cell_length_a 12.094419
_cell_length_b 11.823883
_cell_length_c 14.793115
_cell_angle_alpha 150.615515
_cell_angle_beta 143.584551
_cell_angle_gamma 47.397374
_cell_volume 614.040280
_symmetry_space_group_name_H-M "P -1"
_symmetry_group_IT_number 2
_symmetry_cell_setting 'triclinic'
loop_
_space_group_symop_operation_xyz
x,y,z
-x,-y,-z
loop_
_atom_site_type_symbol
_atom_site_label
_atom_site_fract_x
_atom_site_fract_y
_atom_site_fract_z
Si Si1 0.687492 0.254099 0.122404
Si Si2 0.599264 0.003154 0.357472
Si Si3 0.823442 0.022983 0.339080
Si Si4 0.763613 0.792892 0.955886
Si Si5 0.540150 0.525319 0.377616
Si Si6 0.917838 0.541789 0.724218
Si Si7 0.278073 0.437865 0.791093
O O1 0.559944 0.374997 0.195981
O O2 0.783130 0.483462 0.294260
O O3 0.602909 0.127390 0.887715
O O4 0.764904 0.042844 0.081615
O O5 0.663874 0.016160 0.304374
O O6 0.582666 0.256457 0.561810
O O7 0.727225 0.838435 0.383205
O O8 0.848029 0.272978 0.486075
O O9 0.000000 0.000000 0.500000
O O10 0.814801 0.839471 0.125851
O O11 0.562461 0.643611 0.731262
O O12 0.895183 0.642503 0.879098
O O13 0.748340 0.633870 0.618478
O O14 0.130501 0.552124 0.838422
O O15 0.500000 0.500000 0.000000
#
# Coordination Sequence:
#
# PCOD9052740 Si02
#       7
#     2   2   2   2   2   2   2
#     4  11  23  43  69  96 142 185 226 276 341 409
#     4  11  22  45  68 100 143 180 224 287 344 406
#     4  12  24  43  69 103 145 175 226 292 346 409
#     4  12  24  42  72 109 138 175 226 292 352 400
#     4  12  23  40  76 109 134 175 231 288 348 405
#     4  12  24  43  71 105 136 180 233 279 346 413
#     4  10  26  49  66  93 144 193 227 280 338 405
#
# _framework density 22.799807999999999
#
# number of rings (size 3 to 8) (size 9 to 14) (size 15 to 20)
#    0.000    0.571    7.143    1.714    0.000    2.286 
#    5.143    0.000    0.000    0.000    0.000    0.000 
#    0.000    0.000    0.000    0.000    0.000    0.000 
#
# Total GULP energy -77950.868155 kJ/mol
# GULP energy per Si atom -5567.919154 kJ/mol
# Density = 2.274791 g / cm^3
# Si number density = 22.799808 Si / 1000 Ang^3
#
#
#
# Elastic Constant Matrix: (Units=GPa)
#
#
# Indices 1 2 3 4 5 6 
#
# 1 142.3247 35.8751 33.3104 13.2580 0.3760 -28.9832
# 2 35.8751 92.7176 19.8496 7.2725 3.6343 -9.2136
# 3 33.3104 19.8496 66.9447 4.9213 -19.9661 -17.4643
# 4 13.2580 7.2725 4.9213 27.0441 -9.3486 -0.4063
# 5 0.3760 3.6343 -19.9661 -9.3486 31.0149 7.8260
# 6 -28.9832 -9.2136 -17.4643 -0.4063 7.8260 37.3329
#
#
#
# Elastic Compliance Matrix: (Units=1/GPa)
#
#
# Indices 1 2 3 4 5 6 
#
# 1 0.010443 -0.001725 -0.004303 -0.005920 -0.006222 0.006908
# 2 -0.001725 0.012945 -0.004072 -0.003790 -0.005529 0.001069
# 3 -0.004303 -0.004072 0.023693 0.004583 0.016313 0.003368
# 4 -0.005920 -0.003790 0.004583 0.046619 0.019264 -0.006918
# 5 -0.006222 -0.005529 0.016313 0.019264 0.051588 -0.009168
# 6 0.006908 0.001069 0.003368 -0.006918 -0.009168 0.035835
#
#
# Mechanical properties :
#
#
# Convention : Reuss Voigt Hill
#
# Bulk Modulus (GPa) = 37.19946 53.33968 45.26957
# Shear Modulus (GPa) = 23.77757 33.27517 28.52637
#
# Velocity S-wave (km/s) = 3.23288 3.82442 3.54102
# Velocity P-wave (km/s) = 5.50331 6.55341 6.05118
#
# Compressibility (1/GPa) = 0.02688211
#
# Stress axis : x y z
#
# Youngs Moduli (GPa) = 95.76037 77.25204 42.20588
#
# Poissons Ratio (x) = 0.13323 0.18161
# Poissons Ratio (y) = 0.16515 0.17185
# Poissons Ratio (z) = 0.41206 0.31454
#
# Static dielectric constant tensor:
#      x y z
#    x 2.043650 -0.070820 0.297660 
#    y -0.070820 1.584400 -0.127790 
#    z 0.297660 -0.127790 2.148430 
# 
# From -- ./inp_files/383195.got.cif
#   From: 2010.05.17/outbox.cif.g08.bks.cpg/sg2_192_cif.got.tgz:383195.got - 2010.06.03 11:33:40.
