data_PCOD9052636
_publ_section_title
;
Structure prediction by ZEFSAII (Michael W. Deem and Ramdas Pophale) SiO2 
 PCOD9052636
Probable space group: P -1
;
_chemical_formula_sum "Si O2"
_cell_formula_units_Z 14
_cell_length_a 9.723534
_cell_length_b 5.757730
_cell_length_c 20.703642
_cell_angle_alpha 70.887144
_cell_angle_beta 142.656646
_cell_angle_gamma 88.351663
_cell_volume 573.654465
_symmetry_space_group_name_H-M "P -1"
_symmetry_group_IT_number 2
_symmetry_cell_setting 'triclinic'
loop_
_space_group_symop_operation_xyz
x,y,z
-x,-y,-z
loop_
_atom_site_type_symbol
_atom_site_label
_atom_site_fract_x
_atom_site_fract_y
_atom_site_fract_z
Si Si1 0.000000 0.000000 0.000000
Si Si2 0.619549 0.823554 0.662377
Si Si3 0.766110 0.306813 0.406341
Si Si4 0.616106 0.772721 0.913511
Si Si5 0.938681 0.115719 0.107748
Si Si6 0.500000 0.000000 0.000000
Si Si7 0.892129 0.722465 0.347006
Si Si8 0.279048 0.415117 0.414018
O O1 0.788151 0.886858 0.933059
O O2 0.051484 0.928992 0.103348
O O3 0.492300 0.711345 0.677123
O O4 0.748596 0.613148 0.669483
O O5 0.828484 0.892775 0.763883
O O6 0.383539 0.110317 0.515684
O O7 0.754238 0.543729 0.332643
O O8 0.863599 0.363123 0.506464
O O9 0.000000 0.000000 0.500000
O O10 0.583025 0.851129 0.970083
O O11 0.322121 0.947856 0.759047
O O12 0.753943 0.438623 0.983277
O O13 0.743441 0.059533 0.081361
O O14 0.010352 0.630989 0.328632
O O15 0.500000 0.500000 0.500000
#
# Coordination Sequence:
#
# PCOD9052636 Si02
#       8
#     1   2   2   2   2   1   2   2
#     4  10  26  48  68 106 140 196 244 298 372 426
#     4  11  26  44  76 105 143 189 248 301 361 435
#     4  11  24  45  68 108 143 193 236 298 358 433
#     4  11  26  45  73 108 143 190 242 303 370 447
#     4  11  26  49  75 105 145 192 251 308 369 441
#     4  10  26  50  68 102 142 192 246 296 372 424
#     4  11  26  44  72 102 150 185 241 290 369 439
#     4  11  24  46  68 111 145 191 236 299 369 432
#
# _framework density 24.404934000000001
#
# number of rings (size 3 to 8) (size 9 to 14) (size 15 to 20)
#    0.000    1.143    2.857    0.857    8.000    3.429 
#    0.000    0.000    0.000    0.000    0.000    0.000 
#    0.000    0.000    0.000    0.000    0.000    0.000 
#
# Total GULP energy -77968.683900 kJ/mol
# GULP energy per Si atom -5569.191707 kJ/mol
# Density = 2.434939 g / cm^3
# Si number density = 24.404934 Si / 1000 Ang^3
#
#
#
# Elastic Constant Matrix: (Units=GPa)
#
#
# Indices 1 2 3 4 5 6 
#
# 1 171.4443 23.0038 24.7343 21.2748 21.7376 25.8338
# 2 23.0038 30.6933 19.8032 10.7181 13.2781 11.9285
# 3 24.7343 19.8032 77.1263 -0.2021 13.9865 12.1778
# 4 21.2748 10.7181 -0.2021 56.0874 4.6718 7.9632
# 5 21.7376 13.2781 13.9865 4.6718 26.1734 10.6502
# 6 25.8338 11.9285 12.1778 7.9632 10.6502 37.1391
#
#
#
# Elastic Compliance Matrix: (Units=1/GPa)
#
#
# Indices 1 2 3 4 5 6 
#
# 1 0.007249 -0.001783 -0.000836 -0.001734 -0.003175 -0.002914
# 2 -0.001783 0.051391 -0.008723 -0.006939 -0.016131 -0.006292
# 3 -0.000836 -0.008723 0.016348 0.002548 -0.003446 -0.001535
# 4 -0.001734 -0.006939 0.002548 0.020028 0.000808 -0.001927
# 5 -0.003175 -0.016131 -0.003446 0.000808 0.053580 -0.007019
# 6 -0.002914 -0.006292 -0.001535 -0.001927 -0.007019 0.033903
#
#
# Mechanical properties :
#
#
# Convention : Reuss Voigt Hill
#
# Bulk Modulus (GPa) = 19.11870 46.03852 32.57861
# Shear Modulus (GPa) = 22.46002 37.99482 30.22742
#
# Velocity S-wave (km/s) = 3.03695 3.94997 3.52316
# Velocity P-wave (km/s) = 4.48869 6.30146 5.47069
#
# Compressibility (1/GPa) = 0.05230481
#
# Stress axis : x y z
#
# Youngs Moduli (GPa) = 137.94386 19.45862 61.17085
#
# Poissons Ratio (x) = 0.03469 0.05113
# Poissons Ratio (y) = 0.24590 0.53360
# Poissons Ratio (z) = 0.11531 0.16974
#
# Static dielectric constant tensor:
#      x y z
#    x 1.891480 -0.050100 -0.033550 
#    y -0.050100 1.959700 -0.040690 
#    z -0.033550 -0.040690 1.980110 
# 
# From -- ./inp_files/64030.got.cif
#   From: 2010.05.17/outbox.cif.g08.bks.cpg/sg2_33_cif.got.tgz:64030.got - 2010.06.03 11:33:40.
