data_PCOD9052334
_publ_section_title
;
Structure prediction by ZEFSAII (Michael W. Deem and Ramdas Pophale) SiO2 
 PCOD9052334
Probable space group: P -1
;
_chemical_formula_sum "Si O2"
_cell_formula_units_Z 13
_cell_length_a 5.130522
_cell_length_b 9.363618
_cell_length_c 15.685739
_cell_angle_alpha 52.439418
_cell_angle_beta 53.024880
_cell_angle_gamma 67.023947
_cell_volume 476.881735
_symmetry_space_group_name_H-M "P -1"
_symmetry_group_IT_number 2
_symmetry_cell_setting 'triclinic'
loop_
_space_group_symop_operation_xyz
x,y,z
-x,-y,-z
loop_
_atom_site_type_symbol
_atom_site_label
_atom_site_fract_x
_atom_site_fract_y
_atom_site_fract_z
Si Si1 0.243162 0.249885 0.403859
Si Si2 0.629505 0.864971 0.872698
Si Si3 0.433823 0.703041 0.409364
Si Si4 0.955438 0.341502 0.997063
Si Si5 0.500000 0.000000 0.000000
Si Si6 0.557419 0.347000 0.772583
Si Si7 0.730896 0.970708 0.353608
O O1 0.294020 0.459520 0.308339
O O2 0.467826 0.135578 0.336681
O O3 0.861276 0.225775 0.497562
O O4 0.352687 0.162522 0.504505
O O5 0.412496 0.712018 0.931284
O O6 0.919500 0.940369 0.732939
O O7 0.383053 0.001485 0.919031
O O8 0.840532 0.826638 0.935410
O O9 0.500000 0.500000 0.500000
O O10 0.359491 0.692048 0.328087
O O11 0.710352 0.843247 0.322530
O O12 0.169862 0.384064 0.857221
O O13 0.000000 0.500000 0.000000
O O14 0.326545 0.803430 0.127822
#
# Coordination Sequence:
#
# PCOD9052334 Si02
#       7
#     2   2   2   2   1   2   2
#     4  11  25  49  73 113 162 209 274 330 418 494
#     4  11  26  45  77 109 155 207 269 334 412 485
#     4  12  26  45  81 118 161 212 272 344 417 495
#     4  11  26  49  74 113 155 210 270 335 408 491
#     4  10  26  44  76 114 160 208 276 336 408 482
#     4  11  25  48  77 113 157 212 277 338 413 492
#     4  11  26  47  76 116 159 217 265 341 414 498
#
# _framework density 27.260425000000001
#
# number of rings (size 3 to 8) (size 9 to 14) (size 15 to 20)
#    0.000    0.923    1.538    3.231    8.615    2.462 
#    5.538    0.000    0.000    0.000    0.000    0.000 
#    0.000    0.000    0.000    0.000    0.000    0.000 
#
# Total GULP energy -72506.404790 kJ/mol
# GULP energy per Si atom -5577.415753 kJ/mol
# Density = 2.719838 g / cm^3
# Si number density = 27.260425 Si / 1000 Ang^3
#
#
#
# Elastic Constant Matrix: (Units=GPa)
#
#
# Indices 1 2 3 4 5 6 
#
# 1 116.3899 51.5150 55.8970 -8.9398 -21.4296 9.8366
# 2 51.5150 117.6458 52.6897 -1.5247 -42.5492 12.1692
# 3 55.8970 52.6897 187.2245 -13.9723 -20.5366 -0.8612
# 4 -8.9398 -1.5247 -13.9723 38.8838 3.5451 -8.8680
# 5 -21.4296 -42.5492 -20.5366 3.5451 42.8415 -5.5542
# 6 9.8366 12.1692 -0.8612 -8.8680 -5.5542 40.0957
#
#
#
# Elastic Compliance Matrix: (Units=1/GPa)
#
#
# Indices 1 2 3 4 5 6 
#
# 1 0.011664 -0.003613 -0.002279 0.001323 0.000863 -0.001402
# 2 -0.003613 0.015999 -0.002236 -0.002833 0.012874 -0.002861
# 3 -0.002279 -0.002236 0.006826 0.002273 -0.000033 0.001883
# 4 0.001323 -0.002833 0.002273 0.028449 -0.002571 0.006520
# 5 0.000863 0.012874 -0.000033 -0.002571 0.036810 0.000411
# 6 -0.001402 -0.002861 0.001883 0.006520 0.000411 0.027692
#
#
# Mechanical properties :
#
#
# Convention : Reuss Voigt Hill
#
# Bulk Modulus (GPa) = 54.84502 82.38485 68.61493
# Shear Modulus (GPa) = 33.38376 41.77476 37.57926
#
# Velocity S-wave (km/s) = 3.50326 3.91888 3.71688
# Velocity P-wave (km/s) = 6.04370 7.12487 6.60644
#
# Compressibility (1/GPa) = 0.01823320
#
# Stress axis : x y z
#
# Youngs Moduli (GPa) = 85.73256 62.50336 146.50751
#
# Poissons Ratio (x) = 0.22581 0.33386
# Poissons Ratio (y) = 0.30973 0.32764
# Poissons Ratio (z) = 0.19537 0.13978
#
# Static dielectric constant tensor:
#      x y z
#    x 2.150670 0.107540 0.068610 
#    y 0.107540 1.787490 -0.193050 
#    z 0.068610 -0.193050 2.088200 
# 
# From -- ./inp_files/546843.got.cif
#   From: 2010.05.17/outbox.cif.g08.bks.cpg/sg2_274_cif.got.tgz:546843.got - 2010.06.03 11:33:40.
