data_PCOD9052798
_publ_section_title
;
Structure prediction by ZEFSAII (Michael W. Deem and Ramdas Pophale) SiO2 
 PCOD9052798
Probable space group: P -1
;
_chemical_formula_sum "Si O2"
_cell_formula_units_Z 14
_cell_length_a 16.844905
_cell_length_b 5.097983
_cell_length_c 9.690411
_cell_angle_alpha 73.425245
_cell_angle_beta 42.879226
_cell_angle_gamma 72.274025
_cell_volume 536.881119
_symmetry_space_group_name_H-M "P -1"
_symmetry_group_IT_number 2
_symmetry_cell_setting 'triclinic'
loop_
_space_group_symop_operation_xyz
x,y,z
-x,-y,-z
loop_
_atom_site_type_symbol
_atom_site_label
_atom_site_fract_x
_atom_site_fract_y
_atom_site_fract_z
Si Si1 0.501588 0.599633 0.138735
Si Si2 0.896613 0.733382 0.895601
Si Si3 0.733553 0.779279 0.854008
Si Si4 0.904097 0.394258 0.535282
Si Si5 0.229147 0.771135 0.483201
Si Si6 0.839703 0.154666 0.132485
Si Si7 0.429794 0.745463 0.642080
O O1 0.368472 0.699237 0.340614
O O2 0.557627 0.352518 0.202430
O O3 0.500000 0.500000 0.000000
O O4 0.594229 0.814014 0.006592
O O5 0.776361 0.814209 0.949168
O O6 0.997306 0.807657 0.652227
O O7 0.904093 0.408537 0.962264
O O8 0.895169 0.886483 0.018660
O O9 0.794129 0.473425 0.770997
O O10 0.784545 0.997302 0.655587
O O11 0.823867 0.481098 0.485630
O O12 0.000000 0.500000 0.500000
O O13 0.166294 0.854514 0.693734
O O14 0.703772 0.206074 0.247179
O O15 0.500000 0.500000 0.500000
O O16 0.500000 0.000000 0.500000
#
# Coordination Sequence:
#
# PCOD9052798 Si02
#       7
#     2   2   2   2   2   2   2
#     4  12  26  46  75 116 151 198 251 313 383 458
#     4  11  28  49  80 105 153 206 260 304 381 452
#     4  11  26  48  76 110 150 202 254 313 381 457
#     4  10  26  50  75 108 149 199 260 318 377 441
#     4  12  28  45  78 112 154 196 254 320 382 450
#     4  12  28  49  76 115 153 200 253 313 384 453
#     4  12  27  48  76 108 156 203 241 305 382 453
#
# _framework density 26.076533999999999
#
# number of rings (size 3 to 8) (size 9 to 14) (size 15 to 20)
#    0.000    0.571    4.286    1.286   12.000    2.286 
#    0.000    0.000    0.000    0.000    0.000    0.000 
#    0.000    0.000    0.000    0.000    0.000    0.000 
#
# Total GULP energy -78228.834794 kJ/mol
# GULP energy per Si atom -5587.773914 kJ/mol
# Density = 2.601718 g / cm^3
# Si number density = 26.076534 Si / 1000 Ang^3
#
#
#
# Elastic Constant Matrix: (Units=GPa)
#
#
# Indices 1 2 3 4 5 6 
#
# 1 166.9037 11.2540 66.5895 5.1796 -0.6292 9.3454
# 2 11.2540 78.9592 24.8308 -0.8236 8.3898 25.7055
# 3 66.5895 24.8308 126.7417 7.0051 4.1645 18.1208
# 4 5.1796 -0.8236 7.0051 58.7171 -0.6828 7.6448
# 5 -0.6292 8.3898 4.1645 -0.6828 82.2471 9.7373
# 6 9.3454 25.7055 18.1208 7.6448 9.7373 28.3511
#
#
#
# Elastic Compliance Matrix: (Units=1/GPa)
#
#
# Indices 1 2 3 4 5 6 
#
# 1 0.007590 0.000204 -0.004003 -0.000164 0.000259 -0.000174
# 2 0.000204 0.018549 -0.001505 0.002596 0.000183 -0.016686
# 3 -0.004003 -0.001505 0.010909 -0.000422 0.000064 -0.004197
# 4 -0.000164 0.002596 -0.000422 0.018073 0.000753 -0.007162
# 5 0.000259 0.000183 0.000064 0.000753 0.012721 -0.004864
# 6 -0.000174 -0.016686 -0.004197 -0.007162 -0.004864 0.056743
#
#
# Mechanical properties :
#
#
# Convention : Reuss Voigt Hill
#
# Bulk Modulus (GPa) = 37.81941 64.21700 51.01820
# Shear Modulus (GPa) = 34.72075 51.85842 43.28959
#
# Velocity S-wave (km/s) = 3.65292 4.46432 4.07885
# Velocity P-wave (km/s) = 5.68564 7.15915 6.46451
#
# Compressibility (1/GPa) = 0.02644145
#
# Stress axis : x y z
#
# Youngs Moduli (GPa) = 131.74521 53.91143 91.66617
#
# Poissons Ratio (x) = -0.01101 0.36690
# Poissons Ratio (y) = -0.02690 0.13797
# Poissons Ratio (z) = 0.52732 0.08114
#
# Static dielectric constant tensor:
#      x y z
#    x 2.122020 0.216600 -0.141480 
#    y 0.216600 2.836660 -0.279960 
#    z -0.141480 -0.279960 2.093910 
# 
# From -- ./inp_files/77530.got.cif
#   From: 2010.05.17/outbox.cif.g08.bks.cpg/sg2_39_cif.got.tgz:77530.got - 2010.06.03 11:33:40.
