data_PCOD9052753
_publ_section_title
;
Structure prediction by ZEFSAII (Michael W. Deem and Ramdas Pophale) SiO2 
 PCOD9052753
Probable space group: P -1
;
_chemical_formula_sum "Si O2"
_cell_formula_units_Z 14
_cell_length_a 4.867363
_cell_length_b 13.073832
_cell_length_c 9.533189
_cell_angle_alpha 107.721166
_cell_angle_beta 82.809282
_cell_angle_gamma 103.791798
_cell_volume 560.290615
_symmetry_space_group_name_H-M "P -1"
_symmetry_group_IT_number 2
_symmetry_cell_setting 'triclinic'
loop_
_space_group_symop_operation_xyz
x,y,z
-x,-y,-z
loop_
_atom_site_type_symbol
_atom_site_label
_atom_site_fract_x
_atom_site_fract_y
_atom_site_fract_z
Si Si1 0.435585 0.624353 0.251232
Si Si2 0.175108 0.104519 0.115639
Si Si3 0.880266 0.490033 0.156120
Si Si4 0.641815 0.631764 0.538334
Si Si5 0.505945 0.167007 0.845840
Si Si6 0.851949 0.293500 0.266297
Si Si7 0.044035 0.962734 0.321772
O O1 0.573261 0.517915 0.180689
O O2 0.588643 0.673338 0.404143
O O3 0.499525 0.711137 0.157850
O O4 0.099550 0.581230 0.268425
O O5 0.960896 0.185451 0.181066
O O6 0.218980 0.058893 0.249409
O O7 0.431357 0.152124 0.010205
O O8 0.000000 0.000000 0.000000
O O9 0.904674 0.374597 0.166356
O O10 0.000000 0.500000 0.000000
O O11 0.500000 0.500000 0.500000
O O12 0.466967 0.701665 0.673083
O O13 0.951021 0.651808 0.593558
O O14 0.794525 0.136550 0.758978
O O15 0.264287 0.080696 0.743223
O O16 0.000000 0.000000 0.500000
#
# Coordination Sequence:
#
# PCOD9052753 Si02
#       7
#     2   2   2   2   2   2   2
#     4  12  25  42  69  99 145 179 226 288 349 421
#     4  10  26  49  73 102 141 187 240 297 350 416
#     4  12  24  42  66 101 139 182 230 281 342 429
#     4  12  24  44  68 102 143 186 228 287 354 422
#     4  11  25  46  70  99 140 184 229 289 358 411
#     4  12  25  43  72 101 140 187 234 285 356 416
#     4  11  25  45  71 102 135 178 240 296 349 412
#
# _framework density 24.987034999999999
#
# number of rings (size 3 to 8) (size 9 to 14) (size 15 to 20)
#    0.000    0.571    2.857    4.286    4.000    6.857 
#    0.000    0.000    0.000    0.000    0.000    0.000 
#    0.000    0.000    0.000    0.000    0.000    0.000 
#
# Total GULP energy -78369.363592 kJ/mol
# GULP energy per Si atom -5597.811685 kJ/mol
# Density = 2.493016 g / cm^3
# Si number density = 24.987035 Si / 1000 Ang^3
#
#
#
# Elastic Constant Matrix: (Units=GPa)
#
#
# Indices 1 2 3 4 5 6 
#
# 1 95.5169 7.0293 13.3685 -1.3249 1.8579 -18.6561
# 2 7.0293 127.5647 29.8486 -4.3641 2.1346 -21.9422
# 3 13.3685 29.8486 142.7072 -8.8884 -10.3435 -26.0663
# 4 -1.3249 -4.3641 -8.8884 40.5857 -10.9928 1.0498
# 5 1.8579 2.1346 -10.3435 -10.9928 36.4315 9.3506
# 6 -18.6561 -21.9422 -26.0663 1.0498 9.3506 36.4770
#
#
#
# Elastic Compliance Matrix: (Units=1/GPa)
#
#
# Indices 1 2 3 4 5 6 
#
# 1 0.011861 0.000621 -0.000184 -0.000481 -0.002634 0.006997
# 2 0.000621 0.009060 -0.001104 -0.000017 -0.002311 0.005571
# 3 -0.000184 -0.001104 0.008379 0.002099 0.001884 0.004686
# 4 -0.000481 -0.000017 0.002099 0.027703 0.009491 -0.001986
# 5 -0.002634 -0.002311 0.001884 0.009491 0.033766 -0.010320
# 6 0.006997 0.005571 0.004686 -0.001986 -0.010320 0.040396
#
#
# Mechanical properties :
#
#
# Convention : Reuss Voigt Hill
#
# Bulk Modulus (GPa) = 35.75919 51.80904 43.78411
# Shear Modulus (GPa) = 35.25602 43.73503 39.49552
#
# Velocity S-wave (km/s) = 3.76037 4.18821 3.98004
# Velocity P-wave (km/s) = 5.76159 6.64586 6.21946
#
# Compressibility (1/GPa) = 0.02796484
#
# Stress axis : x y z
#
# Youngs Moduli (GPa) = 84.31226 110.37962 119.35039
#
# Poissons Ratio (x) = -0.06851 0.02192
# Poissons Ratio (y) = -0.05233 0.13177
# Poissons Ratio (z) = 0.01549 0.12187
#
# Static dielectric constant tensor:
#      x y z
#    x 1.912380 0.099080 0.044720 
#    y 0.099080 1.970930 0.018200 
#    z 0.044720 0.018200 2.014390 
# 
# From -- ./inp_files/131812.got.cif
#   From: 2010.05.17/outbox.cif.g08.bks.cpg/sg2_66_cif.got.tgz:131812.got - 2010.06.03 11:33:40.
