data_PCOD9052764
_publ_section_title
;
Structure prediction by ZEFSAII (Michael W. Deem and Ramdas Pophale) SiO2 
 PCOD9052764
Probable space group: P -1
;
_chemical_formula_sum "Si O2"
_cell_formula_units_Z 15
_cell_length_a 15.046291
_cell_length_b 5.118734
_cell_length_c 9.695552
_cell_angle_alpha 74.939380
_cell_angle_beta 124.889113
_cell_angle_gamma 91.844048
_cell_volume 585.048870
_symmetry_space_group_name_H-M "P -1"
_symmetry_group_IT_number 2
_symmetry_cell_setting 'triclinic'
loop_
_space_group_symop_operation_xyz
x,y,z
-x,-y,-z
loop_
_atom_site_type_symbol
_atom_site_label
_atom_site_fract_x
_atom_site_fract_y
_atom_site_fract_z
Si Si1 0.430205 0.075914 0.788520
Si Si2 0.637802 0.800266 0.899485
Si Si3 0.235618 0.181775 0.273846
Si Si4 0.943371 0.366733 0.593608
Si Si5 0.282195 0.797989 0.861983
Si Si6 0.288347 0.571290 0.512648
Si Si7 0.942812 0.235504 0.203846
Si Si8 0.000000 0.500000 0.000000
O O1 0.395836 0.398864 0.698202
O O2 0.512400 0.946367 0.761361
O O3 0.321807 0.935641 0.740353
O O4 0.500000 0.000000 0.000000
O O5 0.702784 0.777524 0.818701
O O6 0.647135 0.497046 0.012238
O O7 0.698040 0.990161 0.028551
O O8 0.270339 0.385299 0.390994
O O9 0.277186 0.877088 0.407078
O O10 0.104733 0.247170 0.134317
O O11 0.814410 0.444741 0.474817
O O12 0.000000 0.500000 0.500000
O O13 0.992864 0.498939 0.756416
O O14 0.980384 0.045770 0.663894
O O15 0.157148 0.754662 0.781193
O O16 0.913468 0.290207 0.012160
#
# Coordination Sequence:
#
# PCOD9052764 Si02
#       8
#     2   2   2   2   2   2   2   1
#     4  10  26  49  75 100 137 181 238 295 348 405
#     4  11  24  44  70 104 134 183 233 287 347 400
#     4  12  27  44  73 102 147 181 230 281 342 419
#     4  12  25  44  65 102 143 181 227 280 347 411
#     4  11  23  43  71 104 137 178 234 288 339 414
#     4  12  26  47  68 105 140 184 231 289 345 403
#     4  12  25  41  72 102 138 190 223 275 346 417
#     4  12  24  46  70 104 148 182 232 270 344 420
#
# _framework density 25.638884999999998
#
# number of rings (size 3 to 8) (size 9 to 14) (size 15 to 20)
#    0.000    0.533    4.000    3.200    0.000    8.533 
#    0.000    0.000    0.000    0.000    0.000    0.000 
#    0.000    0.000    0.000    0.000    0.000    0.000 
#
# Total GULP energy -83889.838284 kJ/mol
# GULP energy per Si atom -5592.655886 kJ/mol
# Density = 2.558053 g / cm^3
# Si number density = 25.638885 Si / 1000 Ang^3
#
#
#
# Elastic Constant Matrix: (Units=GPa)
#
#
# Indices 1 2 3 4 5 6 
#
# 1 173.9094 17.3085 24.1363 -12.4715 2.0346 -22.6127
# 2 17.3085 120.5295 53.2229 -11.6040 1.4509 -12.4571
# 3 24.1363 53.2229 119.4930 -44.5857 13.7762 -8.2836
# 4 -12.4715 -11.6040 -44.5857 47.5687 -1.0033 6.6063
# 5 2.0346 1.4509 13.7762 -1.0033 48.3171 -8.2504
# 6 -22.6127 -12.4571 -8.2836 6.6063 -8.2504 41.1260
#
#
#
# Elastic Compliance Matrix: (Units=1/GPa)
#
#
# Indices 1 2 3 4 5 6 
#
# 1 0.006341 -0.000125 -0.000955 0.000288 0.000583 0.003328
# 2 -0.000125 0.010996 -0.006203 -0.003535 0.001875 0.002957
# 3 -0.000955 -0.006203 0.017125 0.014498 -0.004737 -0.002234
# 4 0.000288 -0.003535 0.014498 0.034339 -0.004065 -0.004324
# 5 0.000583 0.001875 -0.004737 -0.004065 0.022762 0.005154
# 6 0.003328 0.002957 -0.002234 -0.004324 0.005154 0.028319
#
#
# Mechanical properties :
#
#
# Convention : Reuss Voigt Hill
#
# Bulk Modulus (GPa) = 50.25463 67.02969 58.64216
# Shear Modulus (GPa) = 35.44071 48.68663 42.06367
#
# Velocity S-wave (km/s) = 3.72197 4.36241 4.05485
# Velocity P-wave (km/s) = 6.17367 7.18155 6.69660
#
# Compressibility (1/GPa) = 0.01989866
#
# Stress axis : x y z
#
# Youngs Moduli (GPa) = 157.69179 90.93902 58.39344
#
# Poissons Ratio (x) = 0.01132 0.05575
# Poissons Ratio (y) = 0.01963 0.36221
# Poissons Ratio (z) = 0.15055 0.56409
#
# Static dielectric constant tensor:
#      x y z
#    x 1.946260 0.134960 0.157360 
#    y 0.134960 1.924090 -0.087370 
#    z 0.157360 -0.087370 1.818560 
# 
# From -- ./inp_files/441659.got.cif
#   From: 2010.05.17/outbox.cif.g08.bks.cpg/sg2_221_cif.got.tgz:441659.got - 2010.06.03 11:33:40.
