data_PCOD9052997
_publ_section_title
;
Structure prediction by ZEFSAII (Michael W. Deem and Ramdas Pophale) SiO2 
 PCOD9052997
Probable space group: P -1
;
_chemical_formula_sum "Si O2"
_cell_formula_units_Z 16
_cell_length_a 11.712386
_cell_length_b 11.772379
_cell_length_c 12.230479
_cell_angle_alpha 62.611471
_cell_angle_beta 48.362913
_cell_angle_gamma 100.770530
_cell_volume 749.973393
_symmetry_space_group_name_H-M "P -1"
_symmetry_group_IT_number 2
_symmetry_cell_setting 'triclinic'
loop_
_space_group_symop_operation_xyz
x,y,z
-x,-y,-z
loop_
_atom_site_type_symbol
_atom_site_label
_atom_site_fract_x
_atom_site_fract_y
_atom_site_fract_z
Si Si1 0.473391 0.877677 0.475759
Si Si2 0.482652 0.626159 0.705808
Si Si3 0.482264 0.819707 0.021317
Si Si4 0.044997 0.776587 0.470444
Si Si5 0.334083 0.274881 0.220835
Si Si6 0.250541 0.467907 0.446317
Si Si7 0.186721 0.761207 0.044275
Si Si8 0.024186 0.419634 0.177938
O O1 0.528426 0.769263 0.529943
O O2 0.211538 0.714936 0.675429
O O3 0.500000 0.000000 0.500000
O O4 0.642668 0.027498 0.205424
O O5 0.602172 0.739520 0.694420
O O6 0.581708 0.549192 0.645345
O O7 0.212736 0.453799 0.979161
O O8 0.375144 0.681448 0.255088
O O9 0.302208 0.769750 0.074342
O O10 0.598495 0.779696 0.892150
O O11 0.695972 0.043376 0.810614
O O12 0.919843 0.828351 0.567144
O O13 0.891515 0.635190 0.530418
O O14 0.028643 0.673971 0.629212
O O15 0.500000 0.500000 0.000000
O O16 0.064151 0.349439 0.712261
O O17 0.145733 0.629000 0.035812
#
# Coordination Sequence:
#
# PCOD9052997 Si02
#       8
#     2   2   2   2   2   2   2   2
#     4  12  26  45  70  98 123 170 230 269 315 379
#     4  11  22  43  67  93 133 173 212 269 320 382
#     4  12  20  38  62  96 132 169 216 257 326 386
#     4  11  22  35  66  99 132 169 208 269 325 387
#     4  11  17  37  62  95 131 163 211 267 327 375
#     4  11  25  44  62  98 142 169 206 266 336 387
#     4  12  25  42  68  96 132 176 213 270 322 383
#     4  12  22  43  70  97 125 167 226 270 317 379
#
# _framework density 21.334088000000001
#
# number of rings (size 3 to 8) (size 9 to 14) (size 15 to 20)
#    0.000    0.500    8.750    1.125    0.000    2.000 
#    2.250    0.625    0.000    0.000    0.000    0.000 
#    0.000    0.000    0.000    0.000    0.000    0.000 
#
# Total GULP energy -89528.387205 kJ/mol
# GULP energy per Si atom -5595.524200 kJ/mol
# Density = 2.128553 g / cm^3
# Si number density = 21.334088 Si / 1000 Ang^3
#
#
#
# Elastic Constant Matrix: (Units=GPa)
#
#
# Indices 1 2 3 4 5 6 
#
# 1 122.1137 26.7509 60.2666 -14.5447 2.7432 -18.6571
# 2 26.7509 38.4202 29.7182 -4.6041 -3.6586 -6.1637
# 3 60.2666 29.7182 158.1662 -7.9230 -9.2240 -28.9327
# 4 -14.5447 -4.6041 -7.9230 38.9831 -4.1914 -5.1797
# 5 2.7432 -3.6586 -9.2240 -4.1914 35.1589 -5.8110
# 6 -18.6571 -6.1637 -28.9327 -5.1797 -5.8110 19.3674
#
#
#
# Elastic Compliance Matrix: (Units=1/GPa)
#
#
# Indices 1 2 3 4 5 6 
#
# 1 0.012063 -0.005038 -0.001867 0.004652 0.000000 0.008472
# 2 -0.005038 0.033233 -0.003730 0.001870 0.003370 0.001662
# 3 -0.001867 -0.003730 0.011385 0.004073 0.006027 0.016920
# 4 0.004652 0.001870 0.004073 0.032312 0.008444 0.022336
# 5 0.000000 0.003370 0.006027 0.008444 0.035163 0.022884
# 6 0.008472 0.001662 0.016920 0.022336 0.022884 0.098440
#
#
# Mechanical properties :
#
#
# Convention : Reuss Voigt Hill
#
# Bulk Modulus (GPa) = 28.24050 61.35238 44.79644
# Shear Modulus (GPa) = 19.55644 32.16617 25.86130
#
# Velocity S-wave (km/s) = 3.03095 3.88717 3.48545
# Velocity P-wave (km/s) = 5.05123 6.99765 6.10254
#
# Compressibility (1/GPa) = 0.03541014
#
# Stress axis : x y z
#
# Youngs Moduli (GPa) = 82.90093 30.09056 87.83195
#
# Poissons Ratio (x) = 0.15160 0.16397
# Poissons Ratio (y) = 0.41768 0.32763
# Poissons Ratio (z) = 0.15477 0.11224
#
# Static dielectric constant tensor:
#      x y z
#    x 1.750810 -0.014310 -0.002180 
#    y -0.014310 1.814270 0.004450 
#    z -0.002180 0.004450 1.799580 
# 
# From -- ./inp_files/427743.got.cif
#   From: 2010.05.17/outbox.cif.g08.bks.cpg/sg2_214_cif.got.tgz:427743.got - 2010.06.03 11:33:40.
