data_PCOD9052143
_publ_section_title
;
Structure prediction by ZEFSAII (Michael W. Deem and Ramdas Pophale) SiO2 
 PCOD9052143
Probable space group: P -1
;
_chemical_formula_sum "Si O2"
_cell_formula_units_Z 15
_cell_length_a 16.518766
_cell_length_b 18.262590
_cell_length_c 8.379100
_cell_angle_alpha 60.859616
_cell_angle_beta 130.276614
_cell_angle_gamma 156.896024
_cell_volume 706.109783
_symmetry_space_group_name_H-M "P -1"
_symmetry_group_IT_number 2
_symmetry_cell_setting 'triclinic'
loop_
_space_group_symop_operation_xyz
x,y,z
-x,-y,-z
loop_
_atom_site_type_symbol
_atom_site_label
_atom_site_fract_x
_atom_site_fract_y
_atom_site_fract_z
Si Si1 0.500000 0.000000 0.500000
Si Si2 0.406948 0.562054 0.382562
Si Si3 0.614985 0.799936 0.110015
Si Si4 0.626435 0.034381 0.263500
Si Si5 0.954541 0.979023 0.778891
Si Si6 0.745454 0.354193 0.404765
Si Si7 0.967047 0.155809 0.412860
Si Si8 0.777380 0.398847 0.758597
O O1 0.392634 0.933716 0.624153
O O2 0.439473 0.857113 0.580014
O O3 0.502396 0.642737 0.237905
O O4 0.260340 0.544104 0.250905
O O5 0.214295 0.351561 0.412307
O O6 0.665646 0.747293 0.616446
O O7 0.845341 0.933512 0.154392
O O8 0.742670 0.960554 0.219136
O O9 0.392406 0.679977 0.850143
O O10 0.889044 0.185602 0.370785
O O11 0.467648 0.834706 0.287630
O O12 0.500000 0.000000 0.000000
O O13 0.999949 0.105732 0.637020
O O14 0.000000 0.000000 0.000000
O O15 0.807447 0.436518 0.569274
O O16 0.000000 0.500000 0.500000
O O17 0.000000 0.500000 0.000000
#
# Coordination Sequence:
#
# PCOD9052143 Si02
#       8
#     1   2   2   2   2   2   2   2
#     4  10  26  40  60  98 134 172 230 282 330 414
#     4  11  23  43  68  98 131 178 228 277 344 413
#     4  11  24  44  70  97 135 175 231 287 343 412
#     4  11  22  41  66  96 138 181 226 283 349 401
#     4  11  25  46  70  99 136 177 226 290 345 402
#     4  11  25  41  63  98 133 177 222 281 347 403
#     4  11  24  43  71  98 135 183 226 284 346 411
#     4  11  22  39  64  95 134 176 225 277 337 414
#
# _framework density 21.243155000000002
#
# number of rings (size 3 to 8) (size 9 to 14) (size 15 to 20)
#    0.000    1.067    2.667    4.800    5.600    5.867 
#    0.000    1.333    0.000    0.000    0.000    0.000 
#    0.000    0.000    0.000    0.000    0.000    0.000 
#
# Total GULP energy -83579.936913 kJ/mol
# GULP energy per Si atom -5571.995794 kJ/mol
# Density = 2.119480 g / cm^3
# Si number density = 21.243155 Si / 1000 Ang^3
#
#
#
# Elastic Constant Matrix: (Units=GPa)
#
#
# Indices 1 2 3 4 5 6 
#
# 1 121.5741 8.0929 39.9636 -7.9779 -6.3013 22.4615
# 2 8.0929 119.6180 38.7846 -9.8179 -11.1148 14.3439
# 3 39.9636 38.7846 158.4590 -13.9724 -1.5019 18.3534
# 4 -7.9779 -9.8179 -13.9724 25.5077 14.7702 2.0332
# 5 -6.3013 -11.1148 -1.5019 14.7702 31.8649 -4.7405
# 6 22.4615 14.3439 18.3534 2.0332 -4.7405 38.3969
#
#
#
# Elastic Compliance Matrix: (Units=1/GPa)
#
#
# Indices 1 2 3 4 5 6 
#
# 1 0.009959 0.000804 -0.001835 0.002816 0.000056 -0.005391
# 2 0.000804 0.009672 -0.002047 0.001846 0.002143 -0.002938
# 3 -0.001835 -0.002047 0.008025 0.005316 -0.003567 -0.002719
# 4 0.002816 0.001846 0.005316 0.061237 -0.028668 -0.011660
# 5 0.000056 0.002143 -0.003567 -0.028668 0.046470 0.008127
# 6 -0.005391 -0.002938 -0.002719 -0.011660 0.008127 0.033216
#
#
# Mechanical properties :
#
#
# Convention : Reuss Voigt Hill
#
# Bulk Modulus (GPa) = 46.51143 63.70369 55.10756
# Shear Modulus (GPa) = 27.48745 40.00792 33.74769
#
# Velocity S-wave (km/s) = 3.60105 4.34445 3.99010
# Velocity P-wave (km/s) = 6.26357 7.43092 6.87208
#
# Compressibility (1/GPa) = 0.02150009
#
# Stress axis : x y z
#
# Youngs Moduli (GPa) = 100.41236 103.38891 124.61825
#
# Poissons Ratio (x) = -0.08313 0.22869
# Poissons Ratio (y) = -0.08074 0.25506
# Poissons Ratio (z) = 0.18427 0.21161
#
# Static dielectric constant tensor:
#      x y z
#    x 1.801940 0.015820 0.061070 
#    y 0.015820 1.754790 0.071840 
#    z 0.061070 0.071840 1.771010 
# 
# From -- ./inp_files/337181.got.cif
#   From: 2010.05.17/outbox.cif.g08.bks.cpg/sg2_169_cif.got.tgz:337181.got - 2010.06.03 11:33:40.
