data_PCOD9052167
_publ_section_title
;
Structure prediction by ZEFSAII (Michael W. Deem and Ramdas Pophale) SiO2 
 PCOD9052167
Probable space group: P -1
;
_chemical_formula_sum "Si O2"
_cell_formula_units_Z 13
_cell_length_a 15.349992
_cell_length_b 12.212711
_cell_length_c 9.302929
_cell_angle_alpha 54.184673
_cell_angle_beta 42.637873
_cell_angle_gamma 30.587888
_cell_volume 595.232775
_symmetry_space_group_name_H-M "P -1"
_symmetry_group_IT_number 2
_symmetry_cell_setting 'triclinic'
loop_
_space_group_symop_operation_xyz
x,y,z
-x,-y,-z
loop_
_atom_site_type_symbol
_atom_site_label
_atom_site_fract_x
_atom_site_fract_y
_atom_site_fract_z
Si Si1 0.500000 0.500000 0.500000
Si Si2 0.185739 0.421062 0.248752
Si Si3 0.527901 0.955748 0.328601
Si Si4 0.334151 0.433529 0.544176
Si Si5 0.973053 0.062638 0.151109
Si Si6 0.017776 0.320708 0.991307
Si Si7 0.709425 0.417390 0.813670
O O1 0.413056 0.510528 0.446703
O O2 0.739862 0.268496 0.331530
O O3 0.242226 0.527401 0.150105
O O4 0.000000 0.500000 0.500000
O O5 0.110383 0.496191 0.118244
O O6 0.383955 0.167469 0.243085
O O7 0.501251 0.819977 0.428010
O O8 0.768407 0.788282 0.142128
O O9 0.500000 0.000000 0.500000
O O10 0.301096 0.466444 0.390923
O O11 0.127582 0.576136 0.774495
O O12 0.102989 0.839629 0.243810
O O13 0.070303 0.129914 0.009698
O O14 0.000000 0.000000 0.000000
O O15 0.500000 0.500000 0.000000
#
# Coordination Sequence:
#
# PCOD9052167 Si02
#       7
#     1   2   2   2   2   2   2
#     4  10  26  42  66 106 140 180 240 294 368 430
#     4  12  25  43  73 112 136 193 253 287 366 447
#     4  12  24  44  76 102 145 190 242 302 356 440
#     4  11  26  47  68 105 145 184 234 311 366 430
#     4  11  23  43  73  99 146 188 236 304 365 435
#     4  11  25  47  68 107 146 184 245 302 369 433
#     4  12  25  43  77 107 141 195 250 301 369 448
#
# _framework density 21.840195999999999
#
# number of rings (size 3 to 8) (size 9 to 14) (size 15 to 20)
#    0.000    0.615    4.615    2.308    6.462    3.077 
#    5.538    0.000    0.000    0.000    0.000    0.000 
#    0.000    0.000    0.000    0.000    0.000    0.000 
#
# Total GULP energy -72385.610854 kJ/mol
# GULP energy per Si atom -5568.123912 kJ/mol
# Density = 2.179049 g / cm^3
# Si number density = 21.840196 Si / 1000 Ang^3
#
#
#
# Elastic Constant Matrix: (Units=GPa)
#
#
# Indices 1 2 3 4 5 6 
#
# 1 72.5203 26.1094 11.7840 8.0180 -8.2668 -5.2132
# 2 26.1094 130.2048 22.5203 -9.0457 1.9210 -11.7111
# 3 11.7840 22.5203 69.5921 3.3380 -4.4214 -16.9739
# 4 8.0180 -9.0457 3.3380 34.7221 -2.0103 -1.7790
# 5 -8.2668 1.9210 -4.4214 -2.0103 18.4700 5.9360
# 6 -5.2132 -11.7111 -16.9739 -1.7790 5.9360 47.7758
#
#
#
# Elastic Compliance Matrix: (Units=1/GPa)
#
#
# Indices 1 2 3 4 5 6 
#
# 1 0.016505 -0.003566 -0.001106 -0.004244 0.007198 -0.000519
# 2 -0.003566 0.009226 -0.002369 0.003346 -0.003260 0.001560
# 3 -0.001106 -0.002369 0.016731 -0.001602 0.001996 0.004935
# 4 -0.004244 0.003346 -0.001602 0.030877 0.000446 0.000882
# 5 0.007198 -0.003260 0.001996 0.000446 0.060412 -0.006794
# 6 -0.000519 0.001560 0.004935 0.000882 -0.006794 0.023887
#
#
# Mechanical properties :
#
#
# Convention : Reuss Voigt Hill
#
# Bulk Modulus (GPa) = 35.23672 43.68275 39.45973
# Shear Modulus (GPa) = 27.59674 34.32047 30.95861
#
# Velocity S-wave (km/s) = 3.55854 3.96844 3.76906
# Velocity P-wave (km/s) = 5.74919 6.40644 6.08669
#
# Compressibility (1/GPa) = 0.02837949
#
# Stress axis : x y z
#
# Youngs Moduli (GPa) = 60.58627 108.39070 59.77051
#
# Poissons Ratio (x) = 0.38653 0.06613
# Poissons Ratio (y) = 0.21605 0.14158
# Poissons Ratio (z) = 0.06704 0.25674
#
# Static dielectric constant tensor:
#      x y z
#    x 1.838720 0.043340 -0.001670 
#    y 0.043340 1.806030 -0.047930 
#    z -0.001670 -0.047930 1.754170 
# 
# From -- ./inp_files/182179.got.cif
#   From: 2010.05.17/outbox.cif.g08.bks.cpg/sg2_92_cif.got.tgz:182179.got - 2010.06.03 11:33:40.
