data_PCOD9052076
_publ_section_title
;
Structure prediction by ZEFSAII (Michael W. Deem and Ramdas Pophale) SiO2 
 PCOD9052076
Probable space group: P -1
;
_chemical_formula_sum "Si O2"
_cell_formula_units_Z 12
_cell_length_a 6.677549
_cell_length_b 10.593004
_cell_length_c 8.397783
_cell_angle_alpha 68.921854
_cell_angle_beta 73.400437
_cell_angle_gamma 110.348593
_cell_volume 458.848749
_symmetry_space_group_name_H-M "P -1"
_symmetry_group_IT_number 2
_symmetry_cell_setting 'triclinic'
loop_
_space_group_symop_operation_xyz
x,y,z
-x,-y,-z
loop_
_atom_site_type_symbol
_atom_site_label
_atom_site_fract_x
_atom_site_fract_y
_atom_site_fract_z
Si Si1 0.018900 0.121406 0.308129
Si Si2 0.578200 0.678427 0.118466
Si Si3 0.291265 0.801363 0.238347
Si Si4 0.398883 0.895570 0.805648
Si Si5 0.052557 0.403043 0.363444
Si Si6 0.259452 0.580793 0.815356
O O1 0.773120 0.075774 0.287073
O O2 0.091966 0.278772 0.316350
O O3 0.000000 0.000000 0.500000
O O4 0.226112 0.182889 0.097833
O O5 0.518507 0.771226 0.223512
O O6 0.656382 0.546504 0.163615
O O7 0.291979 0.564500 0.196940
O O8 0.027235 0.659875 0.411622
O O9 0.358020 0.943602 0.280748
O O10 0.289283 0.846099 0.033185
O O11 0.413434 0.750563 0.787520
O O12 0.811011 0.390020 0.354829
O O13 0.000000 0.500000 0.000000
#
# Coordination Sequence:
#
# PCOD9052076 Si02
#       6
#     2   2   2   2   2   2
#     4  11  27  48  78 112 147 205 264 308 376 462
#     4  12  26  48  82 110 153 199 257 319 373 453
#     4  11  27  47  75 116 159 201 242 322 390 449
#     4  10  25  50  76 108 162 196 252 315 388 443
#     4  11  26  48  75 114 152 200 260 309 381 457
#     4  11  23  47  78 109 147 208 255 312 371 455
#
# _framework density 26.152407
#
# number of rings (size 3 to 8) (size 9 to 14) (size 15 to 20)
#    0.000    1.000    3.333    2.000    7.000    5.333 
#    3.000    0.000    0.000    0.000    0.000    0.000 
#    0.000    0.000    0.000    0.000    0.000    0.000 
#
# Total GULP energy -67005.926756 kJ/mol
# GULP energy per Si atom -5583.827230 kJ/mol
# Density = 2.609288 g / cm^3
# Si number density = 26.152407 Si / 1000 Ang^3
#
#
#
# Elastic Constant Matrix: (Units=GPa)
#
#
# Indices 1 2 3 4 5 6 
#
# 1 86.8350 29.8938 30.0440 -2.4593 0.0852 -33.4646
# 2 29.8938 153.2387 15.5340 -17.1372 4.3430 -17.4197
# 3 30.0440 15.5340 127.3222 -13.5252 -14.6097 -9.6679
# 4 -2.4593 -17.1372 -13.5252 45.1659 -5.1087 -4.3934
# 5 0.0852 4.3430 -14.6097 -5.1087 41.8182 1.4416
# 6 -33.4646 -17.4197 -9.6679 -4.3934 1.4416 50.0993
#
#
#
# Elastic Compliance Matrix: (Units=1/GPa)
#
#
# Indices 1 2 3 4 5 6 
#
# 1 0.017223 -0.001811 -0.003194 0.000150 -0.001300 0.010309
# 2 -0.001811 0.007397 -0.000120 0.002768 -0.000523 0.001597
# 3 -0.003194 -0.000120 0.009340 0.002970 0.003652 -0.000217
# 4 0.000150 0.002768 0.002970 0.024863 0.003659 0.003711
# 5 -0.001300 -0.000523 0.003652 0.003659 0.025719 -0.000765
# 6 0.010309 0.001597 -0.000217 0.003711 -0.000765 0.027707
#
#
# Mechanical properties :
#
#
# Convention : Reuss Voigt Hill
#
# Bulk Modulus (GPa) = 42.17236 57.59329 49.88282
# Shear Modulus (GPa) = 38.34284 46.87827 42.61055
#
# Velocity S-wave (km/s) = 3.83316 4.23839 4.04086
# Velocity P-wave (km/s) = 5.97925 6.78394 6.39427
#
# Compressibility (1/GPa) = 0.02371222
#
# Stress axis : x y z
#
# Youngs Moduli (GPa) = 58.06279 135.18754 107.06218
#
# Poissons Ratio (x) = 0.24476 0.34191
# Poissons Ratio (y) = 0.10513 0.01284
# Poissons Ratio (z) = 0.18542 0.01621
#
# Static dielectric constant tensor:
#      x y z
#    x 2.078840 -0.028990 0.070680 
#    y -0.028990 2.275630 -0.056250 
#    z 0.070680 -0.056250 2.110630 
# 
# From -- ./inp_files/175039.got.cif
#   From: 2010.05.17/outbox.cif.g08.bks.cpg/sg2_88_cif.got.tgz:175039.got - 2010.06.03 11:33:40.
