data_PCOD9052402
_publ_section_title
;
Structure prediction by ZEFSAII (Michael W. Deem and Ramdas Pophale) SiO2 
 PCOD9052402
Probable space group: P -1
;
_chemical_formula_sum "Si O2"
_cell_formula_units_Z 16
_cell_length_a 13.245129
_cell_length_b 9.316472
_cell_length_c 22.449861
_cell_angle_alpha 28.571793
_cell_angle_beta 143.498253
_cell_angle_gamma 136.763453
_cell_volume 785.629040
_symmetry_space_group_name_H-M "P -1"
_symmetry_group_IT_number 2
_symmetry_cell_setting 'triclinic'
loop_
_space_group_symop_operation_xyz
x,y,z
-x,-y,-z
loop_
_atom_site_type_symbol
_atom_site_label
_atom_site_fract_x
_atom_site_fract_y
_atom_site_fract_z
Si Si1 0.270585 0.270254 0.898861
Si Si2 0.114209 0.200179 0.313346
Si Si3 0.191735 0.906273 0.109027
Si Si4 0.536595 0.091910 0.415397
Si Si5 0.541265 0.356164 0.901145
Si Si6 0.653384 0.298505 0.629702
Si Si7 0.001431 0.718039 0.644980
Si Si8 0.901864 0.235471 0.087332
O O1 0.438139 0.404625 0.894938
O O2 0.154235 0.531402 0.765664
O O3 0.170423 0.031092 0.893492
O O4 0.283759 0.092443 0.031640
O O5 0.175143 0.555697 0.209118
O O6 0.992650 0.183279 0.319265
O O7 0.020505 0.114597 0.238764
O O8 0.274432 0.008154 0.471217
O O9 0.305193 0.920722 0.216770
O O10 0.000000 0.000000 0.000000
O O11 0.517789 0.430329 0.258376
O O12 0.500000 0.000000 0.500000
O O13 0.401725 0.889002 0.385928
O O14 0.744691 0.385354 0.989563
O O15 0.500000 0.000000 0.000000
O O16 0.500000 0.500000 0.500000
O O17 0.826116 0.510841 0.628446
O O18 0.000000 0.000000 0.500000
O O19 0.000000 0.500000 0.000000
#
# Coordination Sequence:
#
# PCOD9052402 Si02
#       8
#     2   2   2   2   2   2   2   2
#     4  11  23  43  70  97 140 180 221 293 347 405
#     4  11  23  42  64 103 135 176 231 287 332 414
#     4  11  21  40  70  99 133 173 236 276 341 408
#     4  12  26  44  72  99 140 183 234 281 341 417
#     4  10  26  46  65 103 144 176 225 292 347 401
#     4  11  24  44  69  99 133 182 235 282 335 416
#     4  11  24  45  66  95 139 180 225 285 348 401
#     4  11  23  41  72 100 132 177 233 277 342 412
#
# _framework density 20.365845
#
# number of rings (size 3 to 8) (size 9 to 14) (size 15 to 20)
#    0.000    1.000    6.250    1.500    7.000    0.000 
#    6.750    4.375    0.000    0.000    0.000    0.000 
#    0.000    0.000    0.000    0.000    0.000    0.000 
#
# Total GULP energy -89395.078066 kJ/mol
# GULP energy per Si atom -5587.192379 kJ/mol
# Density = 2.031949 g / cm^3
# Si number density = 20.365845 Si / 1000 Ang^3
#
#
#
# Elastic Constant Matrix: (Units=GPa)
#
#
# Indices 1 2 3 4 5 6 
#
# 1 130.7819 17.0021 31.6996 5.0676 -22.8410 1.8187
# 2 17.0021 54.4262 11.7843 13.4235 -24.4094 -15.6432
# 3 31.6996 11.7843 121.3785 -0.1245 -23.8957 -5.9053
# 4 5.0676 13.4235 -0.1245 40.5778 -1.1396 -7.2093
# 5 -22.8410 -24.4094 -23.8957 -1.1396 50.6970 5.7570
# 6 1.8187 -15.6432 -5.9053 -7.2093 5.7570 35.1731
#
#
#
# Elastic Compliance Matrix: (Units=1/GPa)
#
#
# Indices 1 2 3 4 5 6 
#
# 1 0.008787 -0.001581 -0.001731 -0.000871 0.002595 -0.002051
# 2 -0.001581 0.028700 0.000458 -0.007276 0.012085 0.009453
# 3 -0.001731 0.000458 0.009451 0.000440 0.003751 0.001356
# 4 -0.000871 -0.007276 0.000440 0.027616 -0.003420 0.003103
# 5 0.002595 0.012085 0.003751 -0.003420 0.028344 0.000530
# 6 -0.002051 0.009453 0.001356 0.003103 0.000530 0.033518
#
#
# Mechanical properties :
#
#
# Convention : Reuss Voigt Hill
#
# Bulk Modulus (GPa) = 24.25420 47.50651 35.88035
# Shear Modulus (GPa) = 32.07842 41.69630 36.88736
#
# Velocity S-wave (km/s) = 3.97307 4.52969 4.26048
# Velocity P-wave (km/s) = 5.74301 7.12283 6.46981
#
# Compressibility (1/GPa) = 0.04122997
#
# Stress axis : x y z
#
# Youngs Moduli (GPa) = 113.80475 34.84341 105.80585
#
# Poissons Ratio (x) = 0.05509 0.18317
# Poissons Ratio (y) = 0.17993 -0.04847
# Poissons Ratio (z) = 0.19701 -0.01596
#
# Static dielectric constant tensor:
#      x y z
#    x 1.761960 -0.001230 -0.003900 
#    y -0.001230 1.738250 -0.000940 
#    z -0.003900 -0.000940 1.733980 
# 
# From -- ./inp_files/593925.got.cif
#   From: 2010.05.17/outbox.cif.g08.bks.cpg/sg2_297_cif.got.tgz:593925.got - 2010.06.03 11:33:40.
