data_PCOD9052769
_publ_section_title
;
Structure prediction by ZEFSAII (Michael W. Deem and Ramdas Pophale) SiO2 
 PCOD9052769
Probable space group: P -1
;
_chemical_formula_sum "Si O2"
_cell_formula_units_Z 16
_cell_length_a 10.884361
_cell_length_b 10.733715
_cell_length_c 11.881279
_cell_angle_alpha 77.770462
_cell_angle_beta 112.898707
_cell_angle_gamma 47.697067
_cell_volume 679.709312
_symmetry_space_group_name_H-M "P -1"
_symmetry_group_IT_number 2
_symmetry_cell_setting 'triclinic'
loop_
_space_group_symop_operation_xyz
x,y,z
-x,-y,-z
loop_
_atom_site_type_symbol
_atom_site_label
_atom_site_fract_x
_atom_site_fract_y
_atom_site_fract_z
Si Si1 0.165815 0.987788 0.038912
Si Si2 0.305190 0.109899 0.320280
Si Si3 0.524955 0.116878 0.234064
Si Si4 0.204519 0.419896 0.848637
Si Si5 0.502720 0.694845 0.433004
Si Si6 0.044655 0.350802 0.630006
Si Si7 0.355517 0.489813 0.245295
Si Si8 0.509857 0.577222 0.101973
O O1 0.382252 0.794618 0.245364
O O2 0.291778 0.857345 0.989267
O O3 0.000000 0.000000 0.000000
O O4 0.947257 0.268545 0.911517
O O5 0.405878 0.079985 0.242989
O O6 0.050517 0.370356 0.216668
O O7 0.500000 0.000000 0.500000
O O8 0.313044 0.952685 0.362691
O O9 0.454539 0.277353 0.271579
O O10 0.805531 0.871720 0.346678
O O11 0.399589 0.255558 0.047762
O O12 0.201718 0.297365 0.792717
O O13 0.255452 0.516923 0.790274
O O14 0.543460 0.569357 0.580240
O O15 0.782691 0.516177 0.550155
O O16 0.000000 0.500000 0.500000
O O17 0.465313 0.508336 0.196882
O O18 0.500000 0.500000 0.000000
#
# Coordination Sequence:
#
# PCOD9052769 Si02
#       8
#     2   2   2   2   2   2   2   2
#     4  10  26  49  76 104 147 197 251 305 365 441
#     4  12  23  44  69 104 148 186 235 306 376 442
#     4  12  24  44  73 111 147 192 254 302 377 446
#     4  12  25  44  74 102 151 196 246 307 372 445
#     4  12  25  46  78 109 153 193 247 306 379 446
#     4  12  25  45  69 111 154 190 241 313 381 438
#     4  11  25  49  79 109 148 201 253 302 374 443
#     4  11  25  48  72 107 147 196 251 310 365 435
#
# _framework density 23.539473999999998
#
# number of rings (size 3 to 8) (size 9 to 14) (size 15 to 20)
#    0.000    0.500    5.000    2.250    3.500    3.000 
#    0.000    0.625    8.250    0.000    0.000    0.000 
#    0.000    0.000    0.000    0.000    0.000    0.000 
#
# Total GULP energy -89185.631989 kJ/mol
# GULP energy per Si atom -5574.101999 kJ/mol
# Density = 2.348590 g / cm^3
# Si number density = 23.539474 Si / 1000 Ang^3
#
#
#
# Elastic Constant Matrix: (Units=GPa)
#
#
# Indices 1 2 3 4 5 6 
#
# 1 85.3932 10.6385 29.0415 9.9709 -11.1388 -25.3586
# 2 10.6385 157.9084 52.6799 -0.3010 1.5538 -1.6437
# 3 29.0415 52.6799 106.6374 9.6301 -12.4687 1.7036
# 4 9.9709 -0.3010 9.6301 36.0904 0.8474 -2.0721
# 5 -11.1388 1.5538 -12.4687 0.8474 36.6624 11.5809
# 6 -25.3586 -1.6437 1.7036 -2.0721 11.5809 29.0594
#
#
#
# Elastic Compliance Matrix: (Units=1/GPa)
#
#
# Indices 1 2 3 4 5 6 
#
# 1 0.018777 0.000852 -0.005772 -0.002610 -0.001685 0.017258
# 2 0.000852 0.007844 -0.004545 0.001245 -0.002443 0.002516
# 3 -0.005772 -0.004545 0.014318 -0.002913 0.006153 -0.008793
# 4 -0.002610 0.001245 -0.002913 0.029355 -0.002898 0.001211
# 5 -0.001685 -0.002443 0.006153 -0.002898 0.033994 -0.015724
# 6 0.017258 0.002516 -0.008793 0.001211 -0.015724 0.056483
#
#
# Mechanical properties :
#
#
# Convention : Reuss Voigt Hill
#
# Bulk Modulus (GPa) = 45.43608 59.40653 52.42131
# Shear Modulus (GPa) = 26.73257 37.53438 32.13348
#
# Velocity S-wave (km/s) = 3.37359 3.99749 3.69872
# Velocity P-wave (km/s) = 5.87527 6.82630 6.36856
#
# Compressibility (1/GPa) = 0.02200894
#
# Stress axis : x y z
#
# Youngs Moduli (GPa) = 53.25612 127.47945 69.84255
#
# Poissons Ratio (x) = -0.10857 0.40310
# Poissons Ratio (y) = -0.04535 0.31746
# Poissons Ratio (z) = 0.30737 0.57945
#
# Static dielectric constant tensor:
#      x y z
#    x 1.937720 0.094840 -0.029160 
#    y 0.094840 1.937660 0.046890 
#    z -0.029160 0.046890 1.957740 
# 
# From -- ./inp_files/428184.got.cif
#   From: 2010.05.17/outbox.cif.g08.bks.cpg/sg2_215_cif.got.tgz:428184.got - 2010.06.03 11:33:40.
