data_PCOD9052466
_publ_section_title
;
Structure prediction by ZEFSAII (Michael W. Deem and Ramdas Pophale) SiO2 
 PCOD9052466
Probable space group: P -1
;
_chemical_formula_sum "Si O2"
_cell_formula_units_Z 16
_cell_length_a 22.323076
_cell_length_b 12.237043
_cell_length_c 8.602238
_cell_angle_alpha 34.535391
_cell_angle_beta 119.754590
_cell_angle_gamma 142.836527
_cell_volume 711.284524
_symmetry_space_group_name_H-M "P -1"
_symmetry_group_IT_number 2
_symmetry_cell_setting 'triclinic'
loop_
_space_group_symop_operation_xyz
x,y,z
-x,-y,-z
loop_
_atom_site_type_symbol
_atom_site_label
_atom_site_fract_x
_atom_site_fract_y
_atom_site_fract_z
Si Si1 0.998408 0.270924 0.724207
Si Si2 0.652674 0.671854 0.285781
Si Si3 0.094811 0.039449 0.373800
Si Si4 0.258954 0.765968 0.454712
Si Si5 0.798292 0.637611 0.401293
Si Si6 0.105167 0.432048 0.128472
Si Si7 0.279383 0.152608 0.484428
Si Si8 0.429613 0.255927 0.335302
O O1 0.958876 0.131993 0.660509
O O2 0.000000 0.500000 0.500000
O O3 0.126987 0.487621 0.644870
O O4 0.907812 0.972436 0.070046
O O5 0.724949 0.641480 0.380445
O O6 0.666974 0.755796 0.385229
O O7 0.521981 0.358302 0.441869
O O8 0.704333 0.957925 0.911902
O O9 0.016106 0.774384 0.718762
O O10 0.095571 0.260351 0.176708
O O11 0.218717 0.224030 0.313548
O O12 0.272344 0.620257 0.523529
O O13 0.334025 0.917413 0.527805
O O14 0.836735 0.561353 0.664360
O O15 0.178883 0.776879 0.777545
O O16 0.368809 0.294005 0.304296
O O17 0.500000 0.500000 0.000000
#
# Coordination Sequence:
#
# PCOD9052466 Si02
#       8
#     2   2   2   2   2   2   2   2
#     4  12  24  40  68 103 141 182 217 275 345 410
#     4  11  23  46  69  97 133 182 232 285 334 394
#     4  11  25  41  66 105 141 177 224 269 340 418
#     4  11  23  45  65  97 141 181 229 278 340 399
#     4  12  24  42  70  99 142 178 224 280 342 407
#     4  11  25  42  65 104 141 180 219 276 336 418
#     4  12  23  45  72  95 138 180 226 280 345 397
#     4  10  26  46  71  99 131 181 240 286 332 396
#
# _framework density 22.494515
#
# number of rings (size 3 to 8) (size 9 to 14) (size 15 to 20)
#    0.000    0.750    5.000    1.875    3.500    3.500 
#    0.000    3.125    0.000    0.000    0.000    0.000 
#    0.000    0.000    0.000    0.000    0.000    0.000 
#
# Total GULP energy -89588.444354 kJ/mol
# GULP energy per Si atom -5599.277772 kJ/mol
# Density = 2.244332 g / cm^3
# Si number density = 22.494515 Si / 1000 Ang^3
#
#
#
# Elastic Constant Matrix: (Units=GPa)
#
#
# Indices 1 2 3 4 5 6 
#
# 1 138.8738 33.5250 33.3348 1.0967 -23.6612 -20.9969
# 2 33.5250 137.2797 5.3028 -15.3996 -18.2151 -13.4971
# 3 33.3348 5.3028 33.4574 4.9097 -11.8626 2.5149
# 4 1.0967 -15.3996 4.9097 20.8104 -6.2684 -3.9201
# 5 -23.6612 -18.2151 -11.8626 -6.2684 41.5768 -7.1938
# 6 -20.9969 -13.4971 2.5149 -3.9201 -7.1938 37.3639
#
#
#
# Elastic Compliance Matrix: (Units=1/GPa)
#
#
# Indices 1 2 3 4 5 6 
#
# 1 0.012537 -0.000219 -0.011811 0.005617 0.006166 0.009538
# 2 -0.000219 0.010070 -0.001060 0.010851 0.006660 0.006007
# 3 -0.011811 -0.001060 0.045142 -0.012295 0.001941 -0.010975
# 4 0.005617 0.010851 -0.012295 0.067521 0.017809 0.018417
# 5 0.006166 0.006660 0.001941 0.017809 0.036241 0.014586
# 6 0.009538 0.006007 -0.010975 0.018417 0.014586 0.039773
#
#
# Mechanical properties :
#
#
# Convention : Reuss Voigt Hill
#
# Bulk Modulus (GPa) = 24.05698 50.43734 37.24716
# Shear Modulus (GPa) = 19.89474 35.78012 27.83743
#
# Velocity S-wave (km/s) = 2.97716 3.99258 3.52166
# Velocity P-wave (km/s) = 4.74719 6.61249 5.75590
#
# Compressibility (1/GPa) = 0.04156798
#
# Stress axis : x y z
#
# Youngs Moduli (GPa) = 79.76299 99.30068 22.15216
#
# Poissons Ratio (x) = 0.02179 0.26165
# Poissons Ratio (y) = 0.01750 0.02348
# Poissons Ratio (z) = 0.94212 0.10526
#
# Static dielectric constant tensor:
#      x y z
#    x 1.802460 -0.007410 0.006240 
#    y -0.007410 1.864130 0.007770 
#    z 0.006240 0.007770 1.843190 
# 
# From -- ./inp_files/281539.got.cif
#   From: 2010.05.17/outbox.cif.g08.bks.cpg/sg2_141_cif.got.tgz:281539.got - 2010.06.03 11:33:40.
