data_PCOD9052024
_publ_section_title
;
Structure prediction by ZEFSAII (Michael W. Deem and Ramdas Pophale) SiO2 
 PCOD9052024
Probable space group: P -1
;
_chemical_formula_sum "Si O2"
_cell_formula_units_Z 16
_cell_length_a 31.335449
_cell_length_b 11.916636
_cell_length_c 4.910585
_cell_angle_alpha 55.973634
_cell_angle_beta 122.276483
_cell_angle_gamma 156.023341
_cell_volume 616.151817
_symmetry_space_group_name_H-M "P -1"
_symmetry_group_IT_number 2
_symmetry_cell_setting 'triclinic'
loop_
_space_group_symop_operation_xyz
x,y,z
-x,-y,-z
loop_
_atom_site_type_symbol
_atom_site_label
_atom_site_fract_x
_atom_site_fract_y
_atom_site_fract_z
Si Si1 0.578896 0.171932 0.291549
Si Si2 0.096254 0.493248 0.960186
Si Si3 0.788545 0.803542 0.331074
Si Si4 0.091155 0.106780 0.726817
Si Si5 0.591244 0.661698 0.385447
Si Si6 0.203665 0.612417 0.670410
Si Si7 0.599749 0.920369 0.631229
Si Si8 0.194453 0.980205 0.379374
O O1 0.674571 0.501299 0.218560
O O2 0.500000 0.000000 0.500000
O O3 0.626786 0.133460 0.531111
O O4 0.500000 0.000000 0.000000
O O5 0.164609 0.555713 0.912848
O O6 0.118757 0.695650 0.656317
O O7 0.138987 0.559670 0.317054
O O8 0.974957 0.164433 0.975208
O O9 0.858001 0.835738 0.448868
O O10 0.778456 0.839551 0.549682
O O11 0.842287 0.042686 0.996560
O O12 0.174825 0.390323 0.796817
O O13 0.000000 0.000000 0.500000
O O14 0.500000 0.500000 0.500000
O O15 0.525552 0.378877 0.429909
O O16 0.702460 0.863380 0.571127
O O17 0.614075 0.826764 0.006905
O O18 0.325656 0.923184 0.590360
#
# Coordination Sequence:
#
# PCOD9052024 Si02
#       8
#     2   2   2   2   2   2   2   2
#     4  12  27  47  69 103 145 195 243 298 366 438
#     4  11  24  43  73 101 140 186 233 297 370 421
#     4  12  27  48  72 106 149 194 243 305 368 438
#     4  10  25  49  77 107 144 186 251 311 365 439
#     4  11  25  42  69 106 140 192 242 299 354 435
#     4  11  22  44  69 108 133 181 238 305 357 428
#     4  11  24  41  70  98 139 183 242 290 363 420
#     4  12  27  46  70 104 154 190 244 298 369 439
#
# _framework density 25.967628999999999
#
# number of rings (size 3 to 8) (size 9 to 14) (size 15 to 20)
#    0.000    0.750    2.500    4.125    7.000    5.000 
#    0.000    0.000    0.000    0.000    0.000    0.000 
#    0.000    0.000    0.000    0.000    0.000    0.000 
#
# Total GULP energy -89567.776702 kJ/mol
# GULP energy per Si atom -5597.986044 kJ/mol
# Density = 2.590853 g / cm^3
# Si number density = 25.967629 Si / 1000 Ang^3
#
#
#
# Elastic Constant Matrix: (Units=GPa)
#
#
# Indices 1 2 3 4 5 6 
#
# 1 158.0577 21.4995 20.4912 -0.9307 -14.1451 8.4089
# 2 21.4995 116.4994 27.5166 -33.4751 -7.8605 4.3995
# 3 20.4912 27.5166 89.1071 -18.0892 -7.5900 0.3456
# 4 -0.9307 -33.4751 -18.0892 44.5508 -2.8869 0.6359
# 5 -14.1451 -7.8605 -7.5900 -2.8869 44.4956 -1.1634
# 6 8.4089 4.3995 0.3456 0.6359 -1.1634 43.2615
#
#
#
# Elastic Compliance Matrix: (Units=1/GPa)
#
#
# Indices 1 2 3 4 5 6 
#
# 1 0.006851 -0.001117 -0.001309 -0.001104 0.001656 -0.001147
# 2 -0.001117 0.011701 -0.001499 0.008302 0.001968 -0.001030
# 3 -0.001309 -0.001499 0.013001 0.004239 0.001819 0.000290
# 4 -0.001104 0.008302 0.004239 0.030643 0.003800 -0.001012
# 5 0.001656 0.001968 0.001819 0.003800 0.023906 0.000051
# 6 -0.001147 -0.001030 0.000290 -0.001012 0.000051 0.023457
#
#
# Mechanical properties :
#
#
# Convention : Reuss Voigt Hill
#
# Bulk Modulus (GPa) = 42.19178 55.85319 49.02248
# Shear Modulus (GPa) = 39.90030 46.07204 42.98617
#
# Velocity S-wave (km/s) = 3.92412 4.21671 4.07304
# Velocity P-wave (km/s) = 6.06752 6.72778 6.40616
#
# Compressibility (1/GPa) = 0.02370130
#
# Stress axis : x y z
#
# Youngs Moduli (GPa) = 145.95965 85.45989 76.91826
#
# Poissons Ratio (x) = 0.09550 0.10070
# Poissons Ratio (y) = 0.16311 0.11533
# Poissons Ratio (z) = 0.19109 0.12814
#
# Static dielectric constant tensor:
#      x y z
#    x 2.090080 -0.121850 0.028320 
#    y -0.121850 2.144630 0.026490 
#    z 0.028320 0.026490 2.047560 
# 
# From -- ./inp_files/128406.got.cif
#   From: 2010.05.17/outbox.cif.g08.bks.cpg/sg2_65_cif.got.tgz:128406.got - 2010.06.03 11:33:40.
