data_PCOD9052583
_publ_section_title
;
Structure prediction by ZEFSAII (Michael W. Deem and Ramdas Pophale) SiO2 
 PCOD9052583
Probable space group: P -1
;
_chemical_formula_sum "Si O2"
_cell_formula_units_Z 14
_cell_length_a 9.274852
_cell_length_b 16.496977
_cell_length_c 6.175330
_cell_angle_alpha 60.321748
_cell_angle_beta 63.261799
_cell_angle_gamma 48.325298
_cell_volume 602.471909
_symmetry_space_group_name_H-M "P -1"
_symmetry_group_IT_number 2
_symmetry_cell_setting 'triclinic'
loop_
_space_group_symop_operation_xyz
x,y,z
-x,-y,-z
loop_
_atom_site_type_symbol
_atom_site_label
_atom_site_fract_x
_atom_site_fract_y
_atom_site_fract_z
Si Si1 0.350212 0.549099 0.236604
Si Si2 0.974557 0.214410 0.346766
Si Si3 0.073079 0.570065 0.067876
Si Si4 0.416312 0.004039 0.296197
Si Si5 0.270456 0.783052 0.136423
Si Si6 0.804540 0.105031 0.380706
Si Si7 0.668691 0.611478 0.211629
O O1 0.337151 0.659340 0.172451
O O2 0.391713 0.458844 0.511914
O O3 0.500000 0.500000 0.000000
O O4 0.144722 0.584749 0.227558
O O5 0.933903 0.337065 0.205852
O O6 0.918681 0.181818 0.646985
O O7 0.822417 0.207994 0.302542
O O8 0.201892 0.122749 0.273357
O O9 0.234210 0.449684 0.005672
O O10 0.859846 0.596695 0.203773
O O11 0.373092 0.906620 0.438434
O O12 0.500000 0.000000 0.500000
O O13 0.500000 0.000000 0.000000
O O14 0.479015 0.741199 0.158975
O O15 0.202724 0.883338 0.885820
O O16 0.000000 0.000000 0.500000
#
# Coordination Sequence:
#
# PCOD9052583 Si02
#       7
#     2   2   2   2   2   2   2
#     4  12  22  41  66  99 141 191 238 293 354 433
#     4  11  25  45  74 100 140 194 247 300 368 454
#     4  11  23  43  63 100 144 186 232 290 358 424
#     4  11  29  51  77 110 150 187 244 320 387 447
#     4  12  24  42  73 101 137 190 249 294 361 446
#     4  10  26  47  72 102 139 187 244 305 373 442
#     4  11  25  40  63 101 145 182 233 295 355 421
#
# _framework density 23.237598999999999
#
# number of rings (size 3 to 8) (size 9 to 14) (size 15 to 20)
#    0.000    0.857    4.286    1.714    8.000    1.143 
#    0.000    0.000    0.000    0.000    0.000    0.000 
#    0.000    0.000    0.000    0.000    0.000    0.000 
#
# Total GULP energy -77961.373298 kJ/mol
# GULP energy per Si atom -5568.669521 kJ/mol
# Density = 2.318471 g / cm^3
# Si number density = 23.237599 Si / 1000 Ang^3
#
#
#
# Elastic Constant Matrix: (Units=GPa)
#
#
# Indices 1 2 3 4 5 6 
#
# 1 133.1448 14.2639 26.8439 3.0085 -8.0160 -6.4332
# 2 14.2639 63.0564 33.2426 15.3870 -1.2763 -13.2219
# 3 26.8439 33.2426 167.8036 -4.2626 -12.3435 -28.5051
# 4 3.0085 15.3870 -4.2626 38.5997 -6.5276 -1.5530
# 5 -8.0160 -1.2763 -12.3435 -6.5276 33.7021 -1.5642
# 6 -6.4332 -13.2219 -28.5051 -1.5530 -1.5642 27.5712
#
#
#
# Elastic Compliance Matrix: (Units=1/GPa)
#
#
# Indices 1 2 3 4 5 6 
#
# 1 0.007926 -0.001242 -0.000819 0.000074 0.001576 0.000500
# 2 -0.001242 0.021281 -0.003430 -0.008907 -0.002204 0.005743
# 3 -0.000819 -0.003430 0.008346 0.003267 0.003698 0.007186
# 4 0.000074 -0.008907 0.003267 0.031038 0.006947 0.001266
# 5 0.001576 -0.002204 0.003698 0.006947 0.032913 0.005393
# 6 0.000500 0.005743 0.007186 0.001266 0.005393 0.046947
#
#
# Mechanical properties :
#
#
# Convention : Reuss Voigt Hill
#
# Bulk Modulus (GPa) = 37.63635 56.96730 47.30182
# Shear Modulus (GPa) = 29.71033 39.28488 34.49761
#
# Velocity S-wave (km/s) = 3.57955 4.11612 3.85718
# Velocity P-wave (km/s) = 5.77198 6.86719 6.34327
#
# Compressibility (1/GPa) = 0.02657006
#
# Stress axis : x y z
#
# Youngs Moduli (GPa) = 126.16341 46.99009 119.82277
#
# Poissons Ratio (x) = 0.05838 0.09815
# Poissons Ratio (y) = 0.15673 0.41100
# Poissons Ratio (z) = 0.10334 0.16118
#
# Static dielectric constant tensor:
#      x y z
#    x 1.960480 0.049810 0.062480 
#    y 0.049810 1.913600 0.049690 
#    z 0.062480 0.049690 1.951470 
# 
# From -- ./inp_files/46413.got.cif
#   From: 2010.05.17/outbox.cif.g08.bks.cpg/sg2_24_cif.got.tgz:46413.got - 2010.06.03 11:33:40.
