data_PCOD9052196
_publ_section_title
;
Structure prediction by ZEFSAII (Michael W. Deem and Ramdas Pophale) SiO2 
 PCOD9052196
Probable space group: P -1
;
_chemical_formula_sum "Si O2"
_cell_formula_units_Z 16
_cell_length_a 12.056181
_cell_length_b 5.338121
_cell_length_c 11.713217
_cell_angle_alpha 96.761164
_cell_angle_beta 60.516988
_cell_angle_gamma 78.219520
_cell_volume 620.971812
_symmetry_space_group_name_H-M "P -1"
_symmetry_group_IT_number 2
_symmetry_cell_setting 'triclinic'
loop_
_space_group_symop_operation_xyz
x,y,z
-x,-y,-z
loop_
_atom_site_type_symbol
_atom_site_label
_atom_site_fract_x
_atom_site_fract_y
_atom_site_fract_z
Si Si1 0.302991 0.523028 0.602567
Si Si2 0.361723 0.971858 0.493055
Si Si3 0.561520 0.417036 0.088851
Si Si4 0.342632 0.305302 0.335225
Si Si5 0.889319 0.703946 0.713473
Si Si6 0.269819 0.178569 0.970483
Si Si7 0.047702 0.121338 0.643253
Si Si8 0.887884 0.002668 0.146831
O O1 0.359698 0.217133 0.591297
O O2 0.189777 0.703288 0.750383
O O3 0.393458 0.710474 0.537641
O O4 0.048118 0.159093 0.782408
O O5 0.440788 0.454608 0.241772
O O6 0.206258 0.015010 0.535026
O O7 0.424669 0.038701 0.347739
O O8 0.500000 0.500000 0.000000
O O9 0.660802 0.591306 0.066542
O O10 0.634731 0.102280 0.044581
O O11 0.247180 0.250821 0.285495
O O12 0.260757 0.473105 0.491401
O O13 0.845798 0.737792 0.870122
O O14 0.977075 0.400498 0.636289
O O15 0.965916 0.913781 0.652374
O O16 0.213034 0.113535 0.876561
O O17 0.000000 0.000000 0.000000
#
# Coordination Sequence:
#
# PCOD9052196 Si02
#       8
#     2   2   2   2   2   2   2   2
#     4   9  22  43  64 101 128 188 219 279 335 401
#     4   9  21  40  64  94 137 175 227 261 349 397
#     4  12  27  48  73 101 139 176 229 296 343 395
#     4  10  26  42  74  90 146 175 232 287 343 396
#     4  12  25  40  68 107 135 182 229 274 348 417
#     4  12  28  44  70 109 131 180 237 272 350 410
#     4  11  24  42  65 103 141 181 219 279 344 400
#     4  11  24  47  73  97 148 178 227 279 336 414
#
# _framework density 25.766065999999999
#
# number of rings (size 3 to 8) (size 9 to 14) (size 15 to 20)
#    0.750    0.500    2.500    2.625    3.500    4.500 
#    0.000    1.250    0.000    0.000    0.000    0.000 
#    0.000    0.000    0.000    0.000    0.000    0.000 
#
# Total GULP energy -89500.214349 kJ/mol
# GULP energy per Si atom -5593.763397 kJ/mol
# Density = 2.570742 g / cm^3
# Si number density = 25.766066 Si / 1000 Ang^3
#
#
#
# Elastic Constant Matrix: (Units=GPa)
#
#
# Indices 1 2 3 4 5 6 
#
# 1 73.8571 53.7775 16.2389 3.6032 -2.3643 7.4929
# 2 53.7775 233.8901 39.2836 -1.4980 -12.0088 8.1960
# 3 16.2389 39.2836 84.3433 -5.7408 23.2194 5.9329
# 4 3.6032 -1.4980 -5.7408 48.7414 0.5003 -3.5211
# 5 -2.3643 -12.0088 23.2194 0.5003 26.5174 -6.4619
# 6 7.4929 8.1960 5.9329 -3.5211 -6.4619 57.9172
#
#
#
# Elastic Compliance Matrix: (Units=1/GPa)
#
#
# Indices 1 2 3 4 5 6 
#
# 1 0.016732 -0.003389 -0.002057 -0.001701 0.001446 -0.001417
# 2 -0.003389 0.005971 -0.003794 -0.000027 0.005880 0.000636
# 3 -0.002057 -0.003794 0.019999 0.002356 -0.020278 -0.003365
# 4 -0.001701 -0.000027 0.002356 0.021015 -0.002381 0.000994
# 5 0.001446 0.005880 -0.020278 -0.002381 0.060162 0.007626
# 6 -0.001417 0.000636 -0.003365 0.000994 0.007626 0.018615
#
#
# Mechanical properties :
#
#
# Convention : Reuss Voigt Hill
#
# Bulk Modulus (GPa) = 41.28391 67.85448 54.56920
# Shear Modulus (GPa) = 29.57719 45.48789 37.53254
#
# Velocity S-wave (km/s) = 3.39176 4.20625 3.82077
# Velocity P-wave (km/s) = 5.60322 7.06980 6.37880
#
# Compressibility (1/GPa) = 0.02422251
#
# Stress axis : x y z
#
# Youngs Moduli (GPa) = 59.76445 167.46675 50.00256
#
# Poissons Ratio (x) = 0.56750 0.10287
# Poissons Ratio (y) = 0.20252 0.18971
# Poissons Ratio (z) = 0.12295 0.63539
#
# Static dielectric constant tensor:
#      x y z
#    x 2.095390 -0.065400 -0.053710 
#    y -0.065400 2.128730 0.031130 
#    z -0.053710 0.031130 2.052410 
# 
# From -- ./inp_files/525998.got.cif
#   From: 2010.05.17/outbox.cif.g08.bks.cpg/sg2_263_cif.got.tgz:525998.got - 2010.06.03 11:33:40.
