data_PCOD9052118
_publ_section_title
;
Structure prediction by ZEFSAII (Michael W. Deem and Ramdas Pophale) SiO2 
 PCOD9052118
Probable space group: P -1
;
_chemical_formula_sum "Si O2"
_cell_formula_units_Z 10
_cell_length_a 11.939397
_cell_length_b 5.470017
_cell_length_c 9.443237
_cell_angle_alpha 79.488558
_cell_angle_beta 37.726987
_cell_angle_gamma 81.704786
_cell_volume 371.041256
_symmetry_space_group_name_H-M "P -1"
_symmetry_group_IT_number 2
_symmetry_cell_setting 'triclinic'
loop_
_space_group_symop_operation_xyz
x,y,z
-x,-y,-z
loop_
_atom_site_type_symbol
_atom_site_label
_atom_site_fract_x
_atom_site_fract_y
_atom_site_fract_z
Si Si1 0.864286 0.353918 0.549136
Si Si2 0.396231 0.731612 0.933289
Si Si3 0.761074 0.000006 0.488921
Si Si4 0.396229 0.268370 0.774256
Si Si5 0.135707 0.353895 0.777724
O O1 0.881073 0.078706 0.493454
O O2 0.875716 0.500017 0.374281
O O3 0.000000 0.500000 0.500000
O O4 0.679892 0.323287 0.829584
O O5 0.612675 0.792382 0.707586
O O6 0.356318 0.499987 0.893687
O O7 0.315831 0.999986 0.934171
O O8 0.881076 0.921322 0.244385
O O9 0.612674 0.207619 0.567060
O O10 0.320100 0.323274 0.689384
O O11 0.000000 0.500000 0.000000
#
# Coordination Sequence:
#
# PCOD9052118 Si02
#       5
#     2   2   2   2   2
#     4  12  28  51  77 120 169 211 266 333 416 475
#     4  10  25  51  86 119 156 206 277 334 398 480
#     4  10  26  48  90 112 162 208 282 326 402 476
#     4  10  25  51  86 119 156 206 277 334 398 480
#     4  12  28  51  77 120 169 211 266 333 416 475
#
# _framework density 26.951180999999998
#
# number of rings (size 3 to 8) (size 9 to 14) (size 15 to 20)
#    1.200    0.000    0.000    3.600    5.600    4.800 
#    7.200    0.000    0.000    0.000    0.000    0.000 
#    0.000    0.000    0.000    0.000    0.000    0.000 
#
# Total GULP energy -55846.554626 kJ/mol
# GULP energy per Si atom -5584.655463 kJ/mol
# Density = 2.688984 g / cm^3
# Si number density = 26.951181 Si / 1000 Ang^3
#
#
#
# Elastic Constant Matrix: (Units=GPa)
#
#
# Indices 1 2 3 4 5 6 
#
# 1 198.6531 75.6764 76.5886 11.3077 36.7720 26.1486
# 2 75.6764 197.0347 76.6322 26.3604 32.6549 26.4903
# 3 76.5886 76.6322 200.5657 26.2595 36.5260 10.6863
# 4 11.3077 26.3604 26.2595 47.5134 -1.7639 34.1785
# 5 36.7720 32.6549 36.5260 -1.7639 51.3524 -1.3373
# 6 26.1486 26.4903 10.6863 34.1785 -1.3373 46.4036
#
#
#
# Elastic Compliance Matrix: (Units=1/GPa)
#
#
# Indices 1 2 3 4 5 6 
#
# 1 0.007490 -0.001313 -0.002062 0.004659 -0.003072 -0.006516
# 2 -0.001313 0.007020 -0.001397 -0.001561 -0.002632 -0.001872
# 3 -0.002062 -0.001397 0.007451 -0.006544 -0.003030 0.004977
# 4 0.004659 -0.001561 -0.006544 0.052396 0.003102 -0.038730
# 5 -0.003072 -0.002632 -0.003030 0.003102 0.025670 0.002386
# 6 -0.006516 -0.001872 0.004977 -0.038730 0.002386 0.053740
#
#
# Mechanical properties :
#
#
# Convention : Reuss Voigt Hill
#
# Bulk Modulus (GPa) = 80.54093 117.11642 98.82867
# Shear Modulus (GPa) = 29.85972 53.54430 41.70201
#
# Velocity S-wave (km/s) = 3.33215 4.46209 3.93786
# Velocity P-wave (km/s) = 6.68978 8.37236 7.57792
#
# Compressibility (1/GPa) = 0.01241605
#
# Stress axis : x y z
#
# Youngs Moduli (GPa) = 133.50817 142.45662 134.21877
#
# Poissons Ratio (x) = 0.18704 0.27675
# Poissons Ratio (y) = 0.17529 0.18753
# Poissons Ratio (z) = 0.27529 0.19904
#
# Static dielectric constant tensor:
#      x y z
#    x 2.072390 -0.070360 -0.030150 
#    y -0.070360 2.590150 -0.073700 
#    z -0.030150 -0.073700 2.072090 
# 
# From -- ./inp_files/228185.got.cif
#   From: 2010.05.17/outbox.cif.g08.bks.cpg/sg2_115_cif.got.tgz:228185.got - 2010.06.03 11:33:40.
