data_PCOD9052321
_publ_section_title
;
Structure prediction by ZEFSAII (Michael W. Deem and Ramdas Pophale) SiO2 
 PCOD9052321
Probable space group: P -1
;
_chemical_formula_sum "Si O2"
_cell_formula_units_Z 15
_cell_length_a 7.667562
_cell_length_b 15.696431
_cell_length_c 8.214033
_cell_angle_alpha 96.135927
_cell_angle_beta 137.771524
_cell_angle_gamma 63.783175
_cell_volume 554.884725
_symmetry_space_group_name_H-M "P -1"
_symmetry_group_IT_number 2
_symmetry_cell_setting 'triclinic'
loop_
_space_group_symop_operation_xyz
x,y,z
-x,-y,-z
loop_
_atom_site_type_symbol
_atom_site_label
_atom_site_fract_x
_atom_site_fract_y
_atom_site_fract_z
Si Si1 0.806417 0.166680 0.110288
Si Si2 0.368933 0.149266 0.365367
Si Si3 0.553007 0.591322 0.564773
Si Si4 0.000000 0.500000 0.500000
Si Si5 0.246692 0.322670 0.529016
Si Si6 0.110846 0.211349 0.846394
Si Si7 0.395271 0.347872 0.031743
Si Si8 0.948745 0.967866 0.283305
O O1 0.741380 0.247813 0.225122
O O2 0.166403 0.112609 0.303585
O O3 0.561171 0.239226 0.817932
O O4 0.742984 0.078063 0.079536
O O5 0.214438 0.263645 0.349067
O O6 0.735428 0.090794 0.615662
O O7 0.288306 0.159638 0.124358
O O8 0.500000 0.500000 0.500000
O O9 0.735984 0.583072 0.519934
O O10 0.674512 0.599006 0.828461
O O11 0.248747 0.703580 0.357458
O O12 0.941708 0.402126 0.431343
O O13 0.285130 0.425160 0.821340
O O14 0.143693 0.113128 0.765396
O O15 0.233235 0.282347 0.893032
O O16 0.000000 0.000000 0.500000
#
# Coordination Sequence:
#
# PCOD9052321 Si02
#       8
#     2   2   2   1   2   2   2   2
#     4  11  26  46  73 106 154 194 247 316 368 453
#     4  12  24  45  75 103 154 192 250 309 374 450
#     4  12  25  44  75 107 146 198 246 314 375 448
#     4  10  26  44  74 108 150 198 248 312 366 448
#     4  11  24  47  68 112 146 192 253 301 380 442
#     4  12  24  47  73 108 148 197 248 312 371 453
#     4  11  26  49  75 113 152 197 258 307 379 451
#     4  12  27  47  74 112 148 200 254 305 383 452
#
# _framework density 27.032641000000002
#
# number of rings (size 3 to 8) (size 9 to 14) (size 15 to 20)
#    0.000    0.533    4.000    2.800    1.867   11.733 
#    0.000    4.667    0.000    0.000    0.000    0.000 
#    0.000    0.000    0.000    0.000    0.000    0.000 
#
# Total GULP energy -83633.304729 kJ/mol
# GULP energy per Si atom -5575.553649 kJ/mol
# Density = 2.697111 g / cm^3
# Si number density = 27.032641 Si / 1000 Ang^3
#
#
#
# Elastic Constant Matrix: (Units=GPa)
#
#
# Indices 1 2 3 4 5 6 
#
# 1 125.1453 51.6668 33.2450 -6.0262 1.2695 12.3149
# 2 51.6668 244.1134 64.6643 9.4690 -13.0674 6.3650
# 3 33.2450 64.6643 84.7879 -6.1642 -18.9367 1.3865
# 4 -6.0262 9.4690 -6.1642 47.8546 -7.2037 0.0979
# 5 1.2695 -13.0674 -18.9367 -7.2037 43.0808 -1.7574
# 6 12.3149 6.3650 1.3865 0.0979 -1.7574 48.1782
#
#
#
# Elastic Compliance Matrix: (Units=1/GPa)
#
#
# Indices 1 2 3 4 5 6 
#
# 1 0.009642 -0.001281 -0.003164 0.000759 -0.002030 -0.002280
# 2 -0.001281 0.005446 -0.003845 -0.001780 -0.000310 -0.000289
# 3 -0.003164 -0.003845 0.017894 0.003790 0.007469 0.001067
# 4 0.000759 -0.001780 0.003790 0.022567 0.004879 0.000064
# 5 -0.002030 -0.000310 0.007469 0.004879 0.027332 0.001332
# 6 -0.002280 -0.000289 0.001067 0.000064 0.001332 0.021395
#
#
# Mechanical properties :
#
#
# Convention : Reuss Voigt Hill
#
# Bulk Modulus (GPa) = 60.97393 83.68876 72.33134
# Shear Modulus (GPa) = 39.58104 48.12075 43.85089
#
# Velocity S-wave (km/s) = 3.83063 4.22370 4.03196
# Velocity P-wave (km/s) = 6.49381 7.40350 6.96353
#
# Compressibility (1/GPa) = 0.01640045
#
# Stress axis : x y z
#
# Youngs Moduli (GPa) = 103.71608 183.61481 55.88553
#
# Poissons Ratio (x) = 0.23524 0.17684
# Poissons Ratio (y) = 0.13287 0.21489
# Poissons Ratio (z) = 0.32818 0.70603
#
# Static dielectric constant tensor:
#      x y z
#    x 2.794600 -0.217260 0.020030 
#    y -0.217260 2.277640 0.102100 
#    z 0.020030 0.102100 2.172680 
# 
# From -- ./inp_files/208071.got.cif
#   From: 2010.05.17/outbox.cif.g08.bks.cpg/sg2_105_cif.got.tgz:208071.got - 2010.06.03 11:33:40.
