data_PCOD9052720
_publ_section_title
;
Structure prediction by ZEFSAII (Michael W. Deem and Ramdas Pophale) SiO2 
 PCOD9052720
Probable space group: P -1
;
_chemical_formula_sum "Si O2"
_cell_formula_units_Z 13
_cell_length_a 5.449438
_cell_length_b 9.222711
_cell_length_c 12.371835
_cell_angle_alpha 113.052370
_cell_angle_beta 62.466094
_cell_angle_gamma 93.139788
_cell_volume 501.228116
_symmetry_space_group_name_H-M "P -1"
_symmetry_group_IT_number 2
_symmetry_cell_setting 'triclinic'
loop_
_space_group_symop_operation_xyz
x,y,z
-x,-y,-z
loop_
_atom_site_type_symbol
_atom_site_label
_atom_site_fract_x
_atom_site_fract_y
_atom_site_fract_z
Si Si1 0.953783 0.815015 0.704327
Si Si2 0.498476 0.188300 0.045972
Si Si3 0.000000 0.500000 0.500000
Si Si4 0.761707 0.461223 0.120759
Si Si5 0.483443 0.957889 0.664044
Si Si6 0.623797 0.264606 0.799700
Si Si7 0.791722 0.692066 0.379475
O O1 0.784831 0.744992 0.814333
O O2 0.116112 0.662461 0.565988
O O3 0.708878 0.899758 0.697722
O O4 0.168001 0.924950 0.737548
O O5 0.739456 0.274819 0.077278
O O6 0.522049 0.228795 0.928371
O O7 0.500000 0.000000 0.000000
O O8 0.880701 0.597069 0.443796
O O9 0.477897 0.550595 0.149407
O O10 0.742501 0.553998 0.264734
O O11 0.000000 0.500000 0.000000
O O12 0.586285 0.848026 0.508959
O O13 0.491507 0.145920 0.712586
O O14 0.950994 0.235551 0.705414
#
# Coordination Sequence:
#
# PCOD9052720 Si02
#       7
#     2   2   1   2   2   2   2
#     4  11  27  48  76 121 157 220 274 336 413 481
#     4  12  27  50  79 117 165 216 278 342 408 495
#     4  10  26  48  78 108 164 208 268 342 404 486
#     4  12  29  48  83 117 164 220 275 343 416 499
#     4  11  28  48  82 115 165 215 275 341 408 493
#     4  12  27  51  78 119 164 218 275 343 417 496
#     4  11  27  51  79 119 161 215 282 335 425 488
#
# _framework density 25.936292999999999
#
# number of rings (size 3 to 8) (size 9 to 14) (size 15 to 20)
#    0.000    0.615    3.077    1.846   15.077    2.462 
#    0.000    0.000    0.000    0.000    0.000    0.000 
#    0.000    0.000    0.000    0.000    0.000    0.000 
#
# Total GULP energy -72488.111436 kJ/mol
# GULP energy per Si atom -5576.008572 kJ/mol
# Density = 2.587726 g / cm^3
# Si number density = 25.936293 Si / 1000 Ang^3
#
#
#
# Elastic Constant Matrix: (Units=GPa)
#
#
# Indices 1 2 3 4 5 6 
#
# 1 87.5539 46.7963 33.5014 -6.4080 5.6490 26.1340
# 2 46.7963 151.3635 15.5546 22.8332 21.5153 22.5203
# 3 33.5014 15.5546 86.4727 14.5252 30.0764 3.9523
# 4 -6.4080 22.8332 14.5252 40.1818 9.3845 19.9255
# 5 5.6490 21.5153 30.0764 9.3845 47.6738 -0.0011
# 6 26.1340 22.5203 3.9523 19.9255 -0.0011 47.8248
#
#
#
# Elastic Compliance Matrix: (Units=1/GPa)
#
#
# Indices 1 2 3 4 5 6 
#
# 1 0.029369 -0.008840 -0.014626 0.024102 0.004992 -0.020720
# 2 -0.008840 0.010463 0.004642 -0.009704 -0.004693 0.003563
# 3 -0.014626 0.004642 0.022544 -0.015612 -0.011511 0.010448
# 4 0.024102 -0.009704 -0.015612 0.054665 0.000612 -0.030087
# 5 0.004992 -0.004693 -0.011511 0.000612 0.029644 0.000179
# 6 -0.020720 0.003563 0.010448 -0.030087 0.000179 0.042226
#
#
# Mechanical properties :
#
#
# Convention : Reuss Voigt Hill
#
# Bulk Modulus (GPa) = 40.43675 57.45496 48.94585
# Shear Modulus (GPa) = 21.29446 42.43860 31.86653
#
# Velocity S-wave (km/s) = 2.86847 4.04946 3.50901
# Velocity P-wave (km/s) = 5.15708 6.63812 5.94391
#
# Compressibility (1/GPa) = 0.02472998
#
# Stress axis : x y z
#
# Youngs Moduli (GPa) = 34.04931 95.57171 44.35672
#
# Poissons Ratio (x) = 0.84481 0.64876
# Poissons Ratio (y) = 0.30098 -0.20590
# Poissons Ratio (z) = 0.49800 -0.44364
#
# Static dielectric constant tensor:
#      x y z
#    x 2.089340 -0.013740 0.012490 
#    y -0.013740 2.009830 0.014470 
#    z 0.012490 0.014470 2.070820 
# 
# From -- ./inp_files/60207.got.cif
#   From: 2010.05.17/outbox.cif.g08.bks.cpg/sg2_31_cif.got.tgz:60207.got - 2010.06.03 11:33:40.
