data_PCOD9052348
_publ_section_title
;
Structure prediction by ZEFSAII (Michael W. Deem and Ramdas Pophale) SiO2 
 PCOD9052348
Probable space group: P -1
;
_chemical_formula_sum "Si O2"
_cell_formula_units_Z 12
_cell_length_a 12.298265
_cell_length_b 14.611398
_cell_length_c 13.023343
_cell_angle_alpha 19.051495
_cell_angle_beta 35.124637
_cell_angle_gamma 42.338527
_cell_volume 432.280988
_symmetry_space_group_name_H-M "P -1"
_symmetry_group_IT_number 2
_symmetry_cell_setting 'triclinic'
loop_
_space_group_symop_operation_xyz
x,y,z
-x,-y,-z
loop_
_atom_site_type_symbol
_atom_site_label
_atom_site_fract_x
_atom_site_fract_y
_atom_site_fract_z
Si Si1 0.162212 0.830435 0.915735
Si Si2 0.486865 0.885557 0.309042
Si Si3 0.222912 0.329562 0.062297
Si Si4 0.448827 0.213178 0.416908
Si Si5 0.296861 0.349529 0.767932
Si Si6 0.980123 0.301701 0.488442
O O1 0.263444 0.968991 0.794408
O O2 0.990299 0.993444 0.851513
O O3 0.358097 0.921089 0.602173
O O4 0.091671 0.509232 0.272195
O O5 0.557025 0.729721 0.519100
O O6 0.643504 0.898969 0.083894
O O7 0.402666 0.163220 0.109099
O O8 0.301795 0.666546 0.645137
O O9 0.089738 0.284596 0.312614
O O10 0.159320 0.260239 0.066752
O O11 0.500000 0.500000 0.000000
O O12 0.500000 0.500000 0.500000
O O13 0.197741 0.551243 0.558319
#
# Coordination Sequence:
#
# PCOD9052348 Si02
#       6
#     2   2   2   2   2   2
#     4  11  23  37  66 101 126 166 215 274 314 378
#     4  11  23  41  65  98 130 170 214 266 325 385
#     4  11  21  41  66  97 126 171 221 262 317 385
#     4  11  21  40  70  99 131 166 219 264 329 384
#     4  10  26  45  66  93 137 177 213 266 333 385
#     4  12  22  42  65 100 132 166 221 270 313 383
#
# _framework density 27.759722
#
# number of rings (size 3 to 8) (size 9 to 14) (size 15 to 20)
#    0.000    1.000    5.000    1.000    2.333    5.333 
#    0.000    7.500    0.000    0.000    0.000    0.000 
#    0.000    0.000    0.000    0.000    0.000    0.000 
#
# Total GULP energy -66974.485790 kJ/mol
# GULP energy per Si atom -5581.207149 kJ/mol
# Density = 2.769654 g / cm^3
# Si number density = 27.759722 Si / 1000 Ang^3
#
#
#
# Elastic Constant Matrix: (Units=GPa)
#
#
# Indices 1 2 3 4 5 6 
#
# 1 91.0995 34.9290 20.4224 -18.2908 0.9636 -5.2074
# 2 34.9290 150.2449 51.2487 -18.5568 -7.6535 0.8294
# 3 20.4224 51.2487 69.6157 -32.1197 -4.9730 -0.6283
# 4 -18.2908 -18.5568 -32.1197 43.4699 4.3546 0.1913
# 5 0.9636 -7.6535 -4.9730 4.3546 27.0059 -2.0553
# 6 -5.2074 0.8294 -0.6283 0.1913 -2.0553 62.3280
#
#
#
# Elastic Compliance Matrix: (Units=1/GPa)
#
#
# Indices 1 2 3 4 5 6 
#
# 1 0.012944 -0.002574 0.000098 0.004599 -0.001836 0.001042
# 2 -0.002574 0.009530 -0.007343 -0.002623 0.001837 -0.000347
# 3 0.000098 -0.007343 0.027801 0.017422 0.000252 0.000341
# 4 0.004599 -0.002623 0.017422 0.037057 -0.003647 0.000361
# 5 -0.001836 0.001837 0.000252 -0.003647 0.038333 0.001100
# 6 0.001042 -0.000347 0.000341 0.000361 0.001100 0.016174
#
#
# Mechanical properties :
#
#
# Convention : Reuss Voigt Hill
#
# Bulk Modulus (GPa) = 32.63967 58.24003 45.43985
# Shear Modulus (GPa) = 29.12226 40.18477 34.65351
#
# Velocity S-wave (km/s) = 3.24247 3.80885 3.53702
# Velocity P-wave (km/s) = 5.07953 6.35364 5.75197
#
# Compressibility (1/GPa) = 0.03063756
#
# Stress axis : x y z
#
# Youngs Moduli (GPa) = 77.25357 104.92740 35.97048
#
# Poissons Ratio (x) = 0.27007 -0.00352
# Poissons Ratio (y) = 0.19884 0.26413
# Poissons Ratio (z) = -0.00756 0.77047
#
# Static dielectric constant tensor:
#      x y z
#    x 2.297200 0.071470 -0.040920 
#    y 0.071470 2.171440 0.029340 
#    z -0.040920 0.029340 2.189810 
# 
# From -- ./inp_files/64480.got.cif
#   From: 2010.05.17/outbox.cif.g08.bks.cpg/sg2_33_cif.got.tgz:64480.got - 2010.06.03 11:33:40.
