data_PCOD9052741
_publ_section_title
;
Structure prediction by ZEFSAII (Michael W. Deem and Ramdas Pophale) SiO2 
 PCOD9052741
Probable space group: P -1
;
_chemical_formula_sum "Si O2"
_cell_formula_units_Z 16
_cell_length_a 10.276254
_cell_length_b 8.779321
_cell_length_c 15.262964
_cell_angle_alpha 131.028284
_cell_angle_beta 38.201371
_cell_angle_gamma 116.965038
_cell_volume 636.643239
_symmetry_space_group_name_H-M "P -1"
_symmetry_group_IT_number 2
_symmetry_cell_setting 'triclinic'
loop_
_space_group_symop_operation_xyz
x,y,z
-x,-y,-z
loop_
_atom_site_type_symbol
_atom_site_label
_atom_site_fract_x
_atom_site_fract_y
_atom_site_fract_z
Si Si1 0.583797 0.678478 0.182022
Si Si2 0.656670 0.342086 0.305522
Si Si3 0.676452 0.929404 0.573732
Si Si4 0.158369 0.145239 0.730634
Si Si5 0.911876 0.802683 0.925356
Si Si6 0.654399 0.272361 0.078944
Si Si7 0.781326 0.747427 0.631385
Si Si8 0.075466 0.730122 0.632869
O O1 0.720893 0.741483 0.216816
O O2 0.564012 0.445792 0.123313
O O3 0.371064 0.832040 0.334730
O O4 0.724160 0.714937 0.038178
O O5 0.500000 0.500000 0.500000
O O6 0.555285 0.136744 0.304798
O O7 0.882246 0.358478 0.231096
O O8 0.677183 0.360078 0.198250
O O9 0.771142 0.824142 0.394734
O O10 0.801294 0.858829 0.570068
O O11 0.225500 0.905472 0.628233
O O12 0.899966 0.194396 0.893667
O O13 0.897660 0.801324 0.828096
O O14 0.000000 0.000000 0.000000
O O15 0.446003 0.162625 0.170338
O O16 0.961098 0.764420 0.613361
O O17 0.805826 0.500146 0.510595
#
# Coordination Sequence:
#
# PCOD9052741 Si02
#       8
#     2   2   2   2   2   2   2   2
#     4  12  24  39  66 101 144 168 217 276 338 398
#     4  11  21  37  62  93 135 173 216 267 329 400
#     4  11  24  40  64  95 132 176 220 267 331 394
#     4  12  24  41  68 104 136 172 217 283 338 386
#     4  12  21  40  66 104 129 172 219 278 339 389
#     4  11  24  42  64 101 138 174 221 271 330 398
#     4  10  26  49  69  94 130 184 231 266 324 404
#     4  11  24  46  74  92 133 177 228 276 329 393
#
# _framework density 25.131816000000001
#
# number of rings (size 3 to 8) (size 9 to 14) (size 15 to 20)
#    0.000    0.750    3.750    3.750    5.250    1.000 
#    0.000    0.625    0.000    0.000    0.000    0.000 
#    0.000    0.000    0.000    0.000    0.000    0.000 
#
# Total GULP energy -89359.422954 kJ/mol
# GULP energy per Si atom -5584.963935 kJ/mol
# Density = 2.507461 g / cm^3
# Si number density = 25.131816 Si / 1000 Ang^3
#
#
#
# Elastic Constant Matrix: (Units=GPa)
#
#
# Indices 1 2 3 4 5 6 
#
# 1 71.7492 8.3338 20.8327 -12.0436 -6.5625 -34.0048
# 2 8.3338 105.6558 41.9865 -19.2655 4.5407 -31.6655
# 3 20.8327 41.9865 133.2678 -32.8149 -3.8380 -22.9193
# 4 -12.0436 -19.2655 -32.8149 52.2819 -10.0539 3.9634
# 5 -6.5625 4.5407 -3.8380 -10.0539 32.1854 -1.6765
# 6 -34.0048 -31.6655 -22.9193 3.9634 -1.6765 43.1187
#
#
#
# Elastic Compliance Matrix: (Units=1/GPa)
#
#
# Indices 1 2 3 4 5 6 
#
# 1 0.028205 0.006962 0.000578 0.009116 0.009101 0.027180
# 2 0.006962 0.015086 -0.001952 0.005066 0.001429 0.015122
# 3 0.000578 -0.001952 0.010419 0.006380 0.003844 0.004124
# 4 0.009116 0.005066 0.006380 0.028370 0.011399 0.012136
# 5 0.009101 0.001429 0.003844 0.011399 0.037299 0.010672
# 6 0.027180 0.015122 0.004124 0.012136 0.010672 0.057223
#
#
# Mechanical properties :
#
#
# Convention : Reuss Voigt Hill
#
# Bulk Modulus (GPa) = 15.41136 50.33097 32.87117
# Shear Modulus (GPa) = 26.73034 41.48519 34.10777
#
# Velocity S-wave (km/s) = 3.26484 4.06729 3.68795
# Velocity P-wave (km/s) = 4.51195 6.49057 5.58951
#
# Compressibility (1/GPa) = 0.06488720
#
# Stress axis : x y z
#
# Youngs Moduli (GPa) = 35.45489 66.28843 95.97726
#
# Poissons Ratio (x) = -0.46152 -0.05552
# Poissons Ratio (y) = -0.24685 0.18734
# Poissons Ratio (z) = -0.02051 0.12939
#
# Static dielectric constant tensor:
#      x y z
#    x 2.083270 -0.010040 0.058170 
#    y -0.010040 2.109870 0.071960 
#    z 0.058170 0.071960 2.079230 
# 
# From -- ./inp_files/516059.got.cif
#   From: 2010.05.17/outbox.cif.g08.bks.cpg/sg2_259_cif.got.tgz:516059.got - 2010.06.03 11:33:40.
