data_PCOD9052067
_publ_section_title
;
Structure prediction by ZEFSAII (Michael W. Deem and Ramdas Pophale) SiO2 
 PCOD9052067
Probable space group: P -1
;
_chemical_formula_sum "Si O2"
_cell_formula_units_Z 14
_cell_length_a 5.345123
_cell_length_b 15.111719
_cell_length_c 28.159722
_cell_angle_alpha 19.095328
_cell_angle_beta 47.817926
_cell_angle_gamma 51.983047
_cell_volume 549.759874
_symmetry_space_group_name_H-M "P -1"
_symmetry_group_IT_number 2
_symmetry_cell_setting 'triclinic'
loop_
_space_group_symop_operation_xyz
x,y,z
-x,-y,-z
loop_
_atom_site_type_symbol
_atom_site_label
_atom_site_fract_x
_atom_site_fract_y
_atom_site_fract_z
Si Si1 0.283694 0.088339 0.857377
Si Si2 0.723968 0.321313 0.596731
Si Si3 0.152088 0.902750 0.394192
Si Si4 0.325485 0.737936 0.680448
Si Si5 0.720184 0.291694 0.106354
Si Si6 0.399618 0.439892 0.913735
Si Si7 0.677288 0.368455 0.755835
O O1 0.475951 0.172017 0.741668
O O2 0.492040 0.240867 0.797132
O O3 0.900006 0.169264 0.858662
O O4 0.317554 0.769067 0.017934
O O5 0.500000 0.500000 0.500000
O O6 0.000000 0.500000 0.500000
O O7 0.072242 0.880384 0.359696
O O8 0.546565 0.993118 0.291337
O O9 0.026847 0.153081 0.313263
O O10 0.960983 0.624548 0.579064
O O11 0.475771 0.655480 0.753462
O O12 0.394121 0.495550 0.759650
O O13 0.500000 0.000000 0.500000
O O14 0.709314 0.423932 0.092993
O O15 0.500000 0.500000 0.000000
O O16 0.038594 0.259491 0.046980
#
# Coordination Sequence:
#
# PCOD9052067 Si02
#       7
#     2   2   2   2   2   2   2
#     4  12  26  46  73 110 155 195 252 305 380 451
#     4  12  24  42  71 109 153 191 240 307 377 445
#     4  11  23  44  76 108 147 192 249 310 377 436
#     4  10  25  50  75 106 145 199 260 308 364 450
#     4  11  24  45  72 110 154 186 247 313 382 445
#     4  11  27  44  74 112 146 202 246 311 387 444
#     4  11  27  48  73 110 150 204 250 304 367 449
#
# _framework density 25.465665999999999
#
# number of rings (size 3 to 8) (size 9 to 14) (size 15 to 20)
#    0.000    0.857    4.286    0.857    8.000    4.571 
#    0.000    5.000    0.000    0.000    0.000    0.000 
#    0.000    0.000    0.000    0.000    0.000    0.000 
#
# Total GULP energy -78145.892527 kJ/mol
# GULP energy per Si atom -5581.849466 kJ/mol
# Density = 2.540770 g / cm^3
# Si number density = 25.465666 Si / 1000 Ang^3
#
#
#
# Elastic Constant Matrix: (Units=GPa)
#
#
# Indices 1 2 3 4 5 6 
#
# 1 86.8807 25.6946 62.2675 3.2161 25.8508 -11.1226
# 2 25.6946 152.9292 65.5193 -1.2443 14.2955 -0.7231
# 3 62.2675 65.5193 119.0066 0.6258 27.7716 -5.6540
# 4 3.2161 -1.2443 0.6258 36.6410 2.8505 8.1093
# 5 25.8508 14.2955 27.7716 2.8505 32.4614 6.5824
# 6 -11.1226 -0.7231 -5.6540 8.1093 6.5824 46.5760
#
#
#
# Elastic Compliance Matrix: (Units=1/GPa)
#
#
# Indices 1 2 3 4 5 6 
#
# 1 0.021992 0.001366 -0.009354 -0.002206 -0.011155 0.006098
# 2 0.001366 0.008665 -0.005444 0.000335 -0.000230 -0.000226
# 3 -0.009354 -0.005444 0.017554 0.000650 -0.005320 0.000451
# 4 -0.002206 0.000335 0.000650 0.028707 -0.000376 -0.005388
# 5 -0.011155 -0.000230 -0.005320 -0.000376 0.046361 -0.009800
# 6 0.006098 -0.000226 0.000451 -0.005388 -0.009800 0.025301
#
#
# Mechanical properties :
#
#
# Convention : Reuss Voigt Hill
#
# Bulk Modulus (GPa) = 46.84719 73.97547 60.41133
# Shear Modulus (GPa) = 27.38819 36.82470 32.10644
#
# Velocity S-wave (km/s) = 3.28303 3.80683 3.55459
# Velocity P-wave (km/s) = 5.72776 6.95951 6.37346
#
# Compressibility (1/GPa) = 0.02134600
#
# Stress axis : x y z
#
# Youngs Moduli (GPa) = 45.47188 115.40604 56.96647
#
# Poissons Ratio (x) = -0.15769 0.53289
# Poissons Ratio (y) = -0.06213 0.31014
# Poissons Ratio (z) = 0.42537 0.62831
#
# Static dielectric constant tensor:
#      x y z
#    x 2.555550 0.050230 -0.210220 
#    y 0.050230 2.357190 0.056670 
#    z -0.210220 0.056670 2.137920 
# 
# From -- ./inp_files/615702.got.cif
#   From: 2010.05.17/outbox.cif.g08.bks.cpg/sg2_308_cif.got.tgz:615702.got - 2010.06.03 11:33:40.
