data_PCOD9052605
_publ_section_title
;
Structure prediction by ZEFSAII (Michael W. Deem and Ramdas Pophale) SiO2 
 PCOD9052605
Probable space group: P -1
;
_chemical_formula_sum "Si O2"
_cell_formula_units_Z 14
_cell_length_a 20.530324
_cell_length_b 20.893610
_cell_length_c 5.515722
_cell_angle_alpha 84.160473
_cell_angle_beta 96.155880
_cell_angle_gamma 166.756777
_cell_volume 538.850353
_symmetry_space_group_name_H-M "P -1"
_symmetry_group_IT_number 2
_symmetry_cell_setting 'triclinic'
loop_
_space_group_symop_operation_xyz
x,y,z
-x,-y,-z
loop_
_atom_site_type_symbol
_atom_site_label
_atom_site_fract_x
_atom_site_fract_y
_atom_site_fract_z
Si Si1 0.017196 0.812652 0.193687
Si Si2 0.490613 0.707438 0.132592
Si Si3 0.880245 0.484226 0.485204
Si Si4 0.763309 0.249083 0.827001
Si Si5 0.895939 0.002795 0.477311
Si Si6 0.244411 0.252776 0.180613
Si Si7 0.698720 0.016853 0.424739
O O1 0.825230 0.609273 0.965642
O O2 0.327495 0.127305 0.100326
O O3 0.936097 0.796961 0.325892
O O4 0.074360 0.808892 0.401809
O O5 0.645081 0.807147 0.343457
O O6 0.560629 0.844749 0.215503
O O7 0.753258 0.294261 0.596827
O O8 0.583720 0.238422 0.429722
O O9 0.096043 0.678434 0.273426
O O10 0.101530 0.731445 0.660987
O O11 0.000000 0.500000 0.000000
O O12 0.500000 0.000000 0.000000
O O13 0.748839 0.797623 0.599003
O O14 0.127571 0.203613 0.291781
O O15 0.500000 0.500000 0.000000
O O16 0.000000 0.000000 0.000000
#
# Coordination Sequence:
#
# PCOD9052605 Si02
#       7
#     2   2   2   2   2   2   2
#     4  11  25  45  72 105 142 188 238 292 357 425
#     4  11  25  45  72 105 142 188 238 292 357 425
#     4  11  24  44  70 104 146 185 234 296 352 419
#     4  11  24  43  70 104 141 187 237 289 354 422
#     4  10  26  47  74 107 146 186 238 296 354 428
#     4  11  26  47  73 106 143 187 236 293 359 426
#     4  11  24  44  70 104 146 187 236 298 354 421
#
# _framework density 25.981238000000001
#
# number of rings (size 3 to 8) (size 9 to 14) (size 15 to 20)
#    0.000    1.143    0.000    4.286    0.000   19.429 
#    0.000    2.143    0.000    0.000    0.000    0.000 
#    0.000    0.000    0.000    0.000    0.000    0.000 
#
# Total GULP energy -78291.238011 kJ/mol
# GULP energy per Si atom -5592.231287 kJ/mol
# Density = 2.592210 g / cm^3
# Si number density = 25.981238 Si / 1000 Ang^3
#
#
#
# Elastic Constant Matrix: (Units=GPa)
#
#
# Indices 1 2 3 4 5 6 
#
# 1 81.0047 43.5465 35.3338 0.9900 -33.3209 0.5980
# 2 43.5465 182.7764 33.3604 -17.7606 -24.4637 9.8358
# 3 35.3338 33.3604 103.4077 -12.5968 -28.9595 7.5071
# 4 0.9900 -17.7606 -12.5968 61.1297 1.7965 -3.1142
# 5 -33.3209 -24.4637 -28.9595 1.7965 42.1608 -3.7091
# 6 0.5980 9.8358 7.5071 -3.1142 -3.7091 28.8535
#
#
#
# Elastic Compliance Matrix: (Units=1/GPa)
#
#
# Indices 1 2 3 4 5 6 
#
# 1 0.020482 -0.002985 -0.002902 -0.002031 0.012793 0.002773
# 2 -0.002985 0.006668 -0.000533 0.001759 0.000914 -0.001765
# 3 -0.002902 -0.000533 0.012947 0.002276 0.006008 -0.002109
# 4 -0.002031 0.001759 0.002276 0.017402 0.000304 0.000768
# 5 0.012793 0.000914 0.006008 0.000304 0.038726 0.002871
# 6 0.002773 -0.001765 -0.002109 0.000768 0.002871 0.036203
#
#
# Mechanical properties :
#
#
# Convention : Reuss Voigt Hill
#
# Bulk Modulus (GPa) = 36.68674 65.74112 51.21393
# Shear Modulus (GPa) = 32.39369 43.42534 37.90952
#
# Velocity S-wave (km/s) = 3.53485 4.09273 3.82398
# Velocity P-wave (km/s) = 5.55080 6.90595 6.26512
#
# Compressibility (1/GPa) = 0.02725780
#
# Stress axis : x y z
#
# Youngs Moduli (GPa) = 48.82379 149.97614 77.23943
#
# Poissons Ratio (x) = 0.44761 0.22413
# Poissons Ratio (y) = 0.14572 0.04116
# Poissons Ratio (z) = 0.14168 0.07993
#
# Static dielectric constant tensor:
#      x y z
#    x 2.373710 -0.043140 0.069400 
#    y -0.043140 1.953100 -0.006770 
#    z 0.069400 -0.006770 2.001500 
# 
# From -- ./inp_files/125172.got.cif
#   From: 2010.05.17/outbox.cif.g08.bks.cpg/sg2_63_cif.got.tgz:125172.got - 2010.06.03 11:33:40.
