data_PCOD9052246
_publ_section_title
;
Structure prediction by ZEFSAII (Michael W. Deem and Ramdas Pophale) SiO2 
 PCOD9052246
Probable space group: P -1
;
_chemical_formula_sum "Si O2"
_cell_formula_units_Z 16
_cell_length_a 11.660363
_cell_length_b 11.163599
_cell_length_c 11.904078
_cell_angle_alpha 47.382311
_cell_angle_beta 34.689930
_cell_angle_gamma 55.986080
_cell_volume 648.978701
_symmetry_space_group_name_H-M "P -1"
_symmetry_group_IT_number 2
_symmetry_cell_setting 'triclinic'
loop_
_space_group_symop_operation_xyz
x,y,z
-x,-y,-z
loop_
_atom_site_type_symbol
_atom_site_label
_atom_site_fract_x
_atom_site_fract_y
_atom_site_fract_z
Si Si1 0.048982 0.679965 0.943429
Si Si2 0.330941 0.320565 0.459447
Si Si3 0.885289 0.984773 0.220414
Si Si4 0.564077 0.335128 0.494177
Si Si5 0.570049 0.634276 0.999911
Si Si6 0.223178 0.838615 0.201988
Si Si7 0.997204 0.542904 0.665725
Si Si8 0.346510 0.181143 0.948882
O O1 0.211084 0.640444 0.743998
O O2 0.153284 0.831440 0.827471
O O3 0.018401 0.537703 0.148029
O O4 0.844470 0.741801 0.012547
O O5 0.300508 0.138995 0.555263
O O6 0.417352 0.306682 0.524938
O O7 0.475384 0.454588 0.202470
O O8 0.106044 0.402789 0.593123
O O9 0.040564 0.907701 0.232929
O O10 0.000000 0.000000 0.000000
O O11 0.500000 0.500000 0.500000
O O12 0.528952 0.199616 0.702039
O O13 0.390774 0.759308 0.033837
O O14 0.625695 0.714976 0.025841
O O15 0.772533 0.610814 0.779953
O O16 0.146400 0.693628 0.435106
O O17 0.302084 0.990036 0.114459
#
# Coordination Sequence:
#
# PCOD9052246 Si02
#       8
#     2   2   2   2   2   2   2   2
#     4  11  24  41  71 107 133 186 228 279 346 394
#     4  11  22  41  67  98 133 181 220 281 340 387
#     4  11  23  49  74  95 137 177 232 292 332 406
#     4  12  23  40  69 106 140 173 229 284 338 401
#     4  11  24  41  67  99 141 181 225 276 344 410
#     4  10  26  44  67  97 134 186 222 281 347 400
#     4  11  22  42  64 100 140 175 229 272 344 408
#     4  11  23  43  67 100 141 182 229 284 333 401
#
# _framework density 24.654122999999998
#
# number of rings (size 3 to 8) (size 9 to 14) (size 15 to 20)
#    0.000    1.000    5.000    1.125    1.750    6.000 
#    0.000    3.750    0.000    0.000    0.000    0.000 
#    0.000    0.000    0.000    0.000    0.000    0.000 
#
# Total GULP energy -89604.800287 kJ/mol
# GULP energy per Si atom -5600.300018 kJ/mol
# Density = 2.459801 g / cm^3
# Si number density = 24.654123 Si / 1000 Ang^3
#
#
#
# Elastic Constant Matrix: (Units=GPa)
#
#
# Indices 1 2 3 4 5 6 
#
# 1 76.0586 12.8377 10.8368 -24.4913 -11.9147 6.1210
# 2 12.8377 97.2167 55.9117 -14.1492 0.6763 0.5099
# 3 10.8368 55.9117 133.7800 -12.4924 -0.6744 -0.2879
# 4 -24.4913 -14.1492 -12.4924 61.0373 0.6401 -11.4892
# 5 -11.9147 0.6763 -0.6744 0.6401 29.8027 -10.4151
# 6 6.1210 0.5099 -0.2879 -11.4892 -10.4151 35.9472
#
#
#
# Elastic Compliance Matrix: (Units=1/GPa)
#
#
# Indices 1 2 3 4 5 6 
#
# 1 0.016428 -0.001169 -0.000203 0.006447 0.006897 0.001277
# 2 -0.001169 0.013883 -0.005556 0.001666 -0.000860 0.000241
# 3 -0.000203 -0.005556 0.009887 0.000756 0.000450 0.000564
# 4 0.006447 0.001666 0.000756 0.020748 0.004494 0.006818
# 5 0.006897 -0.000860 0.000450 0.004494 0.040436 0.011993
# 6 0.001277 0.000241 0.000564 0.006818 0.011993 0.033256
#
#
# Mechanical properties :
#
#
# Convention : Reuss Voigt Hill
#
# Bulk Modulus (GPa) = 37.96034 51.80308 44.88171
# Shear Modulus (GPa) = 31.79164 40.52205 36.15685
#
# Velocity S-wave (km/s) = 3.59487 4.05856 3.83373
# Velocity P-wave (km/s) = 5.71501 6.55897 6.15148
#
# Compressibility (1/GPa) = 0.02634329
#
# Stress axis : x y z
#
# Youngs Moduli (GPa) = 60.87293 72.02935 101.13856
#
# Poissons Ratio (x) = 0.08422 0.02048
# Poissons Ratio (y) = 0.07117 0.56191
# Poissons Ratio (z) = 0.01233 0.40018
#
# Static dielectric constant tensor:
#      x y z
#    x 2.006310 -0.015990 -0.026040 
#    y -0.015990 1.980620 0.000210 
#    z -0.026040 0.000210 1.979310 
# 
# From -- ./inp_files/531623.got.cif
#   From: 2010.05.17/outbox.cif.g08.bks.cpg/sg2_266_cif.got.tgz:531623.got - 2010.06.03 11:33:40.
