data_PCOD9052155
_publ_section_title
;
Structure prediction by ZEFSAII (Michael W. Deem and Ramdas Pophale) SiO2 
 PCOD9052155
Probable space group: P -1
;
_chemical_formula_sum "Si O2"
_cell_formula_units_Z 16
_cell_length_a 7.734403
_cell_length_b 14.800022
_cell_length_c 11.531402
_cell_angle_alpha 30.181336
_cell_angle_beta 111.343309
_cell_angle_gamma 105.345200
_cell_volume 614.566398
_symmetry_space_group_name_H-M "P -1"
_symmetry_group_IT_number 2
_symmetry_cell_setting 'triclinic'
loop_
_space_group_symop_operation_xyz
x,y,z
-x,-y,-z
loop_
_atom_site_type_symbol
_atom_site_label
_atom_site_fract_x
_atom_site_fract_y
_atom_site_fract_z
Si Si1 0.129172 0.749204 0.770048
Si Si2 0.156213 0.803431 0.072526
Si Si3 0.718500 0.830681 0.971625
Si Si4 0.853177 0.804502 0.429846
Si Si5 0.155440 0.416235 0.540551
Si Si6 0.423616 0.797500 0.362619
Si Si7 0.238232 0.139390 0.317018
Si Si8 0.569196 0.575981 0.814869
O O1 0.002966 0.729585 0.645459
O O2 0.977913 0.785133 0.795821
O O3 0.237140 0.925540 0.575840
O O4 0.271187 0.574826 0.021674
O O5 0.194471 0.593017 0.280200
O O6 0.297685 0.814092 0.201426
O O7 0.941466 0.842418 0.017415
O O8 0.175873 0.978180 0.805255
O O9 0.690929 0.812946 0.846352
O O10 0.615516 0.016150 0.785770
O O11 0.686240 0.680504 0.227728
O O12 0.916010 0.731732 0.398811
O O13 0.642312 0.752710 0.437816
O O14 0.000000 0.500000 0.500000
O O15 0.397292 0.632310 0.625359
O O16 0.348494 0.240386 0.327604
O O17 0.500000 0.500000 0.000000
#
# Coordination Sequence:
#
# PCOD9052155 Si02
#       8
#     2   2   2   2   2   2   2   2
#     4  11  26  49  78 105 144 204 242 300 361 435
#     4  11  25  47  74 104 141 196 237 292 371 425
#     4  11  24  45  75 105 146 191 237 301 357 438
#     4  12  25  50  73 105 150 186 245 302 358 430
#     4  10  26  41  72 110 134 189 240 293 358 431
#     4  12  27  47  72 108 151 189 240 304 362 431
#     4  11  25  50  75 108 144 196 251 293 365 435
#     4  12  29  46  74 112 146 194 240 306 365 430
#
# _framework density 26.034614999999999
#
# number of rings (size 3 to 8) (size 9 to 14) (size 15 to 20)
#    0.000    0.750    3.750    1.875    7.000    2.500 
#    0.000    0.000    0.000    0.000    0.000    0.000 
#    0.000    0.000    0.000    0.000    0.000    0.000 
#
# Total GULP energy -89562.976788 kJ/mol
# GULP energy per Si atom -5597.686049 kJ/mol
# Density = 2.597536 g / cm^3
# Si number density = 26.034615 Si / 1000 Ang^3
#
#
#
# Elastic Constant Matrix: (Units=GPa)
#
#
# Indices 1 2 3 4 5 6 
#
# 1 54.5522 10.6904 11.1354 -0.8518 18.5324 2.4698
# 2 10.6904 118.0105 23.0677 -2.2428 22.1550 2.6820
# 3 11.1354 23.0677 152.3600 -10.9583 31.6761 -5.9062
# 4 -0.8518 -2.2428 -10.9583 40.3868 3.0247 -8.0891
# 5 18.5324 22.1550 31.6761 3.0247 44.0637 -3.5971
# 6 2.4698 2.6820 -5.9062 -8.0891 -3.5971 13.4261
#
#
#
# Elastic Compliance Matrix: (Units=1/GPa)
#
#
# Indices 1 2 3 4 5 6 
#
# 1 0.021959 -0.000018 0.000194 -0.000075 -0.009903 -0.006649
# 2 -0.000018 0.009542 -0.000610 0.000031 -0.004631 -0.003393
# 3 0.000194 -0.000610 0.008216 0.003479 -0.005569 0.004305
# 4 -0.000075 0.000031 0.003479 0.029655 -0.003002 0.018601
# 5 -0.009903 -0.004631 -0.005569 -0.003002 0.034018 0.007602
# 6 -0.006649 -0.003393 0.004305 0.018601 0.007602 0.091520
#
#
# Mechanical properties :
#
#
# Convention : Reuss Voigt Hill
#
# Bulk Modulus (GPa) = 25.74101 46.07884 35.90992
# Shear Modulus (GPa) = 23.95455 38.24395 31.09925
#
# Velocity S-wave (km/s) = 3.03661 3.83687 3.45995
# Velocity P-wave (km/s) = 4.71205 6.11279 5.45754
#
# Compressibility (1/GPa) = 0.03884852
#
# Stress axis : x y z
#
# Youngs Moduli (GPa) = 45.53874 104.80294 121.70752
#
# Poissons Ratio (x) = 0.00191 -0.02356
# Poissons Ratio (y) = 0.00083 0.07423
# Poissons Ratio (z) = -0.00882 0.06392
#
# Static dielectric constant tensor:
#      x y z
#    x 2.132680 -0.012720 -0.153730 
#    y -0.012720 2.018760 0.050500 
#    z -0.153730 0.050500 2.151100 
# 
# From -- ./inp_files/398253.got.cif
#   From: 2010.05.17/outbox.cif.g08.bks.cpg/sg2_200_cif.got.tgz:398253.got - 2010.06.03 11:33:40.
