data_PCOD9052204
_publ_section_title
;
Structure prediction by ZEFSAII (Michael W. Deem and Ramdas Pophale) SiO2 
 PCOD9052204
Probable space group: P -1
;
_chemical_formula_sum "Si O2"
_cell_formula_units_Z 14
_cell_length_a 11.933039
_cell_length_b 10.921585
_cell_length_c 11.329475
_cell_angle_alpha 54.166032
_cell_angle_beta 141.707639
_cell_angle_gamma 144.344244
_cell_volume 527.735587
_symmetry_space_group_name_H-M "P -1"
_symmetry_group_IT_number 2
_symmetry_cell_setting 'triclinic'
loop_
_space_group_symop_operation_xyz
x,y,z
-x,-y,-z
loop_
_atom_site_type_symbol
_atom_site_label
_atom_site_fract_x
_atom_site_fract_y
_atom_site_fract_z
Si Si1 0.175988 0.961206 0.698107
Si Si2 0.615885 0.006579 0.470873
Si Si3 0.991243 0.739938 0.901022
Si Si4 0.884221 0.654057 0.431294
Si Si5 0.669481 0.597875 0.928381
Si Si6 0.349219 0.673749 0.267737
Si Si7 0.401525 0.686343 0.787778
O O1 0.167867 0.930190 0.847889
O O2 0.038046 0.747687 0.627548
O O3 0.451570 0.153224 0.764139
O O4 0.000000 0.000000 0.500000
O O5 0.544164 0.107150 0.269898
O O6 0.914900 0.163593 0.602448
O O7 0.500000 0.000000 0.500000
O O8 0.490555 0.778977 0.449556
O O9 0.877376 0.749637 0.916319
O O10 0.753659 0.547132 0.732106
O O11 0.122465 0.661513 0.093204
O O12 0.617439 0.586011 0.257641
O O13 0.785702 0.442884 0.407807
O O14 0.636323 0.718902 0.922387
O O15 0.716141 0.471614 0.110433
#
# Coordination Sequence:
#
# PCOD9052204 Si02
#       7
#     2   2   2   2   2   2   2
#     4  11  24  41  66  99 132 165 214 274 324 379
#     4  11  24  38  65  99 130 169 215 268 320 392
#     4  11  24  45  69  92 131 175 218 260 325 393
#     4   9  21  40  62  92 130 167 207 270 324 370
#     4   9  21  40  69  90 120 178 214 257 322 383
#     4  10  26  43  63  98 130 172 217 266 319 382
#     4   9  21  42  63  93 129 169 213 262 327 376
#
# _framework density 26.528438999999999
#
# number of rings (size 3 to 8) (size 9 to 14) (size 15 to 20)
#    0.857    1.143    0.000    1.714    4.000   11.429 
#    0.000    1.429    0.000    0.000    0.000    0.000 
#    0.000    0.000    0.000    0.000    0.000    0.000 
#
# Total GULP energy -78253.961526 kJ/mol
# GULP energy per Si atom -5589.568680 kJ/mol
# Density = 2.646806 g / cm^3
# Si number density = 26.528439 Si / 1000 Ang^3
#
#
#
# Elastic Constant Matrix: (Units=GPa)
#
#
# Indices 1 2 3 4 5 6 
#
# 1 131.5093 24.5602 17.1855 -11.9884 -9.8715 43.8703
# 2 24.5602 64.4710 7.2011 7.3264 -15.5582 4.7895
# 3 17.1855 7.2011 55.5000 -8.2642 4.0938 12.7164
# 4 -11.9884 7.3264 -8.2642 38.2223 0.5879 -4.5333
# 5 -9.8715 -15.5582 4.0938 0.5879 38.1116 -7.9528
# 6 43.8703 4.7895 12.7164 -4.5333 -7.9528 56.7435
#
#
#
# Elastic Compliance Matrix: (Units=1/GPa)
#
#
# Indices 1 2 3 4 5 6 
#
# 1 0.011454 -0.004165 -0.000614 0.003296 -0.000421 -0.008162
# 2 -0.004165 0.019849 -0.003406 -0.005617 0.008101 0.002994
# 3 -0.000614 -0.003406 0.020619 0.004497 -0.004701 -0.004158
# 4 0.003296 -0.005617 0.004497 0.029153 -0.002605 -0.001118
# 5 -0.000421 0.008101 -0.004701 -0.002605 0.030990 0.004831
# 6 -0.008162 0.002994 -0.004158 -0.001118 0.004831 0.025200
#
#
# Mechanical properties :
#
#
# Convention : Reuss Voigt Hill
#
# Bulk Modulus (GPa) = 28.12762 38.81931 33.47347
# Shear Modulus (GPa) = 30.21426 40.11770 35.16598
#
# Velocity S-wave (km/s) = 3.37848 3.89299 3.64482
# Velocity P-wave (km/s) = 5.08376 5.90525 5.50984
#
# Compressibility (1/GPa) = 0.03555224
#
# Stress axis : x y z
#
# Youngs Moduli (GPa) = 87.30888 50.38138 48.49815
#
# Poissons Ratio (x) = 0.20982 0.02979
# Poissons Ratio (y) = 0.36361 0.16517
# Poissons Ratio (z) = 0.05363 0.17159
#
# Static dielectric constant tensor:
#      x y z
#    x 2.071890 -0.018730 -0.041880 
#    y -0.018730 2.107360 0.069270 
#    z -0.041880 0.069270 2.143570 
# 
# From -- ./inp_files/423342.got.cif
#   From: 2010.05.17/outbox.cif.g08.bks.cpg/sg2_212_cif.got.tgz:423342.got - 2010.06.03 11:33:40.
