data_PCOD9052069
_publ_section_title
;
Structure prediction by ZEFSAII (Michael W. Deem and Ramdas Pophale) SiO2 
 PCOD9052069
Probable space group: P -1
;
_chemical_formula_sum "Si O2"
_cell_formula_units_Z 12
_cell_length_a 10.525280
_cell_length_b 4.806683
_cell_length_c 9.092634
_cell_angle_alpha 103.632483
_cell_angle_beta 100.038547
_cell_angle_gamma 84.224115
_cell_volume 439.354681
_symmetry_space_group_name_H-M "P -1"
_symmetry_group_IT_number 2
_symmetry_cell_setting 'triclinic'
loop_
_space_group_symop_operation_xyz
x,y,z
-x,-y,-z
loop_
_atom_site_type_symbol
_atom_site_label
_atom_site_fract_x
_atom_site_fract_y
_atom_site_fract_z
Si Si1 0.657551 0.221687 0.282875
Si Si2 0.136420 0.484609 0.444322
Si Si3 0.497057 0.210523 0.664923
Si Si4 0.354931 0.627624 0.026107
Si Si5 0.117285 0.242130 0.977417
Si Si6 0.899215 0.084896 0.761556
O O1 0.766137 0.355948 0.416522
O O2 0.534780 0.450618 0.322777
O O3 0.682573 0.216796 0.114017
O O4 0.622291 0.908562 0.284288
O O5 0.162772 0.149606 0.381772
O O6 0.000000 0.500000 0.500000
O O7 0.134977 0.625883 0.299758
O O8 0.500000 0.000000 0.500000
O O9 0.619265 0.193258 0.797892
O O10 0.247862 0.402551 0.005786
O O11 0.500000 0.500000 0.000000
O O12 0.127180 0.024815 0.090925
O O13 0.057376 0.079949 0.805015
O O14 0.000000 0.500000 0.000000
#
# Coordination Sequence:
#
# PCOD9052069 Si02
#       6
#     2   2   2   2   2   2
#     4  11  25  47  71 108 148 197 247 309 377 448
#     4  12  25  44  72 106 151 194 252 303 373 448
#     4  11  25  48  74 107 145 196 252 311 373 446
#     4  10  25  50  75 109 151 200 249 310 378 450
#     4  11  24  48  76 110 151 193 252 310 380 445
#     4  11  25  45  70 113 146 202 244 316 369 449
#
# _framework density 27.312785000000002
#
# number of rings (size 3 to 8) (size 9 to 14) (size 15 to 20)
#    0.000    1.000    1.667    3.500    2.333    4.000 
#   24.000    0.000    0.000    0.000    0.000    0.000 
#    0.000    0.000    0.000    0.000    0.000    0.000 
#
# Total GULP energy -67179.801673 kJ/mol
# GULP energy per Si atom -5598.316806 kJ/mol
# Density = 2.725062 g / cm^3
# Si number density = 27.312785 Si / 1000 Ang^3
#
#
#
# Elastic Constant Matrix: (Units=GPa)
#
#
# Indices 1 2 3 4 5 6 
#
# 1 113.3504 33.1014 50.1209 -2.1787 15.8459 25.1116
# 2 33.1014 148.3210 35.7671 -0.3408 5.1107 25.8142
# 3 50.1209 35.7671 193.8832 8.0591 20.1871 15.8102
# 4 -2.1787 -0.3408 8.0591 53.0297 7.7653 2.4235
# 5 15.8459 5.1107 20.1871 7.7653 65.5927 10.9671
# 6 25.1116 25.8142 15.8102 2.4235 10.9671 61.7320
#
#
#
# Elastic Compliance Matrix: (Units=1/GPa)
#
#
# Indices 1 2 3 4 5 6 
#
# 1 0.011151 -0.001334 -0.002270 0.001159 -0.001497 -0.003176
# 2 -0.001334 0.007685 -0.000918 0.000190 0.000404 -0.002515
# 3 -0.002270 -0.000918 0.006069 -0.000853 -0.001145 -0.000010
# 4 0.001159 0.000190 -0.000853 0.019392 -0.002211 -0.000701
# 5 -0.001497 0.000404 -0.001145 -0.002211 0.016544 -0.002119
# 6 -0.003176 -0.002515 -0.000010 -0.000701 -0.002119 0.018949
#
#
# Mechanical properties :
#
#
# Convention : Reuss Voigt Hill
#
# Bulk Modulus (GPa) = 63.04260 77.05927 70.05094
# Shear Modulus (GPa) = 53.12273 58.50855 55.81564
#
# Velocity S-wave (km/s) = 4.41497 4.63338 4.52549
# Velocity P-wave (km/s) = 7.00865 7.54315 7.28081
#
# Compressibility (1/GPa) = 0.01586229
#
# Stress axis : x y z
#
# Youngs Moduli (GPa) = 89.68058 130.11561 164.76189
#
# Poissons Ratio (x) = 0.17360 0.37396
# Poissons Ratio (y) = 0.11965 0.15121
# Poissons Ratio (z) = 0.20355 0.11941
#
# Static dielectric constant tensor:
#      x y z
#    x 2.292900 -0.091620 -0.096410 
#    y -0.091620 2.047510 0.047840 
#    z -0.096410 0.047840 2.181280 
# 
# From -- ./inp_files/229265.got.cif
#   From: 2010.05.17/outbox.cif.g08.bks.cpg/sg2_115_cif.got.tgz:229265.got - 2010.06.03 11:33:40.
