data_PCOD9052082
_publ_section_title
;
Structure prediction by ZEFSAII (Michael W. Deem and Ramdas Pophale) SiO2 
 PCOD9052082
Probable space group: P -1
;
_chemical_formula_sum "Si O2"
_cell_formula_units_Z 14
_cell_length_a 5.100601
_cell_length_b 10.276251
_cell_length_c 12.752870
_cell_angle_alpha 62.252742
_cell_angle_beta 100.573350
_cell_angle_gamma 109.092980
_cell_volume 558.645580
_symmetry_space_group_name_H-M "P -1"
_symmetry_group_IT_number 2
_symmetry_cell_setting 'triclinic'
loop_
_space_group_symop_operation_xyz
x,y,z
-x,-y,-z
loop_
_atom_site_type_symbol
_atom_site_label
_atom_site_fract_x
_atom_site_fract_y
_atom_site_fract_z
Si Si1 0.527827 0.346444 0.117742
Si Si2 0.907165 0.846400 0.982463
Si Si3 0.807544 0.973363 0.248114
Si Si4 0.154917 0.592642 0.574357
Si Si5 0.625990 0.066719 0.594728
Si Si6 0.375834 0.332571 0.787166
Si Si7 0.136224 0.414920 0.229245
O O1 0.337311 0.330670 0.215194
O O2 0.500000 0.500000 0.000000
O O3 0.381452 0.208657 0.081539
O O4 0.683927 0.406319 0.826579
O O5 0.846252 0.719662 0.116390
O O6 0.000000 0.000000 0.000000
O O7 0.118271 0.894387 0.883767
O O8 0.601807 0.000901 0.309470
O O9 0.665503 0.812456 0.237628
O O10 0.083316 0.956432 0.334486
O O11 0.332802 0.752787 0.482857
O O12 0.319235 0.478572 0.673536
O O13 0.000000 0.500000 0.500000
O O14 0.152757 0.623614 0.840098
O O15 0.500000 0.000000 0.500000
O O16 0.958288 0.622795 0.642793
#
# Coordination Sequence:
#
# PCOD9052082 Si02
#       7
#     2   2   2   2   2   2   2
#     4  12  25  46  74 109 151 191 246 309 373 444
#     4  10  25  50  77 109 155 199 249 310 381 465
#     4  11  27  50  75 109 153 205 249 312 380 456
#     4  12  26  48  80 108 153 200 258 317 368 453
#     4  12  29  49  75 109 152 201 257 310 383 448
#     4  11  24  50  75 120 145 201 258 312 384 449
#     4  12  26  43  74 113 147 189 247 312 376 432
#
# _framework density 25.060613
#
# number of rings (size 3 to 8) (size 9 to 14) (size 15 to 20)
#    0.000    0.571    4.286    1.714    6.000    1.143 
#    2.571    2.857    0.000    0.000    0.000    0.000 
#    0.000    0.000    0.000    0.000    0.000    0.000 
#
# Total GULP energy -78335.144395 kJ/mol
# GULP energy per Si atom -5595.367457 kJ/mol
# Density = 2.500357 g / cm^3
# Si number density = 25.060613 Si / 1000 Ang^3
#
#
#
# Elastic Constant Matrix: (Units=GPa)
#
#
# Indices 1 2 3 4 5 6 
#
# 1 138.3801 44.8667 21.1703 16.6619 -6.3170 20.6825
# 2 44.8667 175.1199 31.2132 42.0107 12.9817 42.6102
# 3 21.1703 31.2132 104.4471 7.8704 -26.3976 4.0845
# 4 16.6619 42.0107 7.8704 54.5964 3.5582 -3.7050
# 5 -6.3170 12.9817 -26.3976 3.5582 29.5689 -1.8512
# 6 20.6825 42.6102 4.0845 -3.7050 -1.8512 29.0948
#
#
#
# Elastic Compliance Matrix: (Units=1/GPa)
#
#
# Indices 1 2 3 4 5 6 
#
# 1 0.008764 0.000526 -0.001277 -0.003416 0.000459 -0.007227
# 2 0.000526 0.018407 -0.007007 -0.014355 -0.014318 -0.029087
# 3 -0.001277 -0.007007 0.015574 0.003140 0.016984 0.010464
# 4 -0.003416 -0.014355 0.003140 0.031401 0.006313 0.027411
# 5 0.000459 -0.014318 0.016984 0.006313 0.056023 0.022627
# 6 -0.007227 -0.029087 0.010464 0.027411 0.022627 0.085568
#
#
# Mechanical properties :
#
#
# Convention : Reuss Voigt Hill
#
# Bulk Modulus (GPa) = 36.72681 68.04971 52.38826
# Shear Modulus (GPa) = 20.80487 44.03182 32.41834
#
# Velocity S-wave (km/s) = 2.88441 4.19622 3.60056
# Velocity P-wave (km/s) = 5.07741 7.11974 6.18348
#
# Compressibility (1/GPa) = 0.02722807
#
# Stress axis : x y z
#
# Youngs Moduli (GPa) = 114.10758 54.32692 64.21010
#
# Poissons Ratio (x) = -0.02858 0.08202
# Poissons Ratio (y) = -0.06003 0.44992
# Poissons Ratio (z) = 0.14577 0.38067
#
# Static dielectric constant tensor:
#      x y z
#    x 2.022340 0.034520 0.030220 
#    y 0.034520 2.041580 0.042440 
#    z 0.030220 0.042440 2.023200 
# 
# From -- ./inp_files/363943.got.cif
#   From: 2010.05.17/outbox.cif.g08.bks.cpg/sg2_182_cif.got.tgz:363943.got - 2010.06.03 11:33:40.
