data_PCOD9052813
_publ_section_title
;
Structure prediction by ZEFSAII (Michael W. Deem and Ramdas Pophale) SiO2 
 PCOD9052813
Probable space group: P -1
;
_chemical_formula_sum "Si O2"
_cell_formula_units_Z 13
_cell_length_a 5.244680
_cell_length_b 20.311540
_cell_length_c 16.755531
_cell_angle_alpha 19.771000
_cell_angle_beta 99.963143
_cell_angle_gamma 92.037096
_cell_volume 549.566878
_symmetry_space_group_name_H-M "P -1"
_symmetry_group_IT_number 2
_symmetry_cell_setting 'triclinic'
loop_
_space_group_symop_operation_xyz
x,y,z
-x,-y,-z
loop_
_atom_site_type_symbol
_atom_site_label
_atom_site_fract_x
_atom_site_fract_y
_atom_site_fract_z
Si Si1 0.731328 0.193927 0.410910
Si Si2 0.770456 0.381641 0.047318
Si Si3 0.462368 0.152373 0.186095
Si Si4 0.099167 0.483065 0.259636
Si Si5 0.415729 0.564505 0.320742
Si Si6 0.197941 0.029359 0.745972
Si Si7 0.000000 0.500000 0.500000
O O1 0.898951 0.256062 0.278323
O O2 0.636328 0.009997 0.585927
O O3 0.478691 0.406366 0.179136
O O4 0.897855 0.099520 0.608055
O O5 0.651687 0.235630 0.156080
O O6 0.932280 0.462933 0.898517
O O7 0.606011 0.029503 0.254220
O O8 0.196132 0.353684 0.913154
O O9 0.333908 0.539474 0.253692
O O10 0.187704 0.235070 0.556173
O O11 0.223053 0.473796 0.466265
O O12 0.746798 0.480421 0.450877
O O13 0.290010 0.816526 0.043866
#
# Coordination Sequence:
#
# PCOD9052813 Si02
#       7
#     2   2   2   2   2   2   1
#     4  11  24  40  63  99 144 193 249 301 347 407
#     4  11  24  40  63  99 144 193 249 301 347 407
#     4  12  22  42  63  95 136 192 246 300 350 401
#     4  12  25  42  71 103 139 190 241 292 352 428
#     4  11  24  50  77 108 146 180 229 298 368 441
#     4  12  25  42  71 103 139 190 241 292 352 428
#     4  10  26  50  80 110 142 178 224 296 378 452
#
# _framework density 23.654993999999999
#
# number of rings (size 3 to 8) (size 9 to 14) (size 15 to 20)
#    0.000    0.615    6.154    1.385    0.000    4.308 
#    0.000    4.615    0.000    0.000    0.000    0.000 
#    0.000    0.000    0.000    0.000    0.000    0.000 
#
# Total GULP energy -72393.900222 kJ/mol
# GULP energy per Si atom -5568.761556 kJ/mol
# Density = 2.360115 g / cm^3
# Si number density = 23.654994 Si / 1000 Ang^3
#
#
#
# Elastic Constant Matrix: (Units=GPa)
#
#
# Indices 1 2 3 4 5 6 
#
# 1 126.7034 19.0730 24.5125 1.0244 9.4319 0.8283
# 2 19.0730 74.4469 35.1704 -5.7100 -4.8022 21.8481
# 3 24.5125 35.1704 84.1427 -37.9984 -1.5433 28.9777
# 4 1.0244 -5.7100 -37.9984 42.3466 0.3509 -12.8700
# 5 9.4319 -4.8022 -1.5433 0.3509 31.6861 -8.1041
# 6 0.8283 21.8481 28.9777 -12.8700 -8.1041 86.1008
#
#
#
# Elastic Compliance Matrix: (Units=1/GPa)
#
#
# Indices 1 2 3 4 5 6 
#
# 1 0.009128 -0.000985 -0.004384 -0.004031 -0.002839 0.000768
# 2 -0.000985 0.018587 -0.009825 -0.006985 0.002135 -0.002243
# 3 -0.004384 -0.009825 0.029422 0.024036 0.000018 -0.003773
# 4 -0.004031 -0.006985 0.024036 0.044469 0.000936 0.000457
# 5 -0.002839 0.002135 0.000018 0.000936 0.033426 0.002766
# 6 0.000768 -0.002243 -0.003773 0.000457 0.002766 0.013775
#
#
# Mechanical properties :
#
#
# Convention : Reuss Voigt Hill
#
# Bulk Modulus (GPa) = 37.38477 49.20054 43.29265
# Shear Modulus (GPa) = 26.58011 45.79585 36.18798
#
# Velocity S-wave (km/s) = 3.35574 4.40476 3.91554
# Velocity P-wave (km/s) = 5.55456 6.83474 6.22763
#
# Compressibility (1/GPa) = 0.02674886
#
# Stress axis : x y z
#
# Youngs Moduli (GPa) = 109.55547 53.80245 33.98769
#
# Poissons Ratio (x) = 0.05299 0.14901
# Poissons Ratio (y) = 0.10791 0.33392
# Poissons Ratio (z) = 0.48032 0.52860
#
# Static dielectric constant tensor:
#      x y z
#    x 1.984880 -0.017850 -0.050290 
#    y -0.017850 1.992730 0.035910 
#    z -0.050290 0.035910 1.925980 
# 
# From -- ./inp_files/550724.got.cif
#   From: 2010.05.17/outbox.cif.g08.bks.cpg/sg2_276_cif.got.tgz:550724.got - 2010.06.03 11:33:40.
