data_PCOD9052443
_publ_section_title
;
Structure prediction by ZEFSAII (Michael W. Deem and Ramdas Pophale) SiO2 
 PCOD9052443
Probable space group: P -1
;
_chemical_formula_sum "Si O2"
_cell_formula_units_Z 13
_cell_length_a 20.932831
_cell_length_b 4.996001
_cell_length_c 12.345459
_cell_angle_alpha 65.547046
_cell_angle_beta 152.427147
_cell_angle_gamma 112.675158
_cell_volume 543.482195
_symmetry_space_group_name_H-M "P -1"
_symmetry_group_IT_number 2
_symmetry_cell_setting 'triclinic'
loop_
_space_group_symop_operation_xyz
x,y,z
-x,-y,-z
loop_
_atom_site_type_symbol
_atom_site_label
_atom_site_fract_x
_atom_site_fract_y
_atom_site_fract_z
Si Si1 0.452783 0.659723 0.507966
Si Si2 0.500000 0.500000 0.000000
Si Si3 0.608363 0.556241 0.969655
Si Si4 0.837159 0.013195 0.251498
Si Si5 0.149082 0.713431 0.999164
Si Si6 0.716570 0.009995 0.309268
Si Si7 0.982617 0.123488 0.832251
O O1 0.500000 0.500000 0.500000
O O2 0.533917 0.522584 0.752099
O O3 0.288354 0.622441 0.282081
O O4 0.500000 0.000000 0.500000
O O5 0.483794 0.254700 0.120871
O O6 0.639911 0.695100 0.240685
O O7 0.758033 0.705458 0.156416
O O8 0.614543 0.290412 0.114261
O O9 0.785512 0.080654 0.282970
O O10 0.000000 0.000000 0.500000
O O11 0.804807 0.214536 0.066908
O O12 0.973594 0.533220 0.151454
O O13 0.088358 0.981894 0.929582
O O14 0.831868 0.052996 0.566971
O O15 0.000000 0.000000 0.000000
#
# Coordination Sequence:
#
# PCOD9052443 Si02
#       7
#     2   1   2   2   2   2   2
#     4  12  26  46  73 109 151 190 243 303 377 448
#     4  10  26  46  70 106 138 202 246 306 370 428
#     4  11  25  44  71 105 143 191 245 307 363 444
#     4  11  22  41  72 104 139 179 238 304 367 426
#     4  12  26  48  73 109 147 198 246 305 378 440
#     4  11  25  46  74 106 146 189 256 305 372 440
#     4  12  29  49  74 107 151 200 247 304 374 453
#
# _framework density 23.919827999999999
#
# number of rings (size 3 to 8) (size 9 to 14) (size 15 to 20)
#    0.000    0.615    3.077    3.692    8.615    2.462 
#    0.000    0.000    0.000    0.000    0.000    0.000 
#    0.000    0.000    0.000    0.000    0.000    0.000 
#
# Total GULP energy -72553.337265 kJ/mol
# GULP energy per Si atom -5581.025943 kJ/mol
# Density = 2.386539 g / cm^3
# Si number density = 23.919828 Si / 1000 Ang^3
#
#
#
# Elastic Constant Matrix: (Units=GPa)
#
#
# Indices 1 2 3 4 5 6 
#
# 1 125.1283 11.4210 54.5136 5.0470 -13.2680 3.4369
# 2 11.4210 109.6868 37.9331 22.0438 -5.5206 4.1355
# 3 54.5136 37.9331 186.0006 31.4167 -17.2284 2.1395
# 4 5.0470 22.0438 31.4167 37.0058 2.0555 6.3239
# 5 -13.2680 -5.5206 -17.2284 2.0555 51.5036 2.6788
# 6 3.4369 4.1355 2.1395 6.3239 2.6788 43.2001
#
#
#
# Elastic Compliance Matrix: (Units=1/GPa)
#
#
# Indices 1 2 3 4 5 6 
#
# 1 0.009341 -0.000158 -0.002770 0.001238 0.001459 -0.000863
# 2 -0.000158 0.010662 -0.001128 -0.005387 0.000952 -0.000223
# 3 -0.002770 -0.001128 0.007521 -0.005551 0.001869 0.000653
# 4 0.001238 -0.005387 -0.005551 0.035700 -0.003315 -0.004328
# 5 0.001459 0.000952 0.001869 -0.003315 0.020709 -0.001099
# 6 -0.000863 -0.000223 0.000653 -0.004328 -0.001099 0.023907
#
#
# Mechanical properties :
#
#
# Convention : Reuss Voigt Hill
#
# Bulk Modulus (GPa) = 51.50638 69.83899 60.67269
# Shear Modulus (GPa) = 40.84240 47.47178 44.15709
#
# Velocity S-wave (km/s) = 4.13664 4.45974 4.30122
# Velocity P-wave (km/s) = 6.66298 7.46857 7.07725
#
# Compressibility (1/GPa) = 0.01941507
#
# Stress axis : x y z
#
# Youngs Moduli (GPa) = 107.05229 93.78899 132.95601
#
# Poissons Ratio (x) = 0.01478 0.36824
# Poissons Ratio (y) = 0.01687 0.14992
# Poissons Ratio (z) = 0.29649 0.10576
#
# Static dielectric constant tensor:
#      x y z
#    x 2.031340 -0.093920 0.056380 
#    y -0.093920 1.961770 -0.069580 
#    z 0.056380 -0.069580 1.968060 
# 
# From -- ./inp_files/467841.got.cif
#   From: 2010.05.17/outbox.cif.g08.bks.cpg/sg2_234_cif.got.tgz:467841.got - 2010.06.03 11:33:40.
