data_PCOD9052145
_publ_section_title
;
Structure prediction by ZEFSAII (Michael W. Deem and Ramdas Pophale) SiO2 
 PCOD9052145
Probable space group: P -1
;
_chemical_formula_sum "Si O2"
_cell_formula_units_Z 15
_cell_length_a 15.094395
_cell_length_b 8.871101
_cell_length_c 8.589302
_cell_angle_alpha 71.401706
_cell_angle_beta 143.235394
_cell_angle_gamma 117.094926
_cell_volume 610.561345
_symmetry_space_group_name_H-M "P -1"
_symmetry_group_IT_number 2
_symmetry_cell_setting 'triclinic'
loop_
_space_group_symop_operation_xyz
x,y,z
-x,-y,-z
loop_
_atom_site_type_symbol
_atom_site_label
_atom_site_fract_x
_atom_site_fract_y
_atom_site_fract_z
Si Si1 0.884532 0.478660 0.700646
Si Si2 0.703990 0.888111 0.001272
Si Si3 0.618309 0.206518 0.286991
Si Si4 0.104036 0.136428 0.979883
Si Si5 0.000000 0.500000 0.500000
Si Si6 0.199024 0.962667 0.590742
Si Si7 0.352276 0.508895 0.992851
Si Si8 0.689368 0.670381 0.533471
O O1 0.772398 0.282819 0.584820
O O2 0.961702 0.532818 0.622345
O O3 0.768449 0.574371 0.561327
O O4 0.000000 0.500000 0.000000
O O5 0.532798 0.896724 0.791724
O O6 0.791716 0.947960 0.943522
O O7 0.807859 0.992541 0.254886
O O8 0.683443 0.688379 0.032837
O O9 0.586763 0.365147 0.110695
O O10 0.670782 0.116031 0.248249
O O11 0.220755 0.296620 0.184609
O O12 0.000000 0.000000 0.000000
O O13 0.972909 0.162818 0.669500
O O14 0.812868 0.469774 0.203937
O O15 0.260675 0.140591 0.528595
O O16 0.500925 0.577334 0.297529
#
# Coordination Sequence:
#
# PCOD9052145 Si02
#       8
#     2   2   2   2   1   2   2   2
#     4  11  24  45  69 103 146 189 236 309 361 424
#     4  12  23  42  74  98 132 192 234 285 368 424
#     4  11  23  42  67 110 140 175 245 292 353 437
#     4  10  26  46  64 101 140 185 238 292 351 435
#     4  10  26  40  66 106 146 176 238 296 362 440
#     4  11  23  44  71 101 141 188 232 293 354 433
#     4  11  24  43  69 107 142 180 235 304 360 425
#     4  11  23  47  71  96 149 187 228 301 359 425
#
# _framework density 24.567556
#
# number of rings (size 3 to 8) (size 9 to 14) (size 15 to 20)
#    0.000    1.067    2.667    3.600    5.600    1.600 
#    9.600    2.667    0.000    0.000    0.000    0.000 
#    0.000    0.000    0.000    0.000    0.000    0.000 
#
# Total GULP energy -83679.146354 kJ/mol
# GULP energy per Si atom -5578.609757 kJ/mol
# Density = 2.451164 g / cm^3
# Si number density = 24.567556 Si / 1000 Ang^3
#
#
#
# Elastic Constant Matrix: (Units=GPa)
#
#
# Indices 1 2 3 4 5 6 
#
# 1 207.0657 32.9236 85.5748 19.9078 12.5913 -23.1267
# 2 32.9236 61.0344 25.5591 14.2835 3.7537 -14.3686
# 3 85.5748 25.5591 199.4922 50.9624 9.9996 -11.6707
# 4 19.9078 14.2835 50.9624 36.4940 -3.5818 -5.2175
# 5 12.5913 3.7537 9.9996 -3.5818 53.1323 2.8399
# 6 -23.1267 -14.3686 -11.6707 -5.2175 2.8399 39.1356
#
#
#
# Elastic Compliance Matrix: (Units=1/GPa)
#
#
# Indices 1 2 3 4 5 6 
#
# 1 0.006458 -0.002012 -0.002622 0.001194 -0.000949 0.002523
# 2 -0.002012 0.020322 0.000419 -0.006815 -0.001797 0.005619
# 3 -0.002622 0.000419 0.009177 -0.011750 -0.001923 -0.000086
# 4 0.001194 -0.006815 -0.011750 0.046437 0.005514 0.000491
# 5 -0.000949 -0.001797 -0.001923 0.005514 0.020041 -0.002513
# 6 0.002523 0.005619 -0.000086 0.000491 -0.002513 0.029329
#
#
# Mechanical properties :
#
#
# Convention : Reuss Voigt Hill
#
# Bulk Modulus (GPa) = 36.32910 83.96748 60.14829
# Shear Modulus (GPa) = 33.47407 47.32136 40.39771
#
# Velocity S-wave (km/s) = 3.69525 4.39358 4.05946
# Velocity P-wave (km/s) = 5.74683 7.74535 6.81970
#
# Compressibility (1/GPa) = 0.02752614
#
# Stress axis : x y z
#
# Youngs Moduli (GPa) = 154.85192 49.20675 108.97070
#
# Poissons Ratio (x) = 0.09903 0.28575
# Poissons Ratio (y) = 0.31164 -0.04569
# Poissons Ratio (z) = 0.40606 -0.02063
#
# Static dielectric constant tensor:
#      x y z
#    x 1.938370 -0.001120 -0.003550 
#    y -0.001120 2.040320 -0.001820 
#    z -0.003550 -0.001820 2.038480 
# 
# From -- ./inp_files/298637.got.cif
#   From: 2010.05.17/outbox.cif.g08.bks.cpg/sg2_150_cif.got.tgz:298637.got - 2010.06.03 11:33:40.
