data_PCOD9052160
_publ_section_title
;
Structure prediction by ZEFSAII (Michael W. Deem and Ramdas Pophale) SiO2 
 PCOD9052160
Probable space group: P -1
;
_chemical_formula_sum "Si O2"
_cell_formula_units_Z 16
_cell_length_a 11.551611
_cell_length_b 11.276310
_cell_length_c 18.373496
_cell_angle_alpha 149.599378
_cell_angle_beta 150.809373
_cell_angle_gamma 37.925904
_cell_volume 584.426481
_symmetry_space_group_name_H-M "P -1"
_symmetry_group_IT_number 2
_symmetry_cell_setting 'triclinic'
loop_
_space_group_symop_operation_xyz
x,y,z
-x,-y,-z
loop_
_atom_site_type_symbol
_atom_site_label
_atom_site_fract_x
_atom_site_fract_y
_atom_site_fract_z
Si Si1 0.227472 0.641710 0.422960
Si Si2 0.511033 0.552349 0.151498
Si Si3 0.604288 0.905906 0.208392
Si Si4 0.067455 0.505308 0.421177
Si Si5 0.480985 0.071504 0.441415
Si Si6 0.353183 0.869113 0.794317
Si Si7 0.196133 0.241037 0.099235
Si Si8 0.818402 0.325641 0.831143
O O1 0.500000 0.500000 0.500000
O O2 0.264458 0.914964 0.576173
O O3 0.103686 0.607018 0.414009
O O4 0.097071 0.481994 0.212802
O O5 0.476226 0.835504 0.266489
O O6 0.389391 0.546604 0.161841
O O7 0.796034 0.479643 0.273827
O O8 0.409347 0.371233 0.944650
O O9 0.720886 0.949451 0.215974
O O10 0.328382 0.038441 0.117674
O O11 0.156287 0.713933 0.628884
O O12 0.254615 0.267446 0.405945
O O13 0.006249 0.842985 0.106626
O O14 0.500000 0.000000 0.500000
O O15 0.719974 0.195954 0.640081
O O16 0.575141 0.697698 0.788494
O O17 0.500000 0.000000 0.000000
O O18 0.000000 0.500000 0.000000
#
# Coordination Sequence:
#
# PCOD9052160 Si02
#       8
#     2   2   2   2   2   2   2   2
#     4   9  18  44  77  98 125 181 251 287 339 411
#     4  11  26  42  66 102 146 184 226 282 359 413
#     4   8  20  36  68  96 128 174 234 280 337 406
#     4  11  23  44  74  99 140 187 229 290 350 408
#     4  10  26  42  64 104 149 185 221 277 360 434
#     4   9  20  34  69 103 124 178 234 280 343 400
#     4   9  20  39  72  97 131 174 234 295 336 398
#     4  11  25  41  65 101 141 184 233 285 348 419
#
# _framework density 27.377268000000001
#
# number of rings (size 3 to 8) (size 9 to 14) (size 15 to 20)
#    0.750    1.500    1.250    0.750   10.500    3.000 
#    0.000    3.750    5.500    0.000    0.000    0.000 
#    0.000    0.000    0.000    0.000    0.000    0.000 
#
# Total GULP energy -89407.707495 kJ/mol
# GULP energy per Si atom -5587.981718 kJ/mol
# Density = 2.731496 g / cm^3
# Si number density = 27.377268 Si / 1000 Ang^3
#
#
#
# Elastic Constant Matrix: (Units=GPa)
#
#
# Indices 1 2 3 4 5 6 
#
# 1 82.2119 23.9440 37.3662 11.0032 9.0466 -11.5827
# 2 23.9440 160.8598 97.6385 7.0720 3.3097 -10.3928
# 3 37.3662 97.6385 185.8930 37.7221 -1.7506 -23.1806
# 4 11.0032 7.0720 37.7221 69.2674 -11.0044 10.3182
# 5 9.0466 3.3097 -1.7506 -11.0044 46.5705 4.7449
# 6 -11.5827 -10.3928 -23.1806 10.3182 4.7449 30.1068
#
#
#
# Elastic Compliance Matrix: (Units=1/GPa)
#
#
# Indices 1 2 3 4 5 6 
#
# 1 0.014709 -0.000899 -0.001072 -0.003278 -0.004252 0.006317
# 2 -0.000899 0.009496 -0.005621 0.002601 0.000138 -0.002309
# 3 -0.001072 -0.005621 0.010983 -0.006757 -0.001457 0.008649
# 4 -0.003278 0.002601 -0.006757 0.021523 0.006710 -0.014000
# 5 -0.004252 0.000138 -0.001457 0.006710 0.024727 -0.008907
# 6 0.006317 -0.002309 0.008649 -0.014000 -0.008907 0.047710
#
#
# Mechanical properties :
#
#
# Convention : Reuss Voigt Hill
#
# Bulk Modulus (GPa) = 49.98928 82.98466 66.48697
# Shear Modulus (GPa) = 33.11226 47.19001 40.15113
#
# Velocity S-wave (km/s) = 3.48153 4.15624 3.83376
# Velocity P-wave (km/s) = 5.87030 7.30820 6.62836
#
# Compressibility (1/GPa) = 0.02000429
#
# Stress axis : x y z
#
# Youngs Moduli (GPa) = 67.98483 105.30606 91.04617
#
# Poissons Ratio (x) = 0.09471 0.09756
# Poissons Ratio (y) = 0.06114 0.51180
# Poissons Ratio (z) = 0.07285 0.59196
#
# Static dielectric constant tensor:
#      x y z
#    x 2.322740 0.076960 -0.034860 
#    y 0.076960 2.206410 0.026500 
#    z -0.034860 0.026500 2.232850 
# 
# From -- ./inp_files/279224.got.cif
#   From: 2010.05.17/outbox.cif.g08.bks.cpg/sg2_140_cif.got.tgz:279224.got - 2010.06.03 11:33:40.
