data_PCOD9052287
_publ_section_title
;
Structure prediction by ZEFSAII (Michael W. Deem and Ramdas Pophale) SiO2 
 PCOD9052287
Probable space group: P -1
;
_chemical_formula_sum "Si O2"
_cell_formula_units_Z 16
_cell_length_a 17.943677
_cell_length_b 9.518696
_cell_length_c 18.915350
_cell_angle_alpha 26.315308
_cell_angle_beta 30.344721
_cell_angle_gamma 44.123851
_cell_volume 700.802582
_symmetry_space_group_name_H-M "P -1"
_symmetry_group_IT_number 2
_symmetry_cell_setting 'triclinic'
loop_
_space_group_symop_operation_xyz
x,y,z
-x,-y,-z
loop_
_atom_site_type_symbol
_atom_site_label
_atom_site_fract_x
_atom_site_fract_y
_atom_site_fract_z
Si Si1 0.826443 0.449234 0.689903
Si Si2 0.505068 0.627356 0.664426
Si Si3 0.817208 0.685981 0.860631
Si Si4 0.835699 0.202034 0.949499
Si Si5 0.325667 0.787527 0.222938
Si Si6 0.216265 0.872927 0.618645
Si Si7 0.989325 0.294186 0.998540
Si Si8 0.521450 0.710310 0.458859
O O1 0.807428 0.257905 0.865080
O O2 0.716369 0.261963 0.802619
O O3 0.000000 0.500000 0.500000
O O4 0.801708 0.812725 0.551265
O O5 0.355685 0.469488 0.902814
O O6 0.656972 0.554113 0.605160
O O7 0.494075 0.509164 0.645198
O O8 0.500000 0.000000 0.500000
O O9 0.854373 0.544692 0.819746
O O10 0.915766 0.534148 0.903804
O O11 0.806947 0.062488 0.702818
O O12 0.971266 0.019686 0.927762
O O13 0.686723 0.955451 0.214930
O O14 0.500000 0.000000 0.000000
O O15 0.147979 0.532125 0.787886
O O16 0.391987 0.908944 0.473845
O O17 0.116667 0.828224 0.791789
O O18 0.500000 0.500000 0.500000
#
# Coordination Sequence:
#
# PCOD9052287 Si02
#       8
#     2   2   2   2   2   2   2   2
#     4  12  26  48  72 103 144 191 243 294 367 436
#     4  11  22  44  71 100 140 184 234 288 355 426
#     4  11  24  45  68 101 145 186 232 296 358 422
#     4  12  27  44  72 106 143 184 248 302 351 427
#     4  10  26  44  71 104 143 193 235 291 364 428
#     4  11  24  43  76 103 138 193 234 295 367 432
#     4  11  23  45  74 104 140 187 244 293 363 430
#     4  12  25  42  70 109 137 180 244 299 348 424
#
# _framework density 22.830966
#
# number of rings (size 3 to 8) (size 9 to 14) (size 15 to 20)
#    0.000    0.750    5.000    1.875    7.000    1.500 
#    2.250    1.250    0.000    0.000    0.000    0.000 
#    0.000    0.000    0.000    0.000    0.000    0.000 
#
# Total GULP energy -89428.347259 kJ/mol
# GULP energy per Si atom -5589.271704 kJ/mol
# Density = 2.277900 g / cm^3
# Si number density = 22.830966 Si / 1000 Ang^3
#
#
#
# Elastic Constant Matrix: (Units=GPa)
#
#
# Indices 1 2 3 4 5 6 
#
# 1 100.4060 53.5137 1.4093 -6.9811 20.5744 -7.9933
# 2 53.5137 158.5890 25.5438 1.0110 20.5343 -16.9353
# 3 1.4093 25.5438 45.2369 4.5004 -4.2406 -8.8563
# 4 -6.9811 1.0110 4.5004 26.6886 -2.8985 -1.6074
# 5 20.5744 20.5343 -4.2406 -2.8985 19.3954 -2.6770
# 6 -7.9933 -16.9353 -8.8563 -1.6074 -2.6770 53.5995
#
#
#
# Elastic Compliance Matrix: (Units=1/GPa)
#
#
# Indices 1 2 3 4 5 6 
#
# 1 0.014242 -0.003381 0.000297 0.002649 -0.010980 0.000636
# 2 -0.003381 0.009478 -0.005637 -0.001058 -0.007681 0.001144
# 3 0.000297 -0.005637 0.027295 -0.002850 0.011646 0.003269
# 4 0.002649 -0.001058 -0.002850 0.039138 0.003667 0.000947
# 5 -0.010980 -0.007681 0.011646 0.003667 0.074666 0.001699
# 6 0.000636 0.001144 0.003269 0.000947 0.001699 0.019767
#
#
# Mechanical properties :
#
#
# Convention : Reuss Voigt Hill
#
# Bulk Modulus (GPa) = 29.78623 51.68504 40.73564
# Shear Modulus (GPa) = 23.45005 34.85435 29.15220
#
# Velocity S-wave (km/s) = 3.20834 3.91144 3.57721
# Velocity P-wave (km/s) = 5.17681 6.56403 5.91125
#
# Compressibility (1/GPa) = 0.03357256
#
# Stress axis : x y z
#
# Youngs Moduli (GPa) = 70.21471 105.50920 36.63660
#
# Poissons Ratio (x) = 0.35672 -0.01088
# Poissons Ratio (y) = 0.23739 0.20653
# Poissons Ratio (z) = -0.02086 0.59479
#
# Static dielectric constant tensor:
#      x y z
#    x 1.866960 0.020810 0.014180 
#    y 0.020810 1.973850 -0.119330 
#    z 0.014180 -0.119330 1.848330 
# 
# From -- ./inp_files/575491.got.cif
#   From: 2010.05.17/outbox.cif.g08.bks.cpg/sg2_288_cif.got.tgz:575491.got - 2010.06.03 11:33:40.
