data_PCOD9052068
_publ_section_title
;
Structure prediction by ZEFSAII (Michael W. Deem and Ramdas Pophale) SiO2 
 PCOD9052068
Probable space group: P -1
;
_chemical_formula_sum "Si O2"
_cell_formula_units_Z 14
_cell_length_a 18.478345
_cell_length_b 12.597082
_cell_length_c 15.177803
_cell_angle_alpha 145.628805
_cell_angle_beta 25.401449
_cell_angle_gamma 151.304597
_cell_volume 718.263984
_symmetry_space_group_name_H-M "P -1"
_symmetry_group_IT_number 2
_symmetry_cell_setting 'triclinic'
loop_
_space_group_symop_operation_xyz
x,y,z
-x,-y,-z
loop_
_atom_site_type_symbol
_atom_site_label
_atom_site_fract_x
_atom_site_fract_y
_atom_site_fract_z
Si Si1 0.732211 0.396142 0.803146
Si Si2 0.105009 0.363240 0.395687
Si Si3 0.789886 0.080442 0.787418
Si Si4 0.193276 0.472725 0.687157
Si Si5 0.624023 0.604474 0.723531
Si Si6 0.551479 0.118970 0.216347
Si Si7 0.805027 0.886731 0.449943
O O1 0.795719 0.529541 0.733411
O O2 0.401850 0.544402 0.949889
O O3 0.932646 0.419500 0.639056
O O4 0.577444 0.130401 0.774618
O O5 0.271293 0.441104 0.342145
O O6 0.985112 0.092600 0.339951
O O7 0.990509 0.318646 0.749663
O O8 0.763226 0.872885 0.732395
O O9 0.790352 0.005950 0.636933
O O10 0.616038 0.102977 0.035299
O O11 0.364242 0.510369 0.456327
O O12 0.254586 0.707950 0.821915
O O13 0.173498 0.311556 0.677791
O O14 0.402800 0.205107 0.434481
#
# Coordination Sequence:
#
# PCOD9052068 Si02
#       7
#     2   2   2   2   2   2   2
#     4   9  21  33  55  79  98 138 180 212 248 307
#     4  10  17  35  56  76 101 132 184 215 244 299
#     4  10  18  33  53  76 101 136 176 204 254 315
#     4  11  19  33  51  78 108 132 163 216 268 308
#     4  10  18  34  56  75 103 136 178 211 254 304
#     4  10  21  32  50  78 109 131 166 217 262 304
#     4  10  18  33  54  74  99 138 172 211 256 303
#
# _framework density 19.491440000000001
#
# number of rings (size 3 to 8) (size 9 to 14) (size 15 to 20)
#    0.000    2.000    2.857    2.571    0.000    1.143 
#    0.000    0.714    0.000    7.714    0.000    0.000 
#    0.000    0.000    0.000    0.000    0.000    0.000 
#
# Total GULP energy -78042.874828 kJ/mol
# GULP energy per Si atom -5574.491059 kJ/mol
# Density = 1.944708 g / cm^3
# Si number density = 19.491440 Si / 1000 Ang^3
#
#
#
# Elastic Constant Matrix: (Units=GPa)
#
#
# Indices 1 2 3 4 5 6 
#
# 1 49.6730 16.6539 13.3351 -6.3955 -1.9348 -6.4553
# 2 16.6539 62.4810 24.0632 -15.6293 11.8296 -2.6130
# 3 13.3351 24.0632 84.6281 -17.6450 3.7687 -3.9255
# 4 -6.3955 -15.6293 -17.6450 22.3510 -2.3508 6.7603
# 5 -1.9348 11.8296 3.7687 -2.3508 21.8989 -1.7695
# 6 -6.4553 -2.6130 -3.9255 6.7603 -1.7695 32.5958
#
#
#
# Elastic Compliance Matrix: (Units=1/GPa)
#
#
# Indices 1 2 3 4 5 6 
#
# 1 0.023659 -0.006573 -0.001939 0.000017 0.006321 0.004264
# 2 -0.006573 0.024092 -0.002841 0.012343 -0.012017 -0.002925
# 3 -0.001939 -0.002841 0.014866 0.009405 -0.000249 -0.000786
# 4 0.000017 0.012343 0.009405 0.063965 -0.002329 -0.011267
# 5 0.006321 -0.012017 -0.000249 -0.002329 0.052799 0.003608
# 6 0.004264 -0.002925 -0.000786 -0.011267 0.003608 0.033727
#
#
# Mechanical properties :
#
#
# Convention : Reuss Voigt Hill
#
# Bulk Modulus (GPa) = 25.05739 33.87630 29.46685
# Shear Modulus (GPa) = 20.07090 24.88448 22.47769
#
# Velocity S-wave (km/s) = 3.21242 3.57695 3.39958
# Velocity P-wave (km/s) = 5.16169 5.87174 5.52812
#
# Compressibility (1/GPa) = 0.03990839
#
# Stress axis : x y z
#
# Youngs Moduli (GPa) = 42.26772 41.50785 67.26977
#
# Poissons Ratio (x) = 0.27285 0.13043
# Poissons Ratio (y) = 0.27785 0.19114
# Poissons Ratio (z) = 0.08195 0.11794
#
# Static dielectric constant tensor:
#      x y z
#    x 1.686900 0.001770 -0.036920 
#    y 0.001770 1.669910 -0.010250 
#    z -0.036920 -0.010250 1.747540 
# 
# From -- ./inp_files/213916.got.cif
#   From: 2010.05.17/outbox.cif.g08.bks.cpg/sg2_107_cif.got.tgz:213916.got - 2010.06.03 11:33:40.
