data_PCOD9052042
_publ_section_title
;
Structure prediction by ZEFSAII (Michael W. Deem and Ramdas Pophale) SiO2 
 PCOD9052042
Probable space group: P -1
;
_chemical_formula_sum "Si O2"
_cell_formula_units_Z 16
_cell_length_a 5.504658
_cell_length_b 15.164641
_cell_length_c 8.072045
_cell_angle_alpha 106.513620
_cell_angle_beta 81.211729
_cell_angle_gamma 74.615248
_cell_volume 603.602968
_symmetry_space_group_name_H-M "P -1"
_symmetry_group_IT_number 2
_symmetry_cell_setting 'triclinic'
loop_
_space_group_symop_operation_xyz
x,y,z
-x,-y,-z
loop_
_atom_site_type_symbol
_atom_site_label
_atom_site_fract_x
_atom_site_fract_y
_atom_site_fract_z
Si Si1 0.202874 0.578839 0.876891
Si Si2 0.731173 0.074639 0.125340
Si Si3 0.815150 0.467879 0.761778
Si Si4 0.975398 0.134496 0.432597
Si Si5 0.212112 0.300211 0.469400
Si Si6 0.566854 0.274719 0.109137
Si Si7 0.504316 0.243785 0.745181
Si Si8 0.549659 0.037251 0.693427
O O1 0.509334 0.518218 0.784439
O O2 0.187779 0.686837 0.877401
O O3 0.005954 0.533188 0.785481
O O4 0.161890 0.576250 0.077827
O O5 0.632556 0.158186 0.043428
O O6 0.771948 0.137948 0.310862
O O7 0.567249 0.009294 0.173014
O O8 0.000000 0.000000 0.000000
O O9 0.939388 0.384173 0.570501
O O10 0.159068 0.197674 0.404121
O O11 0.806173 0.187974 0.635436
O O12 0.142304 0.020498 0.356911
O O13 0.370157 0.313808 0.301106
O O14 0.364478 0.298347 0.626089
O O15 0.468257 0.306028 0.948594
O O16 0.415370 0.151739 0.748404
O O17 0.500000 0.000000 0.500000
#
# Coordination Sequence:
#
# PCOD9052042 Si02
#       8
#     2   2   2   2   2   2   2   2
#     4  10  25  49  82 115 151 203 255 312 395 470
#     4  12  28  45  68 109 149 195 255 316 370 450
#     4  10  25  49  81 114 157 196 253 324 386 466
#     4  12  23  46  71  99 151 200 244 319 373 448
#     4  12  27  48  74 113 152 191 253 318 376 460
#     4  12  27  49  74 115 144 199 256 307 387 459
#     4  12  27  45  75 105 147 201 252 308 381 450
#     4  12  23  45  66 103 144 197 253 303 377 444
#
# _framework density 26.507490000000001
#
# number of rings (size 3 to 8) (size 9 to 14) (size 15 to 20)
#    0.000    0.500    5.000    1.875   10.500    4.000 
#    0.000    0.000    0.000    0.000    0.000    0.000 
#    0.000    0.000    0.000    0.000    0.000    0.000 
#
# Total GULP energy -89650.743878 kJ/mol
# GULP energy per Si atom -5603.171492 kJ/mol
# Density = 2.644716 g / cm^3
# Si number density = 26.507490 Si / 1000 Ang^3
#
#
#
# Elastic Constant Matrix: (Units=GPa)
#
#
# Indices 1 2 3 4 5 6 
#
# 1 93.5022 33.0622 45.0402 -11.7422 -16.9213 8.6964
# 2 33.0622 104.4823 38.2717 -12.7769 -20.6166 23.4283
# 3 45.0402 38.2717 153.3789 -3.9760 -15.6178 -6.5062
# 4 -11.7422 -12.7769 -3.9760 45.1064 -4.8977 -7.9924
# 5 -16.9213 -20.6166 -15.6178 -4.8977 53.7896 -3.4921
# 6 8.6964 23.4283 -6.5062 -7.9924 -3.4921 55.4468
#
#
#
# Elastic Compliance Matrix: (Units=1/GPa)
#
#
# Indices 1 2 3 4 5 6 
#
# 1 0.013981 -0.002062 -0.003274 0.002879 0.002847 -0.001111
# 2 -0.002062 0.013274 -0.002484 0.002514 0.003623 -0.004986
# 3 -0.003274 -0.002484 0.008255 -0.000322 0.000549 0.002520
# 4 0.002879 0.002514 -0.000322 0.024449 0.004147 0.002234
# 5 0.002847 0.003623 0.000549 0.004147 0.021415 0.000034
# 6 -0.001111 -0.004986 0.002520 0.002234 0.000034 0.020936
#
#
# Mechanical properties :
#
#
# Convention : Reuss Voigt Hill
#
# Bulk Modulus (GPa) = 50.32428 64.90130 57.61279
# Shear Modulus (GPa) = 40.13696 46.53452 43.33574
#
# Velocity S-wave (km/s) = 3.89546 4.19444 4.04771
# Velocity P-wave (km/s) = 6.26570 6.92785 6.60508
#
# Compressibility (1/GPa) = 0.01987112
#
# Stress axis : x y z
#
# Youngs Moduli (GPa) = 71.52447 75.33665 121.13212
#
# Poissons Ratio (x) = 0.15533 0.39655
# Poissons Ratio (y) = 0.14747 0.30090
# Poissons Ratio (z) = 0.23415 0.18714
#
# Static dielectric constant tensor:
#      x y z
#    x 2.182720 -0.151400 0.098020 
#    y -0.151400 2.528870 -0.283080 
#    z 0.098020 -0.283080 2.214830 
# 
# From -- ./inp_files/135468.got.cif
#   From: 2010.05.17/outbox.cif.g08.bks.cpg/sg2_68_cif.got.tgz:135468.got - 2010.06.03 11:33:40.
