data_PCOD9052209
_publ_section_title
;
Structure prediction by ZEFSAII (Michael W. Deem and Ramdas Pophale) SiO2 
 PCOD9052209
Probable space group: P -1
;
_chemical_formula_sum "Si O2"
_cell_formula_units_Z 16
_cell_length_a 18.266839
_cell_length_b 9.642782
_cell_length_c 13.668293
_cell_angle_alpha 39.574461
_cell_angle_beta 152.950503
_cell_angle_gamma 135.302130
_cell_volume 695.053456
_symmetry_space_group_name_H-M "P -1"
_symmetry_group_IT_number 2
_symmetry_cell_setting 'triclinic'
loop_
_space_group_symop_operation_xyz
x,y,z
-x,-y,-z
loop_
_atom_site_type_symbol
_atom_site_label
_atom_site_fract_x
_atom_site_fract_y
_atom_site_fract_z
Si Si1 0.456814 0.441429 0.592807
Si Si2 0.541792 0.744022 0.878152
Si Si3 0.843223 0.864293 0.609297
Si Si4 0.270109 0.801785 0.856693
Si Si5 0.803436 0.064646 0.658671
Si Si6 0.998681 0.490813 0.384351
Si Si7 0.615853 0.809894 0.719986
Si Si8 0.155683 0.041645 0.777079
O O1 0.500000 0.500000 0.500000
O O2 0.268208 0.358223 0.420525
O O3 0.515869 0.649222 0.614395
O O4 0.561907 0.254669 0.865812
O O5 0.373996 0.853658 0.615331
O O6 0.628610 0.709926 0.896359
O O7 0.500000 0.500000 0.000000
O O8 0.665940 0.911383 0.992595
O O9 0.745266 0.051092 0.337946
O O10 0.849587 0.919193 0.701389
O O11 0.022448 0.892723 0.761504
O O12 0.174451 0.573225 0.836069
O O13 0.177079 0.931452 0.757831
O O14 0.917769 0.285254 0.678032
O O15 0.777448 0.922549 0.802689
O O16 0.094524 0.284593 0.576622
O O17 0.000000 0.500000 0.500000
O O18 0.500000 0.000000 0.500000
#
# Coordination Sequence:
#
# PCOD9052209 Si02
#       8
#     2   2   2   2   2   2   2   2
#     4  12  26  47  70  98 138 180 233 282 341 413
#     4  11  24  39  69 101 133 174 229 282 336 402
#     4  11  23  43  72  97 138 179 224 283 340 402
#     4  11  26  42  71 103 134 182 232 278 347 402
#     4  11  21  43  67  99 139 181 221 285 340 406
#     4  11  21  40  70 105 140 171 229 288 336 399
#     4  10  26  43  66  98 135 177 227 279 344 400
#     4  11  24  42  67 105 141 171 231 284 338 402
#
# _framework density 23.019808999999999
#
# number of rings (size 3 to 8) (size 9 to 14) (size 15 to 20)
#    0.000    1.000    5.000    2.625    7.000    2.000 
#    2.250    1.875    0.000    0.000    0.000    0.000 
#    0.000    0.000    0.000    0.000    0.000    0.000 
#
# Total GULP energy -89478.304539 kJ/mol
# GULP energy per Si atom -5592.394034 kJ/mol
# Density = 2.296742 g / cm^3
# Si number density = 23.019809 Si / 1000 Ang^3
#
#
#
# Elastic Constant Matrix: (Units=GPa)
#
#
# Indices 1 2 3 4 5 6 
#
# 1 127.7797 65.9003 13.9714 10.4316 -25.7376 9.7785
# 2 65.9003 156.9745 13.8914 38.0188 -5.9736 14.8297
# 3 13.9714 13.8914 70.3038 18.9477 9.3401 7.5010
# 4 10.4316 38.0188 18.9477 43.9120 -0.4901 5.4111
# 5 -25.7376 -5.9736 9.3401 -0.4901 42.8142 -1.4044
# 6 9.7785 14.8297 7.5010 5.4111 -1.4044 62.9647
#
#
#
# Elastic Compliance Matrix: (Units=1/GPa)
#
#
# Indices 1 2 3 4 5 6 
#
# 1 0.012117 -0.005262 -0.003145 0.003162 0.007260 -0.000378
# 2 -0.005262 0.010505 0.001663 -0.008442 -0.002196 -0.001178
# 3 -0.003145 0.001663 0.017629 -0.008187 -0.005645 -0.001426
# 4 0.003162 -0.008442 -0.008187 0.032931 0.002876 -0.000294
# 5 0.007260 -0.002196 -0.005645 0.002876 0.028694 0.000455
# 6 -0.000378 -0.001178 -0.001426 -0.000294 0.000455 0.016423
#
#
# Mechanical properties :
#
#
# Convention : Reuss Voigt Hill
#
# Bulk Modulus (GPa) = 37.36661 60.28714 48.82688
# Shear Modulus (GPa) = 35.53458 47.35783 41.44621
#
# Velocity S-wave (km/s) = 3.93320 4.54063 4.24778
# Velocity P-wave (km/s) = 6.07407 7.33047 6.73165
#
# Compressibility (1/GPa) = 0.02676186
#
# Stress axis : x y z
#
# Youngs Moduli (GPa) = 82.52999 95.19340 56.72546
#
# Poissons Ratio (x) = 0.50095 0.17838
# Poissons Ratio (y) = 0.43431 -0.09432
# Poissons Ratio (z) = 0.25952 -0.15828
#
# Static dielectric constant tensor:
#      x y z
#    x 1.858800 0.020450 0.008530 
#    y 0.020450 1.847030 -0.004890 
#    z 0.008530 -0.004890 1.996940 
# 
# From -- ./inp_files/184206.got.cif
#   From: 2010.05.17/outbox.cif.g08.bks.cpg/sg2_93_cif.got.tgz:184206.got - 2010.06.03 11:33:40.
