data_PCOD9052864
_publ_section_title
;
Structure prediction by ZEFSAII (Michael W. Deem and Ramdas Pophale) SiO2 
 PCOD9052864
Probable space group: P -1
;
_chemical_formula_sum "Si O2"
_cell_formula_units_Z 16
_cell_length_a 9.053716
_cell_length_b 8.399729
_cell_length_c 14.109544
_cell_angle_alpha 118.213024
_cell_angle_beta 100.918693
_cell_angle_gamma 117.613307
_cell_volume 714.004835
_symmetry_space_group_name_H-M "P -1"
_symmetry_group_IT_number 2
_symmetry_cell_setting 'triclinic'
loop_
_space_group_symop_operation_xyz
x,y,z
-x,-y,-z
loop_
_atom_site_type_symbol
_atom_site_label
_atom_site_fract_x
_atom_site_fract_y
_atom_site_fract_z
Si Si1 0.106803 0.410368 0.732061
Si Si2 0.094039 0.389638 0.944482
Si Si3 0.476056 0.918668 0.867287
Si Si4 0.428607 0.541912 0.409004
Si Si5 0.161421 0.078184 0.124989
Si Si6 0.503739 0.328883 0.883562
Si Si7 0.718191 0.200784 0.541009
Si Si8 0.757302 0.855616 0.381304
O O1 0.159727 0.456676 0.862700
O O2 0.277237 0.646626 0.762411
O O3 0.091354 0.192696 0.628893
O O4 0.893069 0.335669 0.676250
O O5 0.271367 0.501920 0.069877
O O6 0.959683 0.113082 0.860496
O O7 0.000000 0.500000 0.000000
O O8 0.666533 0.936776 0.880593
O O9 0.464024 0.096898 0.855770
O O10 0.500000 0.000000 0.000000
O O11 0.500000 0.500000 0.500000
O O12 0.278835 0.330854 0.258903
O O13 0.313149 0.628090 0.457133
O O14 0.624261 0.725639 0.421898
O O15 0.000000 0.000000 0.000000
O O16 0.374435 0.274596 0.763822
O O17 0.500000 0.500000 0.000000
O O18 0.500000 0.000000 0.500000
O O19 0.787101 0.094418 0.450362
#
# Coordination Sequence:
#
# PCOD9052864 Si02
#       8
#     2   2   2   2   2   2   2   2
#     4  12  25  48  75 108 144 197 245 305 370 446
#     4  12  26  41  72 109 151 191 242 300 375 440
#     4  12  25  46  73 108 155 191 245 308 372 449
#     4  11  27  48  75 107 149 196 255 309 372 442
#     4  12  28  45  76 110 151 195 249 315 375 440
#     4  12  25  45  73 113 150 192 240 305 379 441
#     4  10  27  46  74 100 141 190 248 304 364 436
#     4  11  24  48  76 102 149 194 245 305 369 447
#
# _framework density 22.408812999999999
#
# number of rings (size 3 to 8) (size 9 to 14) (size 15 to 20)
#    0.000    0.500    5.000    1.125   14.000    0.000 
#    0.000    1.250    0.000    0.000    0.000    0.000 
#    0.000    0.000    0.000    0.000    0.000    0.000 
#
# Total GULP energy -89223.950100 kJ/mol
# GULP energy per Si atom -5576.496881 kJ/mol
# Density = 2.235781 g / cm^3
# Si number density = 22.408813 Si / 1000 Ang^3
#
#
#
# Elastic Constant Matrix: (Units=GPa)
#
#
# Indices 1 2 3 4 5 6 
#
# 1 164.3158 36.2642 35.5220 -5.7634 7.0307 -35.9586
# 2 36.2642 87.2863 12.0039 0.0133 -0.5282 -8.7891
# 3 35.5220 12.0039 61.7712 -8.1433 -2.1677 -18.7687
# 4 -5.7634 0.0133 -8.1433 37.8717 -2.9858 4.4466
# 5 7.0307 -0.5282 -2.1677 -2.9858 50.9882 6.1093
# 6 -35.9586 -8.7891 -18.7687 4.4466 6.1093 32.9064
#
#
#
# Elastic Compliance Matrix: (Units=1/GPa)
#
#
# Indices 1 2 3 4 5 6 
#
# 1 0.009095 -0.002632 -0.002283 -0.000284 -0.002404 0.008419
# 2 -0.002632 0.012687 -0.001038 -0.000585 0.000425 -0.000079
# 3 -0.002283 -0.001038 0.020731 0.003132 0.000342 0.008565
# 4 -0.000284 -0.000585 0.003132 0.027530 0.002113 -0.002792
# 5 -0.002404 0.000425 0.000342 0.002113 0.020863 -0.006477
# 6 0.008419 -0.000079 0.008565 -0.002792 -0.006477 0.046033
#
#
# Mechanical properties :
#
#
# Convention : Reuss Voigt Hill
#
# Bulk Modulus (GPa) = 32.67152 53.43928 43.05540
# Shear Modulus (GPa) = 31.43723 39.65882 35.54802
#
# Velocity S-wave (km/s) = 3.74959 4.21145 3.98721
# Velocity P-wave (km/s) = 5.77558 6.89548 6.36022
#
# Compressibility (1/GPa) = 0.03060770
#
# Stress axis : x y z
#
# Youngs Moduli (GPa) = 109.94603 78.81836 48.23757
#
# Poissons Ratio (x) = 0.20742 0.11012
# Poissons Ratio (y) = 0.28934 0.05009
# Poissons Ratio (z) = 0.25098 0.08185
#
# Static dielectric constant tensor:
#      x y z
#    x 1.608130 -0.069880 -0.116750 
#    y -0.069880 1.867450 0.111390 
#    z -0.116750 0.111390 1.882030 
# 
# From -- ./inp_files/495630.got.cif
#   From: 2010.05.17/outbox.cif.g08.bks.cpg/sg2_248_cif.got.tgz:495630.got - 2010.06.03 11:33:40.
