data_PCOD9052958
_publ_section_title
;
Structure prediction by ZEFSAII (Michael W. Deem and Ramdas Pophale) SiO2 
 PCOD9052958
Probable space group: P -1
;
_chemical_formula_sum "Si O2"
_cell_formula_units_Z 16
_cell_length_a 8.630036
_cell_length_b 10.173428
_cell_length_c 10.762917
_cell_angle_alpha 85.066411
_cell_angle_beta 112.740112
_cell_angle_gamma 130.621135
_cell_volume 642.704460
_symmetry_space_group_name_H-M "P -1"
_symmetry_group_IT_number 2
_symmetry_cell_setting 'triclinic'
loop_
_space_group_symop_operation_xyz
x,y,z
-x,-y,-z
loop_
_atom_site_type_symbol
_atom_site_label
_atom_site_fract_x
_atom_site_fract_y
_atom_site_fract_z
Si Si1 0.165074 0.840811 0.659871
Si Si2 0.091032 0.060725 0.282460
Si Si3 0.540929 0.670186 0.441755
Si Si4 0.418845 0.024229 0.099987
Si Si5 0.920818 0.660118 0.017331
Si Si6 0.927983 0.501837 0.776872
Si Si7 0.160764 0.298754 0.665817
Si Si8 0.427060 0.319741 0.143196
O O1 0.436349 0.968277 0.744388
O O2 0.070877 0.912251 0.709585
O O3 0.087400 0.671301 0.725353
O O4 0.030469 0.769032 0.493064
O O5 0.290928 0.157108 0.437253
O O6 0.230796 0.181747 0.196456
O O7 0.961682 0.853650 0.254502
O O8 0.500000 0.500000 0.500000
O O9 0.309309 0.623305 0.356743
O O10 0.669174 0.712822 0.349966
O O11 0.457325 0.200865 0.088695
O O12 0.500000 0.000000 0.000000
O O13 0.153192 0.861484 0.050704
O O14 0.885974 0.558369 0.887721
O O15 0.696885 0.627089 0.969779
O O16 0.027715 0.415401 0.852041
O O17 0.336502 0.507278 0.737593
#
# Coordination Sequence:
#
# PCOD9052958 Si02
#       8
#     2   2   2   2   2   2   2   2
#     4  11  21  44  69 109 146 185 238 298 351 434
#     4  11  22  40  74 111 143 191 237 290 366 438
#     4  11  16  36  69 107 150 194 230 290 355 426
#     4  12  27  47  73  99 139 193 244 308 372 433
#     4  11  24  42  69 100 141 197 240 289 356 433
#     4  11  20  37  71 103 145 190 243 283 356 427
#     4  11  23  40  75 111 145 189 241 296 368 433
#     4  12  24  51  69 101 152 187 243 310 362 427
#
# _framework density 24.894801999999999
#
# number of rings (size 3 to 8) (size 9 to 14) (size 15 to 20)
#    0.000    0.750    7.500    1.875    3.500    0.500 
#    4.500    1.250    0.000    0.000    0.000    0.000 
#    0.000    0.000    0.000    0.000    0.000    0.000 
#
# Total GULP energy -89625.812442 kJ/mol
# GULP energy per Si atom -5601.613278 kJ/mol
# Density = 2.483814 g / cm^3
# Si number density = 24.894802 Si / 1000 Ang^3
#
#
#
# Elastic Constant Matrix: (Units=GPa)
#
#
# Indices 1 2 3 4 5 6 
#
# 1 130.2798 42.7777 63.9958 12.8366 18.4735 -14.0010
# 2 42.7777 151.6776 41.0355 10.2279 2.4797 -7.9580
# 3 63.9958 41.0355 97.3060 16.2693 14.6553 -15.6485
# 4 12.8366 10.2279 16.2693 28.6917 -2.7608 -0.6268
# 5 18.4735 2.4797 14.6553 -2.7608 28.1825 -3.1538
# 6 -14.0010 -7.9580 -15.6485 -0.6268 -3.1538 46.0014
#
#
#
# Elastic Compliance Matrix: (Units=1/GPa)
#
#
# Indices 1 2 3 4 5 6 
#
# 1 0.012163 -0.001503 -0.006196 -0.001822 -0.004686 0.000988
# 2 -0.001503 0.007676 -0.002349 -0.000585 0.001492 0.000166
# 3 -0.006196 -0.002349 0.017838 -0.006944 -0.005317 0.003317
# 4 -0.001822 -0.000585 -0.006944 0.040603 0.008625 -0.001873
# 5 -0.004686 0.001492 -0.005317 0.008625 0.042036 0.000023
# 6 0.000988 0.000166 0.003317 -0.001873 0.000023 0.023172
#
#
# Mechanical properties :
#
#
# Convention : Reuss Voigt Hill
#
# Bulk Modulus (GPa) = 56.88089 74.98684 65.93386
# Shear Modulus (GPa) = 29.50807 36.00542 32.75674
#
# Velocity S-wave (km/s) = 3.44657 3.80715 3.63134
# Velocity P-wave (km/s) = 6.22387 7.03653 6.64264
#
# Compressibility (1/GPa) = 0.01758060
#
# Stress axis : x y z
#
# Youngs Moduli (GPa) = 82.21516 130.27587 56.06030
#
# Poissons Ratio (x) = 0.19576 0.34737
# Poissons Ratio (y) = 0.12354 0.13170
# Poissons Ratio (z) = 0.50944 0.30604
#
# Static dielectric constant tensor:
#      x y z
#    x 1.938670 0.007640 0.004870 
#    y 0.007640 2.030450 -0.009780 
#    z 0.004870 -0.009780 2.032920 
# 
# From -- ./inp_files/501961.got.cif
#   From: 2010.05.17/outbox.cif.g08.bks.cpg/sg2_251_cif.got.tgz:501961.got - 2010.06.03 11:33:40.
