data_PCOD9052639
_publ_section_title
;
Structure prediction by ZEFSAII (Michael W. Deem and Ramdas Pophale) SiO2 
 PCOD9052639
Probable space group: P -1
;
_chemical_formula_sum "Si O2"
_cell_formula_units_Z 13
_cell_length_a 9.422110
_cell_length_b 9.611863
_cell_length_c 12.370241
_cell_angle_alpha 99.099700
_cell_angle_beta 66.890236
_cell_angle_gamma 43.655427
_cell_volume 510.512144
_symmetry_space_group_name_H-M "P -1"
_symmetry_group_IT_number 2
_symmetry_cell_setting 'triclinic'
loop_
_space_group_symop_operation_xyz
x,y,z
-x,-y,-z
loop_
_atom_site_type_symbol
_atom_site_label
_atom_site_fract_x
_atom_site_fract_y
_atom_site_fract_z
Si Si1 0.235973 0.280223 0.804124
Si Si2 0.091182 0.980912 0.588619
Si Si3 0.132579 0.333898 0.246562
Si Si4 0.562632 0.617196 0.800334
Si Si5 0.500000 0.500000 0.000000
Si Si6 0.534106 0.740318 0.596833
Si Si7 0.622199 0.135960 0.822893
O O1 0.070396 0.464685 0.769798
O O2 0.524260 0.150795 0.737982
O O3 0.358617 0.025137 0.714018
O O4 0.000000 0.500000 0.000000
O O5 0.400975 0.777577 0.530623
O O6 0.000000 0.000000 0.500000
O O7 0.875188 0.288376 0.700141
O O8 0.926828 0.990345 0.709896
O O9 0.888872 0.495685 0.435705
O O10 0.360145 0.280655 0.198433
O O11 0.325401 0.039657 0.141147
O O12 0.497906 0.658873 0.696930
O O13 0.352819 0.706375 0.962478
O O14 0.611708 0.562560 0.026775
#
# Coordination Sequence:
#
# PCOD9052639 Si02
#       7
#     2   2   2   2   1   2   2
#     4  12  27  44  74 113 147 200 258 308 372 455
#     4  11  25  45  70 106 155 196 242 316 384 445
#     4  12  25  45  78 110 148 197 256 320 370 446
#     4  11  24  45  75 103 152 200 253 312 377 450
#     4  10  26  48  68 106 158 198 238 312 386 452
#     4  12  26  45  78 115 149 199 260 312 377 453
#     4  11  26  45  72 105 147 198 248 306 380 446
#
# _framework density 25.464625999999999
#
# number of rings (size 3 to 8) (size 9 to 14) (size 15 to 20)
#    0.000    0.615    3.077    3.692    6.462    6.154 
#    0.000    3.846    0.000    0.000    0.000    0.000 
#    0.000    0.000    0.000    0.000    0.000    0.000 
#
# Total GULP energy -72420.505428 kJ/mol
# GULP energy per Si atom -5570.808110 kJ/mol
# Density = 2.540667 g / cm^3
# Si number density = 25.464626 Si / 1000 Ang^3
#
#
#
# Elastic Constant Matrix: (Units=GPa)
#
#
# Indices 1 2 3 4 5 6 
#
# 1 137.0555 58.2330 27.6043 -0.1297 14.6364 11.6376
# 2 58.2330 166.8444 26.1091 -34.3017 11.3076 17.9790
# 3 27.6043 26.1091 114.0555 -24.2858 9.7936 -0.6306
# 4 -0.1297 -34.3017 -24.2858 47.9471 -7.9437 9.6317
# 5 14.6364 11.3076 9.7936 -7.9437 29.5232 -9.4145
# 6 11.6376 17.9790 -0.6306 9.6317 -9.4145 58.9856
#
#
#
# Elastic Compliance Matrix: (Units=1/GPa)
#
#
# Indices 1 2 3 4 5 6 
#
# 1 0.009724 -0.003531 -0.002057 -0.004056 -0.004153 -0.000865
# 2 -0.003531 0.009081 0.000375 0.007195 -0.001001 -0.003402
# 3 -0.002057 0.000375 0.010458 0.005479 -0.001344 -0.000706
# 4 -0.004056 0.007195 0.005479 0.030550 0.003837 -0.005710
# 5 -0.004153 -0.001001 -0.001344 0.003837 0.039981 0.006865
# 6 -0.000865 -0.003402 -0.000706 -0.005710 0.006865 0.020181
#
#
# Mechanical properties :
#
#
# Convention : Reuss Voigt Hill
#
# Bulk Modulus (GPa) = 53.08975 71.31648 62.20311
# Shear Modulus (GPa) = 36.58151 47.69177 42.13664
#
# Velocity S-wave (km/s) = 3.79431 4.33235 4.07223
# Velocity P-wave (km/s) = 6.33162 7.28647 6.82576
#
# Compressibility (1/GPa) = 0.01883603
#
# Stress axis : x y z
#
# Youngs Moduli (GPa) = 102.83680 110.12005 95.62287
#
# Poissons Ratio (x) = 0.38888 0.19669
# Poissons Ratio (y) = 0.36316 -0.03585
# Poissons Ratio (z) = 0.21153 -0.04129
#
# Static dielectric constant tensor:
#      x y z
#    x 1.996540 -0.041870 -0.017920 
#    y -0.041870 1.952220 0.023500 
#    z -0.017920 0.023500 2.635320 
# 
# From -- ./inp_files/177309.got.cif
#   From: 2010.05.17/outbox.cif.g08.bks.cpg/sg2_89_cif.got.tgz:177309.got - 2010.06.03 11:33:40.
