data_PCOD9052417
_publ_section_title
;
Structure prediction by ZEFSAII (Michael W. Deem and Ramdas Pophale) SiO2 
 PCOD9052417
Probable space group: P -1
;
_chemical_formula_sum "Si O2"
_cell_formula_units_Z 16
_cell_length_a 8.315369
_cell_length_b 17.991194
_cell_length_c 11.951430
_cell_angle_alpha 143.057321
_cell_angle_beta 43.158542
_cell_angle_gamma 139.188384
_cell_volume 666.090538
_symmetry_space_group_name_H-M "P -1"
_symmetry_group_IT_number 2
_symmetry_cell_setting 'triclinic'
loop_
_space_group_symop_operation_xyz
x,y,z
-x,-y,-z
loop_
_atom_site_type_symbol
_atom_site_label
_atom_site_fract_x
_atom_site_fract_y
_atom_site_fract_z
Si Si1 0.004509 0.245858 0.611633
Si Si2 0.606941 0.708160 0.693687
Si Si3 0.103196 0.885847 0.802040
Si Si4 0.184284 0.785927 0.881066
Si Si5 0.593748 0.210253 0.597004
Si Si6 0.238047 0.496437 0.181390
Si Si7 0.011467 0.038220 0.670551
Si Si8 0.879394 0.391479 0.028152
O O1 0.269714 0.349756 0.539554
O O2 0.754619 0.241634 0.667394
O O3 0.020659 0.100890 0.419297
O O4 0.955771 0.274036 0.798328
O O5 0.432350 0.762811 0.770594
O O6 0.409209 0.653946 0.834728
O O7 0.874275 0.775494 0.710766
O O8 0.177358 0.850102 0.842113
O O9 0.356990 0.911305 0.631570
O O10 0.000000 0.000000 0.000000
O O11 0.930556 0.637333 0.821585
O O12 0.170113 0.894394 0.109204
O O13 0.695748 0.346835 0.631683
O O14 0.291879 0.155569 0.700274
O O15 0.045360 0.462302 0.135263
O O16 0.500000 0.500000 0.000000
O O17 0.000000 0.000000 0.500000
O O18 0.000000 0.500000 0.000000
#
# Coordination Sequence:
#
# PCOD9052417 Si02
#       8
#     2   2   2   2   2   2   2   2
#     4  11  25  46  72 104 140 193 235 305 365 420
#     4  10  26  46  68 110 143 182 249 291 361 434
#     4  11  27  45  72 107 142 194 236 300 371 424
#     4  11  25  46  73 101 146 190 230 308 359 425
#     4  11  25  46  69 103 144 181 248 297 352 449
#     4  11  23  44  68 105 140 185 244 288 366 433
#     4  12  26  43  72 105 137 188 243 296 371 431
#     4  11  24  44  74  99 139 191 234 294 358 428
#
# _framework density 24.020757
#
# number of rings (size 3 to 8) (size 9 to 14) (size 15 to 20)
#    0.000    1.000    2.500    3.375    8.750    2.000 
#    2.250    0.000    0.000    0.000    0.000    0.000 
#    0.000    0.000    0.000    0.000    0.000    0.000 
#
# Total GULP energy -89109.414036 kJ/mol
# GULP energy per Si atom -5569.338377 kJ/mol
# Density = 2.396608 g / cm^3
# Si number density = 24.020757 Si / 1000 Ang^3
#
#
#
# Elastic Constant Matrix: (Units=GPa)
#
#
# Indices 1 2 3 4 5 6 
#
# 1 75.4915 -3.8048 28.9908 -18.3600 -21.8836 -8.1576
# 2 -3.8048 45.2109 32.0565 -8.5670 -5.8695 -1.2127
# 3 28.9908 32.0565 69.1048 7.6181 7.6320 3.6482
# 4 -18.3600 -8.5670 7.6181 41.3662 -8.3246 -4.3076
# 5 -21.8836 -5.8695 7.6320 -8.3246 23.2342 -12.0281
# 6 -8.1576 -1.2127 3.6482 -4.3076 -12.0281 34.7975
#
#
#
# Elastic Compliance Matrix: (Units=1/GPa)
#
#
# Indices 1 2 3 4 5 6 
#
# 1 -0.003567 -0.015339 0.013166 -0.012973 -0.022488 -0.012130
# 2 -0.015339 0.008911 0.007616 -0.013465 -0.027402 -0.015222
# 3 0.013166 0.007616 0.000110 0.014307 0.026869 0.014399
# 4 -0.012973 -0.013465 0.014307 0.006763 -0.024429 -0.012618
# 5 -0.022488 -0.027402 0.026869 -0.024429 -0.010826 -0.015810
# 6 -0.012130 -0.015222 0.014399 -0.012618 -0.015810 0.016827
#
#
# Mechanical properties :
#
#
# Convention : Reuss Voigt Hill
#
# Bulk Modulus (GPa) = 61.20261 33.81026 47.50643
# Shear Modulus (GPa) = 391.33860 28.71721 210.02791
#
# Velocity S-wave (km/s) = 12.77774 3.46138 9.36087
# Velocity P-wave (km/s) = 15.59578 5.48460 11.68994
#
# Compressibility (1/GPa) = 0.01633917
#
# Stress axis : x y z
#
# Youngs Moduli (GPa) = -280.31745 112.22647 9111.21199
#
# Poissons Ratio (x) = 1.72140 -119.95857
# Poissons Ratio (y) = -4.29969 -69.38854
# Poissons Ratio (z) = 3.69067 -0.85469
#
# Static dielectric constant tensor:
#      x y z
#    x 1.897510 -0.218740 0.132790 
#    y -0.218740 2.012430 0.136710 
#    z 0.132790 0.136710 1.959540 
# 
# From -- ./inp_files/403316.got.cif
#   From: 2010.05.17/outbox.cif.g08.bks.cpg/sg2_202_cif.got.tgz:403316.got - 2010.06.03 11:33:40.
