data_PCOD9052575
_publ_section_title
;
Structure prediction by ZEFSAII (Michael W. Deem and Ramdas Pophale) SiO2 
 PCOD9052575
Probable space group: P -1
;
_chemical_formula_sum "Si O2"
_cell_formula_units_Z 14
_cell_length_a 13.187978
_cell_length_b 4.883710
_cell_length_c 8.992967
_cell_angle_alpha 101.468050
_cell_angle_beta 88.644320
_cell_angle_gamma 88.179295
_cell_volume 567.087701
_symmetry_space_group_name_H-M "P -1"
_symmetry_group_IT_number 2
_symmetry_cell_setting 'triclinic'
loop_
_space_group_symop_operation_xyz
x,y,z
-x,-y,-z
loop_
_atom_site_type_symbol
_atom_site_label
_atom_site_fract_x
_atom_site_fract_y
_atom_site_fract_z
Si Si1 0.085736 0.535557 0.121869
Si Si2 0.613293 0.892395 0.431366
Si Si3 0.794484 0.997521 0.965030
Si Si4 0.062702 0.344470 0.611180
Si Si5 0.502645 0.519918 0.179824
Si Si6 0.617637 0.939357 0.751646
Si Si7 0.802999 0.132329 0.322287
O O1 0.026472 0.692149 0.270627
O O2 0.124978 0.227334 0.129651
O O3 0.000000 0.500000 0.000000
O O4 0.176364 0.703197 0.066770
O O5 0.594323 0.660904 0.280065
O O6 0.658303 0.802895 0.582217
O O7 0.500000 0.000000 0.500000
O O8 0.689630 0.114294 0.388098
O O9 0.801826 0.994944 0.142328
O O10 0.688666 0.918368 0.889870
O O11 0.148264 0.569305 0.670265
O O12 0.000000 0.500000 0.500000
O O13 0.125818 0.051092 0.586167
O O14 0.483125 0.218613 0.215915
O O15 0.407493 0.733981 0.240683
O O16 0.500000 0.500000 0.000000
#
# Coordination Sequence:
#
# PCOD9052575 Si02
#       7
#     2   2   2   2   2   2   2
#     4  12  23  45  69  98 143 179 226 289 346 412
#     4  10  26  47  71 102 144 185 236 294 354 411
#     4  12  24  42  71 103 136 182 234 281 346 422
#     4  12  28  44  70 104 143 180 232 286 350 415
#     4  11  23  45  70  97 136 178 230 291 348 410
#     4  11  25  42  68 102 133 179 231 285 350 413
#     4  12  25  46  70 102 139 186 233 287 347 419
#
# _framework density 24.687539000000001
#
# number of rings (size 3 to 8) (size 9 to 14) (size 15 to 20)
#    0.000    0.571    2.857    4.286    4.000    6.857 
#    0.000    0.000    0.000    0.000    0.000    0.000 
#    0.000    0.000    0.000    0.000    0.000    0.000 
#
# Total GULP energy -78245.245151 kJ/mol
# GULP energy per Si atom -5588.946082 kJ/mol
# Density = 2.463135 g / cm^3
# Si number density = 24.687539 Si / 1000 Ang^3
#
#
#
# Elastic Constant Matrix: (Units=GPa)
#
#
# Indices 1 2 3 4 5 6 
#
# 1 59.9838 10.8164 34.7720 1.2165 7.2822 9.6863
# 2 10.8164 96.4654 21.8875 -5.9388 4.5532 14.6114
# 3 34.7720 21.8875 110.7840 -7.8774 5.7212 26.9357
# 4 1.2165 -5.9388 -7.8774 36.0163 6.9194 2.7794
# 5 7.2822 4.5532 5.7212 6.9194 42.3120 -4.2632
# 6 9.6863 14.6114 26.9357 2.7794 -4.2632 42.8649
#
#
#
# Elastic Compliance Matrix: (Units=1/GPa)
#
#
# Indices 1 2 3 4 5 6 
#
# 1 0.020862 -0.000815 -0.006218 -0.001676 -0.002455 -0.000665
# 2 -0.000815 0.011408 -0.000908 0.002301 -0.001688 -0.003451
# 3 -0.006218 -0.000908 0.013252 0.003882 -0.001970 -0.007060
# 4 -0.001676 0.002301 0.003882 0.030630 -0.006040 -0.005432
# 5 -0.002455 -0.001688 -0.001970 -0.006040 0.026031 0.005349
# 6 -0.000665 -0.003451 -0.007060 -0.005432 0.005349 0.029977
#
#
# Mechanical properties :
#
#
# Convention : Reuss Voigt Hill
#
# Bulk Modulus (GPa) = 33.73834 44.68723 39.21278
# Shear Modulus (GPa) = 31.66133 37.55580 34.60857
#
# Velocity S-wave (km/s) = 3.58506 3.90455 3.74821
# Velocity P-wave (km/s) = 5.55272 6.20224 5.88644
#
# Compressibility (1/GPa) = 0.02963987
#
# Stress axis : x y z
#
# Youngs Moduli (GPa) = 47.93444 87.65865 75.46021
#
# Poissons Ratio (x) = 0.07144 0.46919
# Poissons Ratio (y) = 0.03907 0.06853
# Poissons Ratio (z) = 0.29804 0.07961
#
# Static dielectric constant tensor:
#      x y z
#    x 1.975080 -0.045290 0.068280 
#    y -0.045290 2.090270 -0.143660 
#    z 0.068280 -0.143660 2.124870 
# 
# From -- ./inp_files/27869.got.cif
#   From: 2010.05.17/outbox.cif.g08.bks.cpg/sg2_14_cif.got.tgz:27869.got - 2010.06.03 11:33:40.
