data_PCOD9052586
_publ_section_title
;
Structure prediction by ZEFSAII (Michael W. Deem and Ramdas Pophale) SiO2 
 PCOD9052586
Probable space group: P -1
;
_chemical_formula_sum "Si O2"
_cell_formula_units_Z 16
_cell_length_a 16.232153
_cell_length_b 8.245842
_cell_length_c 8.879770
_cell_angle_alpha 84.248592
_cell_angle_beta 89.972696
_cell_angle_gamma 146.181815
_cell_volume 650.593871
_symmetry_space_group_name_H-M "P -1"
_symmetry_group_IT_number 2
_symmetry_cell_setting 'triclinic'
loop_
_space_group_symop_operation_xyz
x,y,z
-x,-y,-z
loop_
_atom_site_type_symbol
_atom_site_label
_atom_site_fract_x
_atom_site_fract_y
_atom_site_fract_z
Si Si1 0.354358 0.762512 0.927005
Si Si2 0.803145 0.200513 0.130165
Si Si3 0.246349 0.378061 0.222913
Si Si4 0.094485 0.900588 0.050919
Si Si5 0.566503 0.612767 0.659632
Si Si6 0.167689 0.752063 0.537092
Si Si7 0.705404 0.625336 0.238767
Si Si8 0.321099 0.664088 0.500868
O O1 0.336867 0.915125 0.857528
O O2 0.362433 0.652343 0.802064
O O3 0.242913 0.491829 0.068379
O O4 0.500000 0.000000 0.000000
O O5 0.803815 0.089949 0.992311
O O6 0.823347 0.157744 0.300622
O O7 0.934436 0.552065 0.081234
O O8 0.374462 0.455292 0.258043
O O9 0.268697 0.545216 0.340684
O O10 0.120267 0.040751 0.192183
O O11 0.148074 0.092153 0.886223
O O12 0.500000 0.500000 0.500000
O O13 0.427684 0.463117 0.764032
O O14 0.712577 0.967262 0.601111
O O15 0.222840 0.655403 0.558797
O O16 0.000000 0.500000 0.500000
O O17 0.728591 0.595781 0.407875
O O18 0.500000 0.000000 0.500000
#
# Coordination Sequence:
#
# PCOD9052586 Si02
#       8
#     2   2   2   2   2   2   2   2
#     4  11  26  41  71 105 143 196 248 299 366 448
#     4  11  25  50  74  98 152 199 245 303 379 451
#     4  11  26  42  69 113 142 188 251 307 355 447
#     4  10  26  47  72 103 145 193 244 305 378 433
#     4  12  24  43  73 105 149 189 248 310 371 433
#     4  12  27  47  77 112 150 196 249 310 384 450
#     4  11  23  43  72 105 141 193 243 311 362 437
#     4  12  23  47  76 110 151 197 250 307 372 442
#
# _framework density 24.592917
#
# number of rings (size 3 to 8) (size 9 to 14) (size 15 to 20)
#    0.000    0.750    3.750    2.250    5.250    5.000 
#    2.250    3.750    0.000    0.000    0.000    0.000 
#    0.000    0.000    0.000    0.000    0.000    0.000 
#
# Total GULP energy -89124.339624 kJ/mol
# GULP energy per Si atom -5570.271227 kJ/mol
# Density = 2.453694 g / cm^3
# Si number density = 24.592917 Si / 1000 Ang^3
#
#
#
# Elastic Constant Matrix: (Units=GPa)
#
#
# Indices 1 2 3 4 5 6 
#
# 1 87.4365 -1.0733 -3.7312 5.3034 8.9925 5.2754
# 2 -1.0733 116.0609 7.6383 -22.0599 -4.5589 1.6078
# 3 -3.7312 7.6383 67.3831 -9.8787 1.5585 5.5155
# 4 5.3034 -22.0599 -9.8787 46.0398 -10.6055 -5.0696
# 5 8.9925 -4.5589 1.5585 -10.6055 31.1390 2.8996
# 6 5.2754 1.6078 5.5155 -5.0696 2.8996 31.1787
#
#
#
# Elastic Compliance Matrix: (Units=1/GPa)
#
#
# Indices 1 2 3 4 5 6 
#
# 1 0.012212 -0.000606 0.000613 -0.002821 -0.004403 -0.002193
# 2 -0.000606 0.009821 -0.000440 0.005512 0.003489 0.000246
# 3 0.000613 -0.000440 0.015530 0.002827 0.000166 -0.002384
# 4 -0.002821 0.005512 0.002827 0.028131 0.010757 0.003267
# 5 -0.004403 0.003489 0.000166 0.010757 0.037665 -0.001218
# 6 -0.002193 0.000246 -0.002384 0.003267 -0.001218 0.033498
#
#
# Mechanical properties :
#
#
# Convention : Reuss Voigt Hill
#
# Bulk Modulus (GPa) = 27.25070 30.72756 28.98913
# Shear Modulus (GPa) = 33.34346 39.54128 36.44237
#
# Velocity S-wave (km/s) = 3.68613 4.01413 3.85362
# Velocity P-wave (km/s) = 5.40570 5.83146 5.62261
#
# Compressibility (1/GPa) = 0.03669630
#
# Stress axis : x y z
#
# Youngs Moduli (GPa) = 81.88805 101.82449 64.39150
#
# Poissons Ratio (x) = 0.06173 -0.03945
# Poissons Ratio (y) = 0.04964 0.02830
# Poissons Ratio (z) = -0.05016 0.04476
#
# Static dielectric constant tensor:
#      x y z
#    x 1.997380 0.032080 -0.125260 
#    y 0.032080 1.951340 0.027300 
#    z -0.125260 0.027300 1.831980 
# 
# From -- ./inp_files/329041.got.cif
#   From: 2010.05.17/outbox.cif.g08.bks.cpg/sg2_165_cif.got.tgz:329041.got - 2010.06.03 11:33:40.
