data_PCOD9052731
_publ_section_title
;
Structure prediction by ZEFSAII (Michael W. Deem and Ramdas Pophale) SiO2 
 PCOD9052731
Probable space group: P -1
;
_chemical_formula_sum "Si O2"
_cell_formula_units_Z 12
_cell_length_a 15.674685
_cell_length_b 7.981523
_cell_length_c 10.925488
_cell_angle_alpha 58.063608
_cell_angle_beta 23.684050
_cell_angle_gamma 60.898594
_cell_volume 465.944246
_symmetry_space_group_name_H-M "P -1"
_symmetry_group_IT_number 2
_symmetry_cell_setting 'triclinic'
loop_
_space_group_symop_operation_xyz
x,y,z
-x,-y,-z
loop_
_atom_site_type_symbol
_atom_site_label
_atom_site_fract_x
_atom_site_fract_y
_atom_site_fract_z
Si Si1 0.356141 0.092259 0.426685
Si Si2 0.057970 0.637883 0.725273
Si Si3 0.675554 0.670021 0.373708
Si Si4 0.065902 0.279085 0.536344
Si Si5 0.696696 0.007720 0.833454
Si Si6 0.210958 0.725756 0.881564
O O1 0.364410 0.200746 0.503129
O O2 0.258328 0.240981 0.396241
O O3 0.208948 0.902116 0.718011
O O4 0.580259 0.009925 0.115276
O O5 0.237132 0.542496 0.614320
O O6 0.179818 0.789008 0.422835
O O7 0.871996 0.742632 0.006092
O O8 0.940033 0.454132 0.887852
O O9 0.453295 0.657788 0.602245
O O10 0.000000 0.500000 0.500000
O O11 0.145600 0.162220 0.356912
O O12 0.870157 0.204822 0.905193
O O13 0.500000 0.000000 0.000000
#
# Coordination Sequence:
#
# PCOD9052731 Si02
#       6
#     2   2   2   2   2   2
#     4  11  25  51  79 115 162 207 260 323 388 463
#     4  11  26  48  79 116 163 202 261 322 393 459
#     4  11  26  45  81 115 160 203 264 314 390 459
#     4  11  26  48  79 113 156 204 260 322 388 461
#     4  10  26  48  79 110 159 207 255 321 396 458
#     4  12  26  48  83 116 157 206 265 318 390 464
#
# _framework density 25.754156999999999
#
# number of rings (size 3 to 8) (size 9 to 14) (size 15 to 20)
#    0.000    1.000    1.667    2.500   14.000    3.333 
#    0.000    2.500    0.000    0.000    0.000    0.000 
#    0.000    0.000    0.000    0.000    0.000    0.000 
#
# Total GULP energy -67224.342431 kJ/mol
# GULP energy per Si atom -5602.028536 kJ/mol
# Density = 2.569554 g / cm^3
# Si number density = 25.754157 Si / 1000 Ang^3
#
#
#
# Elastic Constant Matrix: (Units=GPa)
#
#
# Indices 1 2 3 4 5 6 
#
# 1 84.9673 52.2143 32.4952 11.1694 -7.9733 -9.3934
# 2 52.2143 164.7573 80.3177 4.2129 6.0168 -5.3684
# 3 32.4952 80.3177 193.6776 22.6061 34.1275 4.4246
# 4 11.1694 4.2129 22.6061 53.7036 2.2641 3.9649
# 5 -7.9733 6.0168 34.1275 2.2641 50.2147 20.4830
# 6 -9.3934 -5.3684 4.4246 3.9649 20.4830 51.6848
#
#
#
# Elastic Compliance Matrix: (Units=1/GPa)
#
#
# Indices 1 2 3 4 5 6 
#
# 1 0.015755 -0.004467 -0.001095 -0.002708 0.003342 0.001376
# 2 -0.004467 0.009010 -0.003217 0.001553 0.000254 0.000180
# 3 -0.001095 -0.003217 0.007951 -0.002721 -0.005558 0.001197
# 4 -0.002708 0.001553 -0.002721 0.020314 0.001184 -0.002126
# 5 0.003342 0.000254 -0.005558 0.001184 0.028297 -0.010196
# 6 0.001376 0.000180 0.001197 -0.002126 -0.010196 0.023718
#
#
# Mechanical properties :
#
#
# Convention : Reuss Voigt Hill
#
# Bulk Modulus (GPa) = 65.97556 85.93963 75.95760
# Shear Modulus (GPa) = 39.16744 49.67896 44.42320
#
# Velocity S-wave (km/s) = 3.90400 4.39677 4.15769
# Velocity P-wave (km/s) = 6.78194 7.69526 7.25299
#
# Compressibility (1/GPa) = 0.01515713
#
# Stress axis : x y z
#
# Youngs Moduli (GPa) = 63.47234 110.98179 125.77564
#
# Poissons Ratio (x) = 0.49577 0.13774
# Poissons Ratio (y) = 0.28354 0.40466
# Poissons Ratio (z) = 0.06951 0.35706
#
# Static dielectric constant tensor:
#      x y z
#    x 2.054530 0.011630 0.022510 
#    y 0.011630 2.041290 0.035540 
#    z 0.022510 0.035540 2.003200 
# 
# From -- ./inp_files/461847.got.cif
#   From: 2010.05.17/outbox.cif.g08.bks.cpg/sg2_231_cif.got.tgz:461847.got - 2010.06.03 11:33:40.
