data_PCOD9052005
_publ_section_title
;
Structure prediction by ZEFSAII (Michael W. Deem and Ramdas Pophale) SiO2 
 PCOD9052005
Probable space group: P -1
;
_chemical_formula_sum "Si O2"
_cell_formula_units_Z 14
_cell_length_a 16.201100
_cell_length_b 4.849182
_cell_length_c 9.461077
_cell_angle_alpha 68.329086
_cell_angle_beta 55.549243
_cell_angle_gamma 91.777938
_cell_volume 540.962659
_symmetry_space_group_name_H-M "P -1"
_symmetry_group_IT_number 2
_symmetry_cell_setting 'triclinic'
loop_
_space_group_symop_operation_xyz
x,y,z
-x,-y,-z
loop_
_atom_site_type_symbol
_atom_site_label
_atom_site_fract_x
_atom_site_fract_y
_atom_site_fract_z
Si Si1 0.708590 0.437513 0.122219
Si Si2 0.943704 0.521803 0.404455
Si Si3 0.425033 0.700286 0.988405
Si Si4 0.616277 0.724703 0.386875
Si Si5 0.370935 0.806641 0.330809
Si Si6 0.180005 0.043408 0.559495
Si Si7 0.086129 0.705213 0.986411
O O1 0.663898 0.459951 0.006708
O O2 0.689351 0.702290 0.188123
O O3 0.829348 0.453718 0.009294
O O4 0.638820 0.094354 0.316933
O O5 0.905004 0.202231 0.413469
O O6 0.000000 0.500000 0.500000
O O7 0.842133 0.633534 0.507607
O O8 0.024166 0.763313 0.172554
O O9 0.510257 0.994099 0.777485
O O10 0.500000 0.500000 0.000000
O O11 0.378947 0.798215 0.155702
O O12 0.500000 0.500000 0.500000
O O13 0.648599 0.533706 0.519081
O O14 0.286957 0.972062 0.429717
O O15 0.152913 0.971521 0.765107
O O16 0.000000 0.500000 0.000000
#
# Coordination Sequence:
#
# PCOD9052005 Si02
#       7
#     2   2   2   2   2   2   2
#     4  12  27  45  75 107 144 198 246 305 370 437
#     4  11  26  47  71 106 140 186 242 304 363 435
#     4  11  27  46  71 108 154 198 239 306 373 450
#     4  12  25  46  73 109 146 189 252 302 361 446
#     4  11  26  45  70 108 149 193 245 302 372 447
#     4  11  25  45  73 101 140 190 237 299 369 428
#     4  10  25  49  74 107 146 188 251 305 367 428
#
# _framework density 25.87979
#
# number of rings (size 3 to 8) (size 9 to 14) (size 15 to 20)
#    0.000    0.857    2.857    2.143   10.000    2.286 
#    0.000    0.000    0.000    0.000    0.000    0.000 
#    0.000    0.000    0.000    0.000    0.000    0.000 
#
# Total GULP energy -78476.729107 kJ/mol
# GULP energy per Si atom -5605.480650 kJ/mol
# Density = 2.582089 g / cm^3
# Si number density = 25.879790 Si / 1000 Ang^3
#
#
#
# Elastic Constant Matrix: (Units=GPa)
#
#
# Indices 1 2 3 4 5 6 
#
# 1 181.7305 21.0800 60.0773 18.6910 11.7261 -4.7263
# 2 21.0800 96.9580 28.2603 9.7423 2.5606 -5.5207
# 3 60.0773 28.2603 128.9246 23.3066 -4.8588 -5.2273
# 4 18.6910 9.7423 23.3066 40.5519 4.1193 -6.3382
# 5 11.7261 2.5606 -4.8588 4.1193 51.8171 4.3039
# 6 -4.7263 -5.5207 -5.2273 -6.3382 4.3039 44.3583
#
#
#
# Elastic Compliance Matrix: (Units=1/GPa)
#
#
# Indices 1 2 3 4 5 6 
#
# 1 0.006745 -0.000447 -0.002896 -0.001112 -0.001715 0.000329
# 2 -0.000447 0.011187 -0.002030 -0.001092 -0.000639 0.001011
# 3 -0.002896 -0.002030 0.010419 -0.004405 0.002097 -0.000166
# 4 -0.001112 -0.001092 -0.004405 0.028803 -0.002697 0.003604
# 5 -0.001715 -0.000639 0.002097 -0.002697 0.020326 -0.002373
# 6 0.000329 0.001011 -0.000166 0.003604 -0.002373 0.023430
#
#
# Mechanical properties :
#
#
# Convention : Reuss Voigt Hill
#
# Bulk Modulus (GPa) = 56.79452 69.60538 63.19995
# Shear Modulus (GPa) = 42.54441 47.22516 44.88478
#
# Velocity S-wave (km/s) = 4.05893 4.27639 4.16908
# Velocity P-wave (km/s) = 6.63021 7.16501 6.90279
#
# Compressibility (1/GPa) = 0.01760733
#
# Stress axis : x y z
#
# Youngs Moduli (GPa) = 148.25190 89.39228 95.97607
#
# Poissons Ratio (x) = 0.03994 0.27790
# Poissons Ratio (y) = 0.06624 0.19479
# Poissons Ratio (z) = 0.42927 0.18143
#
# Static dielectric constant tensor:
#      x y z
#    x 2.073590 0.047930 -0.041730 
#    y 0.047930 2.048220 -0.106840 
#    z -0.041730 -0.106840 2.078300 
# 
# From -- ./inp_files/94739.got.cif
#   From: 2010.05.17/outbox.cif.g08.bks.cpg/sg2_48_cif.got.tgz:94739.got - 2010.06.03 11:33:40.
