data_PCOD9052706
_publ_section_title
;
Structure prediction by ZEFSAII (Michael W. Deem and Ramdas Pophale) SiO2 
 PCOD9052706
Probable space group: P -1
;
_chemical_formula_sum "Si O2"
_cell_formula_units_Z 13
_cell_length_a 11.822544
_cell_length_b 9.113632
_cell_length_c 9.332801
_cell_angle_alpha 125.193822
_cell_angle_beta 81.968743
_cell_angle_gamma 134.682021
_cell_volume 519.698525
_symmetry_space_group_name_H-M "P -1"
_symmetry_group_IT_number 2
_symmetry_cell_setting 'triclinic'
loop_
_space_group_symop_operation_xyz
x,y,z
-x,-y,-z
loop_
_atom_site_type_symbol
_atom_site_label
_atom_site_fract_x
_atom_site_fract_y
_atom_site_fract_z
Si Si1 0.846769 0.190263 0.279184
Si Si2 0.295633 0.525399 0.958577
Si Si3 0.577873 0.557303 0.335246
Si Si4 0.000000 0.000000 0.000000
Si Si5 0.502447 0.801504 0.334872
Si Si6 0.305320 0.914000 0.063469
Si Si7 0.106101 0.957172 0.252611
O O1 0.926734 0.090744 0.167343
O O2 0.000000 0.500000 0.500000
O O3 0.674232 0.980603 0.300153
O O4 0.777117 0.189280 0.139422
O O5 0.393297 0.473559 0.849065
O O6 0.097116 0.281358 0.797903
O O7 0.316282 0.545667 0.136766
O O8 0.375217 0.807402 0.044225
O O9 0.507051 0.671158 0.392303
O O10 0.757950 0.782573 0.519739
O O11 0.449009 0.247681 0.239716
O O12 0.897688 0.961560 0.858465
O O13 0.500000 0.000000 0.500000
O O14 0.159780 0.813968 0.144445
#
# Coordination Sequence:
#
# PCOD9052706 Si02
#       7
#     2   2   2   1   2   2   2
#     4  11  27  46  77 112 157 202 261 314 395 456
#     4  12  26  47  73 109 152 197 250 316 383 459
#     4  12  26  48  74 106 150 199 256 314 387 457
#     4  10  26  48  76 114 150 196 258 330 370 466
#     4  12  29  47  76 113 155 201 254 321 390 460
#     4  11  26  47  72 108 152 196 255 319 378 457
#     4  11  26  44  77 104 147 199 257 308 392 449
#
# _framework density 25.014500999999999
#
# number of rings (size 3 to 8) (size 9 to 14) (size 15 to 20)
#    0.000    0.615    1.538    4.154   12.923    0.000 
#    0.000    0.000    0.000    0.000    0.000    0.000 
#    0.000    0.000    0.000    0.000    0.000    0.000 
#
# Total GULP energy -72547.995660 kJ/mol
# GULP energy per Si atom -5580.615051 kJ/mol
# Density = 2.495757 g / cm^3
# Si number density = 25.014501 Si / 1000 Ang^3
#
#
#
# Elastic Constant Matrix: (Units=GPa)
#
#
# Indices 1 2 3 4 5 6 
#
# 1 117.3610 22.9078 63.5643 14.4731 -14.4749 -13.9804
# 2 22.9078 65.6953 47.7993 20.6656 -2.7939 -8.0976
# 3 63.5643 47.7993 183.6679 17.2712 11.5378 -8.9160
# 4 14.4731 20.6656 17.2712 44.6844 11.6419 -1.3163
# 5 -14.4749 -2.7939 11.5378 11.6419 59.6297 -2.7007
# 6 -13.9804 -8.0976 -8.9160 -1.3163 -2.7007 43.7115
#
#
#
# Elastic Compliance Matrix: (Units=1/GPa)
#
#
# Indices 1 2 3 4 5 6 
#
# 1 0.012046 0.000533 -0.004092 -0.003669 0.004606 0.003291
# 2 0.000533 0.022409 -0.005229 -0.009513 0.004194 0.003228
# 3 -0.004092 -0.005229 0.008255 0.001347 -0.003132 -0.000746
# 4 -0.003669 -0.009513 0.001347 0.029314 -0.007422 -0.002237
# 5 0.004606 0.004194 -0.003132 -0.007422 0.020259 0.002640
# 6 0.003291 0.003228 -0.000746 -0.002237 0.002640 0.024471
#
#
# Mechanical properties :
#
#
# Convention : Reuss Voigt Hill
#
# Bulk Modulus (GPa) = 39.78587 70.58522 55.18555
# Shear Modulus (GPa) = 35.03640 45.10197 40.06919
#
# Velocity S-wave (km/s) = 3.74658 4.25082 4.00664
# Velocity P-wave (km/s) = 5.88689 7.23682 6.59648
#
# Compressibility (1/GPa) = 0.02513455
#
# Stress axis : x y z
#
# Youngs Moduli (GPa) = 83.01766 44.62498 121.13295
#
# Poissons Ratio (x) = -0.02378 0.49568
# Poissons Ratio (y) = -0.04423 0.63335
# Poissons Ratio (z) = 0.33971 0.23332
#
# Static dielectric constant tensor:
#      x y z
#    x 1.997670 0.203180 -0.023120 
#    y 0.203180 2.273190 0.003600 
#    z -0.023120 0.003600 1.922670 
# 
# From -- ./inp_files/160375.got.cif
#   From: 2010.05.17/outbox.cif.g08.bks.cpg/sg2_81_cif.got.tgz:160375.got - 2010.06.03 11:33:40.
