data_PCOD9052089
_publ_section_title
;
Structure prediction by ZEFSAII (Michael W. Deem and Ramdas Pophale) SiO2 
 PCOD9052089
Probable space group: P -1
;
_chemical_formula_sum "Si O2"
_cell_formula_units_Z 16
_cell_length_a 8.927400
_cell_length_b 5.593429
_cell_length_c 13.703074
_cell_angle_alpha 71.201205
_cell_angle_beta 79.492791
_cell_angle_gamma 92.197998
_cell_volume 633.420830
_symmetry_space_group_name_H-M "P -1"
_symmetry_group_IT_number 2
_symmetry_cell_setting 'triclinic'
loop_
_space_group_symop_operation_xyz
x,y,z
-x,-y,-z
loop_
_atom_site_type_symbol
_atom_site_label
_atom_site_fract_x
_atom_site_fract_y
_atom_site_fract_z
Si Si1 0.498032 0.927354 0.307039
Si Si2 0.787619 0.678141 0.254891
Si Si3 0.411954 0.562282 0.840878
Si Si4 0.836736 0.153618 0.604599
Si Si5 0.388574 0.847838 0.112692
Si Si6 0.996062 0.888285 0.905441
Si Si7 0.022235 0.360700 0.364373
Si Si8 0.789471 0.421637 0.971507
O O1 0.633175 0.742274 0.321883
O O2 0.345025 0.865650 0.395119
O O3 0.424561 0.951414 0.202748
O O4 0.581270 0.210351 0.266650
O O5 0.716903 0.648248 0.158759
O O6 0.884592 0.450546 0.303404
O O7 0.915239 0.917541 0.204808
O O8 0.567455 0.437725 0.839566
O O9 0.370809 0.608156 0.950229
O O10 0.937793 0.253266 0.486926
O O11 0.872945 0.379286 0.650827
O O12 0.886835 0.869911 0.655797
O O13 0.223102 0.774129 0.092090
O O14 0.500000 0.000000 0.000000
O O15 0.846546 0.714571 0.908074
O O16 0.112165 0.675945 0.938965
O O17 0.000000 0.000000 0.000000
#
# Coordination Sequence:
#
# PCOD9052089 Si02
#       8
#     2   2   2   2   2   2   2   2
#     4  11  25  43  68 100 142 181 239 294 355 424
#     4  11  24  43  68 102 136 189 237 295 354 428
#     4  11  22  40  60  91 136 176 236 296 347 407
#     4  10  25  51  75 110 143 182 231 304 367 437
#     4  11  23  38  59  91 132 185 236 285 351 410
#     4  11  23  39  57  88 134 179 238 289 343 411
#     4  10  25  50  79 105 146 181 234 298 371 438
#     4  11  22  38  59  85 131 191 233 292 342 403
#
# _framework density 25.259667
#
# number of rings (size 3 to 8) (size 9 to 14) (size 15 to 20)
#    0.000    1.250    3.750    1.125    5.250    2.500 
#    0.000    0.625    0.000    0.000    0.000    0.000 
#    0.000    0.000    0.000    0.000    0.000    0.000 
#
# Total GULP energy -89226.900610 kJ/mol
# GULP energy per Si atom -5576.681288 kJ/mol
# Density = 2.520218 g / cm^3
# Si number density = 25.259667 Si / 1000 Ang^3
#
#
#
# Elastic Constant Matrix: (Units=GPa)
#
#
# Indices 1 2 3 4 5 6 
#
# 1 106.1221 37.6912 9.5289 -18.1945 -12.5871 -0.9698
# 2 37.6912 116.0635 18.4688 -19.6252 -11.2169 3.7997
# 3 9.5289 18.4688 28.2106 -7.8602 -5.3759 -0.7746
# 4 -18.1945 -19.6252 -7.8602 25.8525 -5.3507 2.7374
# 5 -12.5871 -11.2169 -5.3759 -5.3507 41.4999 -2.6747
# 6 -0.9698 3.7997 -0.7746 2.7374 -2.6747 55.4356
#
#
#
# Elastic Compliance Matrix: (Units=1/GPa)
#
#
# Indices 1 2 3 4 5 6 
#
# 1 0.011993 -0.002270 0.000345 0.007643 0.004066 0.000189
# 2 -0.002270 0.011425 -0.004481 0.006358 0.002569 -0.001075
# 3 0.000345 -0.004481 0.042425 0.010879 0.005834 0.000650
# 4 0.007643 0.006358 0.010879 0.054999 0.012391 -0.002268
# 5 0.004066 0.002569 0.005834 0.012391 0.028425 0.000736
# 6 0.000189 -0.001075 0.000650 -0.002268 0.000736 0.018273
#
#
# Mechanical properties :
#
#
# Convention : Reuss Voigt Hill
#
# Bulk Modulus (GPa) = 18.85696 42.41935 30.63816
# Shear Modulus (GPa) = 25.24869 36.87143 31.06006
#
# Velocity S-wave (km/s) = 3.16502 3.82474 3.51041
# Velocity P-wave (km/s) = 4.56486 6.02782 5.34661
#
# Compressibility (1/GPa) = 0.05303081
#
# Stress axis : x y z
#
# Youngs Moduli (GPa) = 83.38225 87.52740 23.57075
#
# Poissons Ratio (x) = 0.19872 -0.00814
# Poissons Ratio (y) = 0.18931 0.10562
# Poissons Ratio (z) = -0.02878 0.39222
#
# Static dielectric constant tensor:
#      x y z
#    x 2.255770 -0.036180 -0.017280 
#    y -0.036180 2.048670 0.004400 
#    z -0.017280 0.004400 2.018560 
# 
# From -- ./inp_files/488153.got.cif
#   From: 2010.05.17/outbox.cif.g08.bks.cpg/sg2_245_cif.got.tgz:488153.got - 2010.06.03 11:33:40.
