data_PCOD9052615
_publ_section_title
;
Structure prediction by ZEFSAII (Michael W. Deem and Ramdas Pophale) SiO2 
 PCOD9052615
Probable space group: P -1
;
_chemical_formula_sum "Si O2"
_cell_formula_units_Z 10
_cell_length_a 8.898085
_cell_length_b 10.291628
_cell_length_c 7.124994
_cell_angle_alpha 59.384697
_cell_angle_beta 81.537865
_cell_angle_gamma 44.343347
_cell_volume 366.039034
_symmetry_space_group_name_H-M "P -1"
_symmetry_group_IT_number 2
_symmetry_cell_setting 'triclinic'
loop_
_space_group_symop_operation_xyz
x,y,z
-x,-y,-z
loop_
_atom_site_type_symbol
_atom_site_label
_atom_site_fract_x
_atom_site_fract_y
_atom_site_fract_z
Si Si1 0.947771 0.952268 0.849594
Si Si2 0.638652 0.335230 0.323440
Si Si3 0.711158 0.827980 0.443884
Si Si4 0.834622 0.682214 0.133804
Si Si5 0.491735 0.264657 0.092691
O O1 0.745403 0.189549 0.597666
O O2 0.158438 0.798723 0.772115
O O3 0.889122 0.817261 0.985538
O O4 0.000000 0.000000 0.000000
O O5 0.460416 0.353995 0.242279
O O6 0.521481 0.585786 0.157021
O O7 0.678900 0.781670 0.277746
O O8 0.937996 0.584770 0.664920
O O9 0.500000 0.000000 0.500000
O O10 0.727301 0.993428 0.266232
O O11 0.701211 0.702314 0.975672
#
# Coordination Sequence:
#
# PCOD9052615 Si02
#       5
#     2   2   2   2   2
#     4  11  25  48  77 113 158 209 265 330 397 473
#     4  10  26  47  75 112 163 209 257 330 405 466
#     4  11  26  46  78 118 160 201 263 335 391 468
#     4  11  27  48  82 116 154 212 270 321 396 481
#     4  11  25  50  74 116 156 207 268 321 395 477
#
# _framework density 27.319492
#
# number of rings (size 3 to 8) (size 9 to 14) (size 15 to 20)
#    0.000    1.200    0.000    3.000   14.000    1.600 
#    0.000    3.000    0.000    0.000    0.000    0.000 
#    0.000    0.000    0.000    0.000    0.000    0.000 
#
# Total GULP energy -55992.940251 kJ/mol
# GULP energy per Si atom -5599.294025 kJ/mol
# Density = 2.725731 g / cm^3
# Si number density = 27.319492 Si / 1000 Ang^3
#
#
#
# Elastic Constant Matrix: (Units=GPa)
#
#
# Indices 1 2 3 4 5 6 
#
# 1 180.0871 67.4787 106.6865 9.3644 1.3501 35.5620
# 2 67.4787 151.9150 97.1603 20.2551 -17.7923 -3.6054
# 3 106.6865 97.1603 307.9792 -25.9474 3.8423 37.2476
# 4 9.3644 20.2551 -25.9474 63.3728 23.4979 -12.8444
# 5 1.3501 -17.7923 3.8423 23.4979 41.4671 -1.7238
# 6 35.5620 -3.6054 37.2476 -12.8444 -1.7238 51.6782
#
#
#
# Elastic Compliance Matrix: (Units=1/GPa)
#
#
# Indices 1 2 3 4 5 6 
#
# 1 0.008777 -0.002695 -0.001696 -0.002142 -0.000302 -0.005548
# 2 -0.002695 0.013652 -0.004848 -0.009506 0.011962 0.004338
# 3 -0.001696 -0.004848 0.006245 0.006183 -0.006205 -0.002343
# 4 -0.002142 -0.009506 0.006183 0.030332 -0.021638 0.003172
# 5 -0.000302 0.011962 -0.006205 -0.021638 0.042158 0.001542
# 6 -0.005548 0.004338 -0.002343 0.003172 0.001542 0.025999
#
#
# Mechanical properties :
#
#
# Convention : Reuss Voigt Hill
#
# Bulk Modulus (GPa) = 98.07737 131.40360 114.74049
# Shear Modulus (GPa) = 33.54807 55.88068 44.71437
#
# Velocity S-wave (km/s) = 3.50807 4.52757 4.05003
# Velocity P-wave (km/s) = 7.23787 8.69110 7.99756
#
# Compressibility (1/GPa) = 0.01019603
#
# Stress axis : x y z
#
# Youngs Moduli (GPa) = 113.93971 73.25082 160.11625
#
# Poissons Ratio (x) = 0.19743 0.27151
# Poissons Ratio (y) = 0.30710 0.77622
# Poissons Ratio (z) = 0.19321 0.35511
#
# Static dielectric constant tensor:
#      x y z
#    x 2.271910 -0.057390 -0.111130 
#    y -0.057390 2.239080 0.011690 
#    z -0.111130 0.011690 2.148240 
# 
# From -- ./inp_files/175072.got.cif
#   From: 2010.05.17/outbox.cif.g08.bks.cpg/sg2_88_cif.got.tgz:175072.got - 2010.06.03 11:33:40.
