data_PCOD9052164
_publ_section_title
;
Structure prediction by ZEFSAII (Michael W. Deem and Ramdas Pophale) SiO2 
 PCOD9052164
Probable space group: P -1
;
_chemical_formula_sum "Si O2"
_cell_formula_units_Z 14
_cell_length_a 13.603074
_cell_length_b 10.673853
_cell_length_c 5.296858
_cell_angle_alpha 70.878485
_cell_angle_beta 83.413266
_cell_angle_gamma 64.925178
_cell_volume 657.910296
_symmetry_space_group_name_H-M "P -1"
_symmetry_group_IT_number 2
_symmetry_cell_setting 'triclinic'
loop_
_space_group_symop_operation_xyz
x,y,z
-x,-y,-z
loop_
_atom_site_type_symbol
_atom_site_label
_atom_site_fract_x
_atom_site_fract_y
_atom_site_fract_z
Si Si1 0.761704 0.154091 0.253608
Si Si2 0.933737 0.670308 0.847025
Si Si3 0.622860 0.596334 0.346912
Si Si4 0.094616 0.717070 0.069132
Si Si5 0.367374 0.720160 0.303318
Si Si6 0.024932 0.105632 0.615583
Si Si7 0.256850 0.392394 0.215428
O O1 0.695148 0.176013 0.515893
O O2 0.849300 0.990333 0.296451
O O3 0.833233 0.250373 0.185359
O O4 0.684402 0.217875 0.993024
O O5 0.981311 0.736992 0.570708
O O6 0.812500 0.695831 0.799676
O O7 0.000000 0.500000 0.000000
O O8 0.971960 0.742626 0.017126
O O9 0.494263 0.685767 0.293533
O O10 0.640277 0.434044 0.537842
O O11 0.669348 0.659218 0.523135
O O12 0.679642 0.591997 0.062727
O O13 0.164993 0.550420 0.223016
O O14 0.072435 0.845198 0.188683
O O15 0.000000 0.000000 0.500000
#
# Coordination Sequence:
#
# PCOD9052164 Si02
#       7
#     2   2   2   2   2   2   2
#     4  12  23  39  65  97 136 169 217 273 339 385
#     4  10  26  42  64  97 138 183 222 264 327 405
#     4  11  22  42  66  99 130 171 229 286 336 387
#     4  11  23  40  63 100 137 178 213 271 323 411
#     4  11  23  40  67  98 131 171 226 286 338 384
#     4  12  26  41  66  98 142 181 223 267 328 402
#     4  11  24  40  69  96 138 174 220 273 342 389
#
# _framework density 21.279496000000002
#
# number of rings (size 3 to 8) (size 9 to 14) (size 15 to 20)
#    0.000    0.857    4.286    2.143    8.000    3.429 
#    0.000    0.000    0.000    5.143    0.000    0.000 
#    0.000    0.000    0.000    0.000    0.000    0.000 
#
# Total GULP energy -78040.556038 kJ/mol
# GULP energy per Si atom -5574.325431 kJ/mol
# Density = 2.123106 g / cm^3
# Si number density = 21.279496 Si / 1000 Ang^3
#
#
#
# Elastic Constant Matrix: (Units=GPa)
#
#
# Indices 1 2 3 4 5 6 
#
# 1 149.9101 37.2935 52.5175 16.7521 21.1643 -13.5887
# 2 37.2935 56.7725 37.8702 13.2469 -4.9377 -13.5692
# 3 52.5175 37.8702 96.7804 18.9344 20.7074 -10.2520
# 4 16.7521 13.2469 18.9344 41.2926 -1.3295 -1.9162
# 5 21.1643 -4.9377 20.7074 -1.3295 39.0304 -2.8491
# 6 -13.5887 -13.5692 -10.2520 -1.9162 -2.8491 23.9697
#
#
#
# Elastic Compliance Matrix: (Units=1/GPa)
#
#
# Indices 1 2 3 4 5 6 
#
# 1 0.009439 -0.004741 -0.001824 -0.001568 -0.004716 0.001201
# 2 -0.004741 0.033206 -0.011555 -0.002403 0.013741 0.012609
# 3 -0.001824 -0.011555 0.018933 -0.004633 -0.010758 -0.001126
# 4 -0.001568 -0.002403 -0.004633 0.027801 0.003838 -0.001553
# 5 -0.004716 0.013741 -0.010758 0.003838 0.036127 0.005105
# 6 0.001201 0.012609 -0.001126 -0.001553 0.005105 0.049539
#
#
# Mechanical properties :
#
#
# Convention : Reuss Voigt Hill
#
# Bulk Modulus (GPa) = 39.46622 62.09169 50.77896
# Shear Modulus (GPa) = 22.75525 32.57733 27.66629
#
# Velocity S-wave (km/s) = 3.27364 3.91695 3.60965
# Velocity P-wave (km/s) = 5.73374 7.04976 6.42553
#
# Compressibility (1/GPa) = 0.02533812
#
# Stress axis : x y z
#
# Youngs Moduli (GPa) = 105.94374 30.11534 52.81918
#
# Poissons Ratio (x) = 0.14278 0.09632
# Poissons Ratio (y) = 0.50229 0.61031
# Poissons Ratio (z) = 0.19320 0.34798
#
# Static dielectric constant tensor:
#      x y z
#    x 1.805210 0.008500 0.062840 
#    y 0.008500 1.769060 0.015470 
#    z 0.062840 0.015470 1.993660 
# 
# From -- ./inp_files/65829.got.cif
#   From: 2010.05.17/outbox.cif.g08.bks.cpg/sg2_33_cif.got.tgz:65829.got - 2010.06.03 11:33:40.
