data_PCOD9052653
_publ_section_title
;
Structure prediction by ZEFSAII (Michael W. Deem and Ramdas Pophale) SiO2 
 PCOD9052653
Probable space group: P -1
;
_chemical_formula_sum "Si O2"
_cell_formula_units_Z 12
_cell_length_a 7.680159
_cell_length_b 14.856680
_cell_length_c 10.577269
_cell_angle_alpha 27.486895
_cell_angle_beta 117.025537
_cell_angle_gamma 108.449846
_cell_volume 485.069235
_symmetry_space_group_name_H-M "P -1"
_symmetry_group_IT_number 2
_symmetry_cell_setting 'triclinic'
loop_
_space_group_symop_operation_xyz
x,y,z
-x,-y,-z
loop_
_atom_site_type_symbol
_atom_site_label
_atom_site_fract_x
_atom_site_fract_y
_atom_site_fract_z
Si Si1 0.728485 0.399525 0.178703
Si Si2 0.257710 0.217028 0.427143
Si Si3 0.900909 0.704255 0.444781
Si Si4 0.734651 0.991545 0.560210
Si Si5 0.069537 0.660664 0.227058
Si Si6 0.348262 0.909571 0.153252
O O1 0.859744 0.338386 0.423282
O O2 0.756001 0.209535 0.335499
O O3 0.500000 0.500000 0.000000
O O4 0.815472 0.575678 0.925631
O O5 0.155301 0.224491 0.519569
O O6 0.228869 0.051541 0.523145
O O7 0.495327 0.191812 0.563841
O O8 0.830097 0.501281 0.643979
O O9 0.803797 0.892816 0.092849
O O10 0.500000 0.000000 0.500000
O O11 0.886489 0.821184 0.903277
O O12 0.226934 0.774746 0.201247
O O13 0.000000 0.500000 0.500000
O O14 0.500000 0.000000 0.000000
#
# Coordination Sequence:
#
# PCOD9052653 Si02
#       6
#     2   2   2   2   2   2
#     4  12  24  43  73 104 145 186 242 306 367 429
#     4  11  26  44  74 105 144 194 240 304 361 435
#     4  11  25  48  71 106 149 191 248 297 368 439
#     4  12  26  45  70 107 146 186 248 300 368 436
#     4  12  28  45  77 107 146 198 245 302 371 434
#     4  10  26  48  70 107 149 193 241 300 369 433
#
# _framework density 24.738735999999999
#
# number of rings (size 3 to 8) (size 9 to 14) (size 15 to 20)
#    0.000    0.667    5.000    0.500    7.000    6.667 
#    0.000    0.000    0.000    0.000    0.000    0.000 
#    0.000    0.000    0.000    0.000    0.000    0.000 
#
# Total GULP energy -67118.384558 kJ/mol
# GULP energy per Si atom -5593.198713 kJ/mol
# Density = 2.468243 g / cm^3
# Si number density = 24.738736 Si / 1000 Ang^3
#
#
#
# Elastic Constant Matrix: (Units=GPa)
#
#
# Indices 1 2 3 4 5 6 
#
# 1 72.6030 42.0927 23.7437 7.4968 13.0157 6.7832
# 2 42.0927 220.7730 73.6001 -25.1636 18.7225 8.6273
# 3 23.7437 73.6001 138.9849 -4.7272 37.4257 5.7205
# 4 7.4968 -25.1636 -4.7272 58.1802 6.5200 4.2177
# 5 13.0157 18.7225 37.4257 6.5200 41.6707 10.5930
# 6 6.7832 8.6273 5.7205 4.2177 10.5930 51.0150
#
#
#
# Elastic Compliance Matrix: (Units=1/GPa)
#
#
# Indices 1 2 3 4 5 6 
#
# 1 0.016620 -0.003085 -0.000588 -0.003175 -0.002571 -0.000826
# 2 -0.003085 0.006391 -0.002820 0.002943 0.000333 -0.000667
# 3 -0.000588 -0.002820 0.011186 0.000692 -0.008987 0.001109
# 4 -0.003175 0.002943 0.000692 0.019417 -0.003740 -0.000982
# 5 -0.002571 0.000333 -0.008987 -0.003740 0.034733 -0.005610
# 6 -0.000826 -0.000667 0.001109 -0.000982 -0.005610 0.020946
#
#
# Mechanical properties :
#
#
# Convention : Reuss Voigt Hill
#
# Bulk Modulus (GPa) = 47.13945 79.02600 63.08272
# Shear Modulus (GPa) = 38.65535 49.70149 44.17842
#
# Velocity S-wave (km/s) = 3.95719 4.48711 4.23046
# Velocity P-wave (km/s) = 6.32261 7.67197 7.02974
#
# Compressibility (1/GPa) = 0.02121365
#
# Stress axis : x y z
#
# Youngs Moduli (GPa) = 60.16882 156.47231 89.39483
#
# Poissons Ratio (x) = 0.48264 0.05253
# Poissons Ratio (y) = 0.18559 0.25206
# Poissons Ratio (z) = 0.03536 0.44119
#
# Static dielectric constant tensor:
#      x y z
#    x 2.160620 -0.033420 0.018460 
#    y -0.033420 2.008540 0.019840 
#    z 0.018460 0.019840 2.021730 
# 
# From -- ./inp_files/398307.got.cif
#   From: 2010.05.17/outbox.cif.g08.bks.cpg/sg2_200_cif.got.tgz:398307.got - 2010.06.03 11:33:40.
