data_PCOD9052640
_publ_section_title
;
Structure prediction by ZEFSAII (Michael W. Deem and Ramdas Pophale) SiO2 
 PCOD9052640
Probable space group: P -1
;
_chemical_formula_sum "Si O2"
_cell_formula_units_Z 15
_cell_length_a 9.668610
_cell_length_b 10.969368
_cell_length_c 6.694957
_cell_angle_alpha 83.076995
_cell_angle_beta 125.050792
_cell_angle_gamma 106.930763
_cell_volume 555.099325
_symmetry_space_group_name_H-M "P -1"
_symmetry_group_IT_number 2
_symmetry_cell_setting 'triclinic'
loop_
_space_group_symop_operation_xyz
x,y,z
-x,-y,-z
loop_
_atom_site_type_symbol
_atom_site_label
_atom_site_fract_x
_atom_site_fract_y
_atom_site_fract_z
Si Si1 0.000000 0.000000 0.500000
Si Si2 0.273760 0.778424 0.438610
Si Si3 0.884489 0.389857 0.287965
Si Si4 0.284937 0.218424 0.842489
Si Si5 0.687679 0.562725 0.893611
Si Si6 0.073975 0.817452 0.928905
Si Si7 0.446807 0.323608 0.565726
Si Si8 0.553189 0.981711 0.822768
O O1 0.002913 0.076720 0.262205
O O2 0.091165 0.134343 0.653247
O O3 0.242419 0.704223 0.640667
O O4 0.400095 0.711322 0.429031
O O5 0.378115 0.926045 0.557079
O O6 0.085295 0.764939 0.174789
O O7 0.961301 0.298921 0.231914
O O8 0.000000 0.500000 0.500000
O O9 0.804300 0.467947 0.045793
O O10 0.384703 0.224622 0.712352
O O11 0.308912 0.357334 0.920558
O O12 0.364084 0.137764 0.080208
O O13 0.507545 0.460140 0.701295
O O14 0.709403 0.665876 0.713898
O O15 0.285443 0.894019 0.097404
O O16 0.500000 0.000000 0.000000
#
# Coordination Sequence:
#
# PCOD9052640 Si02
#       8
#     1   2   2   2   2   2   2   2
#     4  10  26  48  68  92 136 186 222 268 334 404
#     4  12  24  44  72 103 131 177 228 282 341 398
#     4  12  27  44  67  95 141 183 221 272 339 403
#     4  11  23  43  69  96 140 177 220 274 333 399
#     4  11  24  42  68 102 137 174 221 281 336 396
#     4  11  24  46  67  99 132 176 229 277 332 406
#     4  11  24  40  71 107 131 169 225 281 340 388
#     4  11  21  42  71  96 136 171 220 287 339 387
#
# _framework density 27.022192
#
# number of rings (size 3 to 8) (size 9 to 14) (size 15 to 20)
#    0.000    0.800    4.000    3.200    3.733    1.600 
#    0.000    1.333    0.000    0.000    0.000    0.000 
#    0.000    0.000    0.000    0.000    0.000    0.000 
#
# Total GULP energy -83544.973706 kJ/mol
# GULP energy per Si atom -5569.664914 kJ/mol
# Density = 2.696069 g / cm^3
# Si number density = 27.022192 Si / 1000 Ang^3
#
#
#
# Elastic Constant Matrix: (Units=GPa)
#
#
# Indices 1 2 3 4 5 6 
#
# 1 68.2780 24.4606 15.7627 6.1585 -26.9881 -12.9944
# 2 24.4606 98.3559 34.9763 7.9808 -10.4169 -13.6574
# 3 15.7627 34.9763 148.5398 7.2699 8.5666 -8.2563
# 4 6.1585 7.9808 7.2699 85.6559 -10.5503 4.9544
# 5 -26.9881 -10.4169 8.5666 -10.5503 36.6033 -4.3742
# 6 -12.9944 -13.6574 -8.2563 4.9544 -4.3742 24.4548
#
#
#
# Elastic Compliance Matrix: (Units=1/GPa)
#
#
# Indices 1 2 3 4 5 6 
#
# 1 0.028376 -0.001010 -0.003162 0.000203 0.023538 0.017615
# 2 -0.001010 0.012803 -0.002742 -0.000762 0.004107 0.006577
# 3 -0.003162 -0.002742 0.007988 -0.000780 -0.005363 -0.001316
# 4 0.000203 -0.000762 -0.000780 0.012357 0.003380 -0.002480
# 5 0.023538 0.004107 -0.005363 0.003380 0.050625 0.021361
# 6 0.017615 0.006577 -0.001316 -0.002480 0.021361 0.057804
#
#
# Mechanical properties :
#
#
# Convention : Reuss Voigt Hill
#
# Bulk Modulus (GPa) = 28.29645 51.73033 40.01339
# Shear Modulus (GPa) = 25.56765 45.34108 35.45436
#
# Velocity S-wave (km/s) = 3.07933 4.10069 3.62615
# Velocity P-wave (km/s) = 4.81013 6.45027 5.68961
#
# Compressibility (1/GPa) = 0.03534012
#
# Stress axis : x y z
#
# Youngs Moduli (GPa) = 35.24139 78.10442 125.19475
#
# Poissons Ratio (x) = 0.07889 0.39581
# Poissons Ratio (y) = 0.03560 0.34323
# Poissons Ratio (z) = 0.11142 0.21413
#
# Static dielectric constant tensor:
#      x y z
#    x 1.990240 0.070740 0.103460 
#    y 0.070740 2.139520 -0.167490 
#    z 0.103460 -0.167490 2.352570 
# 
# From -- ./inp_files/66626.got.cif
#   From: 2010.05.17/outbox.cif.g08.bks.cpg/sg2_34_cif.got.tgz:66626.got - 2010.06.03 11:33:40.
