data_PCOD9052641
_publ_section_title
;
Structure prediction by ZEFSAII (Michael W. Deem and Ramdas Pophale) SiO2 
 PCOD9052641
Probable space group: P -1
;
_chemical_formula_sum "Si O2"
_cell_formula_units_Z 16
_cell_length_a 14.119655
_cell_length_b 8.028468
_cell_length_c 8.804594
_cell_angle_alpha 130.520974
_cell_angle_beta 73.312662
_cell_angle_gamma 78.917223
_cell_volume 620.677730
_symmetry_space_group_name_H-M "P -1"
_symmetry_group_IT_number 2
_symmetry_cell_setting 'triclinic'
loop_
_space_group_symop_operation_xyz
x,y,z
-x,-y,-z
loop_
_atom_site_type_symbol
_atom_site_label
_atom_site_fract_x
_atom_site_fract_y
_atom_site_fract_z
Si Si1 0.810616 0.947988 0.715128
Si Si2 0.204645 0.192731 0.040602
Si Si3 0.199501 0.705288 0.635287
Si Si4 0.411120 0.956224 0.615919
Si Si5 0.045226 0.551421 0.809913
Si Si6 0.429408 0.178204 0.278127
Si Si7 0.382314 0.770841 0.221677
Si Si8 0.987321 0.981100 0.317152
O O1 0.861914 0.748178 0.432370
O O2 0.912399 0.971256 0.756810
O O3 0.714263 0.211677 0.837931
O O4 0.773277 0.834609 0.805170
O O5 0.213260 0.928553 0.832337
O O6 0.302291 0.195873 0.893564
O O7 0.073212 0.401482 0.182368
O O8 0.104401 0.675574 0.756192
O O9 0.322300 0.447607 0.437788
O O10 0.137472 0.803775 0.559776
O O11 0.488188 0.786417 0.621124
O O12 0.361698 0.837770 0.448646
O O13 0.500000 0.000000 0.500000
O O14 0.016107 0.708384 0.073402
O O15 0.392081 0.002633 0.282002
O O16 0.500000 0.000000 0.000000
O O17 0.500000 0.500000 0.000000
O O18 0.000000 0.000000 0.500000
#
# Coordination Sequence:
#
# PCOD9052641 Si02
#       8
#     2   2   2   2   2   2   2   2
#     4  12  24  44  75 108 149 202 249 303 384 462
#     4  11  23  44  78 105 147 201 251 310 383 456
#     4  11  23  46  74 109 150 193 256 314 368 466
#     4  10  26  48  69 105 148 192 253 317 376 442
#     4  11  23  47  73 113 153 187 256 311 372 470
#     4  11  25  47  73 105 141 197 258 311 370 450
#     4  11  27  46  68 102 149 193 247 314 379 439
#     4  11  26  45  69 114 157 198 240 313 390 450
#
# _framework density 25.778275000000001
#
# number of rings (size 3 to 8) (size 9 to 14) (size 15 to 20)
#    0.000    1.000    3.750    1.875    7.000    1.000 
#    4.500    0.000    0.000    0.000    0.000    0.000 
#    0.000    0.000    0.000    0.000    0.000    0.000 
#
# Total GULP energy -89543.836025 kJ/mol
# GULP energy per Si atom -5596.489752 kJ/mol
# Density = 2.571960 g / cm^3
# Si number density = 25.778275 Si / 1000 Ang^3
#
#
#
# Elastic Constant Matrix: (Units=GPa)
#
#
# Indices 1 2 3 4 5 6 
#
# 1 108.6415 46.5412 33.3698 -1.8473 -13.6706 -32.5144
# 2 46.5412 122.0272 76.2653 -2.7366 -6.3211 -43.5230
# 3 33.3698 76.2653 137.5909 -20.9685 -18.9742 -37.2043
# 4 -1.8473 -2.7366 -20.9685 61.5229 -5.8746 -1.8870
# 5 -13.6706 -6.3211 -18.9742 -5.8746 52.6364 -1.8562
# 6 -32.5144 -43.5230 -37.2043 -1.8870 -1.8562 68.0381
#
#
#
# Elastic Compliance Matrix: (Units=1/GPa)
#
#
# Indices 1 2 3 4 5 6 
#
# 1 0.012090 -0.003344 0.000591 0.000845 0.003189 0.004072
# 2 -0.003344 0.015215 -0.006982 -0.001828 -0.001613 0.004222
# 3 0.000591 -0.006982 0.013285 0.004792 0.004757 0.003343
# 4 0.000845 -0.001828 0.004792 0.018275 0.003854 0.002467
# 5 0.003189 -0.001613 0.004757 0.003854 0.021912 0.003798
# 6 0.004072 0.004222 0.003343 0.002467 0.003798 0.021345
#
#
# Mechanical properties :
#
#
# Convention : Reuss Voigt Hill
#
# Bulk Modulus (GPa) = 47.34742 75.62359 61.48550
# Shear Modulus (GPa) = 38.87072 50.57836 44.72454
#
# Velocity S-wave (km/s) = 3.88736 4.43431 4.16982
# Velocity P-wave (km/s) = 6.20934 7.45771 6.86197
#
# Compressibility (1/GPa) = 0.02112047
#
# Stress axis : x y z
#
# Youngs Moduli (GPa) = 82.71292 65.72293 75.27399
#
# Poissons Ratio (x) = 0.21978 -0.04449
# Poissons Ratio (y) = 0.27659 0.52556
# Poissons Ratio (z) = -0.04889 0.45888
#
# Static dielectric constant tensor:
#      x y z
#    x 2.365120 0.194900 -0.044780 
#    y 0.194900 2.118680 -0.050610 
#    z -0.044780 -0.050610 1.986980 
# 
# From -- ./inp_files/299666.got.cif
#   From: 2010.05.17/outbox.cif.g08.bks.cpg/sg2_150_cif.got.tgz:299666.got - 2010.06.03 11:33:40.
