data_PCOD9052960
_publ_section_title
;
Structure prediction by ZEFSAII (Michael W. Deem and Ramdas Pophale) SiO2 
 PCOD9052960
Probable space group: P -1
;
_chemical_formula_sum "Si O2"
_cell_formula_units_Z 14
_cell_length_a 8.620376
_cell_length_b 9.118649
_cell_length_c 10.888161
_cell_angle_alpha 71.810564
_cell_angle_beta 135.049676
_cell_angle_gamma 115.420181
_cell_volume 546.082595
_symmetry_space_group_name_H-M "P -1"
_symmetry_group_IT_number 2
_symmetry_cell_setting 'triclinic'
loop_
_space_group_symop_operation_xyz
x,y,z
-x,-y,-z
loop_
_atom_site_type_symbol
_atom_site_label
_atom_site_fract_x
_atom_site_fract_y
_atom_site_fract_z
Si Si1 0.031815 0.804993 0.153675
Si Si2 0.158287 0.716446 0.502290
Si Si3 0.354775 0.434823 0.701978
Si Si4 0.560920 0.775507 0.978683
Si Si5 0.762009 0.938848 0.604903
Si Si6 0.552926 0.252154 0.696572
Si Si7 0.749168 0.035403 0.222422
O O1 0.057662 0.689272 0.312342
O O2 0.149488 0.986513 0.230751
O O3 0.193022 0.766667 0.151159
O O4 0.760231 0.774573 0.994189
O O5 0.314013 0.606390 0.651817
O O6 0.295222 0.905473 0.525250
O O7 0.912125 0.675780 0.443829
O O8 0.447557 0.367425 0.892616
O O9 0.519586 0.413991 0.690756
O O10 0.671975 0.946478 0.070553
O O11 0.315302 0.804072 0.816410
O O12 0.546390 0.787283 0.487115
O O13 0.978412 0.922541 0.653540
O O14 0.384482 0.111036 0.723944
#
# Coordination Sequence:
#
# PCOD9052960 Si02
#       7
#     2   2   2   2   2   2   2
#     4   8  17  28  42  65  94 115 134 178 223 259
#     4   8  16  30  42  63  89 116 142 173 226 246
#     4   9  16  28  47  65  80 119 149 179 207 254
#     4   8  15  30  42  63  89 113 145 179 217 246
#     4   9  17  30  42  66  93 114 137 180 221 255
#     4  11  17  25  45  71  91 108 146 175 219 259
#     4   9  16  26  45  63  88 112 147 182 207 251
#
# _framework density 25.637149000000001
#
# number of rings (size 3 to 8) (size 9 to 14) (size 15 to 20)
#    0.857    2.286    2.857    0.857    0.000    1.143 
#    0.000    0.000    0.000    0.857    0.000    1.000 
#    0.000    0.000    0.000    0.000    0.000    0.000 
#
# Total GULP energy -78006.714935 kJ/mol
# GULP energy per Si atom -5571.908210 kJ/mol
# Density = 2.557880 g / cm^3
# Si number density = 25.637149 Si / 1000 Ang^3
#
#
#
# Elastic Constant Matrix: (Units=GPa)
#
#
# Indices 1 2 3 4 5 6 
#
# 1 117.7881 24.1232 38.4152 -20.8346 52.8795 -25.5456
# 2 24.1232 61.9907 22.4562 -29.8051 8.0565 -23.6490
# 3 38.4152 22.4562 84.1617 -34.8778 31.8850 -4.0629
# 4 -20.8346 -29.8051 -34.8778 51.3428 -8.0610 8.0904
# 5 52.8795 8.0565 31.8850 -8.0610 51.4810 -14.2749
# 6 -25.5456 -23.6490 -4.0629 8.0904 -14.2749 31.9311
#
#
#
# Elastic Compliance Matrix: (Units=1/GPa)
#
#
# Indices 1 2 3 4 5 6 
#
# 1 0.017580 -0.001285 -0.000237 0.002915 -0.015788 0.005286
# 2 -0.001285 0.031648 -0.004217 0.012651 0.007005 0.021801
# 3 -0.000237 -0.004217 0.023261 0.012579 -0.014287 -0.009927
# 4 0.002915 0.012651 0.012579 0.035265 -0.006886 0.001289
# 5 -0.015788 0.007005 -0.014287 -0.006886 0.045924 0.013015
# 6 0.005286 0.021801 -0.009927 0.001289 0.013015 0.055921
#
#
# Mechanical properties :
#
#
# Convention : Reuss Voigt Hill
#
# Bulk Modulus (GPa) = 16.39037 48.21442 32.30240
# Shear Modulus (GPa) = 20.71130 38.88070 29.79600
#
# Velocity S-wave (km/s) = 2.84538 3.89855 3.41283
# Velocity P-wave (km/s) = 4.14753 6.25398 5.30633
#
# Compressibility (1/GPa) = 0.06101145
#
# Stress axis : x y z
#
# Youngs Moduli (GPa) = 56.88301 31.59759 42.98972
#
# Poissons Ratio (x) = 0.04062 0.01018
# Poissons Ratio (y) = 0.07312 0.18127
# Poissons Ratio (z) = 0.01347 0.13323
#
# Static dielectric constant tensor:
#      x y z
#    x 2.105040 -0.038710 -0.055480 
#    y -0.038710 2.004480 0.017270 
#    z -0.055480 0.017270 2.209000 
# 
# From -- ./inp_files/274295.got.cif
#   From: 2010.05.17/outbox.cif.g08.bks.cpg/sg2_138_cif.got.tgz:274295.got - 2010.06.03 11:33:40.
