data_PCOD9052200
_publ_section_title
;
Structure prediction by ZEFSAII (Michael W. Deem and Ramdas Pophale) SiO2 
 PCOD9052200
Probable space group: P -1
;
_chemical_formula_sum "Si O2"
_cell_formula_units_Z 11
_cell_length_a 9.213804
_cell_length_b 14.060325
_cell_length_c 18.797954
_cell_angle_alpha 158.953402
_cell_angle_beta 34.690587
_cell_angle_gamma 146.360602
_cell_volume 471.787738
_symmetry_space_group_name_H-M "P -1"
_symmetry_group_IT_number 2
_symmetry_cell_setting 'triclinic'
loop_
_space_group_symop_operation_xyz
x,y,z
-x,-y,-z
loop_
_atom_site_type_symbol
_atom_site_label
_atom_site_fract_x
_atom_site_fract_y
_atom_site_fract_z
Si Si1 0.688348 0.958103 0.457357
Si Si2 0.000000 0.500000 0.000000
Si Si3 0.778974 0.148976 0.029813
Si Si4 0.343302 0.167125 0.843108
Si Si5 0.141367 0.256467 0.570185
Si Si6 0.534842 0.012889 0.185160
O O1 0.500000 0.000000 0.500000
O O2 0.508237 0.976532 0.611186
O O3 0.791543 0.694878 0.221815
O O4 0.955938 0.217921 0.547982
O O5 0.742645 0.221917 0.890218
O O6 0.858293 0.469386 0.196830
O O7 0.713777 0.118749 0.118282
O O8 0.051745 0.076357 0.859785
O O9 0.500000 0.000000 0.000000
O O10 0.329331 0.111195 0.893784
O O11 0.500000 0.500000 0.000000
O O12 0.432666 0.256823 0.429521
O O13 0.000000 0.000000 0.500000
#
# Coordination Sequence:
#
# PCOD9052200 Si02
#       6
#     2   1   2   2   2   2
#     4  11  24  43  78 110 144 195 267 307 372 469
#     4  10  26  42  78 112 148 196 254 312 388 458
#     4  12  29  45  72 114 153 194 253 327 385 444
#     4  12  24  48  75 106 150 205 258 306 386 471
#     4  11  23  48  74 103 148 201 252 310 388 464
#     4  11  25  45  72 105 154 194 252 309 389 448
#
# _framework density 23.315570000000001
#
# number of rings (size 3 to 8) (size 9 to 14) (size 15 to 20)
#    0.000    0.727    3.636    2.182   12.727    0.000 
#    0.000    1.818    0.000    0.000    0.000    0.000 
#    0.000    0.000    0.000    0.000    0.000    0.000 
#
# Total GULP energy -61243.957833 kJ/mol
# GULP energy per Si atom -5567.632530 kJ/mol
# Density = 2.326250 g / cm^3
# Si number density = 23.315570 Si / 1000 Ang^3
#
#
#
# Elastic Constant Matrix: (Units=GPa)
#
#
# Indices 1 2 3 4 5 6 
#
# 1 129.0074 36.2281 22.0984 -2.2597 -31.6092 14.3783
# 2 36.2281 76.0559 32.3349 -12.7584 -23.2303 6.4102
# 3 22.0984 32.3349 140.4424 -25.6344 -35.8726 20.1845
# 4 -2.2597 -12.7584 -25.6344 40.8003 7.2327 -2.8913
# 5 -31.6092 -23.2303 -35.8726 7.2327 27.0496 -8.1943
# 6 14.3783 6.4102 20.1845 -2.8913 -8.1943 55.4773
#
#
#
# Elastic Compliance Matrix: (Units=1/GPa)
#
#
# Indices 1 2 3 4 5 6 
#
# 1 0.011771 -0.002135 0.002489 -0.001235 0.015086 -0.001546
# 2 -0.002135 0.018576 -0.000226 0.003385 0.012404 0.000498
# 3 0.002489 -0.000226 0.012334 0.004614 0.017131 -0.002336
# 4 -0.001235 0.003385 0.004614 0.028396 -0.000096 -0.000284
# 5 0.015086 0.012404 0.017131 -0.000096 0.088443 0.001483
# 6 -0.001546 0.000498 -0.002336 -0.000284 0.001483 0.019423
#
#
# Mechanical properties :
#
#
# Convention : Reuss Voigt Hill
#
# Bulk Modulus (GPa) = 23.28946 58.53650 40.91298
# Shear Modulus (GPa) = 25.90680 41.65506 33.78093
#
# Velocity S-wave (km/s) = 3.33699 4.23138 3.81051
# Velocity P-wave (km/s) = 4.98576 7.00239 6.07829
#
# Compressibility (1/GPa) = 0.04293788
#
# Stress axis : x y z
#
# Youngs Moduli (GPa) = 84.95104 53.83360 81.07452
#
# Poissons Ratio (x) = 0.11492 -0.20181
# Poissons Ratio (y) = 0.18134 0.01835
# Poissons Ratio (z) = -0.21146 0.01219
#
# Static dielectric constant tensor:
#      x y z
#    x 2.016930 -0.067010 0.055030 
#    y -0.067010 1.891370 0.002490 
#    z 0.055030 0.002490 1.863650 
# 
# From -- ./inp_files/151117.got.cif
#   From: 2010.05.17/outbox.cif.g08.bks.cpg/sg2_76_cif.got.tgz:151117.got - 2010.06.03 11:33:40.
