data_PCOD9052184
_publ_section_title
;
Structure prediction by ZEFSAII (Michael W. Deem and Ramdas Pophale) SiO2 
 PCOD9052184
Probable space group: P -1
;
_chemical_formula_sum "Si O2"
_cell_formula_units_Z 15
_cell_length_a 9.783048
_cell_length_b 9.699324
_cell_length_c 11.868029
_cell_angle_alpha 133.078010
_cell_angle_beta 128.157593
_cell_angle_gamma 69.781926
_cell_volume 641.049175
_symmetry_space_group_name_H-M "P -1"
_symmetry_group_IT_number 2
_symmetry_cell_setting 'triclinic'
loop_
_space_group_symop_operation_xyz
x,y,z
-x,-y,-z
loop_
_atom_site_type_symbol
_atom_site_label
_atom_site_fract_x
_atom_site_fract_y
_atom_site_fract_z
Si Si1 0.281092 0.544084 0.742729
Si Si2 0.947011 0.532796 0.735708
Si Si3 0.506845 0.890522 0.161215
Si Si4 0.341660 0.111511 0.524185
Si Si5 0.034459 0.089208 0.795169
Si Si6 0.761899 0.197511 0.354070
Si Si7 0.812289 0.900855 0.884863
Si Si8 0.000000 0.500000 0.000000
O O1 0.334953 0.337084 0.623230
O O2 0.245189 0.665720 0.681271
O O3 0.106343 0.527062 0.724729
O O4 0.436709 0.681441 0.961982
O O5 0.814044 0.338182 0.562496
O O6 0.818226 0.688472 0.727017
O O7 0.016411 0.586357 0.926018
O O8 0.640316 0.889095 0.331135
O O9 0.593235 0.044548 0.201307
O O10 0.338048 0.984096 0.168045
O O11 0.500000 0.000000 0.500000
O O12 0.165579 0.988123 0.320677
O O13 0.082553 0.927957 0.647007
O O14 0.175317 0.089448 0.967901
O O15 0.052052 0.297557 0.869417
O O16 0.000000 0.000000 0.000000
#
# Coordination Sequence:
#
# PCOD9052184 Si02
#       8
#     2   2   2   2   2   2   2   1
#     4  12  26  48  76 109 148 203 247 307 377 450
#     4  11  24  45  77 107 146 201 250 301 368 454
#     4  12  27  47  72 112 150 198 242 322 369 444
#     4  12  29  46  73 110 152 191 255 312 377 439
#     4  11  24  46  72 104 145 199 238 307 369 452
#     4  12  26  46  78 110 149 192 263 304 374 442
#     4  11  22  43  74 100 143 191 251 292 370 440
#     4  10  26  42  72 112 148 190 250 304 374 438
#
# _framework density 23.399139999999999
#
# number of rings (size 3 to 8) (size 9 to 14) (size 15 to 20)
#    0.000    0.533    4.000    2.800    7.467    2.667 
#    2.400    0.000    0.000    0.000    0.000    0.000 
#    0.000    0.000    0.000    0.000    0.000    0.000 
#
# Total GULP energy -83556.420290 kJ/mol
# GULP energy per Si atom -5570.428019 kJ/mol
# Density = 2.334588 g / cm^3
# Si number density = 23.399140 Si / 1000 Ang^3
#
#
#
# Elastic Constant Matrix: (Units=GPa)
#
#
# Indices 1 2 3 4 5 6 
#
# 1 72.2868 15.4279 3.8540 -0.6898 6.1924 -14.0417
# 2 15.4279 131.0425 34.1493 13.7372 -8.0807 -13.2370
# 3 3.8540 34.1493 92.6584 2.0008 -0.0390 -9.5707
# 4 -0.6898 13.7372 2.0008 48.6150 -4.8162 -18.2791
# 5 6.1924 -8.0807 -0.0390 -4.8162 31.4213 7.4318
# 6 -14.0417 -13.2370 -9.5707 -18.2791 7.4318 38.5142
#
#
#
# Elastic Compliance Matrix: (Units=1/GPa)
#
#
# Indices 1 2 3 4 5 6 
#
# 1 0.016224 -0.001968 0.000800 0.003241 -0.005088 0.007957
# 2 -0.001968 0.009085 -0.003206 -0.002186 0.002358 0.000115
# 3 0.000800 -0.003206 0.012241 0.001476 -0.001503 0.003222
# 4 0.003241 -0.002186 0.001476 0.026126 -0.000331 0.013261
# 5 -0.005088 0.002358 -0.001503 -0.000331 0.035369 -0.008400
# 6 0.007957 0.000115 0.003222 0.013261 -0.008400 0.037621
#
#
# Mechanical properties :
#
#
# Convention : Reuss Voigt Hill
#
# Bulk Modulus (GPa) = 34.72082 44.76112 39.74097
# Shear Modulus (GPa) = 32.25537 39.88055 36.06796
#
# Velocity S-wave (km/s) = 3.71682 4.13287 3.93035
# Velocity P-wave (km/s) = 5.76979 6.47650 6.13333
#
# Compressibility (1/GPa) = 0.02880116
#
# Stress axis : x y z
#
# Youngs Moduli (GPa) = 61.63815 110.07663 81.69271
#
# Poissons Ratio (x) = 0.21667 -0.06539
# Poissons Ratio (y) = 0.12133 0.26192
# Poissons Ratio (z) = -0.04934 0.35292
#
# Static dielectric constant tensor:
#      x y z
#    x 1.902010 0.040870 -0.013700 
#    y 0.040870 1.866820 0.033100 
#    z -0.013700 0.033100 1.895050 
# 
# From -- ./inp_files/297697.got.cif
#   From: 2010.05.17/outbox.cif.g08.bks.cpg/sg2_149_cif.got.tgz:297697.got - 2010.06.03 11:33:40.
