data_PCOD9052058
_publ_section_title
;
Structure prediction by ZEFSAII (Michael W. Deem and Ramdas Pophale) SiO2 
 PCOD9052058
Probable space group: P -1
;
_chemical_formula_sum "Si O2"
_cell_formula_units_Z 14
_cell_length_a 5.326003
_cell_length_b 13.218453
_cell_length_c 9.784361
_cell_angle_alpha 63.851432
_cell_angle_beta 101.700778
_cell_angle_gamma 82.297009
_cell_volume 585.601982
_symmetry_space_group_name_H-M "P -1"
_symmetry_group_IT_number 2
_symmetry_cell_setting 'triclinic'
loop_
_space_group_symop_operation_xyz
x,y,z
-x,-y,-z
loop_
_atom_site_type_symbol
_atom_site_label
_atom_site_fract_x
_atom_site_fract_y
_atom_site_fract_z
Si Si1 0.385593 0.642777 0.536488
Si Si2 0.090072 0.153909 0.663342
Si Si3 0.634375 0.575702 0.866404
Si Si4 0.961248 0.650502 0.074949
Si Si5 0.596520 0.035314 0.636604
Si Si6 0.264250 0.410556 0.634711
Si Si7 0.129411 0.104235 0.999372
O O1 0.450253 0.662386 0.687984
O O2 0.433078 0.503857 0.628397
O O3 0.568939 0.666622 0.420212
O O4 0.089397 0.714678 0.430562
O O5 0.327260 0.124724 0.602141
O O6 0.222440 0.128474 0.843327
O O7 0.861761 0.085407 0.639619
O O8 0.843574 0.475420 0.864443
O O9 0.500000 0.500000 0.000000
O O10 0.770311 0.658510 0.919858
O O11 0.797581 0.639205 0.199411
O O12 0.051609 0.769744 0.041183
O O13 0.500000 0.000000 0.500000
O O14 0.669771 0.940861 0.826218
O O15 0.000000 0.500000 0.500000
O O16 0.000000 0.000000 0.000000
#
# Coordination Sequence:
#
# PCOD9052058 Si02
#       7
#     2   2   2   2   2   2   2
#     4  11  25  40  68 106 144 185 241 306 367 447
#     4  11  26  46  76 105 145 193 251 309 376 444
#     4  11  24  44  64 110 147 191 237 296 379 459
#     4  11  24  43  74  99 148 195 241 302 375 446
#     4  11  26  50  73 106 143 192 253 314 375 445
#     4  11  22  41  66 100 141 183 239 292 363 445
#     4  10  25  50  74 106 142 194 257 312 369 435
#
# _framework density 23.907022999999999
#
# number of rings (size 3 to 8) (size 9 to 14) (size 15 to 20)
#    0.000    1.143    2.857    1.714    8.000    1.143 
#    7.714    0.000    0.000    0.000    0.000    0.000 
#    0.000    0.000    0.000    0.000    0.000    0.000 
#
# Total GULP energy -78005.735506 kJ/mol
# GULP energy per Si atom -5571.838250 kJ/mol
# Density = 2.385261 g / cm^3
# Si number density = 23.907023 Si / 1000 Ang^3
#
#
#
# Elastic Constant Matrix: (Units=GPa)
#
#
# Indices 1 2 3 4 5 6 
#
# 1 78.2707 43.4856 32.2602 18.3038 -0.4651 -8.8731
# 2 43.4856 156.0553 49.2299 19.4196 -14.0240 9.3274
# 3 32.2602 49.2299 156.4253 28.1496 21.4784 -2.4300
# 4 18.3038 19.4196 28.1496 32.5813 4.9407 4.0757
# 5 -0.4651 -14.0240 21.4784 4.9407 37.3130 9.0608
# 6 -8.8731 9.3274 -2.4300 4.0757 9.0608 43.4303
#
#
#
# Elastic Compliance Matrix: (Units=1/GPa)
#
#
# Indices 1 2 3 4 5 6 
#
# 1 0.017759 -0.004249 -0.000752 -0.007280 -0.001303 0.005454
# 2 -0.004249 0.009455 -0.002808 -0.001248 0.006316 -0.004256
# 3 -0.000752 -0.002808 0.009314 -0.005331 -0.006402 0.002806
# 4 -0.007280 -0.001248 -0.005331 0.041017 -0.001705 -0.005011
# 5 -0.001303 0.006316 -0.006402 -0.001705 0.035299 -0.009185
# 6 0.005454 -0.004256 0.002806 -0.005011 -0.009185 0.027597
#
#
# Mechanical properties :
#
#
# Convention : Reuss Voigt Hill
#
# Bulk Modulus (GPa) = 47.82283 71.18917 59.50600
# Shear Modulus (GPa) = 30.66928 40.38331 35.52629
#
# Velocity S-wave (km/s) = 3.58558 4.11442 3.85907
# Velocity P-wave (km/s) = 6.09828 7.23972 6.69337
#
# Compressibility (1/GPa) = 0.02091052
#
# Stress axis : x y z
#
# Youngs Moduli (GPa) = 56.30799 105.76279 107.36981
#
# Poissons Ratio (x) = 0.44937 0.08071
# Poissons Ratio (y) = 0.23924 0.30153
# Poissons Ratio (z) = 0.04233 0.29701
#
# Static dielectric constant tensor:
#      x y z
#    x 2.050230 0.193730 -0.072490 
#    y 0.193730 2.063840 -0.068660 
#    z -0.072490 -0.068660 2.137900 
# 
# From -- ./inp_files/134068.got.cif
#   From: 2010.05.17/outbox.cif.g08.bks.cpg/sg2_68_cif.got.tgz:134068.got - 2010.06.03 11:33:40.
