data_PCOD9052954
_publ_section_title
;
Structure prediction by ZEFSAII (Michael W. Deem and Ramdas Pophale) SiO2 
 PCOD9052954
Probable space group: P -1
;
_chemical_formula_sum "Si O2"
_cell_formula_units_Z 12
_cell_length_a 12.018603
_cell_length_b 14.357399
_cell_length_c 12.083686
_cell_angle_alpha 141.240864
_cell_angle_beta 124.705200
_cell_angle_gamma 28.621450
_cell_volume 577.375433
_symmetry_space_group_name_H-M "P -1"
_symmetry_group_IT_number 2
_symmetry_cell_setting 'triclinic'
loop_
_space_group_symop_operation_xyz
x,y,z
-x,-y,-z
loop_
_atom_site_type_symbol
_atom_site_label
_atom_site_fract_x
_atom_site_fract_y
_atom_site_fract_z
Si Si1 0.244459 0.764158 0.493466
Si Si2 0.909855 0.644755 0.824563
Si Si3 0.548621 0.918719 0.323784
Si Si4 0.088343 0.167871 0.207796
Si Si5 0.708664 0.146439 0.174115
Si Si6 0.636580 0.656573 0.555321
O O1 0.417207 0.460112 0.288433
O O2 0.183786 0.843760 0.662317
O O3 0.430593 0.727758 0.537279
O O4 0.000000 0.000000 0.500000
O O5 0.990606 0.622256 0.724725
O O6 0.751635 0.643918 0.710758
O O7 0.157041 0.395150 0.806089
O O8 0.750701 0.936234 0.040431
O O9 0.500000 0.000000 0.500000
O O10 0.354532 0.968457 0.226433
O O11 0.486554 0.111690 0.385168
O O12 0.869629 0.360897 0.351411
O O13 0.146312 0.984608 0.982422
#
# Coordination Sequence:
#
# PCOD9052954 Si02
#       6
#     2   2   2   2   2   2
#     4  11  26  45  59  80 124 169 209 241 293 357
#     4   9  19  36  64  90 121 148 192 248 306 348
#     4  11  16  32  63 100 127 144 183 252 315 358
#     4   9  19  36  62  95 117 151 192 251 302 347
#     4   9  23  44  62  79 126 162 194 257 298 344
#     4  11  21  37  64  97 119 153 199 249 301 356
#
# _framework density 20.783702999999999
#
# number of rings (size 3 to 8) (size 9 to 14) (size 15 to 20)
#    1.000    1.000    3.333    1.000    2.333    4.000 
#    0.000    2.500    0.000    0.000    0.000    0.000 
#    0.000    0.000    0.000    0.000    0.000    0.000 
#
# Total GULP energy -66919.671992 kJ/mol
# GULP energy per Si atom -5576.639333 kJ/mol
# Density = 2.073640 g / cm^3
# Si number density = 20.783703 Si / 1000 Ang^3
#
#
#
# Elastic Constant Matrix: (Units=GPa)
#
#
# Indices 1 2 3 4 5 6 
#
# 1 54.4424 26.0568 21.9794 4.8246 1.0848 -11.7153
# 2 26.0568 186.9089 66.1570 23.0914 1.4350 -2.6488
# 3 21.9794 66.1570 133.7465 26.7155 -6.7260 -5.8691
# 4 4.8246 23.0914 26.7155 27.3638 5.8629 0.2229
# 5 1.0848 1.4350 -6.7260 5.8629 22.2605 -2.6523
# 6 -11.7153 -2.6488 -5.8691 0.2229 -2.6523 25.0605
#
#
#
# Elastic Compliance Matrix: (Units=1/GPa)
#
#
# Indices 1 2 3 4 5 6 
#
# 1 0.022399 -0.002213 -0.002206 0.000099 -0.000490 0.009668
# 2 -0.002213 0.006902 -0.002547 -0.002839 -0.000469 -0.000926
# 3 -0.002206 -0.002547 0.011577 -0.010223 0.006726 0.002213
# 4 0.000099 -0.002839 -0.010223 0.052666 -0.017372 -0.004955
# 5 -0.000490 -0.000469 0.006726 -0.017372 0.052418 0.006999
# 6 0.009668 -0.000926 0.002213 -0.004955 0.006999 0.045628
#
#
# Mechanical properties :
#
#
# Convention : Reuss Voigt Hill
#
# Bulk Modulus (GPa) = 37.11387 67.05382 52.08385
# Shear Modulus (GPa) = 23.30942 32.33060 27.82001
#
# Velocity S-wave (km/s) = 3.35255 3.94836 3.66259
# Velocity P-wave (km/s) = 5.73429 7.28826 6.55747
#
# Compressibility (1/GPa) = 0.02694410
#
# Stress axis : x y z
#
# Youngs Moduli (GPa) = 44.64393 144.89492 86.37938
#
# Poissons Ratio (x) = 0.32067 0.19059
# Poissons Ratio (y) = 0.09880 0.22004
# Poissons Ratio (z) = 0.09850 0.36910
#
# Static dielectric constant tensor:
#      x y z
#    x 1.781780 0.013120 0.000340 
#    y 0.013120 1.718980 0.008490 
#    z 0.000340 0.008490 1.786550 
# 
# From -- ./inp_files/485099.got.cif
#   From: 2010.05.17/outbox.cif.g08.bks.cpg/sg2_243_cif.got.tgz:485099.got - 2010.06.03 11:33:40.
