data_PCOD9052560
_publ_section_title
;
Structure prediction by ZEFSAII (Michael W. Deem and Ramdas Pophale) SiO2 
 PCOD9052560
Probable space group: P -1
;
_chemical_formula_sum "Si O2"
_cell_formula_units_Z 14
_cell_length_a 5.027053
_cell_length_b 9.279807
_cell_length_c 14.582170
_cell_angle_alpha 92.100228
_cell_angle_beta 105.391009
_cell_angle_gamma 123.654854
_cell_volume 531.435224
_symmetry_space_group_name_H-M "P -1"
_symmetry_group_IT_number 2
_symmetry_cell_setting 'triclinic'
loop_
_space_group_symop_operation_xyz
x,y,z
-x,-y,-z
loop_
_atom_site_type_symbol
_atom_site_label
_atom_site_fract_x
_atom_site_fract_y
_atom_site_fract_z
Si Si1 0.716590 0.879931 0.362772
Si Si2 0.432790 0.647790 0.974066
Si Si3 0.920628 0.821868 0.739954
Si Si4 0.192291 0.765633 0.456029
Si Si5 0.181030 0.693760 0.145398
Si Si6 0.841948 0.571288 0.590762
Si Si7 0.643837 0.941787 0.864049
O O1 0.549563 0.899477 0.438823
O O2 0.433211 0.769710 0.255901
O O3 0.910216 0.793515 0.401897
O O4 0.983978 0.063971 0.341083
O O5 0.663043 0.834706 0.946781
O O6 0.116250 0.514693 0.873579
O O7 0.500000 0.500000 0.000000
O O8 0.331552 0.689707 0.061405
O O9 0.268719 0.898891 0.829899
O O10 0.796015 0.633014 0.685158
O O11 0.682674 0.849830 0.778270
O O12 0.106240 0.582200 0.401645
O O13 0.153414 0.723907 0.559692
O O14 0.109284 0.844065 0.125075
O O15 0.500000 0.500000 0.500000
#
# Coordination Sequence:
#
# PCOD9052560 Si02
#       7
#     2   2   2   2   2   2   2
#     4  11  24  46  70 100 135 186 234 289 348 418
#     4  11  27  43  75 109 139 191 238 285 359 430
#     4  11  28  46  71 102 137 186 238 283 359 417
#     4  11  25  43  72  98 137 185 225 294 347 412
#     4  10  26  47  69 107 143 184 239 292 354 424
#     4  11  26  46  67 106 143 181 233 289 357 415
#     4  11  27  49  72 102 148 187 232 301 347 417
#
# _framework density 26.343758000000001
#
# number of rings (size 3 to 8) (size 9 to 14) (size 15 to 20)
#    0.000    1.143    1.429    2.143   16.000    1.714 
#    0.000    0.000    0.000    0.000    0.000    0.000 
#    0.000    0.000    0.000    0.000    0.000    0.000 
#
# Total GULP energy -78367.293597 kJ/mol
# GULP energy per Si atom -5597.663828 kJ/mol
# Density = 2.628380 g / cm^3
# Si number density = 26.343758 Si / 1000 Ang^3
#
#
#
# Elastic Constant Matrix: (Units=GPa)
#
#
# Indices 1 2 3 4 5 6 
#
# 1 100.4381 34.9742 34.9290 -8.3419 -9.8767 -20.2806
# 2 34.9742 139.8400 38.7081 -16.8698 -2.9561 -3.1568
# 3 34.9290 38.7081 106.4417 4.1883 -7.5527 -15.4595
# 4 -8.3419 -16.8698 4.1883 55.3757 -5.2499 -3.6995
# 5 -9.8767 -2.9561 -7.5527 -5.2499 49.5124 1.5550
# 6 -20.2806 -3.1568 -15.4595 -3.6995 1.5550 52.2710
#
#
#
# Elastic Compliance Matrix: (Units=1/GPa)
#
#
# Indices 1 2 3 4 5 6 
#
# 1 0.012850 -0.002061 -0.002800 0.001993 0.002095 0.004112
# 2 -0.002061 0.008697 -0.002716 0.002483 -0.000015 -0.000902
# 3 -0.002800 -0.002716 0.011733 -0.001923 0.000801 0.002060
# 4 0.001993 0.002483 -0.001923 0.019588 0.002277 0.001673
# 5 0.002095 -0.000015 0.000801 0.002277 0.020959 0.000586
# 6 0.004112 -0.000902 0.002060 0.001673 0.000586 0.021382
#
#
# Mechanical properties :
#
#
# Convention : Reuss Voigt Hill
#
# Bulk Modulus (GPa) = 55.16981 62.66024 58.91503
# Shear Modulus (GPa) = 42.95359 47.30574 45.12966
#
# Velocity S-wave (km/s) = 4.04233 4.24218 4.14346
# Velocity P-wave (km/s) = 6.54026 6.91607 6.73079
#
# Compressibility (1/GPa) = 0.01812586
#
# Stress axis : x y z
#
# Youngs Moduli (GPa) = 77.82387 114.97920 85.23067
#
# Poissons Ratio (x) = 0.23700 0.23861
# Poissons Ratio (y) = 0.16041 0.23149
# Poissons Ratio (z) = 0.21787 0.31229
#
# Static dielectric constant tensor:
#      x y z
#    x 2.151250 0.084700 0.087710 
#    y 0.084700 2.171330 0.011230 
#    z 0.087710 0.011230 2.024280 
# 
# From -- ./inp_files/480662.got.cif
#   From: 2010.05.17/outbox.cif.g08.bks.cpg/sg2_241_cif.got.tgz:480662.got - 2010.06.03 11:33:40.
