data_PCOD9052205
_publ_section_title
;
Structure prediction by ZEFSAII (Michael W. Deem and Ramdas Pophale) SiO2 
 PCOD9052205
Probable space group: P -1
;
_chemical_formula_sum "Si O2"
_cell_formula_units_Z 15
_cell_length_a 18.386780
_cell_length_b 8.673392
_cell_length_c 7.589485
_cell_angle_alpha 145.581051
_cell_angle_beta 117.025962
_cell_angle_gamma 63.038906
_cell_volume 601.964842
_symmetry_space_group_name_H-M "P -1"
_symmetry_group_IT_number 2
_symmetry_cell_setting 'triclinic'
loop_
_space_group_symop_operation_xyz
x,y,z
-x,-y,-z
loop_
_atom_site_type_symbol
_atom_site_label
_atom_site_fract_x
_atom_site_fract_y
_atom_site_fract_z
Si Si1 0.850478 0.095365 0.510779
Si Si2 0.056569 0.571761 0.289850
Si Si3 0.434473 0.200291 0.998665
Si Si4 0.674273 0.272334 0.571600
Si Si5 0.105838 0.448775 0.756275
Si Si6 0.207506 0.262681 0.341850
Si Si7 0.690216 0.323964 0.040578
Si Si8 0.500000 0.500000 0.000000
O O1 0.909317 0.151902 0.468976
O O2 0.755008 0.218515 0.490629
O O3 0.853587 0.786732 0.286355
O O4 0.883254 0.260244 0.869300
O O5 0.139506 0.358508 0.211029
O O6 0.990552 0.589716 0.390490
O O7 0.000000 0.500000 0.000000
O O8 0.467423 0.318787 0.964883
O O9 0.365042 0.005126 0.704736
O O10 0.394300 0.472407 0.319660
O O11 0.500000 0.000000 0.000000
O O12 0.702786 0.357160 0.876203
O O13 0.155105 0.373977 0.561985
O O14 0.246541 0.945647 0.090429
O O15 0.285360 0.423702 0.584641
O O16 0.593021 0.321843 0.952394
#
# Coordination Sequence:
#
# PCOD9052205 Si02
#       8
#     2   2   2   2   2   2   2   1
#     4  11  22  40  66  93 129 178 222 278 343 404
#     4  10  26  43  64 101 144 180 229 291 351 402
#     4  11  25  42  68 100 136 183 230 284 364 429
#     4  11  21  42  67  94 135 177 229 286 346 419
#     4  11  21  42  65  94 131 178 228 281 337 409
#     4  12  23  42  69  99 134 182 236 278 338 435
#     4  11  24  42  70 102 131 180 230 285 353 411
#     4  10  26  46  72 104 148 178 232 312 352 422
#
# _framework density 24.918399000000001
#
# number of rings (size 3 to 8) (size 9 to 14) (size 15 to 20)
#    0.000    1.067    2.667    3.600    0.000   11.200 
#    0.000    4.667    0.000    0.000    0.000    0.000 
#    0.000    0.000    0.000    0.000    0.000    0.000 
#
# Total GULP energy -83669.499666 kJ/mol
# GULP energy per Si atom -5577.966644 kJ/mol
# Density = 2.486168 g / cm^3
# Si number density = 24.918399 Si / 1000 Ang^3
#
#
#
# Elastic Constant Matrix: (Units=GPa)
#
#
# Indices 1 2 3 4 5 6 
#
# 1 133.7257 18.1138 6.4489 -9.5813 5.7795 -11.3631
# 2 18.1138 117.7871 19.0738 12.1032 -5.3539 -10.7614
# 3 6.4489 19.0738 74.1529 8.7462 5.6090 14.0035
# 4 -9.5813 12.1032 8.7462 32.5490 -5.4178 -9.7380
# 5 5.7795 -5.3539 5.6090 -5.4178 19.6796 5.3350
# 6 -11.3631 -10.7614 14.0035 -9.7380 5.3350 42.2642
#
#
#
# Elastic Compliance Matrix: (Units=1/GPa)
#
#
# Indices 1 2 3 4 5 6 
#
# 1 0.008409 -0.001254 -0.001393 0.004017 -0.002289 0.003617
# 2 -0.001254 0.009666 -0.002739 -0.002134 0.002591 0.002213
# 3 -0.001393 -0.002739 0.016984 -0.007098 -0.005044 -0.007698
# 4 0.004017 -0.002134 -0.007098 0.039216 0.008104 0.010901
# 5 -0.002289 0.002591 -0.005044 0.008104 0.056833 -0.003591
# 6 0.003617 0.002213 -0.007698 0.010901 -0.003591 0.030712
#
#
# Mechanical properties :
#
#
# Convention : Reuss Voigt Hill
#
# Bulk Modulus (GPa) = 41.17508 45.88208 43.52858
# Shear Modulus (GPa) = 27.67204 37.70051 32.68627
#
# Velocity S-wave (km/s) = 3.33604 3.89390 3.62571
# Velocity P-wave (km/s) = 5.60346 6.21848 5.91896
#
# Compressibility (1/GPa) = 0.02428654
#
# Stress axis : x y z
#
# Youngs Moduli (GPa) = 118.91831 103.46030 58.87971
#
# Poissons Ratio (x) = 0.12974 0.08200
# Poissons Ratio (y) = 0.14912 0.16129
# Poissons Ratio (z) = 0.16561 0.28341
#
# Static dielectric constant tensor:
#      x y z
#    x 2.025290 0.027230 -0.024730 
#    y 0.027230 1.988730 -0.043700 
#    z -0.024730 -0.043700 2.003220 
# 
# From -- ./inp_files/329759.got.cif
#   From: 2010.05.17/outbox.cif.g08.bks.cpg/sg2_165_cif.got.tgz:329759.got - 2010.06.03 11:33:40.
