data_PCOD9052140
_publ_section_title
;
Structure prediction by ZEFSAII (Michael W. Deem and Ramdas Pophale) SiO2 
 PCOD9052140
Probable space group: P -1
;
_chemical_formula_sum "Si O2"
_cell_formula_units_Z 11
_cell_length_a 15.028250
_cell_length_b 5.476905
_cell_length_c 14.542918
_cell_angle_alpha 93.889433
_cell_angle_beta 160.611147
_cell_angle_gamma 85.346402
_cell_volume 395.931263
_symmetry_space_group_name_H-M "P -1"
_symmetry_group_IT_number 2
_symmetry_cell_setting 'triclinic'
loop_
_space_group_symop_operation_xyz
x,y,z
-x,-y,-z
loop_
_atom_site_type_symbol
_atom_site_label
_atom_site_fract_x
_atom_site_fract_y
_atom_site_fract_z
Si Si1 0.898994 0.895405 0.577123
Si Si2 0.734952 0.710105 0.961585
Si Si3 0.401573 0.072843 0.538782
Si Si4 0.000000 0.000000 0.500000
Si Si5 0.081692 0.677171 0.003332
Si Si6 0.698355 0.545545 0.111581
O O1 0.678116 0.827716 0.434020
O O2 0.108733 0.698999 0.726443
O O3 0.078775 0.076300 0.816345
O O4 0.769013 0.996598 0.358751
O O5 0.586530 0.614559 0.903730
O O6 0.919196 0.491215 0.093401
O O7 0.537694 0.810432 0.691530
O O8 0.136321 0.100341 0.220078
O O9 0.622376 0.225117 0.707000
O O10 0.126391 0.232679 0.680977
O O11 0.000000 0.500000 0.000000
O O12 0.500000 0.500000 0.000000
#
# Coordination Sequence:
#
# PCOD9052140 Si02
#       6
#     2   2   2   1   2   2
#     4  11  25  48  70 115 153 207 265 317 383 469
#     4  11  26  48  78 111 159 204 260 322 398 456
#     4  12  26  50  77 114 152 204 260 322 397 473
#     4  10  26  38  72 104 148 206 258 314 382 442
#     4  12  29  52  80 115 154 200 262 330 400 480
#     4  11  25  47  72 112 161 211 267 322 382 467
#
# _framework density 27.782603000000002
#
# number of rings (size 3 to 8) (size 9 to 14) (size 15 to 20)
#    0.000    0.727    3.636    1.091   10.182    2.909 
#    0.000    0.000    0.000    0.000    0.000    0.000 
#    0.000    0.000    0.000    0.000    0.000    0.000 
#
# Total GULP energy -61421.563710 kJ/mol
# GULP energy per Si atom -5583.778519 kJ/mol
# Density = 2.771937 g / cm^3
# Si number density = 27.782603 Si / 1000 Ang^3
#
#
#
# Elastic Constant Matrix: (Units=GPa)
#
#
# Indices 1 2 3 4 5 6 
#
# 1 219.5034 15.3553 16.8471 -5.3544 37.3810 23.0308
# 2 15.3553 71.5206 18.7579 13.2930 10.6399 -25.3385
# 3 16.8471 18.7579 74.7111 3.1617 9.1245 -0.9357
# 4 -5.3544 13.2930 3.1617 36.7154 2.2765 -8.4906
# 5 37.3810 10.6399 9.1245 2.2765 48.6009 2.0507
# 6 23.0308 -25.3385 -0.9357 -8.4906 2.0507 66.5056
#
#
#
# Elastic Compliance Matrix: (Units=1/GPa)
#
#
# Indices 1 2 3 4 5 6 
#
# 1 0.005622 -0.001518 -0.000492 0.001126 -0.003857 -0.002269
# 2 -0.001518 0.019161 -0.003877 -0.005012 -0.002369 0.007204
# 3 -0.000492 -0.003877 0.014639 -0.000084 -0.001472 -0.001066
# 4 0.001126 -0.005012 -0.000084 0.029649 -0.001206 0.001522
# 5 -0.003857 -0.002369 -0.001472 -0.001206 0.024414 -0.000495
# 6 -0.002269 0.007204 -0.001066 0.001522 -0.000495 0.018762
#
#
# Mechanical properties :
#
#
# Convention : Reuss Voigt Hill
#
# Bulk Modulus (GPa) = 36.16696 51.96173 44.06435
# Shear Modulus (GPa) = 37.52722 51.34935 44.43829
#
# Velocity S-wave (km/s) = 3.67924 4.30380 4.00371
# Velocity P-wave (km/s) = 5.57630 6.59094 6.10474
#
# Compressibility (1/GPa) = 0.02764954
#
# Stress axis : x y z
#
# Youngs Moduli (GPa) = 177.87340 52.18940 68.30963
#
# Poissons Ratio (x) = 0.07920 0.03359
# Poissons Ratio (y) = 0.26994 0.26483
# Poissons Ratio (z) = 0.08748 0.20234
#
# Static dielectric constant tensor:
#      x y z
#    x 2.034320 -0.044020 0.184370 
#    y -0.044020 2.100540 0.159270 
#    z 0.184370 0.159270 1.843690 
# 
# From -- ./inp_files/9081.got.cif
#   From: 2010.05.17/outbox.cif.g08.bks.cpg/sg2_5_cif.got.tgz:9081.got - 2010.06.03 11:33:40.
