data_PCOD9052608
_publ_section_title
;
Structure prediction by ZEFSAII (Michael W. Deem and Ramdas Pophale) SiO2 
 PCOD9052608
Probable space group: P -1
;
_chemical_formula_sum "Si O2"
_cell_formula_units_Z 16
_cell_length_a 10.641516
_cell_length_b 10.886870
_cell_length_c 11.493600
_cell_angle_alpha 80.041918
_cell_angle_beta 69.522018
_cell_angle_gamma 36.208187
_cell_volume 722.346265
_symmetry_space_group_name_H-M "P -1"
_symmetry_group_IT_number 2
_symmetry_cell_setting 'triclinic'
loop_
_space_group_symop_operation_xyz
x,y,z
-x,-y,-z
loop_
_atom_site_type_symbol
_atom_site_label
_atom_site_fract_x
_atom_site_fract_y
_atom_site_fract_z
Si Si1 0.259538 0.021509 0.617674
Si Si2 0.646397 0.339128 0.315030
Si Si3 0.747406 0.520219 0.231138
Si Si4 0.906320 0.008227 0.912603
Si Si5 0.502884 0.047789 0.672441
Si Si6 0.415019 0.335402 0.004866
Si Si7 0.729103 0.812448 0.877392
Si Si8 0.248182 0.630085 0.213747
O O1 0.302658 0.838913 0.625776
O O2 0.341956 0.022317 0.472444
O O3 0.392840 0.997485 0.679621
O O4 0.994007 0.243890 0.692779
O O5 0.647196 0.478270 0.348694
O O6 0.423634 0.489947 0.284702
O O7 0.862556 0.209323 0.184506
O O8 0.674210 0.706775 0.283833
O O9 0.021525 0.319946 0.156877
O O10 0.628252 0.610211 0.126730
O O11 0.806472 0.186990 0.829382
O O12 0.678151 0.099962 0.988443
O O13 0.000000 0.000000 0.000000
O O14 0.653832 0.916235 0.759134
O O15 0.244698 0.355546 0.096727
O O16 0.353044 0.494628 0.084304
O O17 0.500000 0.000000 0.000000
#
# Coordination Sequence:
#
# PCOD9052608 Si02
#       8
#     2   2   2   2   2   2   2   2
#     4  10  26  47  74  93 135 179 232 283 325 403
#     4  11  23  42  68 102 133 178 228 277 340 393
#     4  12  26  43  68 102 140 174 224 281 340 402
#     4  11  21  36  60 101 143 177 217 277 337 402
#     4  11  26  50  67 100 134 182 228 275 339 401
#     4  12  22  40  66 101 141 180 221 278 340 405
#     4  12  26  42  67 100 139 180 218 274 344 408
#     4  11  22  39  66 101 134 179 226 275 335 400
#
# _framework density 22.150040000000001
#
# number of rings (size 3 to 8) (size 9 to 14) (size 15 to 20)
#    0.000    0.750    3.750    3.750    3.500    1.500 
#    0.000    4.375    0.000    0.000    0.000    0.000 
#    0.000    0.000    0.000    0.000    0.000    0.000 
#
# Total GULP energy -89231.969841 kJ/mol
# GULP energy per Si atom -5576.998115 kJ/mol
# Density = 2.209963 g / cm^3
# Si number density = 22.150040 Si / 1000 Ang^3
#
#
#
# Elastic Constant Matrix: (Units=GPa)
#
#
# Indices 1 2 3 4 5 6 
#
# 1 131.0925 32.8934 32.4706 -1.4297 -33.9812 -18.3671
# 2 32.8934 71.0546 24.3009 3.8177 -5.7257 -16.1160
# 3 32.4706 24.3009 60.6892 9.2825 -7.9382 -20.1893
# 4 -1.4297 3.8177 9.2825 31.9926 3.8124 -5.3790
# 5 -33.9812 -5.7257 -7.9382 3.8124 35.2263 -1.1674
# 6 -18.3671 -16.1160 -20.1893 -5.3790 -1.1674 49.7422
#
#
#
# Elastic Compliance Matrix: (Units=1/GPa)
#
#
# Indices 1 2 3 4 5 6 
#
# 1 0.012375 -0.003237 -0.003236 0.001040 0.010655 0.002570
# 2 -0.003237 0.017650 -0.004567 -0.000350 -0.001158 0.002605
# 3 -0.003236 -0.004567 0.023238 -0.005558 0.002180 0.006207
# 4 0.001040 -0.000350 -0.005558 0.033686 -0.003899 0.001566
# 5 0.010655 -0.001158 0.002180 -0.003899 0.039556 0.004951
# 6 0.002570 0.002605 0.006207 0.001566 0.004951 0.024701
#
#
# Mechanical properties :
#
#
# Convention : Reuss Voigt Hill
#
# Bulk Modulus (GPa) = 32.06767 49.12958 40.59862
# Shear Modulus (GPa) = 27.22129 34.93698 31.07914
#
# Velocity S-wave (km/s) = 3.50944 3.97582 3.74989
# Velocity P-wave (km/s) = 5.56152 6.58063 6.09242
#
# Compressibility (1/GPa) = 0.03118406
#
# Stress axis : x y z
#
# Youngs Moduli (GPa) = 80.80700 56.65637 43.03377
#
# Poissons Ratio (x) = 0.18338 0.13924
# Poissons Ratio (y) = 0.26154 0.19655
# Poissons Ratio (z) = 0.26145 0.25877
#
# Static dielectric constant tensor:
#      x y z
#    x 2.443180 0.420020 0.005980 
#    y 0.420020 2.067740 0.045770 
#    z 0.005980 0.045770 1.826760 
# 
# From -- ./inp_files/427979.got.cif
#   From: 2010.05.17/outbox.cif.g08.bks.cpg/sg2_214_cif.got.tgz:427979.got - 2010.06.03 11:33:40.
