data_PCOD9052591
_publ_section_title
;
Structure prediction by ZEFSAII (Michael W. Deem and Ramdas Pophale) SiO2 
 PCOD9052591
Probable space group: P -1
;
_chemical_formula_sum "Si O2"
_cell_formula_units_Z 14
_cell_length_a 10.311816
_cell_length_b 11.431715
_cell_length_c 10.084858
_cell_angle_alpha 137.513240
_cell_angle_beta 48.806477
_cell_angle_gamma 138.310091
_cell_volume 518.402522
_symmetry_space_group_name_H-M "P -1"
_symmetry_group_IT_number 2
_symmetry_cell_setting 'triclinic'
loop_
_space_group_symop_operation_xyz
x,y,z
-x,-y,-z
loop_
_atom_site_type_symbol
_atom_site_label
_atom_site_fract_x
_atom_site_fract_y
_atom_site_fract_z
Si Si1 0.017059 0.087333 0.720912
Si Si2 0.578412 0.528850 0.821951
Si Si3 0.340847 0.789381 0.493768
Si Si4 0.556243 0.877847 0.761878
Si Si5 0.004422 0.199695 0.122007
Si Si6 0.792846 0.196295 0.678876
Si Si7 0.724732 0.455731 0.147978
O O1 0.154563 0.299097 0.723989
O O2 0.787636 0.955377 0.713345
O O3 0.089186 0.923214 0.536724
O O4 0.028972 0.191234 0.941281
O O5 0.540208 0.316025 0.624387
O O6 0.814662 0.649451 0.779697
O O7 0.470721 0.607349 0.866176
O O8 0.500000 0.500000 0.000000
O O9 0.216092 0.695997 0.359475
O O10 0.187975 0.791310 0.701223
O O11 0.500000 0.000000 0.500000
O O12 0.378754 0.650175 0.729387
O O13 0.587663 0.003076 0.710532
O O14 0.500000 0.000000 0.000000
O O15 0.000000 0.000000 0.000000
O O16 0.836504 0.359374 0.906204
#
# Coordination Sequence:
#
# PCOD9052591 Si02
#       7
#     2   2   2   2   2   2   2
#     4  12  24  47  72 102 142 186 236 287 353 419
#     4  12  22  43  66 103 145 178 226 287 352 418
#     4  12  25  41  70 103 138 184 230 284 356 420
#     4  10  26  47  73 101 139 188 238 292 344 410
#     4  12  24  40  67 103 139 183 229 287 352 420
#     4  11  24  45  71 102 140 187 233 288 347 412
#     4  11  25  47  72 105 144 185 232 292 344 419
#
# _framework density 27.006039999999999
#
# number of rings (size 3 to 8) (size 9 to 14) (size 15 to 20)
#    0.000    0.571    4.286    3.429    4.000    2.857 
#    0.000    0.000    0.000    0.000    0.000    0.000 
#    0.000    0.000    0.000    0.000    0.000    0.000 
#
# Total GULP energy -78159.017872 kJ/mol
# GULP energy per Si atom -5582.786991 kJ/mol
# Density = 2.694457 g / cm^3
# Si number density = 27.006040 Si / 1000 Ang^3
#
#
#
# Elastic Constant Matrix: (Units=GPa)
#
#
# Indices 1 2 3 4 5 6 
#
# 1 75.9719 7.1170 29.5284 -1.6511 -15.4883 -6.4172
# 2 7.1170 108.3350 27.5145 6.9178 0.4963 -18.0979
# 3 29.5284 27.5145 161.4491 6.4288 -8.8882 -1.5428
# 4 -1.6511 6.9178 6.4288 51.2916 -2.4402 5.0170
# 5 -15.4883 0.4963 -8.8882 -2.4402 61.2922 1.7706
# 6 -6.4172 -18.0979 -1.5428 5.0170 1.7706 52.5102
#
#
#
# Elastic Compliance Matrix: (Units=1/GPa)
#
#
# Indices 1 2 3 4 5 6 
#
# 1 0.015010 -0.000155 -0.002550 0.000838 0.003414 0.001511
# 2 -0.000155 0.010384 -0.001673 -0.001581 -0.000535 0.003680
# 3 -0.002550 -0.001673 0.006986 -0.000652 0.000375 -0.000633
# 4 0.000838 -0.001581 -0.000652 0.020102 0.001000 -0.002416
# 5 0.003414 -0.000535 0.000375 0.001000 0.017289 -0.000435
# 6 0.001511 0.003680 -0.000633 -0.002416 -0.000435 0.020724
#
#
# Mechanical properties :
#
#
# Convention : Reuss Voigt Hill
#
# Bulk Modulus (GPa) = 42.32894 52.67511 47.50203
# Shear Modulus (GPa) = 46.67436 51.79185 49.23311
#
# Velocity S-wave (km/s) = 4.16178 4.38401 4.27434
# Velocity P-wave (km/s) = 6.22911 6.72111 6.47978
#
# Compressibility (1/GPa) = 0.02362450
#
# Stress axis : x y z
#
# Youngs Moduli (GPa) = 66.62111 96.30414 143.14665
#
# Poissons Ratio (x) = 0.01496 0.36500
# Poissons Ratio (y) = 0.01035 0.23942
# Poissons Ratio (z) = 0.16987 0.16107
#
# Static dielectric constant tensor:
#      x y z
#    x 2.690310 0.308260 0.376130 
#    y 0.308260 2.425940 0.134920 
#    z 0.376130 0.134920 2.320730 
# 
# From -- ./inp_files/429015.got.cif
#   From: 2010.05.17/outbox.cif.g08.bks.cpg/sg2_215_cif.got.tgz:429015.got - 2010.06.03 11:33:40.
