data_PCOD9052252
_publ_section_title
;
Structure prediction by ZEFSAII (Michael W. Deem and Ramdas Pophale) SiO2 
 PCOD9052252
Probable space group: P -1
;
_chemical_formula_sum "Si O2"
_cell_formula_units_Z 14
_cell_length_a 11.722979
_cell_length_b 10.002912
_cell_length_c 14.831872
_cell_angle_alpha 73.032481
_cell_angle_beta 44.091003
_cell_angle_gamma 39.518626
_cell_volume 620.473231
_symmetry_space_group_name_H-M "P -1"
_symmetry_group_IT_number 2
_symmetry_cell_setting 'triclinic'
loop_
_space_group_symop_operation_xyz
x,y,z
-x,-y,-z
loop_
_atom_site_type_symbol
_atom_site_label
_atom_site_fract_x
_atom_site_fract_y
_atom_site_fract_z
Si Si1 0.660143 0.970709 0.994510
Si Si2 0.592484 0.681259 0.533455
Si Si3 0.301165 0.715742 0.845538
Si Si4 0.766094 0.883179 0.666199
Si Si5 0.387836 0.440343 0.118762
Si Si6 0.778695 0.524038 0.138440
Si Si7 0.245173 0.133927 0.529919
O O1 0.484970 0.046294 0.170088
O O2 0.568629 0.196368 0.005699
O O3 0.500000 0.000000 0.000000
O O4 0.022338 0.684466 0.851324
O O5 0.388364 0.720009 0.698759
O O6 0.609196 0.817276 0.551156
O O7 0.927324 0.367869 0.401280
O O8 0.452074 0.847550 0.488866
O O9 0.539102 0.593521 0.810209
O O10 0.244040 0.590757 0.894024
O O11 0.000000 0.000000 0.000000
O O12 0.854576 0.798181 0.529832
O O13 0.567231 0.168718 0.724129
O O14 0.026606 0.673580 0.280232
O O15 0.500000 0.500000 0.000000
O O16 0.000000 0.500000 0.000000
#
# Coordination Sequence:
#
# PCOD9052252 Si02
#       7
#     2   2   2   2   2   2   2
#     4  11  25  45  72 105 143 190 234 292 364 430
#     4  11  24  42  73 102 143 184 243 298 352 427
#     4  12  24  46  72 105 143 187 242 299 353 422
#     4  11  23  46  70  97 145 188 236 288 352 436
#     4  12  25  43  72 109 143 181 245 301 351 427
#     4  10  26  44  68 103 141 192 231 291 367 423
#     4  11  24  44  71 108 137 194 238 292 368 420
#
# _framework density 22.563421999999999
#
# number of rings (size 3 to 8) (size 9 to 14) (size 15 to 20)
#    0.000    0.857    4.286    2.143    8.000    0.571 
#    0.000    0.714    0.000    0.000    0.000    0.000 
#    0.000    0.000    0.000    0.000    0.000    0.000 
#
# Total GULP energy -78009.828401 kJ/mol
# GULP energy per Si atom -5572.130600 kJ/mol
# Density = 2.251207 g / cm^3
# Si number density = 22.563422 Si / 1000 Ang^3
#
#
#
# Elastic Constant Matrix: (Units=GPa)
#
#
# Indices 1 2 3 4 5 6 
#
# 1 86.2641 44.3872 -1.1676 5.2227 -7.7670 16.1047
# 2 44.3872 139.7481 42.5154 18.7565 -2.8833 15.8223
# 3 -1.1676 42.5154 80.2362 3.2487 -8.6614 4.7953
# 4 5.2227 18.7565 3.2487 39.6673 -8.6431 -5.9835
# 5 -7.7670 -2.8833 -8.6614 -8.6431 20.0059 0.9401
# 6 16.1047 15.8223 4.7953 -5.9835 0.9401 47.6987
#
#
#
# Elastic Compliance Matrix: (Units=1/GPa)
#
#
# Indices 1 2 3 4 5 6 
#
# 1 0.016167 -0.006126 0.004534 0.001611 0.008233 -0.003843
# 2 -0.006126 0.012046 -0.006773 -0.005935 -0.006051 -0.001872
# 3 0.004534 -0.006773 0.017071 0.003176 0.009585 -0.000791
# 4 0.001611 -0.005935 0.003176 0.031421 0.014496 0.004761
# 5 0.008233 -0.006051 0.009585 0.014496 0.062776 -0.001155
# 6 -0.003843 -0.001872 -0.000791 0.004761 -0.001155 0.023583
#
#
# Mechanical properties :
#
#
# Convention : Reuss Voigt Hill
#
# Bulk Modulus (GPa) = 35.01977 53.07983 44.04980
# Shear Modulus (GPa) = 26.41168 36.17529 31.29348
#
# Velocity S-wave (km/s) = 3.42505 4.00843 3.72817
# Velocity P-wave (km/s) = 5.58530 6.70814 6.17230
#
# Compressibility (1/GPa) = 0.02855530
#
# Stress axis : x y z
#
# Youngs Moduli (GPa) = 61.85500 83.01791 58.57797
#
# Poissons Ratio (x) = 0.50855 -0.26561
# Poissons Ratio (y) = 0.37891 0.39674
# Poissons Ratio (z) = -0.28047 0.56227
#
# Static dielectric constant tensor:
#      x y z
#    x 1.789990 -0.060280 -0.051530 
#    y -0.060280 1.842420 -0.163780 
#    z -0.051530 -0.163780 1.569900 
# 
# From -- ./inp_files/566681.got.cif
#   From: 2010.05.17/outbox.cif.g08.bks.cpg/sg2_284_cif.got.tgz:566681.got - 2010.06.03 11:33:40.
