data_PCOD9052878
_publ_section_title
;
Structure prediction by ZEFSAII (Michael W. Deem and Ramdas Pophale) SiO2 
 PCOD9052878
Probable space group: P -1
;
_chemical_formula_sum "Si O2"
_cell_formula_units_Z 14
_cell_length_a 7.585234
_cell_length_b 22.976829
_cell_length_c 8.364507
_cell_angle_alpha 149.174663
_cell_angle_beta 127.637560
_cell_angle_gamma 45.027082
_cell_volume 528.439018
_symmetry_space_group_name_H-M "P -1"
_symmetry_group_IT_number 2
_symmetry_cell_setting 'triclinic'
loop_
_space_group_symop_operation_xyz
x,y,z
-x,-y,-z
loop_
_atom_site_type_symbol
_atom_site_label
_atom_site_fract_x
_atom_site_fract_y
_atom_site_fract_z
Si Si1 0.749582 0.568163 0.237650
Si Si2 0.751261 0.944092 0.901620
Si Si3 0.003478 0.150571 0.863424
Si Si4 0.486176 0.836817 0.287789
Si Si5 0.266766 0.589301 0.872000
Si Si6 0.282872 0.457925 0.283739
Si Si7 0.493000 0.160193 0.072529
O O1 0.807558 0.437106 0.056012
O O2 0.621836 0.699768 0.579525
O O3 0.015562 0.550479 0.281845
O O4 0.545691 0.573169 0.010644
O O5 0.696098 0.871698 0.555763
O O6 0.732961 0.070613 0.102646
O O7 0.954719 0.856439 0.936119
O O8 0.500000 0.000000 0.000000
O O9 0.880081 0.282580 0.005990
O O10 0.283420 0.107428 0.847580
O O11 0.781360 0.105793 0.629576
O O12 0.608142 0.687466 0.035651
O O13 0.448792 0.850638 0.108517
O O14 0.235617 0.480020 0.499895
O O15 0.500000 0.500000 0.500000
#
# Coordination Sequence:
#
# PCOD9052878 Si02
#       7
#     2   2   2   2   2   2   2
#     4  11  24  43  72 104 145 187 233 291 358 432
#     4  10  27  48  72 104 138 192 242 293 357 415
#     4  11  25  46  70 104 143 185 238 286 357 425
#     4  12  25  45  73 107 141 186 238 296 358 416
#     4  11  23  42  67 104 140 189 228 283 367 416
#     4  12  23  41  68 105 145 180 230 289 360 427
#     4  11  23  48  74 100 148 184 240 297 345 425
#
# _framework density 26.493124000000002
#
# number of rings (size 3 to 8) (size 9 to 14) (size 15 to 20)
#    0.000    0.857    4.286    1.714    4.000    4.571 
#    2.571    0.000    0.000    0.000    0.000    0.000 
#    0.000    0.000    0.000    0.000    0.000    0.000 
#
# Total GULP energy -78083.362917 kJ/mol
# GULP energy per Si atom -5577.383065 kJ/mol
# Density = 2.643282 g / cm^3
# Si number density = 26.493124 Si / 1000 Ang^3
#
#
#
# Elastic Constant Matrix: (Units=GPa)
#
#
# Indices 1 2 3 4 5 6 
#
# 1 107.6533 39.3362 16.0910 7.3543 12.7359 -12.7326
# 2 39.3362 194.3165 28.6865 -15.6049 14.8762 15.6568
# 3 16.0910 28.6865 79.2065 -19.0561 17.2352 -2.8974
# 4 7.3543 -15.6049 -19.0561 34.0122 8.9394 8.6965
# 5 12.7359 14.8762 17.2352 8.9394 32.6671 -12.2450
# 6 -12.7326 15.6568 -2.8974 8.6965 -12.2450 46.3376
#
#
#
# Elastic Compliance Matrix: (Units=1/GPa)
#
#
# Indices 1 2 3 4 5 6 
#
# 1 0.012215 -0.003556 -0.004229 -0.009682 0.004471 0.007292
# 2 -0.003556 0.007582 0.001744 0.009286 -0.008288 -0.007363
# 3 -0.004229 0.001744 0.022376 0.022287 -0.020812 -0.010035
# 4 -0.009682 0.009286 0.022287 0.065934 -0.040563 -0.027498
# 5 0.004471 -0.008288 -0.020812 -0.040563 0.065042 0.027528
# 6 0.007292 -0.007363 -0.010035 -0.027498 0.027528 0.037880
#
#
# Mechanical properties :
#
#
# Convention : Reuss Voigt Hill
#
# Bulk Modulus (GPa) = 33.23126 61.04487 47.13807
# Shear Modulus (GPa) = 21.44623 42.40757 31.92690
#
# Velocity S-wave (km/s) = 2.84826 4.00522 3.47522
# Velocity P-wave (km/s) = 4.83605 6.66939 5.82530
#
# Compressibility (1/GPa) = 0.03009215
#
# Stress axis : x y z
#
# Youngs Moduli (GPa) = 81.86334 131.89231 44.69045
#
# Poissons Ratio (x) = 0.46899 0.18901
# Poissons Ratio (y) = 0.29109 -0.07796
# Poissons Ratio (z) = 0.34622 -0.23008
#
# Static dielectric constant tensor:
#      x y z
#    x 2.230610 -0.024250 -0.071430 
#    y -0.024250 2.130160 0.021460 
#    z -0.071430 0.021460 2.128680 
# 
# From -- ./inp_files/226830.got.cif
#   From: 2010.05.17/outbox.cif.g08.bks.cpg/sg2_114_cif.got.tgz:226830.got - 2010.06.03 11:33:40.
