data_PCOD9052154
_publ_section_title
;
Structure prediction by ZEFSAII (Michael W. Deem and Ramdas Pophale) SiO2 
 PCOD9052154
Probable space group: P -1
;
_chemical_formula_sum "Si O2"
_cell_formula_units_Z 16
_cell_length_a 8.154877
_cell_length_b 20.585317
_cell_length_c 6.124693
_cell_angle_alpha 103.006096
_cell_angle_beta 129.325881
_cell_angle_gamma 63.773644
_cell_volume 711.214398
_symmetry_space_group_name_H-M "P -1"
_symmetry_group_IT_number 2
_symmetry_cell_setting 'triclinic'
loop_
_space_group_symop_operation_xyz
x,y,z
-x,-y,-z
loop_
_atom_site_type_symbol
_atom_site_label
_atom_site_fract_x
_atom_site_fract_y
_atom_site_fract_z
Si Si1 0.495782 0.720296 0.549105
Si Si2 0.897553 0.468387 0.696761
Si Si3 0.347740 0.403749 0.739449
Si Si4 0.323918 0.634125 0.639967
Si Si5 0.042908 0.102978 0.156652
Si Si6 0.333650 0.157101 0.126722
Si Si7 0.056791 0.792172 0.484208
Si Si8 0.812340 0.035529 0.557230
O O1 0.557830 0.676586 0.344964
O O2 0.507504 0.659522 0.692592
O O3 0.643535 0.766941 0.754075
O O4 0.230334 0.775004 0.410088
O O5 0.723544 0.535237 0.460249
O O6 0.767926 0.416586 0.613682
O O7 0.112180 0.422016 0.688132
O O8 0.000000 0.500000 0.000000
O O9 0.549345 0.405828 0.066866
O O10 0.112583 0.711630 0.561562
O O11 0.190843 0.139683 0.184899
O O12 0.889382 0.160120 0.251132
O O13 0.202936 0.030951 0.369449
O O14 0.901719 0.078293 0.841385
O O15 0.580226 0.090569 0.292162
O O16 0.197217 0.165764 0.791722
O O17 0.000000 0.000000 0.500000
#
# Coordination Sequence:
#
# PCOD9052154 Si02
#       8
#     2   2   2   2   2   2   2   2
#     4  10  26  41  70 101 139 180 225 285 348 409
#     4  11  26  46  70 105 136 180 237 283 342 413
#     4  11  25  44  72  98 137 183 230 284 343 411
#     4  10  26  44  69  97 140 180 222 284 349 404
#     4  11  25  45  71 104 135 185 228 285 337 417
#     4  12  25  43  71 102 137 180 229 284 340 408
#     4  10  27  43  68 102 139 177 231 283 345 412
#     4  11  26  48  72 100 144 180 232 282 344 405
#
# _framework density 22.496734
#
# number of rings (size 3 to 8) (size 9 to 14) (size 15 to 20)
#    0.750    0.500    0.000    3.750    8.750    9.000 
#    0.000    0.000    0.000    0.000    0.000    0.000 
#    0.000    0.000    0.000    0.000    0.000    0.000 
#
# Total GULP energy -89404.122461 kJ/mol
# GULP energy per Si atom -5587.757654 kJ/mol
# Density = 2.244553 g / cm^3
# Si number density = 22.496734 Si / 1000 Ang^3
#
#
#
# Elastic Constant Matrix: (Units=GPa)
#
#
# Indices 1 2 3 4 5 6 
#
# 1 69.6959 59.6650 30.0881 5.8061 0.5225 0.2083
# 2 59.6650 127.5745 74.9156 12.0635 2.7616 4.9252
# 3 30.0881 74.9156 136.5741 -2.7293 3.3301 -1.9535
# 4 5.8061 12.0635 -2.7293 50.7815 -0.0447 0.3311
# 5 0.5225 2.7616 3.3301 -0.0447 17.3677 6.7537
# 6 0.2083 4.9252 -1.9535 0.3311 6.7537 58.5164
#
#
#
# Elastic Compliance Matrix: (Units=1/GPa)
#
#
# Indices 1 2 3 4 5 6 
#
# 1 0.024144 -0.012150 0.001348 0.000193 0.000593 0.000912
# 2 -0.012150 0.018271 -0.007425 -0.003340 -0.000476 -0.001669
# 3 0.001348 -0.007425 0.011194 0.002203 -0.001447 0.001148
# 4 0.000193 -0.003340 0.002203 0.020581 0.000067 0.000230
# 5 0.000593 -0.000476 -0.001447 0.000067 0.060639 -0.007009
# 6 0.000912 -0.001669 0.001148 0.000230 -0.007009 0.018072
#
#
# Mechanical properties :
#
#
# Convention : Reuss Voigt Hill
#
# Bulk Modulus (GPa) = 58.28953 73.68688 65.98821
# Shear Modulus (GPa) = 25.63138 36.61149 31.12144
#
# Velocity S-wave (km/s) = 3.37907 4.03850 3.72341
# Velocity P-wave (km/s) = 6.41799 7.38726 6.91962
#
# Compressibility (1/GPa) = 0.01715574
#
# Stress axis : x y z
#
# Youngs Moduli (GPa) = 41.41826 54.73016 89.33649
#
# Poissons Ratio (x) = 0.66495 -0.12041
# Poissons Ratio (y) = 0.50322 0.66332
# Poissons Ratio (z) = -0.05583 0.40637
#
# Static dielectric constant tensor:
#      x y z
#    x 1.866020 0.005390 -0.011020 
#    y 0.005390 1.845420 -0.013980 
#    z -0.011020 -0.013980 1.822230 
# 
# From -- ./inp_files/53596.got.cif
#   From: 2010.05.17/outbox.cif.g08.bks.cpg/sg2_27_cif.got.tgz:53596.got - 2010.06.03 11:33:40.
