data_PCOD9052801
_publ_section_title
;
Structure prediction by ZEFSAII (Michael W. Deem and Ramdas Pophale) SiO2 
 PCOD9052801
Probable space group: P -1
;
_chemical_formula_sum "Si O2"
_cell_formula_units_Z 16
_cell_length_a 7.693285
_cell_length_b 13.882362
_cell_length_c 8.560957
_cell_angle_alpha 90.531818
_cell_angle_beta 120.386021
_cell_angle_gamma 121.654463
_cell_volume 622.622516
_symmetry_space_group_name_H-M "P -1"
_symmetry_group_IT_number 2
_symmetry_cell_setting 'triclinic'
loop_
_space_group_symop_operation_xyz
x,y,z
-x,-y,-z
loop_
_atom_site_type_symbol
_atom_site_label
_atom_site_fract_x
_atom_site_fract_y
_atom_site_fract_z
Si Si1 0.468353 0.125464 0.929847
Si Si2 0.052670 0.749150 0.322226
Si Si3 0.458280 0.735320 0.313673
Si Si4 0.480594 0.939213 0.732397
Si Si5 0.159795 0.472805 0.184155
Si Si6 0.195413 0.472738 0.563640
Si Si7 0.875096 0.923147 0.731886
Si Si8 0.238421 0.289815 0.099496
O O1 0.551989 0.241322 0.872217
O O2 0.537737 0.056839 0.844512
O O3 0.593533 0.150926 0.156432
O O4 0.832664 0.969818 0.171951
O O5 0.246754 0.730257 0.322735
O O6 0.243684 0.873829 0.507001
O O7 0.880128 0.635980 0.358298
O O8 0.869354 0.754500 0.124058
O O9 0.423345 0.611179 0.311945
O O10 0.723878 0.851172 0.505248
O O11 0.717299 0.960483 0.750178
O O12 0.149601 0.439938 0.360192
O O13 0.126535 0.361444 0.087724
O O14 0.000000 0.500000 0.000000
O O15 0.465118 0.599628 0.735978
O O16 0.000000 0.500000 0.500000
O O17 0.847747 0.821827 0.830403
#
# Coordination Sequence:
#
# PCOD9052801 Si02
#       8
#     2   2   2   2   2   2   2   2
#     4  11  26  48  82 108 145 201 256 312 386 444
#     4  11  25  43  72 107 148 197 241 315 372 449
#     4  11  24  49  70 111 150 195 256 303 376 448
#     4  10  26  50  76 109 146 199 252 313 383 438
#     4  12  25  44  75 106 151 197 242 312 366 451
#     4  12  23  46  72 105 150 195 244 303 378 446
#     4  11  25  50  74 113 152 195 250 321 371 454
#     4  12  26  47  71 112 154 191 253 300 382 453
#
# _framework density 25.697752999999999
#
# number of rings (size 3 to 8) (size 9 to 14) (size 15 to 20)
#    0.000    0.750    3.750    2.250    7.000    2.000 
#    9.000    0.000    0.000    0.000    0.000    0.000 
#    0.000    0.000    0.000    0.000    0.000    0.000 
#
# Total GULP energy -89629.056754 kJ/mol
# GULP energy per Si atom -5601.816047 kJ/mol
# Density = 2.563926 g / cm^3
# Si number density = 25.697753 Si / 1000 Ang^3
#
#
#
# Elastic Constant Matrix: (Units=GPa)
#
#
# Indices 1 2 3 4 5 6 
#
# 1 98.8648 44.8198 34.3160 0.6957 11.0700 3.0621
# 2 44.8198 113.3998 17.6996 -20.0314 -9.3543 24.3626
# 3 34.3160 17.6996 163.0623 -7.7608 8.9213 8.0654
# 4 0.6957 -20.0314 -7.7608 52.5412 7.9663 -10.2294
# 5 11.0700 -9.3543 8.9213 7.9663 33.3645 5.7026
# 6 3.0621 24.3626 8.0654 -10.2294 5.7026 33.6946
#
#
#
# Elastic Compliance Matrix: (Units=1/GPa)
#
#
# Indices 1 2 3 4 5 6 
#
# 1 0.014954 -0.007536 -0.002271 -0.001270 -0.007096 0.005449
# 2 -0.007536 0.015237 0.000160 0.002594 0.007979 -0.010933
# 3 -0.002271 0.000160 0.006753 0.001054 -0.001084 -0.001022
# 4 -0.001270 0.002594 0.001054 0.022099 -0.005368 0.005605
# 5 -0.007096 0.007979 -0.001084 -0.005368 0.038354 -0.012986
# 6 0.005449 -0.010933 -0.001022 0.005605 -0.012986 0.041233
#
#
# Mechanical properties :
#
#
# Convention : Reuss Voigt Hill
#
# Bulk Modulus (GPa) = 56.65665 63.22197 59.93931
# Shear Modulus (GPa) = 30.52331 42.48615 36.50473
#
# Velocity S-wave (km/s) = 3.45016 4.07049 3.77310
# Velocity P-wave (km/s) = 6.16171 6.83721 6.50823
#
# Compressibility (1/GPa) = 0.01765018
#
# Stress axis : x y z
#
# Youngs Moduli (GPa) = 66.87078 65.62793 148.07756
#
# Poissons Ratio (x) = 0.49459 0.33625
# Poissons Ratio (y) = 0.50396 -0.02366
# Poissons Ratio (z) = 0.15185 -0.01048
#
# Static dielectric constant tensor:
#      x y z
#    x 2.035350 -0.019020 0.051810 
#    y -0.019020 1.992550 0.005210 
#    z 0.051810 0.005210 1.904230 
# 
# From -- ./inp_files/202286.got.cif
#   From: 2010.05.17/outbox.cif.g08.bks.cpg/sg2_102_cif.got.tgz:202286.got - 2010.06.03 11:33:40.
