data_PCOD9052302
_publ_section_title
;
Structure prediction by ZEFSAII (Michael W. Deem and Ramdas Pophale) SiO2 
 PCOD9052302
Probable space group: P -1
;
_chemical_formula_sum "Si O2"
_cell_formula_units_Z 15
_cell_length_a 16.627835
_cell_length_b 11.838679
_cell_length_c 17.215774
_cell_angle_alpha 30.917569
_cell_angle_beta 22.618326
_cell_angle_gamma 41.953668
_cell_volume 649.412021
_symmetry_space_group_name_H-M "P -1"
_symmetry_group_IT_number 2
_symmetry_cell_setting 'triclinic'
loop_
_space_group_symop_operation_xyz
x,y,z
-x,-y,-z
loop_
_atom_site_type_symbol
_atom_site_label
_atom_site_fract_x
_atom_site_fract_y
_atom_site_fract_z
Si Si1 0.604364 0.294132 0.548263
Si Si2 0.981553 0.493537 0.216438
Si Si3 0.496508 0.730566 0.769645
Si Si4 0.739853 0.072901 0.834070
Si Si5 0.133059 0.387119 0.387164
Si Si6 0.375245 0.481233 0.376799
Si Si7 0.640416 0.232373 0.377757
Si Si8 0.000000 0.000000 0.500000
O O1 0.500000 0.500000 0.500000
O O2 0.800671 0.366342 0.390576
O O3 0.680023 0.219643 0.441579
O O4 0.423593 0.098032 0.864463
O O5 0.867626 0.593434 0.329070
O O6 0.068171 0.279794 0.293376
O O7 0.143691 0.690511 0.910066
O O8 0.689647 0.708179 0.668388
O O9 0.559348 0.645973 0.680435
O O10 0.497142 0.993478 0.616594
O O11 0.275406 0.571846 0.092858
O O12 0.616026 0.261383 0.805808
O O13 0.824643 0.964271 0.748254
O O14 0.953037 0.195636 0.618958
O O15 0.000000 0.500000 0.500000
O O16 0.518129 0.427686 0.351577
#
# Coordination Sequence:
#
# PCOD9052302 Si02
#       8
#     2   2   2   2   2   2   2   1
#     4  12  26  47  70 106 142 187 233 288 354 425
#     4  11  27  45  73 103 143 188 234 289 357 418
#     4  11  27  43  75 105 140 186 241 291 349 427
#     4  11  26  45  79  99 147 187 234 296 349 424
#     4  11  24  47  71 105 140 186 237 290 354 416
#     4  11  26  49  69 107 140 187 241 289 354 417
#     4  12  27  46  72 104 147 185 233 296 353 419
#     4  10  26  44  72 108 132 190 238 290 344 422
#
# _framework density 23.097815000000001
#
# number of rings (size 3 to 8) (size 9 to 14) (size 15 to 20)
#    0.000    0.800    2.667    2.400   11.200    2.667 
#    0.000    0.000    0.000    0.000    0.000    0.000 
#    0.000    0.000    0.000    0.000    0.000    0.000 
#
# Total GULP energy -83736.060276 kJ/mol
# GULP energy per Si atom -5582.404018 kJ/mol
# Density = 2.304524 g / cm^3
# Si number density = 23.097815 Si / 1000 Ang^3
#
#
#
# Elastic Constant Matrix: (Units=GPa)
#
#
# Indices 1 2 3 4 5 6 
#
# 1 96.5369 19.9542 46.0721 2.8981 5.2184 2.1048
# 2 19.9542 73.7914 21.0552 10.3925 16.9642 12.3424
# 3 46.0721 21.0552 155.8006 -1.7377 27.4407 -11.5268
# 4 2.8981 10.3925 -1.7377 29.7068 4.2227 11.2875
# 5 5.2184 16.9642 27.4407 4.2227 54.1956 9.0921
# 6 2.1048 12.3424 -11.5268 11.2875 9.0921 33.5285
#
#
#
# Elastic Compliance Matrix: (Units=1/GPa)
#
#
# Indices 1 2 3 4 5 6 
#
# 1 0.012643 -0.002424 -0.003848 -0.000247 0.001781 -0.001624
# 2 -0.002424 0.016551 -0.001298 -0.003525 -0.003293 -0.004307
# 3 -0.003848 -0.001298 0.008908 0.000106 -0.004579 0.004988
# 4 -0.000247 -0.003525 0.000106 0.039461 0.000001 -0.011935
# 5 0.001781 -0.003293 -0.004579 0.000001 0.022743 -0.006642
# 6 -0.001624 -0.004307 0.004988 -0.011935 -0.006642 0.039047
#
#
# Mechanical properties :
#
#
# Convention : Reuss Voigt Hill
#
# Bulk Modulus (GPa) = 43.54796 55.58800 49.56798
# Shear Modulus (GPa) = 30.83627 39.42268 35.12947
#
# Velocity S-wave (km/s) = 3.65777 4.13579 3.90410
# Velocity P-wave (km/s) = 6.06083 6.85018 6.46756
#
# Compressibility (1/GPa) = 0.02296319
#
# Stress axis : x y z
#
# Youngs Moduli (GPa) = 79.09788 60.41755 112.25468
#
# Poissons Ratio (x) = 0.14645 0.43191
# Poissons Ratio (y) = 0.19173 0.14570
# Poissons Ratio (z) = 0.30434 0.07842
#
# Static dielectric constant tensor:
#      x y z
#    x 1.912560 -0.024120 -0.014820 
#    y -0.024120 1.877600 0.012910 
#    z -0.014820 0.012910 1.854360 
# 
# From -- ./inp_files/36959.got.cif
#   From: 2010.05.17/outbox.cif.g08.bks.cpg/sg2_19_cif.got.tgz:36959.got - 2010.06.03 11:33:40.
