data_PCOD9052851
_publ_section_title
;
Structure prediction by ZEFSAII (Michael W. Deem and Ramdas Pophale) SiO2 
 PCOD9052851
Probable space group: P -1
;
_chemical_formula_sum "Si O2"
_cell_formula_units_Z 12
_cell_length_a 5.114589
_cell_length_b 17.968836
_cell_length_c 9.197603
_cell_angle_alpha 143.750555
_cell_angle_beta 68.745972
_cell_angle_gamma 111.559711
_cell_volume 461.475220
_symmetry_space_group_name_H-M "P -1"
_symmetry_group_IT_number 2
_symmetry_cell_setting 'triclinic'
loop_
_space_group_symop_operation_xyz
x,y,z
-x,-y,-z
loop_
_atom_site_type_symbol
_atom_site_label
_atom_site_fract_x
_atom_site_fract_y
_atom_site_fract_z
Si Si1 0.542478 0.129419 0.782452
Si Si2 0.889330 0.688174 0.810104
Si Si3 0.917963 0.812227 0.400983
Si Si4 0.691023 0.064302 0.937580
Si Si5 0.083577 0.505728 0.735888
Si Si6 0.318028 0.644697 0.198548
O O1 0.475125 0.091915 0.900150
O O2 0.373960 0.280122 0.709750
O O3 0.872838 0.175080 0.759701
O O4 0.500000 0.000000 0.500000
O O5 0.787030 0.599368 0.552141
O O6 0.005296 0.601131 0.774808
O O7 0.118962 0.799907 0.873015
O O8 0.644387 0.761789 0.040451
O O9 0.104880 0.750347 0.385150
O O10 0.862476 0.953633 0.671880
O O11 0.500000 0.000000 0.000000
O O12 0.800430 0.442259 0.778389
O O13 0.268671 0.564452 0.930051
#
# Coordination Sequence:
#
# PCOD9052851 Si02
#       6
#     2   2   2   2   2   2
#     4  12  27  50  83 120 169 217 269 337 423 500
#     4  11  26  54  81 120 170 215 276 335 423 487
#     4  12  27  50  86 125 164 213 274 348 412 493
#     4  12  28  48  82 123 163 207 278 352 419 478
#     4  10  26  54  84 118 167 226 273 338 401 500
#     4  11  27  52  87 117 165 215 288 328 412 482
#
# _framework density 26.003563
#
# number of rings (size 3 to 8) (size 9 to 14) (size 15 to 20)
#    0.000    0.667    1.667    3.500    9.333    3.333 
#    6.000    3.333    0.000    0.000    0.000    0.000 
#    0.000    0.000    0.000    0.000    0.000    0.000 
#
# Total GULP energy -67211.095193 kJ/mol
# GULP energy per Si atom -5600.924599 kJ/mol
# Density = 2.594438 g / cm^3
# Si number density = 26.003563 Si / 1000 Ang^3
#
#
#
# Elastic Constant Matrix: (Units=GPa)
#
#
# Indices 1 2 3 4 5 6 
#
# 1 154.0189 67.3831 38.4889 11.3978 0.2279 16.3069
# 2 67.3831 216.5007 39.5564 1.2742 5.0859 18.9957
# 3 38.4889 39.5564 139.1741 27.6528 -7.7224 -0.3314
# 4 11.3978 1.2742 27.6528 44.9830 -0.9292 -3.7111
# 5 0.2279 5.0859 -7.7224 -0.9292 31.5330 17.5783
# 6 16.3069 18.9957 -0.3314 -3.7111 17.5783 48.4187
#
#
#
# Elastic Compliance Matrix: (Units=1/GPa)
#
#
# Indices 1 2 3 4 5 6 
#
# 1 0.008095 -0.002084 -0.001308 -0.001367 0.001309 -0.002498
# 2 -0.002084 0.005612 -0.001251 0.001024 -0.000463 -0.001262
# 3 -0.001308 -0.001251 0.009066 -0.005180 0.002440 -0.000290
# 4 -0.001367 0.001024 -0.005180 0.025919 -0.002232 0.002820
# 5 0.001309 -0.000463 0.002440 -0.002232 0.040797 -0.015225
# 6 -0.002498 -0.001262 -0.000290 0.002820 -0.015225 0.027731
#
#
# Mechanical properties :
#
#
# Convention : Reuss Voigt Hill
#
# Bulk Modulus (GPa) = 74.14370 88.95006 81.54688
# Shear Modulus (GPa) = 38.16737 49.27129 43.71933
#
# Velocity S-wave (km/s) = 3.83531 4.35764 4.10479
# Velocity P-wave (km/s) = 6.94173 7.72009 7.34123
#
# Compressibility (1/GPa) = 0.01348732
#
# Stress axis : x y z
#
# Youngs Moduli (GPa) = 123.53252 178.20121 110.29637
#
# Poissons Ratio (x) = 0.37138 0.14427
# Poissons Ratio (y) = 0.25745 0.13796
# Poissons Ratio (z) = 0.16159 0.22290
#
# Static dielectric constant tensor:
#      x y z
#    x 2.079970 -0.020270 0.037620 
#    y -0.020270 2.181080 0.015060 
#    z 0.037620 0.015060 2.103510 
# 
# From -- ./inp_files/213755.got.cif
#   From: 2010.05.17/outbox.cif.g08.bks.cpg/sg2_107_cif.got.tgz:213755.got - 2010.06.03 11:33:40.
