data_PCOD9052663
_publ_section_title
;
Structure prediction by ZEFSAII (Michael W. Deem and Ramdas Pophale) SiO2 
 PCOD9052663
Probable space group: P -1
;
_chemical_formula_sum "Si O2"
_cell_formula_units_Z 16
_cell_length_a 8.879756
_cell_length_b 11.786863
_cell_length_c 17.041818
_cell_angle_alpha 82.454775
_cell_angle_beta 30.862245
_cell_angle_gamma 71.529550
_cell_volume 830.797714
_symmetry_space_group_name_H-M "P -1"
_symmetry_group_IT_number 2
_symmetry_cell_setting 'triclinic'
loop_
_space_group_symop_operation_xyz
x,y,z
-x,-y,-z
loop_
_atom_site_type_symbol
_atom_site_label
_atom_site_fract_x
_atom_site_fract_y
_atom_site_fract_z
Si Si1 0.127679 0.924411 0.029204
Si Si2 0.310170 0.305464 0.924754
Si Si3 0.962183 0.466441 0.204044
Si Si4 0.747730 0.460265 0.516342
Si Si5 0.828034 0.895558 0.892882
Si Si6 0.146704 0.247217 0.249892
Si Si7 0.301900 0.541995 0.272880
Si Si8 0.935831 0.330428 0.934076
O O1 0.003499 0.028106 0.143617
O O2 0.516652 0.857493 0.863726
O O3 0.038818 0.805821 0.086495
O O4 0.000000 0.000000 0.000000
O O5 0.621897 0.337323 0.792499
O O6 0.277951 0.187330 0.991173
O O7 0.050510 0.418114 0.079936
O O8 0.205910 0.311510 0.881079
O O9 0.597679 0.485081 0.374560
O O10 0.186353 0.358555 0.171108
O O11 0.013980 0.593401 0.168893
O O12 0.703050 0.462684 0.629732
O O13 0.932249 0.320777 0.411682
O O14 0.971648 0.535577 0.393156
O O15 0.993219 0.814122 0.749939
O O16 0.500000 0.000000 0.000000
O O17 0.594998 0.418469 0.118993
#
# Coordination Sequence:
#
# PCOD9052663 Si02
#       8
#     2   2   2   2   2   2   2   2
#     4  11  21  36  60  85 108 149 202 245 271 325
#     4  10  17  35  57  86 116 148 189 242 280 335
#     4  10  20  34  57  84 122 151 177 231 302 348
#     4  11  19  34  54  88 123 154 179 221 302 362
#     4   9  20  37  56  81 109 150 194 242 280 322
#     4  10  22  37  56  86 116 153 185 236 290 353
#     4  10  20  32  57  89 120 143 188 238 284 342
#     4  11  18  35  58  88 116 143 197 238 282 333
#
# _framework density 19.258599
#
# number of rings (size 3 to 8) (size 9 to 14) (size 15 to 20)
#    0.000    1.750    5.000    1.125    0.000    0.500 
#    4.500    0.000    0.000    7.500    0.000    0.000 
#    0.000    0.000    0.000    0.000    0.000    0.000 
#
# Total GULP energy -89119.226675 kJ/mol
# GULP energy per Si atom -5569.951667 kJ/mol
# Density = 1.921477 g / cm^3
# Si number density = 19.258599 Si / 1000 Ang^3
#
#
#
# Elastic Constant Matrix: (Units=GPa)
#
#
# Indices 1 2 3 4 5 6 
#
# 1 79.7835 40.6039 28.4654 4.2482 11.3078 14.0937
# 2 40.6039 132.4525 22.9855 -6.0611 -4.1069 13.4458
# 3 28.4654 22.9855 72.3598 -5.9329 -7.5945 10.6549
# 4 4.2482 -6.0611 -5.9329 20.2516 2.8833 -3.0287
# 5 11.3078 -4.1069 -7.5945 2.8833 18.7481 6.5508
# 6 14.0937 13.4458 10.6549 -3.0287 6.5508 39.0036
#
#
#
# Elastic Compliance Matrix: (Units=1/GPa)
#
#
# Indices 1 2 3 4 5 6 
#
# 1 0.021420 -0.005749 -0.008678 -0.006615 -0.016268 -0.001169
# 2 -0.005749 0.009799 0.000355 0.003056 0.006048 -0.002176
# 3 -0.008678 0.000355 0.019638 0.005042 0.013998 -0.004311
# 4 -0.006615 0.003056 0.005042 0.054338 -0.003309 0.004735
# 5 -0.016268 0.006048 0.013998 -0.003309 0.075167 -0.012912
# 6 -0.001169 -0.002176 -0.004311 0.004735 -0.012912 0.030525
#
#
# Mechanical properties :
#
#
# Convention : Reuss Voigt Hill
#
# Bulk Modulus (GPa) = 44.02789 52.07838 48.05313
# Shear Modulus (GPa) = 20.27556 28.43672 24.35614
#
# Velocity S-wave (km/s) = 3.24822 3.84679 3.56010
# Velocity P-wave (km/s) = 6.08103 6.84330 6.47339
#
# Compressibility (1/GPa) = 0.02271288
#
# Stress axis : x y z
#
# Youngs Moduli (GPa) = 46.68455 102.05129 50.92107
#
# Poissons Ratio (x) = 0.58670 0.44189
# Poissons Ratio (y) = 0.26839 -0.01806
# Poissons Ratio (z) = 0.40513 -0.03619
#
# Static dielectric constant tensor:
#      x y z
#    x 1.733840 0.047590 0.004160 
#    y 0.047590 1.756180 -0.019120 
#    z 0.004160 -0.019120 1.685240 
# 
# From -- ./inp_files/258853.got.cif
#   From: 2010.05.17/outbox.cif.g08.bks.cpg/sg2_130_cif.got.tgz:258853.got - 2010.06.03 11:33:40.
