data_PCOD9052224
_publ_section_title
;
Structure prediction by ZEFSAII (Michael W. Deem and Ramdas Pophale) SiO2 
 PCOD9052224
Probable space group: P -1
;
_chemical_formula_sum "Si O2"
_cell_formula_units_Z 16
_cell_length_a 8.804079
_cell_length_b 17.575728
_cell_length_c 7.779286
_cell_angle_alpha 42.599361
_cell_angle_beta 81.637205
_cell_angle_gamma 59.219395
_cell_volume 642.269799
_symmetry_space_group_name_H-M "P -1"
_symmetry_group_IT_number 2
_symmetry_cell_setting 'triclinic'
loop_
_space_group_symop_operation_xyz
x,y,z
-x,-y,-z
loop_
_atom_site_type_symbol
_atom_site_label
_atom_site_fract_x
_atom_site_fract_y
_atom_site_fract_z
Si Si1 0.418306 0.955510 0.440711
Si Si2 0.028796 0.359747 0.774694
Si Si3 0.923568 0.413404 0.093572
Si Si4 0.443832 0.142102 0.915579
Si Si5 0.465107 0.302241 0.322440
Si Si6 0.203361 0.936147 0.772000
Si Si7 0.143205 0.792419 0.455694
Si Si8 0.705209 0.343395 0.710586
O O1 0.541634 0.787285 0.678459
O O2 0.217664 0.002116 0.482110
O O3 0.500000 0.000000 0.500000
O O4 0.435497 0.007354 0.163109
O O5 0.987108 0.364224 0.972637
O O6 0.875528 0.354106 0.705810
O O7 0.000000 0.500000 0.500000
O O8 0.247769 0.241744 0.889443
O O9 0.694529 0.532480 0.943865
O O10 0.972386 0.274737 0.406708
O O11 0.000000 0.500000 0.000000
O O12 0.427662 0.241994 0.599902
O O13 0.631405 0.093072 0.075487
O O14 0.673476 0.266499 0.355766
O O15 0.259930 0.783418 0.970755
O O16 0.007134 0.045661 0.727713
O O17 0.249414 0.732274 0.355776
O O18 0.500000 0.500000 0.500000
#
# Coordination Sequence:
#
# PCOD9052224 Si02
#       8
#     2   2   2   2   2   2   2   2
#     4  10  26  43  74 104 151 191 247 301 372 435
#     4  12  25  46  74 110 142 192 250 301 371 444
#     4  12  29  48  76 106 151 197 255 313 376 440
#     4  11  24  46  74 106 149 190 248 299 373 436
#     4  12  26  47  75 106 152 198 251 308 372 448
#     4  11  26  49  76 110 153 194 247 305 380 442
#     4  12  28  49  75 112 153 198 247 308 381 449
#     4  12  27  47  78 110 153 194 245 310 376 450
#
# _framework density 24.911650999999999
#
# number of rings (size 3 to 8) (size 9 to 14) (size 15 to 20)
#    0.000    0.500    2.500    4.125   12.250    0.500 
#    0.000    0.000    0.000    0.000    0.000    0.000 
#    0.000    0.000    0.000    0.000    0.000    0.000 
#
# Total GULP energy -89326.463686 kJ/mol
# GULP energy per Si atom -5582.903980 kJ/mol
# Density = 2.485495 g / cm^3
# Si number density = 24.911651 Si / 1000 Ang^3
#
#
#
# Elastic Constant Matrix: (Units=GPa)
#
#
# Indices 1 2 3 4 5 6 
#
# 1 88.7788 36.9363 7.2999 -27.3966 14.7177 -5.1391
# 2 36.9363 74.7757 17.7492 -9.9182 -8.1207 -6.6291
# 3 7.2999 17.7492 74.8561 -19.0052 -20.7629 -5.0394
# 4 -27.3966 -9.9182 -19.0052 55.9816 -9.7864 4.9675
# 5 14.7177 -8.1207 -20.7629 -9.7864 48.5864 -10.6005
# 6 -5.1391 -6.6291 -5.0394 4.9675 -10.6005 39.4913
#
#
#
# Elastic Compliance Matrix: (Units=1/GPa)
#
#
# Indices 1 2 3 4 5 6 
#
# 1 0.017689 -0.008714 0.000251 0.006323 -0.005754 -0.001469
# 2 -0.008714 0.018944 -0.002170 -0.000996 0.005408 0.003346
# 3 0.000251 -0.002170 0.018758 0.007505 0.009914 0.003779
# 4 0.006323 -0.000996 0.007505 0.024374 0.006074 0.000178
# 5 -0.005754 0.005408 0.009914 0.006074 0.030626 0.008881
# 6 -0.001469 0.003346 0.003779 0.000178 0.008881 0.028536
#
#
# Mechanical properties :
#
#
# Convention : Reuss Voigt Hill
#
# Bulk Modulus (GPa) = 29.30182 40.26461 34.78321
# Shear Modulus (GPa) = 29.14294 40.57354 34.85824
#
# Velocity S-wave (km/s) = 3.42402 4.04009 3.74475
# Velocity P-wave (km/s) = 5.23638 6.16126 5.71756
#
# Compressibility (1/GPa) = 0.03412757
#
# Stress axis : x y z
#
# Youngs Moduli (GPa) = 56.53370 52.78602 53.30946
#
# Poissons Ratio (x) = 0.45996 -0.01341
# Poissons Ratio (y) = 0.49261 0.11567
# Poissons Ratio (z) = -0.01422 0.11453
#
# Static dielectric constant tensor:
#      x y z
#    x 2.030180 -0.015650 -0.062200 
#    y -0.015650 1.920300 0.134910 
#    z -0.062200 0.134910 2.010950 
# 
# From -- ./inp_files/216452.got.cif
#   From: 2010.05.17/outbox.cif.g08.bks.cpg/sg2_109_cif.got.tgz:216452.got - 2010.06.03 11:33:40.
