data_PCOD9052654
_publ_section_title
;
Structure prediction by ZEFSAII (Michael W. Deem and Ramdas Pophale) SiO2 
 PCOD9052654
Probable space group: P -1
;
_chemical_formula_sum "Si O2"
_cell_formula_units_Z 13
_cell_length_a 4.893234
_cell_length_b 16.227072
_cell_length_c 19.825451
_cell_angle_alpha 27.147247
_cell_angle_beta 92.077224
_cell_angle_gamma 72.738299
_cell_volume 497.013847
_symmetry_space_group_name_H-M "P -1"
_symmetry_group_IT_number 2
_symmetry_cell_setting 'triclinic'
loop_
_space_group_symop_operation_xyz
x,y,z
-x,-y,-z
loop_
_atom_site_type_symbol
_atom_site_label
_atom_site_fract_x
_atom_site_fract_y
_atom_site_fract_z
Si Si1 0.500932 0.624496 0.183923
Si Si2 0.902686 0.728016 0.794223
Si Si3 0.010628 0.181737 0.408733
Si Si4 0.510402 0.938238 0.846730
Si Si5 0.972324 0.949843 0.751848
Si Si6 0.127161 0.541767 0.328286
Si Si7 0.000000 0.500000 0.500000
O O1 0.126339 0.718297 0.150851
O O2 0.698975 0.372634 0.324230
O O3 0.784681 0.565505 0.288129
O O4 0.493397 0.795706 0.008128
O O5 0.061515 0.645090 0.779703
O O6 0.062779 0.810345 0.783819
O O7 0.441049 0.990414 0.585461
O O8 0.000000 0.500000 0.000000
O O9 0.000000 0.000000 0.500000
O O10 0.915705 0.824372 0.901647
O O11 0.280815 0.954692 0.770858
O O12 0.269527 0.222474 0.666086
O O13 0.545283 0.248402 0.530130
O O14 0.088389 0.601663 0.363006
#
# Coordination Sequence:
#
# PCOD9052654 Si02
#       7
#     2   2   2   2   2   2   1
#     4  12  25  45  68 104 138 188 222 296 357 408
#     4  11  25  43  69 102 143 192 240 291 347 417
#     4  11  26  42  67 104 144 184 243 293 339 425
#     4  11  26  43  73  99 141 176 242 286 355 428
#     4  11  23  45  67 100 138 192 224 289 349 419
#     4  11  24  44  73  94 143 175 231 288 354 419
#     4  10  26  48  70 110 128 184 236 292 350 436
#
# _framework density 26.156210999999999
#
# number of rings (size 3 to 8) (size 9 to 14) (size 15 to 20)
#    0.000    0.923    1.538    4.615    6.462    7.385 
#    0.000    0.000    0.000    0.000    0.000    0.000 
#    0.000    0.000    0.000    0.000    0.000    0.000 
#
# Total GULP energy -72610.925578 kJ/mol
# GULP energy per Si atom -5585.455814 kJ/mol
# Density = 2.609668 g / cm^3
# Si number density = 26.156211 Si / 1000 Ang^3
#
#
#
# Elastic Constant Matrix: (Units=GPa)
#
#
# Indices 1 2 3 4 5 6 
#
# 1 106.0019 26.3919 9.7963 2.8358 -10.6680 -12.8708
# 2 26.3919 127.9332 32.3020 16.5305 -8.8736 -62.6067
# 3 9.7963 32.3020 80.6953 17.2145 -25.9127 -9.3106
# 4 2.8358 16.5305 17.2145 46.7642 -14.2406 -21.6937
# 5 -10.6680 -8.8736 -25.9127 -14.2406 37.5551 20.7219
# 6 -12.8708 -62.6067 -9.3106 -21.6937 20.7219 26.3161
#
#
#
# Elastic Compliance Matrix: (Units=1/GPa)
#
#
# Indices 1 2 3 4 5 6 
#
# 1 0.010118 -0.001038 -0.000290 0.001382 0.001791 0.002106
# 2 -0.001038 -0.004331 0.004984 -0.008536 0.013719 -0.026887
# 3 -0.000290 0.004984 0.012312 0.001807 0.001036 0.016745
# 4 0.001382 -0.008536 0.001807 0.022572 0.014842 -0.012071
# 5 0.001791 0.013719 0.001036 0.014842 0.019937 0.030418
# 6 0.002106 -0.026887 0.016745 -0.012071 0.030418 -0.052913
#
#
# Mechanical properties :
#
#
# Convention : Reuss Voigt Hill
#
# Bulk Modulus (GPa) = 39.35193 50.17899 44.76546
# Shear Modulus (GPa) = 564.74369 38.53643 301.64006
#
# Velocity S-wave (km/s) = 14.70988 3.84255 10.75048
# Velocity P-wave (km/s) = 17.42369 6.23802 13.08621
#
# Compressibility (1/GPa) = 0.02541172
#
# Stress axis : x y z
#
# Youngs Moduli (GPa) = 98.83405 -230.90491 81.22355
#
# Poissons Ratio (x) = -0.23965 0.02352
# Poissons Ratio (y) = 0.10258 -0.40481
# Poissons Ratio (z) = 0.02862 1.15079
#
# Static dielectric constant tensor:
#      x y z
#    x 2.057870 0.005530 -0.058640 
#    y 0.005530 1.968720 0.116010 
#    z -0.058640 0.116010 2.205140 
# 
# From -- ./inp_files/99384.got.cif
#   From: 2010.05.17/outbox.cif.g08.bks.cpg/sg2_50_cif.got.tgz:99384.got - 2010.06.03 11:33:40.
