data_PCOD9052305
_publ_section_title
;
Structure prediction by ZEFSAII (Michael W. Deem and Ramdas Pophale) SiO2 
 PCOD9052305
Probable space group: P -1
;
_chemical_formula_sum "Si O2"
_cell_formula_units_Z 16
_cell_length_a 17.803447
_cell_length_b 9.573091
_cell_length_c 7.885142
_cell_angle_alpha 82.657411
_cell_angle_beta 137.705741
_cell_angle_gamma 119.065762
_cell_volume 726.637855
_symmetry_space_group_name_H-M "P -1"
_symmetry_group_IT_number 2
_symmetry_cell_setting 'triclinic'
loop_
_space_group_symop_operation_xyz
x,y,z
-x,-y,-z
loop_
_atom_site_type_symbol
_atom_site_label
_atom_site_fract_x
_atom_site_fract_y
_atom_site_fract_z
Si Si1 0.502114 0.158391 0.044898
Si Si2 0.148274 0.033770 0.246604
Si Si3 0.231224 0.047054 0.765501
Si Si4 0.298409 0.486835 0.576204
Si Si5 0.004075 0.338898 0.075234
Si Si6 0.563239 0.650617 0.372361
Si Si7 0.268392 0.363435 0.934264
Si Si8 0.993367 0.657766 0.514795
O O1 0.472355 0.243147 0.826161
O O2 0.383694 0.098436 0.993568
O O3 0.645373 0.313816 0.339857
O O4 0.500000 0.000000 0.000000
O O5 0.193666 0.078055 0.511435
O O6 0.279012 0.192143 0.333633
O O7 0.116133 0.848539 0.170030
O O8 0.000000 0.000000 0.000000
O O9 0.125018 0.843958 0.650690
O O10 0.227164 0.169307 0.876416
O O11 0.407976 0.471053 0.665715
O O12 0.287461 0.419292 0.758665
O O13 0.151252 0.383487 0.257425
O O14 0.008619 0.332047 0.286989
O O15 0.000000 0.500000 0.000000
O O16 0.416244 0.510959 0.241656
O O17 0.141864 0.365316 0.783228
O O18 0.000000 0.500000 0.500000
#
# Coordination Sequence:
#
# PCOD9052305 Si02
#       8
#     2   2   2   2   2   2   2   2
#     4  10  20  29  57  93 120 148 197 252 290 336
#     4  11  20  35  61  92 119 151 195 243 298 355
#     4  11  21  37  62  90 118 153 199 245 295 352
#     4  10  17  35  56  85 119 150 198 247 289 341
#     4  11  24  39  59  86 123 156 194 245 302 362
#     4  10  18  34  57  87 121 148 199 251 289 344
#     4  10  18  36  58  86 117 154 197 247 287 343
#     4  11  25  40  59  86 118 156 202 247 303 347
#
# _framework density 22.019224000000001
#
# number of rings (size 3 to 8) (size 9 to 14) (size 15 to 20)
#    0.000    1.500    5.000    2.625    8.750    0.000 
#    0.000    0.000    0.000    7.500    0.000    0.000 
#    0.000    0.000    0.000    0.000    0.000    0.000 
#
# Total GULP energy -89305.868931 kJ/mol
# GULP energy per Si atom -5581.616808 kJ/mol
# Density = 2.196911 g / cm^3
# Si number density = 22.019224 Si / 1000 Ang^3
#
#
#
# Elastic Constant Matrix: (Units=GPa)
#
#
# Indices 1 2 3 4 5 6 
#
# 1 44.9960 29.7718 18.2837 10.3816 -2.8587 -24.5399
# 2 29.7718 137.6410 41.7575 47.4521 5.9655 -37.9601
# 3 18.2837 41.7575 95.1367 31.5724 4.9112 -2.9330
# 4 10.3816 47.4521 31.5724 44.7559 8.1403 0.3923
# 5 -2.8587 5.9655 4.9112 8.1403 23.8386 -5.2233
# 6 -24.5399 -37.9601 -2.9330 0.3923 -5.2233 38.9737
#
#
#
# Elastic Compliance Matrix: (Units=1/GPa)
#
#
# Indices 1 2 3 4 5 6 
#
# 1 0.047021 0.009107 -0.006068 -0.020378 0.020547 0.040979
# 2 0.009107 0.023329 -0.002561 -0.027441 0.011751 0.030115
# 3 -0.006068 -0.002561 0.014660 -0.005745 -0.002344 -0.005469
# 4 -0.020378 -0.027441 -0.005745 0.065408 -0.026411 -0.044189
# 5 0.020547 0.011751 -0.002344 -0.026411 0.058040 0.032251
# 6 0.040979 0.030115 -0.005469 -0.044189 0.032251 0.085148
#
#
# Mechanical properties :
#
#
# Convention : Reuss Voigt Hill
#
# Bulk Modulus (GPa) = 11.63272 50.82219 31.22746
# Shear Modulus (GPa) = 15.56146 34.04434 24.80290
#
# Velocity S-wave (km/s) = 2.66131 3.93634 3.35986
# Velocity P-wave (km/s) = 3.83899 6.61745 5.40964
#
# Compressibility (1/GPa) = 0.08596439
#
# Stress axis : x y z
#
# Youngs Moduli (GPa) = 21.26726 42.86517 68.21079
#
# Poissons Ratio (x) = -0.39036 0.41393
# Poissons Ratio (y) = -0.19368 0.17470
# Poissons Ratio (z) = 0.12906 0.10979
#
# Static dielectric constant tensor:
#      x y z
#    x 1.854640 0.066090 -0.003040 
#    y 0.066090 1.840060 -0.004190 
#    z -0.003040 -0.004190 1.888610 
# 
# From -- ./inp_files/190094.got.cif
#   From: 2010.05.17/outbox.cif.g08.bks.cpg/sg2_96_cif.got.tgz:190094.got - 2010.06.03 11:33:40.
