data_PCOD9052806
_publ_section_title
;
Structure prediction by ZEFSAII (Michael W. Deem and Ramdas Pophale) SiO2 
 PCOD9052806
Probable space group: P -1
;
_chemical_formula_sum "Si O2"
_cell_formula_units_Z 16
_cell_length_a 6.063828
_cell_length_b 14.987319
_cell_length_c 23.255944
_cell_angle_alpha 29.165412
_cell_angle_beta 60.176138
_cell_angle_gamma 80.133388
_cell_volume 699.763162
_symmetry_space_group_name_H-M "P -1"
_symmetry_group_IT_number 2
_symmetry_cell_setting 'triclinic'
loop_
_space_group_symop_operation_xyz
x,y,z
-x,-y,-z
loop_
_atom_site_type_symbol
_atom_site_label
_atom_site_fract_x
_atom_site_fract_y
_atom_site_fract_z
Si Si1 0.257369 0.128901 0.797378
Si Si2 0.163708 0.493088 0.639796
Si Si3 0.833736 0.959121 0.320392
Si Si4 0.914057 0.337783 0.547734
Si Si5 0.297824 0.263847 0.293186
Si Si6 0.363309 0.927342 0.993699
Si Si7 0.721338 0.761568 0.997194
Si Si8 0.213411 0.828864 0.679691
O O1 0.248359 0.344386 0.677531
O O2 0.527141 0.184641 0.686374
O O3 0.940971 0.876668 0.960545
O O4 0.324898 0.100244 0.869632
O O5 0.457022 0.754947 0.470956
O O6 0.951315 0.512763 0.611691
O O7 0.969071 0.331889 0.809694
O O8 0.973575 0.817312 0.378153
O O9 0.846667 0.052446 0.328806
O O10 0.047424 0.163595 0.130275
O O11 0.000000 0.500000 0.500000
O O12 0.620825 0.272356 0.249930
O O13 0.126765 0.301376 0.240429
O O14 0.433688 0.486839 0.190565
O O15 0.000000 0.000000 0.500000
O O16 0.578781 0.902884 0.936766
O O17 0.500000 0.000000 0.000000
O O18 0.500000 0.000000 0.500000
#
# Coordination Sequence:
#
# PCOD9052806 Si02
#       8
#     2   2   2   2   2   2   2   2
#     4  12  24  45  69 107 159 199 252 307 374 463
#     4  12  26  40  70 108 151 199 249 300 373 455
#     4  12  27  45  77 108 146 204 247 311 389 457
#     4  12  23  42  71 107 156 199 248 298 371 462
#     4  10  26  50  78 108 149 193 259 329 393 454
#     4  12  27  43  67 109 155 198 252 307 371 456
#     4  12  27  46  75 107 147 202 251 316 389 458
#     4  10  26  50  77 110 146 193 260 327 388 457
#
# _framework density 22.864878000000001
#
# number of rings (size 3 to 8) (size 9 to 14) (size 15 to 20)
#    0.000    0.500    5.000    2.250    7.000    3.000 
#    0.000    0.000    0.000    0.000    0.000    0.000 
#    0.000    0.000    0.000    0.000    0.000    0.000 
#
# Total GULP energy -89133.667733 kJ/mol
# GULP energy per Si atom -5570.854233 kJ/mol
# Density = 2.281284 g / cm^3
# Si number density = 22.864878 Si / 1000 Ang^3
#
#
#
# Elastic Constant Matrix: (Units=GPa)
#
#
# Indices 1 2 3 4 5 6 
#
# 1 97.2572 10.6913 12.8726 -14.8123 -3.0688 9.6907
# 2 10.6913 91.9480 5.0713 -7.7230 -9.0147 2.8711
# 3 12.8726 5.0713 75.8678 -6.3858 -3.7046 16.7114
# 4 -14.8123 -7.7230 -6.3858 45.5986 5.9144 -4.0535
# 5 -3.0688 -9.0147 -3.7046 5.9144 36.0557 -4.7061
# 6 9.6907 2.8711 16.7114 -4.0535 -4.7061 33.8879
#
#
#
# Elastic Compliance Matrix: (Units=1/GPa)
#
#
# Indices 1 2 3 4 5 6 
#
# 1 0.011228 -0.000929 -0.001092 0.003163 -0.000201 -0.002243
# 2 -0.000929 0.011356 -0.000371 0.001242 0.002516 -0.000016
# 3 -0.001092 -0.000371 0.015011 0.001034 0.000287 -0.006895
# 4 0.003163 0.001242 0.001034 0.023795 -0.003100 0.000896
# 5 -0.000201 0.002516 0.000287 -0.003100 0.029329 0.003405
# 6 -0.002243 -0.000016 -0.006895 0.000896 0.003405 0.034132
#
#
# Mechanical properties :
#
#
# Convention : Reuss Voigt Hill
#
# Bulk Modulus (GPa) = 30.47868 35.81592 33.14730
# Shear Modulus (GPa) = 35.56910 38.87096 37.22003
#
# Velocity S-wave (km/s) = 3.94842 4.12761 4.03901
# Velocity P-wave (km/s) = 5.84341 6.19794 6.02329
#
# Compressibility (1/GPa) = 0.03280982
#
# Stress axis : x y z
#
# Youngs Moduli (GPa) = 89.06556 88.06164 66.61872
#
# Poissons Ratio (x) = 0.08182 0.07278
# Poissons Ratio (y) = 0.08276 0.02469
# Poissons Ratio (z) = 0.09730 0.03263
#
# Static dielectric constant tensor:
#      x y z
#    x 1.997180 -0.006590 -0.103410 
#    y -0.006590 1.799820 0.019310 
#    z -0.103410 0.019310 1.784850 
# 
# From -- ./inp_files/99586.got.cif
#   From: 2010.05.17/outbox.cif.g08.bks.cpg/sg2_50_cif.got.tgz:99586.got - 2010.06.03 11:33:40.
