data_PCOD9052938
_publ_section_title
;
Structure prediction by ZEFSAII (Michael W. Deem and Ramdas Pophale) SiO2 
 PCOD9052938
Probable space group: P -1
;
_chemical_formula_sum "Si O2"
_cell_formula_units_Z 11
_cell_length_a 4.926453
_cell_length_b 8.966151
_cell_length_c 15.421145
_cell_angle_alpha 138.577977
_cell_angle_beta 63.014665
_cell_angle_gamma 105.416002
_cell_volume 398.383395
_symmetry_space_group_name_H-M "P -1"
_symmetry_group_IT_number 2
_symmetry_cell_setting 'triclinic'
loop_
_space_group_symop_operation_xyz
x,y,z
-x,-y,-z
loop_
_atom_site_type_symbol
_atom_site_label
_atom_site_fract_x
_atom_site_fract_y
_atom_site_fract_z
Si Si1 0.776407 0.508693 0.798314
Si Si2 0.319504 0.183989 0.541270
Si Si3 0.000000 0.000000 0.000000
Si Si4 0.804246 0.056781 0.854552
Si Si5 0.490277 0.162202 0.774743
Si Si6 0.287509 0.446635 0.374128
O O1 0.486970 0.404286 0.833466
O O2 0.771108 0.477570 0.682465
O O3 0.065427 0.325546 0.699732
O O4 0.851410 0.759844 0.913603
O O5 0.463691 0.393898 0.566316
O O6 0.500000 0.000000 0.500000
O O7 0.280490 0.024398 0.394240
O O8 0.174309 0.918901 0.034322
O O9 0.619340 0.199654 0.867974
O O10 0.164162 0.062806 0.780607
O O11 0.643811 0.824263 0.760172
O O12 0.000000 0.500000 0.500000
#
# Coordination Sequence:
#
# PCOD9052938 Si02
#       6
#     2   2   1   2   2   2
#     4  11  26  46  74 103 151 197 243 305 356 449
#     4  12  24  43  75 114 150 187 237 312 377 437
#     4  10  28  56  68 108 144 204 248 298 368 434
#     4  11  27  47  75 109 144 198 247 306 366 444
#     4  12  25  46  77 112 146 189 251 305 378 431
#     4  11  23  41  69 109 150 190 237 298 379 433
#
# _framework density 27.611592000000002
#
# number of rings (size 3 to 8) (size 9 to 14) (size 15 to 20)
#    0.000    0.727    3.636    2.727    5.091    3.636 
#    3.273    0.000    0.000    0.000    0.000    0.000 
#    0.000    0.000    0.000    0.000    0.000    0.000 
#
# Total GULP energy -61261.145657 kJ/mol
# GULP energy per Si atom -5569.195060 kJ/mol
# Density = 2.754875 g / cm^3
# Si number density = 27.611592 Si / 1000 Ang^3
#
#
#
# Elastic Constant Matrix: (Units=GPa)
#
#
# Indices 1 2 3 4 5 6 
#
# 1 88.7781 61.7407 22.9724 7.0171 25.3886 3.2436
# 2 61.7407 196.5757 45.9941 9.9468 27.0196 19.6521
# 3 22.9724 45.9941 119.0375 7.0364 36.4501 5.9585
# 4 7.0171 9.9468 7.0364 44.0849 3.4915 24.1362
# 5 25.3886 27.0196 36.4501 3.4915 45.8297 4.2507
# 6 3.2436 19.6521 5.9585 24.1362 4.2507 60.9181
#
#
#
# Elastic Compliance Matrix: (Units=1/GPa)
#
#
# Indices 1 2 3 4 5 6 
#
# 1 0.016224 -0.004380 0.000741 -0.002154 -0.006999 0.001818
# 2 -0.004380 0.007082 -0.001758 0.000532 -0.000199 -0.002077
# 3 0.000741 -0.001758 0.011602 -0.001136 -0.008556 0.000440
# 4 -0.002154 0.000532 -0.001136 0.029413 0.000622 -0.011643
# 5 -0.006999 -0.000199 -0.008556 0.000622 0.032688 -0.001254
# 6 0.001818 -0.002077 0.000440 -0.011643 -0.001254 0.021646
#
#
# Mechanical properties :
#
#
# Convention : Reuss Voigt Hill
#
# Bulk Modulus (GPa) = 41.46914 73.97839 57.72377
# Shear Modulus (GPa) = 36.36749 48.41215 42.38982
#
# Velocity S-wave (km/s) = 3.63314 4.19182 3.92244
# Velocity P-wave (km/s) = 5.71410 7.09078 6.43933
#
# Compressibility (1/GPa) = 0.02411432
#
# Stress axis : x y z
#
# Youngs Moduli (GPa) = 61.63883 141.20457 86.19282
#
# Poissons Ratio (x) = 0.61842 -0.06385
# Poissons Ratio (y) = 0.26995 0.15150
# Poissons Ratio (z) = -0.04566 0.24820
#
# Static dielectric constant tensor:
#      x y z
#    x 2.411690 0.059260 -0.148350 
#    y 0.059260 2.182240 -0.023060 
#    z -0.148350 -0.023060 2.354700 
# 
# From -- ./inp_files/21163.got.cif
#   From: 2010.05.17/outbox.cif.g08.bks.cpg/sg2_11_cif.got.tgz:21163.got - 2010.06.03 11:33:40.
