data_PCOD9052787
_publ_section_title
;
Structure prediction by ZEFSAII (Michael W. Deem and Ramdas Pophale) SiO2 
 PCOD9052787
Probable space group: P -1
;
_chemical_formula_sum "Si O2"
_cell_formula_units_Z 12
_cell_length_a 9.219025
_cell_length_b 13.320271
_cell_length_c 12.829035
_cell_angle_alpha 138.577917
_cell_angle_beta 37.949944
_cell_angle_gamma 150.160294
_cell_volume 470.770445
_symmetry_space_group_name_H-M "P -1"
_symmetry_group_IT_number 2
_symmetry_cell_setting 'triclinic'
loop_
_space_group_symop_operation_xyz
x,y,z
-x,-y,-z
loop_
_atom_site_type_symbol
_atom_site_label
_atom_site_fract_x
_atom_site_fract_y
_atom_site_fract_z
Si Si1 0.818871 0.309835 0.038320
Si Si2 0.727665 0.084375 0.724999
Si Si3 0.628343 0.788629 0.046396
Si Si4 0.734405 0.744814 0.717522
Si Si5 0.248436 0.238410 0.819974
Si Si6 0.527544 0.673832 0.467225
O O1 0.544084 0.298472 0.228204
O O2 0.654381 0.113178 0.904174
O O3 0.000000 0.500000 0.000000
O O4 0.045381 0.307117 0.979514
O O5 0.610875 0.172628 0.790055
O O6 0.111126 0.219035 0.614721
O O7 0.519116 0.846054 0.634013
O O8 0.589091 0.696757 0.109535
O O9 0.618538 0.702960 0.872119
O O10 0.000000 0.000000 0.000000
O O11 0.733114 0.569074 0.547452
O O12 0.030844 0.989767 0.735642
O O13 0.462859 0.324880 0.663202
#
# Coordination Sequence:
#
# PCOD9052787 Si02
#       6
#     2   2   2   2   2   2
#     4  10  17  35  58  79 103 146 187 229 268 316
#     4   9  19  36  58  77 117 145 179 238 269 321
#     4   9  20  36  56  83 115 145 184 231 273 324
#     4  10  19  36  58  81 111 145 186 232 269 326
#     4  10  20  34  57  81 113 144 186 226 279 324
#     4  10  20  37  58  82 110 150 184 225 279 324
#
# _framework density 25.490131000000002
#
# number of rings (size 3 to 8) (size 9 to 14) (size 15 to 20)
#    0.000    2.333    3.333    0.500    0.000    2.667 
#    0.000   10.833    7.333    0.000    0.000    0.000 
#    0.000    0.000    0.000    0.000    0.000    0.000 
#
# Total GULP energy -67000.584243 kJ/mol
# GULP energy per Si atom -5583.382020 kJ/mol
# Density = 2.543211 g / cm^3
# Si number density = 25.490131 Si / 1000 Ang^3
#
#
#
# Elastic Constant Matrix: (Units=GPa)
#
#
# Indices 1 2 3 4 5 6 
#
# 1 172.1075 9.9339 30.2377 11.4236 -7.1627 -40.3064
# 2 9.9339 98.9909 37.1943 35.1311 6.3845 -17.8139
# 3 30.2377 37.1943 108.8562 46.8100 -2.5877 -20.3187
# 4 11.4236 35.1311 46.8100 52.7265 -2.7831 -3.0966
# 5 -7.1627 6.3845 -2.5877 -2.7831 21.4154 7.0251
# 6 -40.3064 -17.8139 -20.3187 -3.0966 7.0251 33.4519
#
#
#
# Elastic Compliance Matrix: (Units=1/GPa)
#
#
# Indices 1 2 3 4 5 6 
#
# 1 0.008527 0.002435 0.000351 -0.003194 -0.002164 0.011943
# 2 0.002435 0.017048 0.001337 -0.012806 -0.010298 0.013801
# 3 0.000351 0.001337 0.017529 -0.016082 -0.003898 0.011111
# 4 -0.003194 -0.012806 -0.016082 0.042004 0.012559 -0.019185
# 5 -0.002164 -0.010298 -0.003898 0.012559 0.057193 -0.021308
# 6 0.011943 0.013801 0.011111 -0.019185 -0.021308 0.061081
#
#
# Mechanical properties :
#
#
# Convention : Reuss Voigt Hill
#
# Bulk Modulus (GPa) = 19.47481 59.40960 39.44220
# Shear Modulus (GPa) = 23.55678 41.69133 32.62405
#
# Velocity S-wave (km/s) = 3.04329 4.04863 3.58141
# Velocity P-wave (km/s) = 4.47275 6.72404 5.71044
#
# Compressibility (1/GPa) = 0.05134839
#
# Stress axis : x y z
#
# Youngs Moduli (GPa) = 117.27488 58.65815 57.04770
#
# Poissons Ratio (x) = -0.14282 -0.02000
# Poissons Ratio (y) = -0.28553 -0.07627
# Poissons Ratio (z) = -0.04111 -0.07842
#
# Static dielectric constant tensor:
#      x y z
#    x 2.032340 -0.026000 0.007460 
#    y -0.026000 2.093110 0.007110 
#    z 0.007460 0.007110 2.024990 
# 
# From -- ./inp_files/153776.got.cif
#   From: 2010.05.17/outbox.cif.g08.bks.cpg/sg2_77_cif.got.tgz:153776.got - 2010.06.03 11:33:40.
