data_PCOD9052454
_publ_section_title
;
Structure prediction by ZEFSAII (Michael W. Deem and Ramdas Pophale) SiO2 
 PCOD9052454
Probable space group: P -1
;
_chemical_formula_sum "Si O2"
_cell_formula_units_Z 14
_cell_length_a 22.551665
_cell_length_b 8.176558
_cell_length_c 9.456829
_cell_angle_alpha 131.560563
_cell_angle_beta 153.532857
_cell_angle_gamma 48.556895
_cell_volume 569.312979
_symmetry_space_group_name_H-M "P -1"
_symmetry_group_IT_number 2
_symmetry_cell_setting 'triclinic'
loop_
_space_group_symop_operation_xyz
x,y,z
-x,-y,-z
loop_
_atom_site_type_symbol
_atom_site_label
_atom_site_fract_x
_atom_site_fract_y
_atom_site_fract_z
Si Si1 0.439456 0.826190 0.868964
Si Si2 0.236685 0.540482 0.255658
Si Si3 0.129360 0.927693 0.837245
Si Si4 0.157365 0.388953 0.274461
Si Si5 0.313809 0.205607 0.997324
Si Si6 0.008357 0.194465 0.242751
Si Si7 0.674536 0.505495 0.073404
O O1 0.304189 0.750385 0.481486
O O2 0.405448 0.963822 0.020207
O O3 0.547033 0.593307 0.953044
O O4 0.500000 0.000000 0.000000
O O5 0.233043 0.527698 0.409316
O O6 0.310293 0.315335 0.206004
O O7 0.081018 0.586449 0.895533
O O8 0.072996 0.832309 0.803024
O O9 0.252463 0.750102 0.930917
O O10 0.000000 0.000000 0.500000
O O11 0.179345 0.146433 0.116648
O O12 0.211633 0.382958 0.544447
O O13 0.000000 0.500000 0.000000
O O14 0.357505 0.385735 0.086375
O O15 0.161138 0.193488 0.615751
O O16 0.000000 0.000000 0.000000
#
# Coordination Sequence:
#
# PCOD9052454 Si02
#       7
#     2   2   2   2   2   2   2
#     4  10  26  46  71 100 139 186 238 287 336 411
#     4  12  25  44  70 105 138 182 237 287 342 414
#     4  12  25  42  67 102 139 177 221 284 349 411
#     4  12  26  43  68 103 143 178 224 287 358 411
#     4  11  23  43  73 105 137 177 238 290 343 412
#     4  12  23  41  72 102 138 175 231 290 349 399
#     4  11  25  45  67  97 142 184 230 280 350 406
#
# _framework density 24.591044
#
# number of rings (size 3 to 8) (size 9 to 14) (size 15 to 20)
#    0.000    0.571    4.286    3.857    2.000    5.143 
#    0.000    1.429    0.000    0.000    0.000    0.000 
#    0.000    0.000    0.000    0.000    0.000    0.000 
#
# Total GULP energy -78332.188375 kJ/mol
# GULP energy per Si atom -5595.156312 kJ/mol
# Density = 2.453507 g / cm^3
# Si number density = 24.591044 Si / 1000 Ang^3
#
#
#
# Elastic Constant Matrix: (Units=GPa)
#
#
# Indices 1 2 3 4 5 6 
#
# 1 104.5351 36.9485 14.9947 -2.5985 -6.4419 -20.0755
# 2 36.9485 151.1757 14.1949 8.1857 4.1108 -59.0566
# 3 14.9947 14.1949 55.1411 13.1160 9.0445 -5.6527
# 4 -2.5985 8.1857 13.1160 44.6237 -2.6760 -1.6978
# 5 -6.4419 4.1108 9.0445 -2.6760 33.3262 -0.6627
# 6 -20.0755 -59.0566 -5.6527 -1.6978 -0.6627 54.4695
#
#
#
# Elastic Compliance Matrix: (Units=1/GPa)
#
#
# Indices 1 2 3 4 5 6 
#
# 1 0.011406 -0.001971 -0.003567 0.002362 0.003642 0.001815
# 2 -0.001971 0.012068 -0.000635 -0.001773 -0.001597 0.012218
# 3 -0.003567 -0.000635 0.022115 -0.007022 -0.007177 -0.000014
# 4 0.002362 -0.001773 -0.007022 0.025176 0.004584 -0.000940
# 5 0.003642 -0.001597 -0.007177 0.004584 0.033212 -0.000587
# 6 0.001815 0.012218 -0.000014 -0.000940 -0.000587 0.032237
#
#
# Mechanical properties :
#
#
# Convention : Reuss Voigt Hill
#
# Bulk Modulus (GPa) = 30.08088 49.23647 39.65867
# Shear Modulus (GPa) = 31.32041 42.79812 37.05927
#
# Velocity S-wave (km/s) = 3.57270 4.17633 3.88625
# Velocity P-wave (km/s) = 5.41090 6.58189 6.02491
#
# Compressibility (1/GPa) = 0.03324370
#
# Stress axis : x y z
#
# Youngs Moduli (GPa) = 87.67234 82.86124 45.21820
#
# Poissons Ratio (x) = 0.16329 0.16131
# Poissons Ratio (y) = 0.17277 0.02870
# Poissons Ratio (z) = 0.31277 0.05260
#
# Static dielectric constant tensor:
#      x y z
#    x 1.996780 0.028660 0.019840 
#    y 0.028660 1.982390 -0.025530 
#    z 0.019840 -0.025530 1.950700 
# 
# From -- ./inp_files/343903.got.cif
#   From: 2010.05.17/outbox.cif.g08.bks.cpg/sg2_172_cif.got.tgz:343903.got - 2010.06.03 11:33:40.
