data_PCOD9052518
_publ_section_title
;
Structure prediction by ZEFSAII (Michael W. Deem and Ramdas Pophale) SiO2 
 PCOD9052518
Probable space group: P -1
;
_chemical_formula_sum "Si O2"
_cell_formula_units_Z 15
_cell_length_a 5.333560
_cell_length_b 12.118084
_cell_length_c 12.946426
_cell_angle_alpha 49.367643
_cell_angle_beta 66.115204
_cell_angle_gamma 75.590532
_cell_volume 580.505716
_symmetry_space_group_name_H-M "P -1"
_symmetry_group_IT_number 2
_symmetry_cell_setting 'triclinic'
loop_
_space_group_symop_operation_xyz
x,y,z
-x,-y,-z
loop_
_atom_site_type_symbol
_atom_site_label
_atom_site_fract_x
_atom_site_fract_y
_atom_site_fract_z
Si Si1 0.861650 0.155080 0.943455
Si Si2 0.439214 0.459160 0.322160
Si Si3 0.316994 0.290684 0.263615
Si Si4 0.784858 0.621565 0.990727
Si Si5 0.000000 0.000000 0.500000
Si Si6 0.794435 0.129750 0.203096
Si Si7 0.497371 0.853240 0.397051
Si Si8 0.465692 0.262508 0.766396
O O1 0.633777 0.182790 0.877975
O O2 0.131275 0.262192 0.829864
O O3 0.722777 0.156431 0.078341
O O4 0.000000 0.000000 0.000000
O O5 0.239413 0.403232 0.297317
O O6 0.509414 0.304463 0.453009
O O7 0.397577 0.574908 0.349280
O O8 0.640214 0.554645 0.155941
O O9 0.369793 0.362878 0.100848
O O10 0.599927 0.200004 0.280672
O O11 0.082167 0.171177 0.371716
O O12 0.923561 0.779367 0.891230
O O13 0.000000 0.500000 0.000000
O O14 0.259198 0.957198 0.408686
O O15 0.764946 0.954405 0.325723
O O16 0.486999 0.820582 0.297686
#
# Coordination Sequence:
#
# PCOD9052518 Si02
#       8
#     2   2   2   2   1   2   2   2
#     4  12  26  49  81 119 158 208 270 333 395 478
#     4  12  26  47  74 112 164 204 265 326 405 476
#     4  11  26  44  72 113 147 201 259 324 396 469
#     4  12  24  42  72 108 150 199 256 324 396 470
#     4  10  26  46  76 106 156 190 270 326 398 458
#     4  11  25  44  78 106 154 196 267 321 400 463
#     4  11  27  51  74 115 154 213 263 332 401 482
#     4  12  28  50  82 115 163 212 270 327 403 482
#
# _framework density 25.839541000000001
#
# number of rings (size 3 to 8) (size 9 to 14) (size 15 to 20)
#    0.000    0.533    4.000    2.800    3.733    4.267 
#    0.000    2.000    0.000    0.000    0.000    0.000 
#    0.000    0.000    0.000    0.000    0.000    0.000 
#
# Total GULP energy -83552.317726 kJ/mol
# GULP energy per Si atom -5570.154515 kJ/mol
# Density = 2.578073 g / cm^3
# Si number density = 25.839541 Si / 1000 Ang^3
#
#
#
# Elastic Constant Matrix: (Units=GPa)
#
#
# Indices 1 2 3 4 5 6 
#
# 1 74.4323 34.8216 43.3086 -12.5830 2.2356 16.4440
# 2 34.8216 148.2397 38.0500 -41.6336 -4.3546 18.2031
# 3 43.3086 38.0500 102.8181 -21.2038 -12.7811 28.6557
# 4 -12.5830 -41.6336 -21.2038 49.8965 14.0333 -20.2270
# 5 2.2356 -4.3546 -12.7811 14.0333 30.5622 1.4860
# 6 16.4440 18.2031 28.6557 -20.2270 1.4860 36.7604
#
#
#
# Elastic Compliance Matrix: (Units=1/GPa)
#
#
# Indices 1 2 3 4 5 6 
#
# 1 0.019453 -0.002479 -0.007484 0.000682 -0.005168 -0.001056
# 2 -0.002479 0.009891 -0.001992 0.008886 -0.003458 0.002793
# 3 -0.007484 -0.001992 0.017289 -0.003601 0.009708 -0.011517
# 4 0.000682 0.008886 -0.003601 0.040167 -0.019755 0.021002
# 5 -0.005168 -0.003458 0.009708 -0.019755 0.046528 -0.016294
# 6 -0.001056 0.002793 -0.011517 0.021002 -0.016294 0.047485
#
#
# Mechanical properties :
#
#
# Convention : Reuss Voigt Hill
#
# Bulk Modulus (GPa) = 44.00749 61.98337 52.99543
# Shear Modulus (GPa) = 23.55176 37.39781 30.47479
#
# Velocity S-wave (km/s) = 3.02232 3.80848 3.43794
# Velocity P-wave (km/s) = 5.40807 6.58629 6.02605
#
# Compressibility (1/GPa) = 0.02272340
#
# Stress axis : x y z
#
# Youngs Moduli (GPa) = 51.40525 101.10694 57.83910
#
# Poissons Ratio (x) = 0.25066 0.43286
# Poissons Ratio (y) = 0.12744 0.11520
# Poissons Ratio (z) = 0.38471 0.20139
#
# Static dielectric constant tensor:
#      x y z
#    x 2.286310 0.021640 0.257880 
#    y 0.021640 2.078130 0.025690 
#    z 0.257880 0.025690 2.348340 
# 
# From -- ./inp_files/363636.got.cif
#   From: 2010.05.17/outbox.cif.g08.bks.cpg/sg2_182_cif.got.tgz:363636.got - 2010.06.03 11:33:40.
