data_PCOD9052757
_publ_section_title
;
Structure prediction by ZEFSAII (Michael W. Deem and Ramdas Pophale) SiO2 
 PCOD9052757
Probable space group: P -1
;
_chemical_formula_sum "Si O2"
_cell_formula_units_Z 16
_cell_length_a 7.254318
_cell_length_b 7.875528
_cell_length_c 15.062935
_cell_angle_alpha 67.989661
_cell_angle_beta 84.737757
_cell_angle_gamma 116.043357
_cell_volume 682.070996
_symmetry_space_group_name_H-M "P -1"
_symmetry_group_IT_number 2
_symmetry_cell_setting 'triclinic'
loop_
_space_group_symop_operation_xyz
x,y,z
-x,-y,-z
loop_
_atom_site_type_symbol
_atom_site_label
_atom_site_fract_x
_atom_site_fract_y
_atom_site_fract_z
Si Si1 0.985465 0.001179 0.211895
Si Si2 0.880832 0.875094 0.617281
Si Si3 0.872734 0.388427 0.937157
Si Si4 0.539733 0.733698 0.930387
Si Si5 0.220732 0.432005 0.782055
Si Si6 0.337134 0.559876 0.225017
Si Si7 0.538188 0.098337 0.381656
Si Si8 0.575411 0.001442 0.217337
O O1 0.879344 0.749407 0.252691
O O2 0.011883 0.049894 0.305733
O O3 0.204952 0.118164 0.121936
O O4 0.812463 0.056210 0.169091
O O5 0.793829 0.623983 0.661739
O O6 0.675572 0.898791 0.629070
O O7 0.000000 0.000000 0.500000
O O8 0.816345 0.511348 0.840293
O O9 0.457126 0.797450 0.833036
O O10 0.618644 0.227708 0.005267
O O11 0.000000 0.500000 0.000000
O O12 0.040621 0.347481 0.884205
O O13 0.500000 0.500000 0.000000
O O14 0.439386 0.436932 0.802479
O O15 0.273144 0.656330 0.692340
O O16 0.403582 0.793824 0.211227
O O17 0.556470 0.956161 0.331878
O O18 0.500000 0.000000 0.500000
#
# Coordination Sequence:
#
# PCOD9052757 Si02
#       8
#     2   2   2   2   2   2   2   2
#     4  11  25  49  75 106 152 191 242 306 364 434
#     4  11  24  44  74 111 146 192 240 302 368 432
#     4  12  28  42  76 105 142 197 244 299 369 426
#     4  12  28  44  72 109 144 192 248 302 362 433
#     4  10  26  49  73 108 149 194 241 303 366 430
#     4  10  26  49  74 106 149 188 248 304 357 441
#     4  11  24  44  74 111 147 190 245 296 365 444
#     4  11  25  49  76 106 145 196 242 303 368 430
#
# _framework density 23.457967
#
# number of rings (size 3 to 8) (size 9 to 14) (size 15 to 20)
#    0.000    1.000    1.250    3.000   14.000    3.000 
#    0.000    7.500    0.000    0.000    0.000    0.000 
#    0.000    0.000    0.000    0.000    0.000    0.000 
#
# Total GULP energy -89266.002397 kJ/mol
# GULP energy per Si atom -5579.125150 kJ/mol
# Density = 2.340458 g / cm^3
# Si number density = 23.457967 Si / 1000 Ang^3
#
#
#
# Elastic Constant Matrix: (Units=GPa)
#
#
# Indices 1 2 3 4 5 6 
#
# 1 131.9124 39.4300 40.3280 -8.9584 -7.5030 14.5603
# 2 39.4300 136.5746 62.8444 -1.2037 5.2912 -0.5322
# 3 40.3280 62.8444 139.2154 -5.9600 -9.2916 0.7286
# 4 -8.9584 -1.2037 -5.9600 26.7360 2.0678 -3.4523
# 5 -7.5030 5.2912 -9.2916 2.0678 48.8887 0.9630
# 6 14.5603 -0.5322 0.7286 -3.4523 0.9630 27.2472
#
#
#
# Elastic Compliance Matrix: (Units=1/GPa)
#
#
# Indices 1 2 3 4 5 6 
#
# 1 0.009427 -0.002035 -0.001611 0.001978 0.001373 -0.004832
# 2 -0.002035 0.009850 -0.004041 -0.000798 -0.002140 0.001363
# 3 -0.001611 -0.004041 0.009659 0.001361 0.001956 0.000627
# 4 0.001978 -0.000798 0.001361 0.038914 -0.001073 0.003860
# 5 0.001373 -0.002140 0.001956 -0.001073 0.021348 -0.001718
# 6 -0.004832 0.001363 0.000627 0.003860 -0.001718 0.039843
#
#
# Mechanical properties :
#
#
# Convention : Reuss Voigt Hill
#
# Bulk Modulus (GPa) = 73.72893 76.98969 75.35931
# Shear Modulus (GPa) = 33.57121 38.24771 35.90946
#
# Velocity S-wave (km/s) = 3.78712 4.04230 3.91679
# Velocity P-wave (km/s) = 7.11488 7.39449 7.25603
#
# Compressibility (1/GPa) = 0.01356320
#
# Stress axis : x y z
#
# Youngs Moduli (GPa) = 106.07493 101.52012 103.52529
#
# Poissons Ratio (x) = 0.20661 0.16674
# Poissons Ratio (y) = 0.21588 0.41836
# Poissons Ratio (z) = 0.17084 0.41026
#
# Static dielectric constant tensor:
#      x y z
#    x 1.932790 0.012670 -0.000930 
#    y 0.012670 1.908430 -0.008450 
#    z -0.000930 -0.008450 1.983730 
# 
# From -- ./inp_files/492533.got.cif
#   From: 2010.05.17/outbox.cif.g08.bks.cpg/sg2_247_cif.got.tgz:492533.got - 2010.06.03 11:33:40.
