data_PCOD9052320
_publ_section_title
;
Structure prediction by ZEFSAII (Michael W. Deem and Ramdas Pophale) SiO2 
 PCOD9052320
Probable space group: P -1
;
_chemical_formula_sum "Si O2"
_cell_formula_units_Z 15
_cell_length_a 6.814001
_cell_length_b 12.365581
_cell_length_c 11.894914
_cell_angle_alpha 42.959387
_cell_angle_beta 73.996159
_cell_angle_gamma 70.967980
_cell_volume 644.611322
_symmetry_space_group_name_H-M "P -1"
_symmetry_group_IT_number 2
_symmetry_cell_setting 'triclinic'
loop_
_space_group_symop_operation_xyz
x,y,z
-x,-y,-z
loop_
_atom_site_type_symbol
_atom_site_label
_atom_site_fract_x
_atom_site_fract_y
_atom_site_fract_z
Si Si1 0.000000 0.500000 0.500000
Si Si2 0.615141 0.257991 0.474281
Si Si3 0.432748 0.931584 0.758902
Si Si4 0.013863 0.606862 0.685586
Si Si5 0.554646 0.642393 0.805594
Si Si6 0.354411 0.696621 0.321196
Si Si7 0.970731 0.981572 0.886394
Si Si8 0.706833 0.721350 0.066830
O O1 0.994304 0.561482 0.591010
O O2 0.190391 0.596090 0.375287
O O3 0.863362 0.245025 0.437500
O O4 0.515181 0.366355 0.304722
O O5 0.557877 0.348504 0.533479
O O6 0.529779 0.092025 0.610449
O O7 0.445391 0.817536 0.735495
O O8 0.193334 0.982396 0.795501
O O9 0.568964 0.813869 0.918322
O O10 0.164002 0.456831 0.835163
O O11 0.799118 0.637544 0.761412
O O12 0.500000 0.500000 0.000000
O O13 0.545059 0.714240 0.198555
O O14 0.213320 0.873598 0.228748
O O15 0.882899 0.821525 0.997021
O O16 0.000000 0.000000 0.000000
#
# Coordination Sequence:
#
# PCOD9052320 Si02
#       8
#     1   2   2   2   2   2   2   2
#     4  10  26  44  74 108 144 194 240 298 372 426
#     4  11  27  49  73 108 146 190 248 306 362 430
#     4  12  27  46  77 107 149 195 243 301 364 436
#     4  11  28  46  76 106 147 194 241 304 363 435
#     4  12  29  51  74 105 147 199 249 298 359 440
#     4  11  24  44  73 111 149 186 242 307 366 432
#     4  12  23  42  72 110 147 191 237 297 365 432
#     4  12  25  44  73 112 147 192 240 301 367 437
#
# _framework density 23.269836999999999
#
# number of rings (size 3 to 8) (size 9 to 14) (size 15 to 20)
#    0.000    0.533    2.667    4.000    9.333    4.800 
#    0.000    0.000    0.000    0.000    0.000    0.000 
#    0.000    0.000    0.000    0.000    0.000    0.000 
#
# Total GULP energy -83747.035322 kJ/mol
# GULP energy per Si atom -5583.135688 kJ/mol
# Density = 2.321687 g / cm^3
# Si number density = 23.269837 Si / 1000 Ang^3
#
#
#
# Elastic Constant Matrix: (Units=GPa)
#
#
# Indices 1 2 3 4 5 6 
#
# 1 82.8396 32.7332 44.7064 -7.0012 -44.7753 0.5371
# 2 32.7332 61.1525 14.5938 -8.8883 -24.9721 -9.5851
# 3 44.7064 14.5938 111.5857 7.7511 -26.4464 3.7873
# 4 -7.0012 -8.8883 7.7511 33.3089 10.1000 -11.2841
# 5 -44.7753 -24.9721 -26.4464 10.1000 63.5496 -0.7234
# 6 0.5371 -9.5851 3.7873 -11.2841 -0.7234 51.6836
#
#
#
# Elastic Compliance Matrix: (Units=1/GPa)
#
#
# Indices 1 2 3 4 5 6 
#
# 1 0.024651 -0.006804 -0.006195 0.000948 0.011959 -0.000690
# 2 -0.006804 0.023112 -0.000065 0.005622 0.003432 0.005637
# 3 -0.006195 -0.000065 0.012250 -0.005305 0.001528 -0.001982
# 4 0.000948 0.005622 -0.005305 0.037793 -0.005228 0.009600
# 5 0.011959 0.003432 0.001528 -0.005228 0.026973 -0.000364
# 6 -0.000690 0.005637 -0.001982 0.009600 -0.000364 0.022637
#
#
# Mechanical properties :
#
#
# Convention : Reuss Voigt Hill
#
# Bulk Modulus (GPa) = 29.51078 48.84939 39.18008
# Shear Modulus (GPa) = 27.05043 40.61138 33.83090
#
# Velocity S-wave (km/s) = 3.41320 4.18214 3.81708
# Velocity P-wave (km/s) = 5.31439 6.66022 6.02500
#
# Compressibility (1/GPa) = 0.03388593
#
# Stress axis : x y z
#
# Youngs Moduli (GPa) = 40.56551 43.26745 81.63157
#
# Poissons Ratio (x) = 0.29438 0.50569
# Poissons Ratio (y) = 0.27600 0.00533
# Poissons Ratio (z) = 0.25130 0.00282
#
# Static dielectric constant tensor:
#      x y z
#    x 1.888040 -0.068670 0.126500 
#    y -0.068670 2.073910 -0.228620 
#    z 0.126500 -0.228620 2.158360 
# 
# From -- ./inp_files/363616.got.cif
#   From: 2010.05.17/outbox.cif.g08.bks.cpg/sg2_182_cif.got.tgz:363616.got - 2010.06.03 11:33:40.
