data_PCOD9052380
_publ_section_title
;
Structure prediction by ZEFSAII (Michael W. Deem and Ramdas Pophale) SiO2 
 PCOD9052380
Probable space group: P -1
;
_chemical_formula_sum "Si O2"
_cell_formula_units_Z 16
_cell_length_a 15.181740
_cell_length_b 16.746906
_cell_length_c 11.154678
_cell_angle_alpha 140.635659
_cell_angle_beta 27.705314
_cell_angle_gamma 147.920128
_cell_volume 697.246179
_symmetry_space_group_name_H-M "P -1"
_symmetry_group_IT_number 2
_symmetry_cell_setting 'triclinic'
loop_
_space_group_symop_operation_xyz
x,y,z
-x,-y,-z
loop_
_atom_site_type_symbol
_atom_site_label
_atom_site_fract_x
_atom_site_fract_y
_atom_site_fract_z
Si Si1 0.849774 0.192330 0.280580
Si Si2 0.949351 0.989472 0.261304
Si Si3 0.971183 0.566981 0.234748
Si Si4 0.815329 0.534182 0.948254
Si Si5 0.429740 0.855891 0.995108
Si Si6 0.303781 0.308081 0.293994
Si Si7 0.440409 0.989013 0.363856
Si Si8 0.745877 0.762089 0.449784
O O1 0.721777 0.145546 0.506025
O O2 0.650712 0.123653 0.339818
O O3 0.038918 0.364850 0.222828
O O4 0.970246 0.100384 0.016899
O O5 0.719217 0.967484 0.460689
O O6 0.151564 0.164193 0.226652
O O7 0.905062 0.916714 0.363771
O O8 0.742079 0.560531 0.520290
O O9 0.033407 0.500997 0.193143
O O10 0.162543 0.746124 0.205952
O O11 0.000000 0.500000 0.000000
O O12 0.571174 0.383979 0.043599
O O13 0.760543 0.637742 0.215815
O O14 0.510990 0.753960 0.725018
O O15 0.534895 0.926301 0.079081
O O16 0.500000 0.000000 0.000000
O O17 0.223841 0.256147 0.467858
#
# Coordination Sequence:
#
# PCOD9052380 Si02
#       8
#     2   2   2   2   2   2   2   2
#     4  10  26  45  71  92 128 180 226 275 323 390
#     4  11  23  41  71  96 130 168 224 277 328 390
#     4  12  24  39  64  96 140 180 208 266 337 398
#     4  11  25  42  62  96 137 178 221 265 331 403
#     4  12  23  39  69 101 131 166 217 276 326 389
#     4  12  22  39  63  98 138 172 213 272 338 393
#     4  11  23  46  69  98 128 170 231 275 326 384
#     4  11  21  40  62  98 138 172 212 267 331 401
#
# _framework density 22.947420000000001
#
# number of rings (size 3 to 8) (size 9 to 14) (size 15 to 20)
#    0.000    0.750    5.000    2.625    1.750    3.000 
#    0.000    1.250    0.000    0.000    0.000    0.000 
#    0.000    0.000    0.000    0.000    0.000    0.000 
#
# Total GULP energy -89517.191614 kJ/mol
# GULP energy per Si atom -5594.824476 kJ/mol
# Density = 2.289519 g / cm^3
# Si number density = 22.947420 Si / 1000 Ang^3
#
#
#
# Elastic Constant Matrix: (Units=GPa)
#
#
# Indices 1 2 3 4 5 6 
#
# 1 62.8364 31.8779 25.2861 0.7950 -17.2720 -11.5422
# 2 31.8779 89.7347 24.4753 6.1370 -4.6028 -16.1597
# 3 25.2861 24.4753 74.5507 4.1797 -10.8327 -18.2572
# 4 0.7950 6.1370 4.1797 30.0557 -14.0981 -2.2745
# 5 -17.2720 -4.6028 -10.8327 -14.0981 38.7785 1.4596
# 6 -11.5422 -16.1597 -18.2572 -2.2745 1.4596 23.4025
#
#
#
# Elastic Compliance Matrix: (Units=1/GPa)
#
#
# Indices 1 2 3 4 5 6 
#
# 1 0.024846 -0.006869 -0.003774 0.007049 0.011589 0.004529
# 2 -0.006869 0.015113 -0.001496 -0.003803 -0.003281 0.005716
# 3 -0.003774 -0.001496 0.018353 0.000047 0.002862 0.011250
# 4 0.007049 -0.003803 0.000047 0.042616 0.018048 0.003903
# 5 0.011589 -0.003281 0.002862 0.018048 0.037729 0.005084
# 6 0.004529 0.005716 0.011250 0.003903 0.005084 0.057750
#
#
# Mechanical properties :
#
#
# Convention : Reuss Voigt Hill
#
# Bulk Modulus (GPa) = 29.38183 43.37783 36.37983
# Shear Modulus (GPa) = 21.54885 28.14616 24.84750
#
# Velocity S-wave (km/s) = 3.06772 3.50601 3.29416
# Velocity P-wave (km/s) = 5.03782 5.94421 5.50969
#
# Compressibility (1/GPa) = 0.03403464
#
# Stress axis : x y z
#
# Youngs Moduli (GPa) = 40.24762 66.16686 54.48659
#
# Poissons Ratio (x) = 0.45451 0.20565
# Poissons Ratio (y) = 0.27647 0.08149
# Poissons Ratio (z) = 0.15191 0.09895
#
# Static dielectric constant tensor:
#      x y z
#    x 1.867750 0.004470 -0.025750 
#    y 0.004470 1.849030 0.012390 
#    z -0.025750 0.012390 1.898430 
# 
# From -- ./inp_files/454922.got.cif
#   From: 2010.05.17/outbox.cif.g08.bks.cpg/sg2_228_cif.got.tgz:454922.got - 2010.06.03 11:33:40.
