data_PCOD9052359
_publ_section_title
;
Structure prediction by ZEFSAII (Michael W. Deem and Ramdas Pophale) SiO2 
 PCOD9052359
Probable space group: P -1
;
_chemical_formula_sum "Si O2"
_cell_formula_units_Z 12
_cell_length_a 5.782675
_cell_length_b 9.480933
_cell_length_c 11.653516
_cell_angle_alpha 91.755331
_cell_angle_beta 66.964084
_cell_angle_gamma 117.573601
_cell_volume 512.230113
_symmetry_space_group_name_H-M "P -1"
_symmetry_group_IT_number 2
_symmetry_cell_setting 'triclinic'
loop_
_space_group_symop_operation_xyz
x,y,z
-x,-y,-z
loop_
_atom_site_type_symbol
_atom_site_label
_atom_site_fract_x
_atom_site_fract_y
_atom_site_fract_z
Si Si1 0.675711 0.408758 0.437051
Si Si2 0.338173 0.047465 0.431037
Si Si3 0.479636 0.072688 0.827638
Si Si4 0.806062 0.226803 0.997318
Si Si5 0.694242 0.397686 0.697631
Si Si6 0.414449 0.542582 0.894502
O O1 0.500000 0.500000 0.500000
O O2 0.512462 0.241997 0.398320
O O3 0.716684 0.365949 0.558929
O O4 0.977661 0.530451 0.322633
O O5 0.500000 0.000000 0.500000
O O6 0.379051 0.969186 0.306472
O O7 0.000000 0.000000 0.500000
O O8 0.462297 0.229879 0.795594
O O9 0.202546 0.906965 0.916740
O O10 0.691018 0.137358 0.897064
O O11 0.592134 0.290795 0.087846
O O12 0.099629 0.391563 0.929897
O O13 0.611222 0.532411 0.755207
O O14 0.500000 0.500000 0.000000
#
# Coordination Sequence:
#
# PCOD9052359 Si02
#       6
#     2   2   2   2   2   2
#     4  11  27  46  72 104 139 193 245 301 380 438
#     4  12  28  48  75 110 148 197 248 312 379 443
#     4  11  24  48  68 102 149 187 241 306 366 442
#     4  10  26  45  69 105 140 193 241 295 372 429
#     4  11  25  45  71 101 141 184 241 305 365 440
#     4  11  24  44  72 100 137 185 243 299 356 440
#
# _framework density 23.426970000000001
#
# number of rings (size 3 to 8) (size 9 to 14) (size 15 to 20)
#    0.000    1.000    3.333    1.000   11.667    0.667 
#    0.000    0.000    0.000    0.000    0.000    0.000 
#    0.000    0.000    0.000    0.000    0.000    0.000 
#
# Total GULP energy -67047.307177 kJ/mol
# GULP energy per Si atom -5587.275598 kJ/mol
# Density = 2.337365 g / cm^3
# Si number density = 23.426970 Si / 1000 Ang^3
#
#
#
# Elastic Constant Matrix: (Units=GPa)
#
#
# Indices 1 2 3 4 5 6 
#
# 1 68.5372 39.3924 19.5833 7.5499 -10.2208 -6.1221
# 2 39.3924 150.2137 39.0532 18.5619 -0.2237 -11.2125
# 3 19.5833 39.0532 97.0816 24.8037 4.3105 -1.9269
# 4 7.5499 18.5619 24.8037 56.2161 -11.1489 3.1139
# 5 -10.2208 -0.2237 4.3105 -11.1489 35.3956 5.9521
# 6 -6.1221 -11.2125 -1.9269 3.1139 5.9521 36.4961
#
#
#
# Elastic Compliance Matrix: (Units=1/GPa)
#
#
# Indices 1 2 3 4 5 6 
#
# 1 0.018609 -0.004305 -0.002583 0.001207 0.005942 0.000591
# 2 -0.004305 0.008719 -0.002014 -0.001926 -0.001941 0.002331
# 3 -0.002583 -0.002014 0.013316 -0.005771 -0.004341 0.000851
# 4 0.001207 -0.001926 -0.005771 0.022802 0.008910 -0.004093
# 5 0.005942 -0.001941 -0.004341 0.008910 0.034331 -0.006188
# 6 0.000591 0.002331 0.000851 -0.004093 -0.006188 0.029619
#
#
# Mechanical properties :
#
#
# Convention : Reuss Voigt Hill
#
# Bulk Modulus (GPa) = 43.78290 56.87671 50.32980
# Shear Modulus (GPa) = 32.71969 40.14181 36.43075
#
# Velocity S-wave (km/s) = 3.74126 4.14392 3.94772
# Velocity P-wave (km/s) = 6.11493 6.87220 6.50459
#
# Compressibility (1/GPa) = 0.02283997
#
# Stress axis : x y z
#
# Youngs Moduli (GPa) = 53.73863 114.69301 75.09671
#
# Poissons Ratio (x) = 0.49373 0.19395
# Poissons Ratio (y) = 0.23133 0.15128
# Poissons Ratio (z) = 0.13879 0.23104
#
# Static dielectric constant tensor:
#      x y z
#    x 2.009770 -0.006890 0.066860 
#    y -0.006890 1.861850 -0.043170 
#    z 0.066860 -0.043170 1.913080 
# 
# From -- ./inp_files/22552.got.cif
#   From: 2010.05.17/outbox.cif.g08.bks.cpg/sg2_12_cif.got.tgz:22552.got - 2010.06.03 11:33:40.
