data_PCOD9052227
_publ_section_title
;
Structure prediction by ZEFSAII (Michael W. Deem and Ramdas Pophale) SiO2 
 PCOD9052227
Probable space group: P -1
;
_chemical_formula_sum "Si O2"
_cell_formula_units_Z 15
_cell_length_a 8.324560
_cell_length_b 15.481425
_cell_length_c 15.917845
_cell_angle_alpha 26.851430
_cell_angle_beta 131.829394
_cell_angle_gamma 115.113058
_cell_volume 595.154966
_symmetry_space_group_name_H-M "P -1"
_symmetry_group_IT_number 2
_symmetry_cell_setting 'triclinic'
loop_
_space_group_symop_operation_xyz
x,y,z
-x,-y,-z
loop_
_atom_site_type_symbol
_atom_site_label
_atom_site_fract_x
_atom_site_fract_y
_atom_site_fract_z
Si Si1 0.305389 0.902438 0.442107
Si Si2 0.215766 0.966328 0.168184
Si Si3 0.626158 0.608437 0.504490
Si Si4 0.226771 0.708797 0.743013
Si Si5 0.732831 0.666049 0.218300
Si Si6 0.500000 0.000000 0.000000
Si Si7 0.660265 0.421588 0.932002
Si Si8 0.048108 0.372442 0.973073
O O1 0.170291 0.933711 0.277341
O O2 0.172557 0.867216 0.507336
O O3 0.562270 0.670186 0.719038
O O4 0.297770 0.134254 0.253483
O O5 0.458232 0.749843 0.402878
O O6 0.238889 0.181800 0.973955
O O7 0.000000 0.000000 0.000000
O O8 0.500000 0.500000 0.500000
O O9 0.647993 0.782274 0.302878
O O10 0.878963 0.410856 0.799571
O O11 0.500000 0.500000 0.000000
O O12 0.254412 0.757952 0.806862
O O13 0.058374 0.595851 0.785317
O O14 0.565244 0.834358 0.086148
O O15 0.575823 0.566607 0.207715
O O16 0.000000 0.500000 0.500000
O O17 0.892081 0.362516 0.005144
#
# Coordination Sequence:
#
# PCOD9052227 Si02
#       8
#     2   2   2   2   2   1   2   2
#     4  11  26  47  74 109 149 196 254 303 382 443
#     4  11  24  43  69 111 150 195 247 301 379 455
#     4  11  24  43  68 105 146 189 245 302 370 446
#     4  10  27  50  76 109 148 197 260 313 375 450
#     4  11  26  43  76 109 150 195 241 309 376 452
#     4  10  26  44  64 104 146 186 240 292 370 444
#     4  11  25  51  74 110 149 195 255 315 374 449
#     4  12  26  47  77 106 150 200 247 320 377 443
#
# _framework density 25.203520999999999
#
# number of rings (size 3 to 8) (size 9 to 14) (size 15 to 20)
#    0.000    1.067    1.333    2.800    7.467   11.200 
#    0.000    0.000    0.000    0.000    0.000    0.000 
#    0.000    0.000    0.000    0.000    0.000    0.000 
#
# Total GULP energy -83656.957958 kJ/mol
# GULP energy per Si atom -5577.130531 kJ/mol
# Density = 2.514616 g / cm^3
# Si number density = 25.203521 Si / 1000 Ang^3
#
#
#
# Elastic Constant Matrix: (Units=GPa)
#
#
# Indices 1 2 3 4 5 6 
#
# 1 100.1444 39.9157 39.6979 10.2188 -37.3041 -16.6276
# 2 39.9157 105.1317 34.3282 3.6652 -8.9739 -17.1062
# 3 39.6979 34.3282 133.0559 -5.1127 -22.1629 -26.0386
# 4 10.2188 3.6652 -5.1127 54.1202 -14.3661 -5.9873
# 5 -37.3041 -8.9739 -22.1629 -14.3661 50.7643 15.0875
# 6 -16.6276 -17.1062 -26.0386 -5.9873 15.0875 38.2509
#
#
#
# Elastic Compliance Matrix: (Units=1/GPa)
#
#
# Indices 1 2 3 4 5 6 
#
# 1 0.016571 -0.004796 -0.002072 -0.000270 0.010509 -0.000539
# 2 -0.004796 0.012158 -0.001590 -0.000549 -0.003256 0.003468
# 3 -0.002072 -0.001590 0.009870 0.002431 0.001770 0.004789
# 4 -0.000270 -0.000549 0.002431 0.020616 0.005955 0.002170
# 5 0.010509 -0.003256 0.001770 0.005955 0.031428 -0.007147
# 6 -0.000539 0.003468 0.004789 0.002170 -0.007147 0.033878
#
#
# Mechanical properties :
#
#
# Convention : Reuss Voigt Hill
#
# Bulk Modulus (GPa) = 46.12405 62.91285 54.51845
# Shear Modulus (GPa) = 33.63252 43.58642 38.60947
#
# Velocity S-wave (km/s) = 3.65696 4.16309 3.91821
# Velocity P-wave (km/s) = 6.01427 6.93719 6.49215
#
# Compressibility (1/GPa) = 0.02168066
#
# Stress axis : x y z
#
# Youngs Moduli (GPa) = 60.34523 82.25228 101.32162
#
# Poissons Ratio (x) = 0.39452 0.20996
# Poissons Ratio (y) = 0.28944 0.16114
# Poissons Ratio (z) = 0.12505 0.13081
#
# Static dielectric constant tensor:
#      x y z
#    x 2.015440 0.054010 0.026870 
#    y 0.054010 2.033690 -0.050430 
#    z 0.026870 -0.050430 1.844010 
# 
# From -- ./inp_files/505153.got.cif
#   From: 2010.05.17/outbox.cif.g08.bks.cpg/sg2_253_cif.got.tgz:505153.got - 2010.06.03 11:33:40.
