data_PCOD9052867
_publ_section_title
;
Structure prediction by ZEFSAII (Michael W. Deem and Ramdas Pophale) SiO2 
 PCOD9052867
Probable space group: P -1
;
_chemical_formula_sum "Si O2"
_cell_formula_units_Z 16
_cell_length_a 8.675762
_cell_length_b 19.266654
_cell_length_c 12.071562
_cell_angle_alpha 46.442812
_cell_angle_beta 39.375896
_cell_angle_gamma 77.799499
_cell_volume 663.472582
_symmetry_space_group_name_H-M "P -1"
_symmetry_group_IT_number 2
_symmetry_cell_setting 'triclinic'
loop_
_space_group_symop_operation_xyz
x,y,z
-x,-y,-z
loop_
_atom_site_type_symbol
_atom_site_label
_atom_site_fract_x
_atom_site_fract_y
_atom_site_fract_z
Si Si1 0.655750 0.698959 0.475389
Si Si2 0.665269 0.632336 0.324649
Si Si3 0.199379 0.982448 0.736432
Si Si4 0.728471 0.532736 0.732358
Si Si5 0.879627 0.007677 0.677175
Si Si6 0.270162 0.749589 0.744936
Si Si7 0.315820 0.714964 0.347639
Si Si8 0.086177 0.286064 0.241777
O O1 0.483299 0.596116 0.582504
O O2 0.841336 0.664496 0.471425
O O3 0.391261 0.677297 0.726153
O O4 0.909037 0.841447 0.115644
O O5 0.500000 0.500000 0.500000
O O6 0.609825 0.719265 0.202816
O O7 0.058069 0.709293 0.019069
O O8 0.384042 0.097109 0.600347
O O9 0.052764 0.006508 0.690820
O O10 0.500000 0.000000 0.500000
O O11 0.074879 0.593042 0.528764
O O12 0.500000 0.500000 0.000000
O O13 0.483369 0.405442 0.926857
O O14 0.955292 0.141607 0.494088
O O15 0.000000 0.000000 0.500000
O O16 0.491575 0.863219 0.053285
O O17 0.036343 0.723710 0.803586
O O18 0.106233 0.688980 0.601214
#
# Coordination Sequence:
#
# PCOD9052867 Si02
#       8
#     2   2   2   2   2   2   2   2
#     4  12  26  49  75 110 153 200 250 320 378 454
#     4  12  26  45  75 110 145 203 255 314 379 451
#     4  12  25  47  74 117 151 197 260 312 383 457
#     4  10  27  46  76 109 151 198 254 307 389 451
#     4  12  26  44  76 109 155 200 249 312 380 452
#     4  12  26  45  79 106 157 194 260 312 382 449
#     4  11  24  48  71 109 153 191 259 309 377 460
#     4  11  24  47  73 111 147 205 249 312 387 447
#
# _framework density 24.115539999999999
#
# number of rings (size 3 to 8) (size 9 to 14) (size 15 to 20)
#    0.000    0.500    3.750    3.000   10.500    1.000 
#    0.000    3.125    0.000    0.000    0.000    0.000 
#    0.000    0.000    0.000    0.000    0.000    0.000 
#
# Total GULP energy -89364.088848 kJ/mol
# GULP energy per Si atom -5585.255553 kJ/mol
# Density = 2.406065 g / cm^3
# Si number density = 24.115540 Si / 1000 Ang^3
#
#
#
# Elastic Constant Matrix: (Units=GPa)
#
#
# Indices 1 2 3 4 5 6 
#
# 1 50.6139 18.8711 27.2871 -14.9980 3.3884 19.5237
# 2 18.8711 144.1789 29.8906 -5.4158 -7.5284 5.4854
# 3 27.2871 29.8906 79.1432 -16.1209 -5.1238 6.8676
# 4 -14.9980 -5.4158 -16.1209 51.2133 3.9188 -7.7332
# 5 3.3884 -7.5284 -5.1238 3.9188 36.3508 -11.7269
# 6 19.5237 5.4854 6.8676 -7.7332 -11.7269 37.2319
#
#
#
# Elastic Compliance Matrix: (Units=1/GPa)
#
#
# Indices 1 2 3 4 5 6 
#
# 1 0.035406 -0.002391 -0.009354 0.005188 -0.011849 -0.019143
# 2 -0.002391 0.007740 -0.002177 -0.000562 0.001901 0.000997
# 3 -0.009354 -0.002177 0.017149 0.002716 0.003777 0.003816
# 4 0.005188 -0.000562 0.002716 0.022130 -0.002374 0.000710
# 5 -0.011849 0.001901 0.003777 -0.002374 0.034870 0.015726
# 6 -0.019143 0.000997 0.003816 0.000710 0.015726 0.041147
#
#
# Mechanical properties :
#
#
# Convention : Reuss Voigt Hill
#
# Bulk Modulus (GPa) = 30.81371 47.33704 39.07538
# Shear Modulus (GPa) = 25.36751 38.15168 31.75959
#
# Velocity S-wave (km/s) = 3.24684 3.98180 3.63295
# Velocity P-wave (km/s) = 5.18278 6.38839 5.81690
#
# Compressibility (1/GPa) = 0.03245309
#
# Stress axis : x y z
#
# Youngs Moduli (GPa) = 28.24355 129.19440 58.31203
#
# Poissons Ratio (x) = 0.30884 0.54544
# Poissons Ratio (y) = 0.06752 0.12694
# Poissons Ratio (z) = 0.26419 0.28125
#
# Static dielectric constant tensor:
#      x y z
#    x 2.001560 0.038180 0.037010 
#    y 0.038180 1.962420 -0.000250 
#    z 0.037010 -0.000250 2.022640 
# 
# From -- ./inp_files/402945.got.cif
#   From: 2010.05.17/outbox.cif.g08.bks.cpg/sg2_202_cif.got.tgz:402945.got - 2010.06.03 11:33:40.
