data_PCOD9052378
_publ_section_title
;
Structure prediction by ZEFSAII (Michael W. Deem and Ramdas Pophale) SiO2 
 PCOD9052378
Probable space group: P -1
;
_chemical_formula_sum "Si O2"
_cell_formula_units_Z 12
_cell_length_a 8.635779
_cell_length_b 10.938661
_cell_length_c 6.897249
_cell_angle_alpha 56.812593
_cell_angle_beta 80.479561
_cell_angle_gamma 103.157734
_cell_volume 496.191953
_symmetry_space_group_name_H-M "P -1"
_symmetry_group_IT_number 2
_symmetry_cell_setting 'triclinic'
loop_
_space_group_symop_operation_xyz
x,y,z
-x,-y,-z
loop_
_atom_site_type_symbol
_atom_site_label
_atom_site_fract_x
_atom_site_fract_y
_atom_site_fract_z
Si Si1 0.356864 0.072964 0.002399
Si Si2 0.197628 0.031722 0.487786
Si Si3 0.650939 0.381337 0.632638
Si Si4 0.151274 0.807558 0.023540
Si Si5 0.130662 0.443676 0.906532
Si Si6 0.336790 0.378052 0.254082
O O1 0.301561 0.054678 0.250176
O O2 0.191097 0.959918 0.018447
O O3 0.456429 0.257327 0.777188
O O4 0.500000 0.000000 0.000000
O O5 0.298359 0.193570 0.445383
O O6 0.000000 0.000000 0.500000
O O7 0.209648 0.886271 0.733068
O O8 0.754274 0.295964 0.809023
O O9 0.329960 0.466858 0.375367
O O10 0.726135 0.421666 0.365588
O O11 0.962658 0.686155 0.124924
O O12 0.196081 0.368643 0.131527
O O13 0.000000 0.500000 0.000000
O O14 0.500000 0.500000 0.000000
#
# Coordination Sequence:
#
# PCOD9052378 Si02
#       6
#     2   2   2   2   2   2
#     4  10  26  45  71 107 143 188 240 296 365 431
#     4  12  27  47  72 108 151 188 240 301 373 434
#     4  11  26  47  76 106 144 193 249 296 363 438
#     4  11  26  45  75 105 145 188 245 301 359 436
#     4  12  27  46  78 108 143 195 250 301 361 438
#     4  12  27  48  71 109 151 192 239 300 373 433
#
# _framework density 24.184190000000001
#
# number of rings (size 3 to 8) (size 9 to 14) (size 15 to 20)
#    0.000    0.667    5.000    0.500    9.333    5.333 
#    0.000    0.000    0.000    0.000    0.000    0.000 
#    0.000    0.000    0.000    0.000    0.000    0.000 
#
# Total GULP energy -67092.980476 kJ/mol
# GULP energy per Si atom -5591.081706 kJ/mol
# Density = 2.412915 g / cm^3
# Si number density = 24.184190 Si / 1000 Ang^3
#
#
#
# Elastic Constant Matrix: (Units=GPa)
#
#
# Indices 1 2 3 4 5 6 
#
# 1 26.5800 8.8470 11.4409 0.2952 3.7938 -6.1839
# 2 8.8470 149.4611 26.6922 5.8092 -13.1550 15.4349
# 3 11.4409 26.6922 148.4741 -4.9709 -17.5653 -29.4483
# 4 0.2952 5.8092 -4.9709 42.2784 1.0582 -4.4749
# 5 3.7938 -13.1550 -17.5653 1.0582 46.3785 7.7571
# 6 -6.1839 15.4349 -29.4483 -4.4749 7.7571 30.4547
#
#
#
# Elastic Compliance Matrix: (Units=1/GPa)
#
#
# Indices 1 2 3 4 5 6 
#
# 1 0.043317 -0.004352 -0.000938 0.001654 -0.007207 0.012173
# 2 -0.004352 0.008800 -0.002767 -0.002570 0.003412 -0.009265
# 3 -0.000938 -0.002767 0.009631 0.002616 0.001102 0.010628
# 4 0.001654 -0.002570 0.002616 0.025231 -0.001845 0.008346
# 5 -0.007207 0.003412 0.001102 -0.001845 0.025047 -0.008778
# 6 0.012173 -0.009265 0.010628 0.008346 -0.008778 0.053742
#
#
# Mechanical properties :
#
#
# Convention : Reuss Voigt Hill
#
# Bulk Modulus (GPa) = 21.91391 46.49725 34.20558
# Shear Modulus (GPa) = 25.36874 42.32467 33.84671
#
# Velocity S-wave (km/s) = 3.24231 4.18795 3.74510
# Velocity P-wave (km/s) = 4.80601 6.53095 5.73372
#
# Compressibility (1/GPa) = 0.04563313
#
# Stress axis : x y z
#
# Youngs Moduli (GPa) = 23.08557 113.64281 103.83376
#
# Poissons Ratio (x) = 0.49459 0.09743
# Poissons Ratio (y) = 0.10047 0.28727
# Poissons Ratio (z) = 0.02166 0.31441
#
# Static dielectric constant tensor:
#      x y z
#    x 2.319270 -0.092410 0.334470 
#    y -0.092410 1.998630 -0.150960 
#    z 0.334470 -0.150960 2.172300 
# 
# From -- ./inp_files/26234.got.cif
#   From: 2010.05.17/outbox.cif.g08.bks.cpg/sg2_14_cif.got.tgz:26234.got - 2010.06.03 11:33:40.
