data_PCOD9052599
_publ_section_title
;
Structure prediction by ZEFSAII (Michael W. Deem and Ramdas Pophale) SiO2 
 PCOD9052599
Probable space group: P -1
;
_chemical_formula_sum "Si O2"
_cell_formula_units_Z 12
_cell_length_a 5.404586
_cell_length_b 12.269774
_cell_length_c 15.158115
_cell_angle_alpha 33.143078
_cell_angle_beta 121.953587
_cell_angle_gamma 105.307819
_cell_volume 430.127308
_symmetry_space_group_name_H-M "P -1"
_symmetry_group_IT_number 2
_symmetry_cell_setting 'triclinic'
loop_
_space_group_symop_operation_xyz
x,y,z
-x,-y,-z
loop_
_atom_site_type_symbol
_atom_site_label
_atom_site_fract_x
_atom_site_fract_y
_atom_site_fract_z
Si Si1 0.449107 0.262875 0.906938
Si Si2 0.298115 0.569104 0.522169
Si Si3 0.272050 0.304523 0.235490
Si Si4 0.475075 0.911377 0.250533
Si Si5 0.040456 0.667870 0.650343
Si Si6 0.101729 0.040133 0.248471
O O1 0.514702 0.374047 0.757044
O O2 0.139588 0.445034 0.765790
O O3 0.378719 0.689631 0.710874
O O4 0.445044 0.023174 0.073833
O O5 0.000000 0.500000 0.500000
O O6 0.184061 0.786126 0.416503
O O7 0.407066 0.692188 0.381157
O O8 0.132560 0.321694 0.296338
O O9 0.272744 0.095237 0.324476
O O10 0.261212 0.798953 0.927999
O O11 0.219547 0.088802 0.143092
O O12 0.775741 0.843518 0.420142
O O13 0.000000 0.500000 0.000000
#
# Coordination Sequence:
#
# PCOD9052599 Si02
#       6
#     2   2   2   2   2   2
#     4  12  24  49  77 109 160 205 258 332 392 477
#     4  10  26  53  81 114 153 200 268 340 401 467
#     4  12  25  45  78 119 162 220 260 318 395 470
#     4  10  27  46  76 114 151 211 260 322 396 468
#     4  12  27  47  78 114 168 211 261 325 390 479
#     4  10  26  47  73 116 159 203 271 317 390 476
#
# _framework density 27.898719
#
# number of rings (size 3 to 8) (size 9 to 14) (size 15 to 20)
#    1.000    0.000    1.667    3.500    7.000    2.667 
#    0.000    5.000    0.000    0.000    0.000    0.000 
#    0.000    0.000    0.000    0.000    0.000    0.000 
#
# Total GULP energy -66957.059630 kJ/mol
# GULP energy per Si atom -5579.754969 kJ/mol
# Density = 2.783522 g / cm^3
# Si number density = 27.898719 Si / 1000 Ang^3
#
#
#
# Elastic Constant Matrix: (Units=GPa)
#
#
# Indices 1 2 3 4 5 6 
#
# 1 141.4728 20.8374 63.5964 9.6155 -11.2491 22.2036
# 2 20.8374 116.9139 45.7276 -13.6812 -4.4125 26.8620
# 3 63.5964 45.7276 262.5715 5.3933 -29.0066 12.0391
# 4 9.6155 -13.6812 5.3933 36.6438 -8.9193 -6.7253
# 5 -11.2491 -4.4125 -29.0066 -8.9193 60.3484 5.2264
# 6 22.2036 26.8620 12.0391 -6.7253 5.2264 50.9637
#
#
#
# Elastic Compliance Matrix: (Units=1/GPa)
#
#
# Indices 1 2 3 4 5 6 
#
# 1 0.008709 -0.000314 -0.001759 -0.002645 0.000679 -0.003632
# 2 -0.000314 0.010785 -0.001554 0.003688 0.000943 -0.004791
# 3 -0.001759 -0.001554 0.004693 -0.000339 0.001742 0.000254
# 4 -0.002645 0.003688 -0.000339 0.030910 0.003925 0.002965
# 5 0.000679 0.000943 0.001742 0.003925 0.018406 -0.002574
# 6 -0.003632 -0.004791 0.000254 0.002965 -0.002574 0.024325
#
#
# Mechanical properties :
#
#
# Convention : Reuss Voigt Hill
#
# Bulk Modulus (GPa) = 59.05421 86.80900 72.93160
# Shear Modulus (GPa) = 45.15631 55.64429 50.40030
#
# Velocity S-wave (km/s) = 4.02752 4.47084 4.25496
# Velocity P-wave (km/s) = 6.54532 7.60490 7.09492
#
# Compressibility (1/GPa) = 0.01693359
#
# Stress axis : x y z
#
# Youngs Moduli (GPa) = 114.82127 92.72168 213.08454
#
# Poissons Ratio (x) = 0.02908 0.37481
# Poissons Ratio (y) = 0.03601 0.33117
# Poissons Ratio (z) = 0.20197 0.14411
#
# Static dielectric constant tensor:
#      x y z
#    x 2.631990 0.126490 -0.248060 
#    y 0.126490 2.263310 -0.100940 
#    z -0.248060 -0.100940 2.234420 
# 
# From -- ./inp_files/59786.got.cif
#   From: 2010.05.17/outbox.cif.g08.bks.cpg/sg2_30_cif.got.tgz:59786.got - 2010.06.03 11:33:40.
