data_PCOD9052611
_publ_section_title
;
Structure prediction by ZEFSAII (Michael W. Deem and Ramdas Pophale) SiO2 
 PCOD9052611
Probable space group: P -1
;
_chemical_formula_sum "Si O2"
_cell_formula_units_Z 14
_cell_length_a 18.100161
_cell_length_b 7.730420
_cell_length_c 8.622709
_cell_angle_alpha 62.961767
_cell_angle_beta 130.329862
_cell_angle_gamma 79.306858
_cell_volume 579.744618
_symmetry_space_group_name_H-M "P -1"
_symmetry_group_IT_number 2
_symmetry_cell_setting 'triclinic'
loop_
_space_group_symop_operation_xyz
x,y,z
-x,-y,-z
loop_
_atom_site_type_symbol
_atom_site_label
_atom_site_fract_x
_atom_site_fract_y
_atom_site_fract_z
Si Si1 0.859409 0.739869 0.799073
Si Si2 0.388116 0.775038 0.139750
Si Si3 0.572954 0.070751 0.164366
Si Si4 0.139823 0.913614 0.887688
Si Si5 0.867047 0.442765 0.184836
Si Si6 0.349923 0.276588 0.976343
Si Si7 0.161334 0.812562 0.303415
O O1 0.731789 0.811031 0.519471
O O2 0.822859 0.018018 0.640169
O O3 0.871275 0.646120 0.029030
O O4 0.000000 0.500000 0.000000
O O5 0.500000 0.500000 0.500000
O O6 0.431789 0.739600 0.034493
O O7 0.242658 0.878454 0.926882
O O8 0.372422 0.016498 0.084455
O O9 0.490474 0.190575 0.164881
O O10 0.500000 0.000000 0.000000
O O11 0.112886 0.738859 0.852672
O O12 0.203870 0.799849 0.190518
O O13 0.994043 0.229160 0.559568
O O14 0.724238 0.600242 0.010290
O O15 0.244593 0.519739 0.610865
O O16 0.000000 0.000000 0.000000
#
# Coordination Sequence:
#
# PCOD9052611 Si02
#       7
#     2   2   2   2   2   2   2
#     4  12  28  46  78 112 149 200 258 308 374 448
#     4  11  25  45  76 104 144 199 245 304 377 450
#     4  10  26  47  75 108 153 196 245 313 378 444
#     4  11  25  46  72 108 152 192 252 306 384 430
#     4  11  26  44  74 110 147 195 250 319 360 453
#     4  11  26  48  72 109 149 195 252 304 377 448
#     4  12  26  45  76 111 154 198 244 312 380 447
#
# _framework density 24.148565000000001
#
# number of rings (size 3 to 8) (size 9 to 14) (size 15 to 20)
#    0.000    0.857    1.429    3.429   18.000    2.286 
#    2.571    0.000    0.000    0.000    0.000    0.000 
#    0.000    0.000    0.000    0.000    0.000    0.000 
#
# Total GULP energy -78414.904667 kJ/mol
# GULP energy per Si atom -5601.064619 kJ/mol
# Density = 2.409360 g / cm^3
# Si number density = 24.148565 Si / 1000 Ang^3
#
#
#
# Elastic Constant Matrix: (Units=GPa)
#
#
# Indices 1 2 3 4 5 6 
#
# 1 152.8693 9.8046 44.1555 -17.3902 8.8517 -10.3859
# 2 9.8046 82.4023 33.5792 -13.6440 -8.6448 7.8961
# 3 44.1555 33.5792 129.5707 -21.8203 0.8136 4.8895
# 4 -17.3902 -13.6440 -21.8203 35.0058 7.6733 -3.1901
# 5 8.8517 -8.6448 0.8136 7.6733 53.1726 -7.4572
# 6 -10.3859 7.8961 4.8895 -3.1901 -7.4572 31.6395
#
#
#
# Elastic Compliance Matrix: (Units=1/GPa)
#
#
# Indices 1 2 3 4 5 6 
#
# 1 0.007810 0.000089 -0.002273 0.003043 -0.001284 0.002897
# 2 0.000089 0.014310 -0.003136 0.003104 0.001579 -0.002372
# 3 -0.002273 -0.003136 0.010039 0.004013 -0.001055 -0.001359
# 4 0.003043 0.003104 0.004013 0.035032 -0.004839 0.001996
# 5 -0.001284 0.001579 -0.001055 -0.004839 0.020510 0.003694
# 6 0.002897 -0.002372 -0.001359 0.001996 0.003694 0.034431
#
#
# Mechanical properties :
#
#
# Convention : Reuss Voigt Hill
#
# Bulk Modulus (GPa) = 46.47515 59.99120 53.23318
# Shear Modulus (GPa) = 35.72806 42.45043 39.08925
#
# Velocity S-wave (km/s) = 3.85061 4.19726 4.02767
# Velocity P-wave (km/s) = 6.24955 6.95599 6.61222
#
# Compressibility (1/GPa) = 0.02151687
#
# Stress axis : x y z
#
# Youngs Moduli (GPa) = 128.04500 69.88073 99.61081
#
# Poissons Ratio (x) = -0.00619 0.22644
# Poissons Ratio (y) = -0.01135 0.31242
# Poissons Ratio (z) = 0.29108 0.21917
#
# Static dielectric constant tensor:
#      x y z
#    x 1.960220 -0.040260 -0.006990 
#    y -0.040260 1.969260 0.005020 
#    z -0.006990 0.005020 1.905910 
# 
# From -- ./inp_files/328611.got.cif
#   From: 2010.05.17/outbox.cif.g08.bks.cpg/sg2_165_cif.got.tgz:328611.got - 2010.06.03 11:33:40.
