data_PCOD9052770
_publ_section_title
;
Structure prediction by ZEFSAII (Michael W. Deem and Ramdas Pophale) SiO2 
 PCOD9052770
Probable space group: P -1
;
_chemical_formula_sum "Si O2"
_cell_formula_units_Z 12
_cell_length_a 14.058092
_cell_length_b 11.870742
_cell_length_c 5.592920
_cell_angle_alpha 99.939409
_cell_angle_beta 88.598396
_cell_angle_gamma 34.253526
_cell_volume 493.382731
_symmetry_space_group_name_H-M "P -1"
_symmetry_group_IT_number 2
_symmetry_cell_setting 'triclinic'
loop_
_space_group_symop_operation_xyz
x,y,z
-x,-y,-z
loop_
_atom_site_type_symbol
_atom_site_label
_atom_site_fract_x
_atom_site_fract_y
_atom_site_fract_z
Si Si1 0.784420 0.000210 0.893397
Si Si2 0.862470 0.386513 0.575332
Si Si3 0.902795 0.714166 0.159904
Si Si4 0.391136 0.601310 0.789443
Si Si5 0.616533 0.612934 0.070709
Si Si6 0.307134 0.246442 0.591345
O O1 0.748660 0.153828 0.098247
O O2 0.598242 0.173777 0.825288
O O3 0.789015 0.883837 0.019269
O O4 0.974061 0.818668 0.680812
O O5 0.695563 0.496880 0.763287
O O6 0.774140 0.590329 0.545621
O O7 0.978311 0.303875 0.768166
O O8 0.800334 0.762999 0.403854
O O9 0.000000 0.500000 0.000000
O O10 0.500000 0.500000 0.500000
O O11 0.500000 0.500000 0.000000
O O12 0.315942 0.548506 0.798711
O O13 0.681705 0.673082 0.161063
O O14 0.500000 0.000000 0.500000
#
# Coordination Sequence:
#
# PCOD9052770 Si02
#       6
#     2   2   2   2   2   2
#     4  11  26  46  76 101 145 197 239 310 369 434
#     4  12  25  45  69 108 145 190 248 297 373 442
#     4  12  24  43  66 104 148 186 236 300 364 439
#     4  10  26  49  77 109 148 194 251 311 373 441
#     4  11  26  46  73 107 141 190 252 301 368 440
#     4  12  26  41  71 103 146 191 240 305 365 444
#
# _framework density 24.321888000000001
#
# number of rings (size 3 to 8) (size 9 to 14) (size 15 to 20)
#    0.000    0.667    3.333    2.500   14.000    2.000 
#    0.000    3.333    0.000    0.000    0.000    0.000 
#    0.000    0.000    0.000    0.000    0.000    0.000 
#
# Total GULP energy -66817.870110 kJ/mol
# GULP energy per Si atom -5568.155842 kJ/mol
# Density = 2.426653 g / cm^3
# Si number density = 24.321888 Si / 1000 Ang^3
#
#
#
# Elastic Constant Matrix: (Units=GPa)
#
#
# Indices 1 2 3 4 5 6 
#
# 1 63.9501 30.3024 32.6569 19.5737 -8.7011 13.4105
# 2 30.3024 118.6443 49.9808 8.9019 -18.5885 32.2113
# 3 32.6569 49.9808 150.8509 20.3705 -27.8074 24.5413
# 4 19.5737 8.9019 20.3705 31.0279 -5.4987 10.6674
# 5 -8.7011 -18.5885 -27.8074 -5.4987 38.9202 -0.6482
# 6 13.4105 32.2113 24.5413 10.6674 -0.6482 52.3386
#
#
#
# Elastic Compliance Matrix: (Units=1/GPa)
#
#
# Indices 1 2 3 4 5 6 
#
# 1 0.022001 -0.003959 -0.001894 -0.011502 0.000050 0.000032
# 2 -0.003959 0.012330 -0.001888 0.003059 0.003982 -0.006263
# 3 -0.001894 -0.001888 0.009276 -0.002776 0.004875 -0.002076
# 4 -0.011502 0.003059 -0.002776 0.043140 0.002895 -0.006391
# 5 0.000050 0.003982 0.004875 0.002895 0.031417 -0.004951
# 6 0.000032 -0.006263 -0.002076 -0.006391 -0.004951 0.025167
#
#
# Mechanical properties :
#
#
# Convention : Reuss Voigt Hill
#
# Bulk Modulus (GPa) = 35.55675 62.14726 48.85201
# Shear Modulus (GPa) = 29.72867 39.15770 34.44318
#
# Velocity S-wave (km/s) = 3.49993 4.01681 3.76725
# Velocity P-wave (km/s) = 5.56630 6.86443 6.24917
#
# Compressibility (1/GPa) = 0.02812405
#
# Stress axis : x y z
#
# Youngs Moduli (GPa) = 45.45255 81.10344 107.80564
#
# Poissons Ratio (x) = 0.32111 0.20417
# Poissons Ratio (y) = 0.17996 0.20356
# Poissons Ratio (z) = 0.08608 0.15314
#
# Static dielectric constant tensor:
#      x y z
#    x 2.043160 -0.035510 0.074030 
#    y -0.035510 1.829010 -0.008750 
#    z 0.074030 -0.008750 2.059900 
# 
# From -- ./inp_files/31926.got.cif
#   From: 2010.05.17/outbox.cif.g08.bks.cpg/sg2_16_cif.got.tgz:31926.got - 2010.06.03 11:33:40.
