data_PCOD9052280
_publ_section_title
;
Structure prediction by ZEFSAII (Michael W. Deem and Ramdas Pophale) SiO2 
 PCOD9052280
Probable space group: P -1
;
_chemical_formula_sum "Si O2"
_cell_formula_units_Z 15
_cell_length_a 6.551416
_cell_length_b 8.500118
_cell_length_c 11.972685
_cell_angle_alpha 90.178311
_cell_angle_beta 111.383346
_cell_angle_gamma 77.239149
_cell_volume 603.297226
_symmetry_space_group_name_H-M "P -1"
_symmetry_group_IT_number 2
_symmetry_cell_setting 'triclinic'
loop_
_space_group_symop_operation_xyz
x,y,z
-x,-y,-z
loop_
_atom_site_type_symbol
_atom_site_label
_atom_site_fract_x
_atom_site_fract_y
_atom_site_fract_z
Si Si1 0.500000 0.000000 0.500000
Si Si2 0.248696 0.822576 0.129794
Si Si3 0.921006 0.100338 0.656734
Si Si4 0.085888 0.564747 0.406742
Si Si5 0.407801 0.322660 0.317318
Si Si6 0.028815 0.646538 0.924449
Si Si7 0.658297 0.508731 0.206184
Si Si8 0.576382 0.975122 0.302036
O O1 0.224115 0.017651 0.417140
O O2 0.435848 0.140896 0.596901
O O3 0.126910 0.843379 0.224925
O O4 0.436037 0.652880 0.155247
O O5 0.403121 0.952849 0.172160
O O6 0.071487 0.801659 0.000057
O O7 0.863906 0.261533 0.571228
O O8 0.185488 0.025319 0.698798
O O9 0.296433 0.442933 0.391691
O O10 0.000000 0.500000 0.500000
O O11 0.867703 0.583066 0.282984
O O12 0.590835 0.387603 0.282788
O O13 0.505716 0.135153 0.370996
O O14 0.197958 0.314390 0.194129
O O15 0.245081 0.585247 0.887129
O O16 0.000000 0.500000 0.000000
#
# Coordination Sequence:
#
# PCOD9052280 Si02
#       8
#     1   2   2   2   2   2   2   2
#     4  10  26  44  70  92 138 184 228 268 350 402
#     4  11  22  42  70  96 133 181 230 275 339 412
#     4  11  23  45  68 101 132 181 229 279 340 414
#     4  11  25  41  71 101 136 178 235 283 337 406
#     4  11  26  44  65 106 140 175 231 288 337 405
#     4  11  23  41  73 101 132 179 233 285 339 403
#     4  11  22  42  69 101 134 177 230 283 339 404
#     4  11  26  43  67  98 143 177 222 284 347 406
#
# _framework density 24.863365999999999
#
# number of rings (size 3 to 8) (size 9 to 14) (size 15 to 20)
#    0.000    1.067    4.000    1.600    3.733    5.333 
#    0.000    1.333    0.000    0.000    0.000    0.000 
#    0.000    0.000    0.000    0.000    0.000    0.000 
#
# Total GULP energy -83781.834560 kJ/mol
# GULP energy per Si atom -5585.455637 kJ/mol
# Density = 2.480678 g / cm^3
# Si number density = 24.863366 Si / 1000 Ang^3
#
#
#
# Elastic Constant Matrix: (Units=GPa)
#
#
# Indices 1 2 3 4 5 6 
#
# 1 185.3563 42.0820 47.6215 17.7583 -13.6044 10.0074
# 2 42.0820 79.1051 3.6009 9.4870 -3.0008 7.2989
# 3 47.6215 3.6009 108.6281 29.5377 10.2258 -1.1629
# 4 17.7583 9.4870 29.5377 38.2317 7.1952 5.3835
# 5 -13.6044 -3.0008 10.2258 7.1952 54.8949 9.1821
# 6 10.0074 7.2989 -1.1629 5.3835 9.1821 31.8582
#
#
#
# Elastic Compliance Matrix: (Units=1/GPa)
#
#
# Indices 1 2 3 4 5 6 
#
# 1 0.007378 -0.003431 -0.003359 -0.000148 0.002688 -0.002404
# 2 -0.003431 0.014968 0.001873 -0.003381 0.000366 -0.001817
# 3 -0.003359 0.001873 0.013416 -0.009265 -0.002588 0.003427
# 4 -0.000148 -0.003381 -0.009265 0.035338 -0.002321 -0.004820
# 5 0.002688 0.000366 -0.002588 -0.002321 0.020797 -0.006625
# 6 -0.002404 -0.001817 0.003427 -0.004820 -0.006625 0.035410
#
#
# Mechanical properties :
#
#
# Convention : Reuss Voigt Hill
#
# Bulk Modulus (GPa) = 38.56725 62.18871 50.37798
# Shear Modulus (GPa) = 34.29738 43.64932 38.97335
#
# Velocity S-wave (km/s) = 3.71810 4.19450 3.96346
# Velocity P-wave (km/s) = 5.82904 6.96598 6.42272
#
# Compressibility (1/GPa) = 0.02592873
#
# Stress axis : x y z
#
# Youngs Moduli (GPa) = 135.53344 66.80822 74.53761
#
# Poissons Ratio (x) = 0.22919 0.25041
# Poissons Ratio (y) = 0.46496 -0.13962
# Poissons Ratio (z) = 0.45532 -0.12514
#
# Static dielectric constant tensor:
#      x y z
#    x 1.998960 0.014370 -0.034990 
#    y 0.014370 2.127600 -0.069910 
#    z -0.034990 -0.069910 2.109500 
# 
# From -- ./inp_files/46641.got.cif
#   From: 2010.05.17/outbox.cif.g08.bks.cpg/sg2_24_cif.got.tgz:46641.got - 2010.06.03 11:33:40.
