data_PCOD9052484
_publ_section_title
;
Structure prediction by ZEFSAII (Michael W. Deem and Ramdas Pophale) SiO2 
 PCOD9052484
Probable space group: P -1
;
_chemical_formula_sum "Si O2"
_cell_formula_units_Z 13
_cell_length_a 9.477946
_cell_length_b 17.778974
_cell_length_c 6.789126
_cell_angle_alpha 83.794427
_cell_angle_beta 65.978239
_cell_angle_gamma 37.678842
_cell_volume 589.877080
_symmetry_space_group_name_H-M "P -1"
_symmetry_group_IT_number 2
_symmetry_cell_setting 'triclinic'
loop_
_space_group_symop_operation_xyz
x,y,z
-x,-y,-z
loop_
_atom_site_type_symbol
_atom_site_label
_atom_site_fract_x
_atom_site_fract_y
_atom_site_fract_z
Si Si1 0.997064 0.815224 0.962594
Si Si2 0.384477 0.216173 0.553209
Si Si3 0.147785 0.868357 0.546081
Si Si4 0.572158 0.329281 0.902558
Si Si5 0.500000 0.000000 0.500000
Si Si6 0.865859 0.609647 0.704764
Si Si7 0.894930 0.395499 0.088930
O O1 0.979029 0.890770 0.797901
O O2 0.058390 0.710446 0.851851
O O3 0.250331 0.725785 0.991292
O O4 0.732530 0.914772 0.219055
O O5 0.581957 0.206465 0.485328
O O6 0.267489 0.270601 0.383787
O O7 0.536440 0.075481 0.519050
O O8 0.134398 0.318559 0.819186
O O9 0.233088 0.776591 0.352409
O O10 0.000000 0.000000 0.500000
O O11 0.389735 0.472761 0.892445
O O12 0.362221 0.346068 0.064056
O O13 0.000000 0.500000 0.500000
O O14 0.072130 0.562591 0.755947
#
# Coordination Sequence:
#
# PCOD9052484 Si02
#       7
#     2   2   2   2   1   2   2
#     4  11  27  48  70 105 144 185 236 294 353 414
#     4  11  23  45  69 103 140 186 231 286 350 415
#     4  12  27  44  71 104 141 189 240 288 348 418
#     4  12  24  44  71 107 140 183 236 288 356 418
#     4  10  26  46  72  96 140 188 236 284 354 406
#     4  12  23  41  74 104 140 185 229 287 350 421
#     4  11  25  44  72 106 143 180 231 290 355 424
#
# _framework density 22.038489999999999
#
# number of rings (size 3 to 8) (size 9 to 14) (size 15 to 20)
#    0.000    0.615    4.615    2.769    2.154    5.538 
#    0.000    5.385    0.000    0.000    0.000    0.000 
#    0.000    0.000    0.000    0.000    0.000    0.000 
#
# Total GULP energy -72514.121203 kJ/mol
# GULP energy per Si atom -5578.009323 kJ/mol
# Density = 2.198833 g / cm^3
# Si number density = 22.038490 Si / 1000 Ang^3
#
#
#
# Elastic Constant Matrix: (Units=GPa)
#
#
# Indices 1 2 3 4 5 6 
#
# 1 68.5622 25.5468 38.0521 -9.1121 3.0811 21.4659
# 2 25.5468 77.0675 51.5386 -7.4747 -6.7492 11.9586
# 3 38.0521 51.5386 89.7114 0.4477 0.9766 8.9674
# 4 -9.1121 -7.4747 0.4477 35.7166 9.7371 7.3427
# 5 3.0811 -6.7492 0.9766 9.7371 37.8456 -1.8253
# 6 21.4659 11.9586 8.9674 7.3427 -1.8253 26.0048
#
#
#
# Elastic Compliance Matrix: (Units=1/GPa)
#
#
# Indices 1 2 3 4 5 6 
#
# 1 0.031963 0.003275 -0.012556 0.016965 -0.007451 -0.028873
# 2 0.003275 0.023928 -0.014105 0.007760 0.001842 -0.010905
# 3 -0.012556 -0.014105 0.023478 -0.008990 0.000761 0.011346
# 4 0.016965 0.007760 -0.008990 0.043026 -0.012160 -0.027474
# 5 -0.007451 0.001842 0.000761 -0.012160 0.030981 0.010649
# 6 -0.028873 -0.010905 0.011346 -0.027474 0.010649 0.071895
#
#
# Mechanical properties :
#
#
# Convention : Reuss Voigt Hill
#
# Bulk Modulus (GPa) = 30.67707 51.73515 41.20611
# Shear Modulus (GPa) = 17.67344 27.92697 22.80021
#
# Velocity S-wave (km/s) = 2.83492 3.56362 3.21995
# Velocity P-wave (km/s) = 4.96645 6.36069 5.70632
#
# Compressibility (1/GPa) = 0.03259763
#
# Stress axis : x y z
#
# Youngs Moduli (GPa) = 31.28594 41.79117 42.59286
#
# Poissons Ratio (x) = -0.13685 0.53481
# Poissons Ratio (y) = -0.10245 0.60075
# Poissons Ratio (z) = 0.39283 0.58944
#
# Static dielectric constant tensor:
#      x y z
#    x 1.781260 -0.007250 -0.010810 
#    y -0.007250 1.852230 -0.008140 
#    z -0.010810 -0.008140 1.749390 
# 
# From -- ./inp_files/23524.got.cif
#   From: 2010.05.17/outbox.cif.g08.bks.cpg/sg2_12_cif.got.tgz:23524.got - 2010.06.03 11:33:40.
