data_PCOD9052693
_publ_section_title
;
Structure prediction by ZEFSAII (Michael W. Deem and Ramdas Pophale) SiO2 
 PCOD9052693
Probable space group: P -1
;
_chemical_formula_sum "Si O2"
_cell_formula_units_Z 16
_cell_length_a 19.780802
_cell_length_b 5.490634
_cell_length_c 9.017058
_cell_angle_alpha 113.691178
_cell_angle_beta 48.270570
_cell_angle_gamma 106.310202
_cell_volume 669.150865
_symmetry_space_group_name_H-M "P -1"
_symmetry_group_IT_number 2
_symmetry_cell_setting 'triclinic'
loop_
_space_group_symop_operation_xyz
x,y,z
-x,-y,-z
loop_
_atom_site_type_symbol
_atom_site_label
_atom_site_fract_x
_atom_site_fract_y
_atom_site_fract_z
Si Si1 0.438442 0.359741 0.682119
Si Si2 0.945522 0.122680 0.451342
Si Si3 0.081086 0.693279 0.163762
Si Si4 0.603660 0.127174 0.553714
Si Si5 0.775181 0.435490 0.270113
Si Si6 0.058353 0.741818 0.827425
Si Si7 0.772634 0.811696 0.622736
Si Si8 0.666307 0.330329 0.832181
O O1 0.500000 0.500000 0.500000
O O2 0.504311 0.197900 0.657208
O O3 0.378119 0.161130 0.617324
O O4 0.389014 0.550381 0.918379
O O5 0.939365 0.333349 0.640830
O O6 0.908466 0.237205 0.383341
O O7 0.874768 0.883091 0.539178
O O8 0.043125 0.987909 0.257717
O O9 0.013814 0.499527 0.125360
O O10 0.183004 0.604933 0.961941
O O11 0.677150 0.315897 0.411570
O O12 0.614010 0.192630 0.730817
O O13 0.853329 0.276125 0.206054
O O14 0.777954 0.714289 0.419375
O O15 0.000000 0.000000 0.000000
O O16 0.723318 0.577881 0.733357
O O17 0.720743 0.087253 0.763337
#
# Coordination Sequence:
#
# PCOD9052693 Si02
#       8
#     2   2   2   2   2   2   2   2
#     4  11  27  49  79 112 151 188 246 306 378 452
#     4  11  23  41  62  94 141 181 240 294 366 411
#     4  11  24  39  64  97 136 184 236 304 353 423
#     4  10  26  48  75 113 146 196 246 304 370 457
#     4  11  23  46  70 100 138 190 250 292 363 434
#     4  12  22  42  66  96 134 191 240 297 354 427
#     4  11  25  46  74 107 143 194 250 302 361 444
#     4  11  27  49  79 109 151 194 242 308 373 440
#
# _framework density 23.910902
#
# number of rings (size 3 to 8) (size 9 to 14) (size 15 to 20)
#    0.000    1.000    2.500    3.375    8.750    0.500 
#    2.250    0.000    0.000    0.000    0.000    0.000 
#    0.000    0.000    0.000    0.000    0.000    0.000 
#
# Total GULP energy -89332.285096 kJ/mol
# GULP energy per Si atom -5583.267819 kJ/mol
# Density = 2.385648 g / cm^3
# Si number density = 23.910902 Si / 1000 Ang^3
#
#
#
# Elastic Constant Matrix: (Units=GPa)
#
#
# Indices 1 2 3 4 5 6 
#
# 1 44.8099 12.0691 22.4127 9.2564 11.1988 12.7075
# 2 12.0691 59.6044 36.7684 14.1538 6.3488 1.9994
# 3 22.4127 36.7684 204.6040 30.5323 10.7857 -0.0490
# 4 9.2564 14.1538 30.5323 39.6993 -9.4244 2.0488
# 5 11.1988 6.3488 10.7857 -9.4244 42.2703 10.7673
# 6 12.7075 1.9994 -0.0490 2.0488 10.7673 37.1707
#
#
#
# Elastic Compliance Matrix: (Units=1/GPa)
#
#
# Indices 1 2 3 4 5 6 
#
# 1 0.028617 -0.002620 -0.001498 -0.005654 -0.006142 -0.007553
# 2 -0.002620 0.020435 -0.002359 -0.005703 -0.003317 0.001069
# 3 -0.001498 -0.002359 0.006212 -0.004174 -0.002146 0.001499
# 4 -0.005654 -0.005703 -0.004174 0.034755 0.011971 -0.003149
# 5 -0.006142 -0.003317 -0.002146 0.011971 0.030865 -0.007325
# 6 -0.007553 0.001069 0.001499 -0.003149 -0.007325 0.031725
#
#
# Mechanical properties :
#
#
# Convention : Reuss Voigt Hill
#
# Bulk Modulus (GPa) = 23.63576 50.16875 36.90225
# Shear Modulus (GPa) = 27.82936 39.67927 33.75432
#
# Velocity S-wave (km/s) = 3.41527 4.07807 3.76130
# Velocity P-wave (km/s) = 5.04564 6.57277 5.85917
#
# Compressibility (1/GPa) = 0.04230878
#
# Stress axis : x y z
#
# Youngs Moduli (GPa) = 34.94473 48.93633 160.98093
#
# Poissons Ratio (x) = 0.12821 0.24117
# Poissons Ratio (y) = 0.09156 0.37977
# Poissons Ratio (z) = 0.05235 0.11545
#
# Static dielectric constant tensor:
#      x y z
#    x 1.927060 -0.018820 0.048830 
#    y -0.018820 1.996150 -0.015910 
#    z 0.048830 -0.015910 2.039680 
# 
# From -- ./inp_files/340619.got.cif
#   From: 2010.05.17/outbox.cif.g08.bks.cpg/sg2_171_cif.got.tgz:340619.got - 2010.06.03 11:33:40.
