data_PCOD9052927
_publ_section_title
;
Structure prediction by ZEFSAII (Michael W. Deem and Ramdas Pophale) SiO2 
 PCOD9052927
Probable space group: P -1
;
_chemical_formula_sum "Si O2"
_cell_formula_units_Z 14
_cell_length_a 12.551451
_cell_length_b 7.814671
_cell_length_c 16.031332
_cell_angle_alpha 120.990072
_cell_angle_beta 153.903831
_cell_angle_gamma 51.420965
_cell_volume 536.045382
_symmetry_space_group_name_H-M "P -1"
_symmetry_group_IT_number 2
_symmetry_cell_setting 'triclinic'
loop_
_space_group_symop_operation_xyz
x,y,z
-x,-y,-z
loop_
_atom_site_type_symbol
_atom_site_label
_atom_site_fract_x
_atom_site_fract_y
_atom_site_fract_z
Si Si1 0.750247 0.479081 0.064695
Si Si2 0.500000 0.500000 0.500000
Si Si3 0.340983 0.947588 0.074270
Si Si4 0.262022 0.502735 0.515636
Si Si5 0.196037 0.257299 0.544106
Si Si6 0.076993 0.344643 0.095886
Si Si7 0.782102 0.075263 0.189003
Si Si8 0.000000 0.000000 0.500000
O O1 0.987946 0.488684 0.289610
O O2 0.855256 0.422502 0.030417
O O3 0.670387 0.287238 0.992133
O O4 0.493268 0.709805 0.945793
O O5 0.434010 0.481808 0.549384
O O6 0.335255 0.355382 0.322238
O O7 0.644526 0.893695 0.302758
O O8 0.152469 0.104389 0.051185
O O9 0.249461 0.055214 0.946229
O O10 0.375972 0.304011 0.613821
O O11 0.200007 0.732165 0.576356
O O12 0.000000 0.500000 0.500000
O O13 0.026756 0.138532 0.357292
O O14 0.000000 0.500000 0.000000
O O15 0.873044 0.957890 0.311111
#
# Coordination Sequence:
#
# PCOD9052927 Si02
#       8
#     2   1   2   2   2   2   2   1
#     4  11  24  50  72 108 150 194 247 311 364 442
#     4  10  28  50  70 100 154 200 240 304 368 444
#     4  12  26  46  79 109 146 195 249 309 372 442
#     4  11  25  48  73 107 152 200 247 306 370 444
#     4  12  23  45  76 111 149 196 247 310 376 437
#     4  11  29  48  73 105 151 197 247 301 374 442
#     4  12  27  45  75 112 152 187 252 308 376 452
#     4  12  28  42  74 110 150 198 242 302 382 446
#
# _framework density 26.117190999999998
#
# number of rings (size 3 to 8) (size 9 to 14) (size 15 to 20)
#    0.000    0.571    4.286    1.714   10.000    0.571 
#    0.000    1.429    0.000    0.000    0.000    0.000 
#    0.000    0.000    0.000    0.000    0.000    0.000 
#
# Total GULP energy -78064.024098 kJ/mol
# GULP energy per Si atom -5576.001721 kJ/mol
# Density = 2.605775 g / cm^3
# Si number density = 26.117191 Si / 1000 Ang^3
#
#
#
# Elastic Constant Matrix: (Units=GPa)
#
#
# Indices 1 2 3 4 5 6 
#
# 1 162.3188 17.8239 29.1150 -3.4960 -25.9316 -9.1405
# 2 17.8239 69.7046 14.8786 8.1697 -10.2982 -8.6732
# 3 29.1150 14.8786 131.7105 18.3682 -22.8283 -2.7506
# 4 -3.4960 8.1697 18.3682 26.6714 3.3259 -7.7789
# 5 -25.9316 -10.2982 -22.8283 3.3259 46.3870 6.3674
# 6 -9.1405 -8.6732 -2.7506 -7.7789 6.3674 41.3470
#
#
#
# Elastic Compliance Matrix: (Units=1/GPa)
#
#
# Indices 1 2 3 4 5 6 
#
# 1 0.007071 -0.001243 -0.001220 0.002155 0.002757 0.001202
# 2 -0.001243 0.015906 -0.000365 -0.004617 0.002748 0.001746
# 3 -0.001220 -0.000365 0.009831 -0.008002 0.004917 -0.001955
# 4 0.002155 -0.004617 -0.008002 0.048510 -0.008529 0.009416
# 5 0.002757 0.002748 0.004917 -0.008529 0.027330 -0.004301
# 6 0.001202 0.001746 -0.001955 0.009416 -0.004301 0.027121
#
#
# Mechanical properties :
#
#
# Convention : Reuss Voigt Hill
#
# Bulk Modulus (GPa) = 36.83224 54.15210 45.49217
# Shear Modulus (GPa) = 33.22766 43.00883 38.11824
#
# Velocity S-wave (km/s) = 3.57073 4.06244 3.82449
# Velocity P-wave (km/s) = 5.57974 6.54093 6.07936
#
# Compressibility (1/GPa) = 0.02715012
#
# Stress axis : x y z
#
# Youngs Moduli (GPa) = 141.43093 62.86740 101.72281
#
# Poissons Ratio (x) = 0.07816 0.12411
# Poissons Ratio (y) = 0.17584 0.03717
# Poissons Ratio (z) = 0.17256 0.02297
#
# Static dielectric constant tensor:
#      x y z
#    x 1.865950 -0.095000 -0.198920 
#    y -0.095000 1.951330 -0.080900 
#    z -0.198920 -0.080900 1.967020 
# 
# From -- ./inp_files/399896.got.cif
#   From: 2010.05.17/outbox.cif.g08.bks.cpg/sg2_200_cif.got.tgz:399896.got - 2010.06.03 11:33:40.
