data_PCOD9052135
_publ_section_title
;
Structure prediction by ZEFSAII (Michael W. Deem and Ramdas Pophale) SiO2 
 PCOD9052135
Probable space group: P -1
;
_chemical_formula_sum "Si O2"
_cell_formula_units_Z 12
_cell_length_a 10.755224
_cell_length_b 9.972849
_cell_length_c 5.383286
_cell_angle_alpha 89.076348
_cell_angle_beta 93.097907
_cell_angle_gamma 130.389423
_cell_volume 439.012505
_symmetry_space_group_name_H-M "P -1"
_symmetry_group_IT_number 2
_symmetry_cell_setting 'triclinic'
loop_
_space_group_symop_operation_xyz
x,y,z
-x,-y,-z
loop_
_atom_site_type_symbol
_atom_site_label
_atom_site_fract_x
_atom_site_fract_y
_atom_site_fract_z
Si Si1 0.804998 0.387220 0.945718
Si Si2 0.119542 0.274903 0.242892
Si Si3 0.515744 0.132263 0.302271
Si Si4 0.234714 0.006342 0.879318
Si Si5 0.094585 0.709313 0.469498
Si Si6 0.622401 0.707789 0.483945
O O1 0.789538 0.262281 0.738632
O O2 0.685026 0.274235 0.163432
O O3 0.790653 0.119541 0.343582
O O4 0.000000 0.500000 0.000000
O O5 0.209793 0.467123 0.131004
O O6 0.231022 0.225918 0.312893
O O7 0.958106 0.129184 0.064814
O O8 0.058261 0.293588 0.505413
O O9 0.623238 0.944148 0.925378
O O10 0.486895 0.242348 0.462173
O O11 0.500000 0.000000 0.500000
O O12 0.290933 0.186901 0.764303
O O13 0.000000 0.500000 0.500000
O O14 0.500000 0.500000 0.500000
#
# Coordination Sequence:
#
# PCOD9052135 Si02
#       6
#     2   2   2   2   2   2
#     4  11  25  50  88 129 184 237 296 367 448 542
#     4   9  23  51  88 128 170 229 305 357 455 540
#     4  12  32  57  87 130 183 236 308 374 452 534
#     4  10  25  54  89 127 177 235 298 377 443 534
#     4   8  20  47  85 129 172 221 294 366 449 530
#     4  12  28  54  85 126 185 237 294 373 460 543
#
# _framework density 27.334074000000001
#
# number of rings (size 3 to 8) (size 9 to 14) (size 15 to 20)
#    1.000    0.667    0.000    1.500    4.667    6.000 
#   12.000    0.833    3.667    1.000    0.000    0.000 
#    0.000    0.000    0.000    0.000    0.000    0.000 
#
# Total GULP energy -66856.457732 kJ/mol
# GULP energy per Si atom -5571.371478 kJ/mol
# Density = 2.727186 g / cm^3
# Si number density = 27.334074 Si / 1000 Ang^3
#
#
#
# Elastic Constant Matrix: (Units=GPa)
#
#
# Indices 1 2 3 4 5 6 
#
# 1 147.1373 55.1240 48.8328 -37.6764 7.4091 4.5200
# 2 55.1240 171.3971 65.3920 -34.7720 22.8964 13.1696
# 3 48.8328 65.3920 146.3243 -45.7889 4.2591 5.3367
# 4 -37.6764 -34.7720 -45.7889 63.8291 2.1426 7.6372
# 5 7.4091 22.8964 4.2591 2.1426 50.8075 6.8735
# 6 4.5200 13.1696 5.3367 7.6372 6.8735 63.9303
#
#
#
# Elastic Compliance Matrix: (Units=1/GPa)
#
#
# Indices 1 2 3 4 5 6 
#
# 1 0.008696 -0.001544 -0.001036 0.003637 -0.000560 -0.000585
# 2 -0.001544 0.008177 -0.002332 0.002132 -0.003179 -0.001294
# 3 -0.001036 -0.002332 0.009919 0.005336 0.000273 -0.000941
# 4 0.003637 0.002132 0.005336 0.023324 -0.002426 -0.003667
# 5 -0.000560 -0.003179 0.000273 -0.002426 0.021458 -0.001346
# 6 -0.000585 -0.001294 -0.000941 -0.003667 -0.001346 0.016611
#
#
# Mechanical properties :
#
#
# Convention : Reuss Voigt Hill
#
# Bulk Modulus (GPa) = 58.93790 89.28401 74.11095
# Shear Modulus (GPa) = 48.23182 55.41403 51.82293
#
# Velocity S-wave (km/s) = 4.20519 4.50743 4.35893
# Velocity P-wave (km/s) = 6.72213 7.73460 7.24607
#
# Compressibility (1/GPa) = 0.01696701
#
# Stress axis : x y z
#
# Youngs Moduli (GPa) = 114.99172 122.28840 100.82027
#
# Poissons Ratio (x) = 0.18879 0.10449
# Poissons Ratio (y) = 0.17752 0.23516
# Poissons Ratio (z) = 0.11918 0.28523
#
# Static dielectric constant tensor:
#      x y z
#    x 2.222540 0.026500 0.088680 
#    y 0.026500 2.051590 0.112290 
#    z 0.088680 0.112290 2.561670 
# 
# From -- ./inp_files/234179.got.cif
#   From: 2010.05.17/outbox.cif.g08.bks.cpg/sg2_118_cif.got.tgz:234179.got - 2010.06.03 11:33:40.
