data_PCOD9052053
_publ_section_title
;
Structure prediction by ZEFSAII (Michael W. Deem and Ramdas Pophale) SiO2 
 PCOD9052053
Probable space group: P -1
;
_chemical_formula_sum "Si O2"
_cell_formula_units_Z 16
_cell_length_a 11.076348
_cell_length_b 12.233602
_cell_length_c 10.924834
_cell_angle_alpha 99.490759
_cell_angle_beta 51.740446
_cell_angle_gamma 57.919186
_cell_volume 660.099363
_symmetry_space_group_name_H-M "P -1"
_symmetry_group_IT_number 2
_symmetry_cell_setting 'triclinic'
loop_
_space_group_symop_operation_xyz
x,y,z
-x,-y,-z
loop_
_atom_site_type_symbol
_atom_site_label
_atom_site_fract_x
_atom_site_fract_y
_atom_site_fract_z
Si Si1 0.927419 0.443149 0.652499
Si Si2 0.176281 0.870096 0.538802
Si Si3 0.320379 0.289795 0.749604
Si Si4 0.211683 0.146716 0.931611
Si Si5 0.192894 0.720223 0.253833
Si Si6 0.744279 0.771138 0.829478
Si Si7 0.260879 0.720210 0.725904
Si Si8 0.563128 0.745581 0.612317
O O1 0.035003 0.341509 0.434793
O O2 0.141918 0.404044 0.558340
O O3 0.937884 0.323243 0.697155
O O4 0.677186 0.676681 0.850729
O O5 0.472396 0.752620 0.316593
O O6 0.158964 0.788099 0.426825
O O7 0.156249 0.831718 0.682076
O O8 0.953050 0.097517 0.699153
O O9 0.345627 0.149604 0.752783
O O10 0.419289 0.246896 0.542357
O O11 0.000000 0.500000 0.000000
O O12 0.409487 0.934839 0.807503
O O13 0.150407 0.255034 0.108424
O O14 0.956180 0.228876 0.062887
O O15 0.500000 0.500000 0.000000
O O16 0.500000 0.000000 0.000000
O O17 0.500000 0.500000 0.500000
O O18 0.390482 0.737248 0.733099
#
# Coordination Sequence:
#
# PCOD9052053 Si02
#       8
#     2   2   2   2   2   2   2   2
#     4  11  24  45  69 105 137 185 248 286 359 440
#     4  10  25  50  69 107 149 189 246 303 368 437
#     4  11  24  44  74 101 141 190 235 298 363 443
#     4  12  23  42  70 100 137 182 235 292 361 427
#     4  11  26  45  75 103 143 193 245 308 359 433
#     4  11  24  42  69 100 141 185 228 298 356 427
#     4  11  24  47  69 101 145 190 239 301 373 442
#     4  11  24  44  67 104 136 180 238 291 359 443
#
# _framework density 24.238775
#
# number of rings (size 3 to 8) (size 9 to 14) (size 15 to 20)
#    0.000    1.000    1.250    5.250    3.500    4.000 
#    6.750    0.000    0.000    0.000    0.000    0.000 
#    0.000    0.000    0.000    0.000    0.000    0.000 
#
# Total GULP energy -89295.524580 kJ/mol
# GULP energy per Si atom -5580.970286 kJ/mol
# Density = 2.418361 g / cm^3
# Si number density = 24.238775 Si / 1000 Ang^3
#
#
#
# Elastic Constant Matrix: (Units=GPa)
#
#
# Indices 1 2 3 4 5 6 
#
# 1 61.7717 20.1007 33.9406 0.0051 -16.5125 11.1025
# 2 20.1007 94.5622 21.3707 29.0994 -5.9955 21.0785
# 3 33.9406 21.3707 65.1642 28.7091 15.3148 21.4233
# 4 0.0051 29.0994 28.7091 49.9961 13.0482 4.5684
# 5 -16.5125 -5.9955 15.3148 13.0482 31.1967 2.1026
# 6 11.1025 21.0785 21.4233 4.5684 2.1026 35.1675
#
#
#
# Elastic Compliance Matrix: (Units=1/GPa)
#
#
# Indices 1 2 3 4 5 6 
#
# 1 0.053828 -0.006303 -0.047912 0.019205 0.042029 0.010964
# 2 -0.006303 0.017223 0.006327 -0.013533 0.003244 -0.010623
# 3 -0.047912 0.006327 0.070020 -0.030067 -0.044272 -0.024768
# 4 0.019205 -0.013533 -0.030067 0.042924 0.003388 0.014586
# 5 0.042029 0.003244 -0.044272 0.003388 0.074779 0.006846
# 6 0.010964 -0.010623 -0.024768 0.014586 0.006846 0.044125
#
#
# Mechanical properties :
#
#
# Convention : Reuss Voigt Hill
#
# Bulk Modulus (GPa) = 22.07780 41.36912 31.72346
# Shear Modulus (GPa) = 12.08390 33.01114 22.54752
#
# Velocity S-wave (km/s) = 2.23521 3.69442 3.05327
# Velocity P-wave (km/s) = 3.97364 5.94160 5.05433
#
# Compressibility (1/GPa) = 0.04529437
#
# Stress axis : x y z
#
# Youngs Moduli (GPa) = 18.57783 58.06158 14.28169
#
# Poissons Ratio (x) = 0.36596 0.68426
# Poissons Ratio (y) = 0.11710 -0.09035
# Poissons Ratio (z) = 0.89010 -0.36733
#
# Static dielectric constant tensor:
#      x y z
#    x 2.128840 -0.057030 0.003380 
#    y -0.057030 2.036680 -0.016170 
#    z 0.003380 -0.016170 1.894970 
# 
# From -- ./inp_files/428336.got.cif
#   From: 2010.05.17/outbox.cif.g08.bks.cpg/sg2_215_cif.got.tgz:428336.got - 2010.06.03 11:33:40.
