data_PCOD9052147
_publ_section_title
;
Structure prediction by ZEFSAII (Michael W. Deem and Ramdas Pophale) SiO2 
 PCOD9052147
Probable space group: P -1
;
_chemical_formula_sum "Si O2"
_cell_formula_units_Z 15
_cell_length_a 12.366884
_cell_length_b 23.021902
_cell_length_c 5.182927
_cell_angle_alpha 122.212244
_cell_angle_beta 123.913247
_cell_angle_gamma 33.805556
_cell_volume 673.585776
_symmetry_space_group_name_H-M "P -1"
_symmetry_group_IT_number 2
_symmetry_cell_setting 'triclinic'
loop_
_space_group_symop_operation_xyz
x,y,z
-x,-y,-z
loop_
_atom_site_type_symbol
_atom_site_label
_atom_site_fract_x
_atom_site_fract_y
_atom_site_fract_z
Si Si1 0.153148 0.334500 0.311550
Si Si2 0.842483 0.530154 0.061233
Si Si3 0.500000 0.500000 0.000000
Si Si4 0.189068 0.972657 0.255373
Si Si5 0.966069 0.296769 0.287066
Si Si6 0.016791 0.799778 0.423665
Si Si7 0.574016 0.165549 0.250203
Si Si8 0.550209 0.332262 0.465348
O O1 0.196145 0.394944 0.604322
O O2 0.348481 0.233502 0.179345
O O3 0.952002 0.421856 0.080736
O O4 0.100853 0.308136 0.420773
O O5 0.639219 0.594936 0.801710
O O6 0.000000 0.500000 0.000000
O O7 0.268072 0.589900 0.785332
O O8 0.516519 0.408944 0.794303
O O9 0.281769 0.914423 0.514817
O O10 0.350137 0.895453 0.062178
O O11 0.116833 0.079921 0.425714
O O12 0.000000 0.000000 0.000000
O O13 0.011123 0.245022 0.497690
O O14 0.013111 0.222689 0.948165
O O15 0.249086 0.729980 0.572013
O O16 0.579215 0.246106 0.423124
#
# Coordination Sequence:
#
# PCOD9052147 Si02
#       8
#     2   2   1   2   2   2   2   2
#     4  11  27  43  69 107 147 195 241 296 353 439
#     4  11  23  43  71 102 148 195 242 290 353 432
#     4  10  26  40  68 104 148 194 228 284 356 442
#     4  12  26  47  76 106 139 183 247 317 363 420
#     4  11  27  46  69 103 151 192 236 286 360 440
#     4  11  27  46  72 103 142 185 242 302 364 424
#     4  12  26  45  76 108 142 184 248 303 368 418
#     4  11  24  44  72 110 146 186 237 297 365 438
#
# _framework density 22.268878999999998
#
# number of rings (size 3 to 8) (size 9 to 14) (size 15 to 20)
#    0.000    0.800    2.667    2.800   11.200    1.067 
#    0.000    4.000    0.000    0.000    0.000    0.000 
#    0.000    0.000    0.000    0.000    0.000    0.000 
#
# Total GULP energy -83783.988480 kJ/mol
# GULP energy per Si atom -5585.599232 kJ/mol
# Density = 2.221819 g / cm^3
# Si number density = 22.268879 Si / 1000 Ang^3
#
#
#
# Elastic Constant Matrix: (Units=GPa)
#
#
# Indices 1 2 3 4 5 6 
#
# 1 98.1875 39.5216 7.4823 -6.6483 -3.0661 17.1002
# 2 39.5216 94.8994 18.9215 21.0335 12.0313 24.5857
# 3 7.4823 18.9215 56.5909 12.6104 3.7170 9.7538
# 4 -6.6483 21.0335 12.6104 38.3018 -0.9100 1.4272
# 5 -3.0661 12.0313 3.7170 -0.9100 32.9984 -1.2037
# 6 17.1002 24.5857 9.7538 1.4272 -1.2037 38.8704
#
#
#
# Elastic Compliance Matrix: (Units=1/GPa)
#
#
# Indices 1 2 3 4 5 6 
#
# 1 0.014085 -0.007396 -0.000985 0.006984 0.004258 -0.001396
# 2 -0.007396 0.019755 -0.000945 -0.011692 -0.008428 -0.008836
# 3 -0.000985 -0.000945 0.020341 -0.006259 -0.002353 -0.003916
# 4 0.006984 -0.011692 -0.006259 0.035785 0.006778 0.004789
# 5 0.004258 -0.008428 -0.002353 0.006778 0.034403 0.004865
# 6 -0.001396 -0.008836 -0.003916 0.004789 0.004865 0.032887
#
#
# Mechanical properties :
#
#
# Convention : Reuss Voigt Hill
#
# Bulk Modulus (GPa) = 28.14513 42.39205 35.26859
# Shear Modulus (GPa) = 26.63105 34.28427 30.45766
#
# Velocity S-wave (km/s) = 3.46191 3.92798 3.70229
# Velocity P-wave (km/s) = 5.35219 6.29681 5.84362
#
# Compressibility (1/GPa) = 0.03553012
#
# Stress axis : x y z
#
# Youngs Moduli (GPa) = 70.99536 50.62011 49.16119
#
# Poissons Ratio (x) = 0.37436 0.04841
# Poissons Ratio (y) = 0.52505 0.04648
# Poissons Ratio (z) = 0.06991 0.04786
#
# Static dielectric constant tensor:
#      x y z
#    x 1.845420 -0.058390 -0.009020 
#    y -0.058390 1.816020 0.011990 
#    z -0.009020 0.011990 1.843910 
# 
# From -- ./inp_files/83479.got.cif
#   From: 2010.05.17/outbox.cif.g08.bks.cpg/sg2_42_cif.got.tgz:83479.got - 2010.06.03 11:33:40.
