data_PCOD9052948
_publ_section_title
;
Structure prediction by ZEFSAII (Michael W. Deem and Ramdas Pophale) SiO2 
 PCOD9052948
Probable space group: P -1
;
_chemical_formula_sum "Si O2"
_cell_formula_units_Z 16
_cell_length_a 7.689202
_cell_length_b 8.368120
_cell_length_c 11.427771
_cell_angle_alpha 125.437762
_cell_angle_beta 88.691169
_cell_angle_gamma 93.818926
_cell_volume 597.648225
_symmetry_space_group_name_H-M "P -1"
_symmetry_group_IT_number 2
_symmetry_cell_setting 'triclinic'
loop_
_space_group_symop_operation_xyz
x,y,z
-x,-y,-z
loop_
_atom_site_type_symbol
_atom_site_label
_atom_site_fract_x
_atom_site_fract_y
_atom_site_fract_z
Si Si1 0.036644 0.850130 0.149931
Si Si2 0.037615 0.217885 0.195267
Si Si3 0.950154 0.757325 0.543791
Si Si4 0.574851 0.254405 0.728262
Si Si5 0.434564 0.778739 0.042802
Si Si6 0.556926 0.772087 0.537262
Si Si7 0.038044 0.589226 0.225121
Si Si8 0.463277 0.226454 0.206339
O O1 0.231523 0.809549 0.088021
O O2 0.945604 0.668642 0.144657
O O3 0.960309 0.992518 0.113867
O O4 0.045189 0.009240 0.325890
O O5 0.982822 0.314011 0.361590
O O6 0.987421 0.363338 0.157267
O O7 0.250434 0.223747 0.200539
O O8 0.748629 0.699301 0.506895
O O9 0.028758 0.705418 0.397344
O O10 0.481023 0.297155 0.871154
O O11 0.523184 0.293218 0.612355
O O12 0.758711 0.376570 0.790186
O O13 0.572896 0.013164 0.633701
O O14 0.515505 0.000852 0.115721
O O15 0.459566 0.680170 0.874817
O O16 0.478084 0.704667 0.635393
#
# Coordination Sequence:
#
# PCOD9052948 Si02
#       8
#     2   2   2   2   2   2   2   2
#     4   8  16  26  39  64  88 104 146 187 211 247
#     4   8  17  26  39  66  85 107 148 187 206 251
#     4   9  16  28  41  61  88 115 143 175 217 257
#     4   9  17  25  41  67  91 107 146 181 217 257
#     4   8  12  25  43  62  81 117 144 175 213 261
#     4   9  15  28  41  64  92 114 135 186 220 255
#     4  11  16  27  45  63  85 120 144 175 218 261
#     4   8  13  25  43  58  86 116 143 172 221 254
#
# _framework density 26.771604
#
# number of rings (size 3 to 8) (size 9 to 14) (size 15 to 20)
#    0.750    2.500    3.750    0.750    0.000    0.000 
#    0.000    5.000    0.000    0.000    0.000    8.750 
#    0.000    1.500    0.000    0.000    0.000    0.500 
#
# Total GULP energy -89142.132149 kJ/mol
# GULP energy per Si atom -5571.383259 kJ/mol
# Density = 2.671067 g / cm^3
# Si number density = 26.771604 Si / 1000 Ang^3
#
#
#
# Elastic Constant Matrix: (Units=GPa)
#
#
# Indices 1 2 3 4 5 6 
#
# 1 45.4629 27.7885 16.4219 -9.4412 10.0458 -9.9582
# 2 27.7885 153.2420 96.9080 -49.7080 5.1557 -6.8635
# 3 16.4219 96.9080 169.6806 -36.3859 5.4946 -2.8053
# 4 -9.4412 -49.7080 -36.3859 76.2613 -3.5240 11.3559
# 5 10.0458 5.1557 5.4946 -3.5240 33.5897 -3.8083
# 6 -9.9582 -6.8635 -2.8053 11.3559 -3.8083 11.5155
#
#
#
# Elastic Compliance Matrix: (Units=1/GPa)
#
#
# Indices 1 2 3 4 5 6 
#
# 1 0.031631 -0.005584 -0.000083 -0.003891 -0.006068 0.025835
# 2 -0.005584 0.012668 -0.005605 0.005494 0.000788 -0.003802
# 3 -0.000083 -0.005605 0.009328 0.001124 -0.000808 -0.002516
# 4 -0.003891 0.005494 0.001124 0.019599 0.000023 -0.019136
# 5 -0.006068 0.000788 -0.000808 0.000023 0.032242 0.005665
# 6 0.025835 -0.003802 -0.002516 -0.019136 0.005665 0.127045
#
#
# Mechanical properties :
#
#
# Convention : Reuss Voigt Hill
#
# Bulk Modulus (GPa) = 32.17143 72.29137 52.23140
# Shear Modulus (GPa) = 18.83819 39.42444 29.13132
#
# Velocity S-wave (km/s) = 2.65554 3.84164 3.30228
# Velocity P-wave (km/s) = 4.63094 6.83661 5.83887
#
# Compressibility (1/GPa) = 0.03108348
#
# Stress axis : x y z
#
# Youngs Moduli (GPa) = 31.61468 78.93892 107.20316
#
# Poissons Ratio (x) = 0.44083 0.00886
# Poissons Ratio (y) = 0.17655 0.60084
# Poissons Ratio (z) = 0.00261 0.44243
#
# Static dielectric constant tensor:
#      x y z
#    x 1.944950 -0.083950 -0.066070 
#    y -0.083950 2.210190 -0.028560 
#    z -0.066070 -0.028560 2.123030 
# 
# From -- ./inp_files/415403.got.cif
#   From: 2010.05.17/outbox.cif.g08.bks.cpg/sg2_208_cif.got.tgz:415403.got - 2010.06.03 11:33:40.
