data_PCOD9052233
_publ_section_title
;
Structure prediction by ZEFSAII (Michael W. Deem and Ramdas Pophale) SiO2 
 PCOD9052233
Probable space group: P -1
;
_chemical_formula_sum "Si O2"
_cell_formula_units_Z 16
_cell_length_a 11.851768
_cell_length_b 8.132420
_cell_length_c 9.067251
_cell_angle_alpha 88.750469
_cell_angle_beta 123.708360
_cell_angle_gamma 75.373996
_cell_volume 689.059685
_symmetry_space_group_name_H-M "P -1"
_symmetry_group_IT_number 2
_symmetry_cell_setting 'triclinic'
loop_
_space_group_symop_operation_xyz
x,y,z
-x,-y,-z
loop_
_atom_site_type_symbol
_atom_site_label
_atom_site_fract_x
_atom_site_fract_y
_atom_site_fract_z
Si Si1 0.587476 0.299065 0.521912
Si Si2 0.805162 0.192142 0.940287
Si Si3 0.278612 0.998421 0.876110
Si Si4 0.353061 0.494619 0.962338
Si Si5 0.618974 0.834850 0.814912
Si Si6 0.770141 0.276224 0.366708
Si Si7 0.951656 0.683332 0.376860
Si Si8 0.949425 0.691373 0.025730
O O1 0.500000 0.500000 0.500000
O O2 0.689273 0.197836 0.729325
O O3 0.488420 0.188828 0.388511
O O4 0.692177 0.310063 0.464739
O O5 0.723221 0.360968 0.975251
O O6 0.947420 0.210929 0.971304
O O7 0.831772 0.039814 0.083144
O O8 0.207306 0.177781 0.734574
O O9 0.296928 0.847883 0.773528
O O10 0.400881 0.008462 0.082312
O O11 0.375238 0.319180 0.065033
O O12 0.500000 0.500000 0.000000
O O13 0.257389 0.545968 0.747648
O O14 0.780857 0.784956 0.870534
O O15 0.940244 0.210841 0.502114
O O16 0.970934 0.655389 0.216203
O O17 0.000000 0.500000 0.500000
O O18 0.000000 0.500000 0.000000
#
# Coordination Sequence:
#
# PCOD9052233 Si02
#       8
#     2   2   2   2   2   2   2   2
#     4  12  22  42  69 101 134 177 238 283 337 407
#     4  11  23  43  71  99 140 183 225 287 351 413
#     4  10  26  44  66 102 141 183 227 281 362 413
#     4  11  20  40  68  98 132 187 230 280 343 408
#     4  11  23  40  67  96 139 177 238 279 337 417
#     4  11  22  41  67  97 138 181 226 286 343 403
#     4  11  24  43  70 102 135 177 241 288 339 414
#     4  11  21  41  68 101 135 178 227 287 348 402
#
# _framework density 23.220048999999999
#
# number of rings (size 3 to 8) (size 9 to 14) (size 15 to 20)
#    0.000    1.000    5.000    1.875    1.750    3.000 
#    0.000    0.000    2.750    0.000    0.000    0.000 
#    0.000    0.000    0.000    0.000    0.000    0.000 
#
# Total GULP energy -89240.921523 kJ/mol
# GULP energy per Si atom -5577.557595 kJ/mol
# Density = 2.316720 g / cm^3
# Si number density = 23.220049 Si / 1000 Ang^3
#
#
#
# Elastic Constant Matrix: (Units=GPa)
#
#
# Indices 1 2 3 4 5 6 
#
# 1 93.8662 15.4305 38.0319 0.4208 5.1893 0.1021
# 2 15.4305 89.7433 16.3516 -6.6306 -8.0684 9.8464
# 3 38.0319 16.3516 93.4828 -19.5161 8.3556 14.9574
# 4 0.4208 -6.6306 -19.5161 32.8679 11.9461 -3.8966
# 5 5.1893 -8.0684 8.3556 11.9461 53.9649 2.8794
# 6 0.1021 9.8464 14.9574 -3.8966 2.8794 24.2624
#
#
#
# Elastic Compliance Matrix: (Units=1/GPa)
#
#
# Indices 1 2 3 4 5 6 
#
# 1 0.013728 -0.001875 -0.006812 -0.004153 0.000148 0.004218
# 2 -0.001875 0.012364 -0.000687 0.000742 0.002224 -0.004731
# 3 -0.006812 -0.000687 0.017557 0.010896 -0.004137 -0.008276
# 4 -0.004153 0.000742 0.010896 0.040927 -0.010279 0.000792
# 5 0.000148 0.002224 -0.004137 -0.010279 0.021904 -0.002603
# 6 0.004218 -0.004731 -0.008276 0.000792 -0.002603 0.048656
#
#
# Mechanical properties :
#
#
# Convention : Reuss Voigt Hill
#
# Bulk Modulus (GPa) = 40.15905 46.30228 43.23067
# Shear Modulus (GPa) = 27.44470 36.03759 31.74114
#
# Velocity S-wave (km/s) = 3.44166 3.94382 3.70127
# Velocity P-wave (km/s) = 5.75551 6.38140 6.07652
#
# Compressibility (1/GPa) = 0.02490099
#
# Stress axis : x y z
#
# Youngs Moduli (GPa) = 72.84606 80.87815 56.95696
#
# Poissons Ratio (x) = 0.15168 0.38799
# Poissons Ratio (y) = 0.13662 0.03911
# Poissons Ratio (z) = 0.49622 0.05553
#
# Static dielectric constant tensor:
#      x y z
#    x 1.436300 -0.045760 -0.170560 
#    y -0.045760 1.958590 0.009620 
#    z -0.170560 0.009620 1.785900 
# 
# From -- ./inp_files/239294.got.cif
#   From: 2010.05.17/outbox.cif.g08.bks.cpg/sg2_120_cif.got.tgz:239294.got - 2010.06.03 11:33:40.
