data_PCOD9052822
_publ_section_title
;
Structure prediction by ZEFSAII (Michael W. Deem and Ramdas Pophale) SiO2 
 PCOD9052822
Probable space group: P -1
;
_chemical_formula_sum "Si O2"
_cell_formula_units_Z 15
_cell_length_a 9.344883
_cell_length_b 9.205327
_cell_length_c 10.927633
_cell_angle_alpha 91.180351
_cell_angle_beta 102.031595
_cell_angle_gamma 133.267266
_cell_volume 651.580815
_symmetry_space_group_name_H-M "P -1"
_symmetry_group_IT_number 2
_symmetry_cell_setting 'triclinic'
loop_
_space_group_symop_operation_xyz
x,y,z
-x,-y,-z
loop_
_atom_site_type_symbol
_atom_site_label
_atom_site_fract_x
_atom_site_fract_y
_atom_site_fract_z
Si Si1 0.671457 0.955853 0.238550
Si Si2 0.954748 0.631782 0.544874
Si Si3 0.836180 0.094042 0.027187
Si Si4 0.392836 0.420934 0.845264
Si Si5 0.975690 0.197163 0.688948
Si Si6 0.000000 0.500000 0.000000
Si Si7 0.223186 0.181404 0.194336
Si Si8 0.241163 0.659199 0.289201
O O1 0.685640 0.793485 0.210814
O O2 0.465047 0.828955 0.275162
O O3 0.854082 0.164683 0.344748
O O4 0.673601 0.017977 0.102332
O O5 0.000000 0.500000 0.500000
O O6 0.927060 0.722012 0.428174
O O7 0.776424 0.473546 0.608851
O O8 0.880774 0.264803 0.958383
O O9 0.038294 0.161245 0.125926
O O10 0.758331 0.919156 0.916035
O O11 0.179340 0.360711 0.813215
O O12 0.557267 0.585553 0.774918
O O13 0.500000 0.500000 0.000000
O O14 0.827142 0.231475 0.671228
O O15 0.850263 0.966266 0.705255
O O16 0.082311 0.503676 0.151164
#
# Coordination Sequence:
#
# PCOD9052822 Si02
#       8
#     2   2   2   2   2   1   2   2
#     4  12  25  45  73 106 142 192 237 302 359 429
#     4  10  26  51  71  97 151 189 248 304 355 422
#     4  11  22  42  70 104 146 182 231 298 359 434
#     4  12  25  42  74 108 147 186 238 296 369 436
#     4  11  25  47  71 102 139 201 240 292 362 431
#     4  12  22  40  68 108 146 178 232 300 372 410
#     4  11  22  44  69 102 146 187 230 290 364 432
#     4  11  26  42  73 108 145 187 242 304 361 433
#
# _framework density 23.020935999999999
#
# number of rings (size 3 to 8) (size 9 to 14) (size 15 to 20)
#    0.000    0.800    5.333    1.600    1.867    6.400 
#    0.000    1.333    0.000    0.000    0.000    0.000 
#    0.000    0.000    0.000    0.000    0.000    0.000 
#
# Total GULP energy -83552.958148 kJ/mol
# GULP energy per Si atom -5570.197210 kJ/mol
# Density = 2.296854 g / cm^3
# Si number density = 23.020936 Si / 1000 Ang^3
#
#
#
# Elastic Constant Matrix: (Units=GPa)
#
#
# Indices 1 2 3 4 5 6 
#
# 1 57.1427 53.9963 21.0612 -9.2856 -7.9385 23.3672
# 2 53.9963 171.7905 54.8279 -28.6988 -4.2642 1.0872
# 3 21.0612 54.8279 94.3069 -33.1797 -10.8787 -2.5936
# 4 -9.2856 -28.6988 -33.1797 53.2287 -8.3843 -11.0467
# 5 -7.9385 -4.2642 -10.8787 -8.3843 14.3032 -5.6738
# 6 23.3672 1.0872 -2.5936 -11.0467 -5.6738 38.2789
#
#
#
# Elastic Compliance Matrix: (Units=1/GPa)
#
#
# Indices 1 2 3 4 5 6 
#
# 1 0.041475 -0.012481 -0.006783 -0.010235 -0.003312 -0.028868
# 2 -0.012481 0.011018 -0.001402 0.005020 0.001774 0.008923
# 3 -0.006783 -0.001402 0.026183 0.024047 0.037125 0.018397
# 4 -0.010235 0.005020 0.024047 0.049676 0.055228 0.030256
# 5 -0.003312 0.001774 0.037125 0.055228 0.145896 0.042050
# 6 -0.028868 0.008923 0.018397 0.030256 0.042050 0.059704
#
#
# Mechanical properties :
#
#
# Convention : Reuss Voigt Hill
#
# Bulk Modulus (GPa) = 26.77833 64.77898 45.77865
# Shear Modulus (GPa) = 12.89553 34.05248 23.47401
#
# Velocity S-wave (km/s) = 2.36935 3.85020 3.19671
# Velocity P-wave (km/s) = 4.37521 6.92573 5.79259
#
# Compressibility (1/GPa) = 0.03734363
#
# Stress axis : x y z
#
# Youngs Moduli (GPa) = 24.11072 90.76434 38.19329
#
# Poissons Ratio (x) = 1.13280 0.25908
# Poissons Ratio (y) = 0.30092 0.05354
# Poissons Ratio (z) = 0.16355 0.12724
#
# Static dielectric constant tensor:
#      x y z
#    x 1.906080 -0.008890 -0.026520 
#    y -0.008890 2.006940 0.016630 
#    z -0.026520 0.016630 1.923640 
# 
# From -- ./inp_files/379253.got.cif
#   From: 2010.05.17/outbox.cif.g08.bks.cpg/sg2_190_cif.got.tgz:379253.got - 2010.06.03 11:33:40.
