data_PCOD9052370
_publ_section_title
;
Structure prediction by ZEFSAII (Michael W. Deem and Ramdas Pophale) SiO2 
 PCOD9052370
Probable space group: P -1
;
_chemical_formula_sum "Si O2"
_cell_formula_units_Z 16
_cell_length_a 14.679579
_cell_length_b 9.146096
_cell_length_c 11.404014
_cell_angle_alpha 59.689858
_cell_angle_beta 57.812666
_cell_angle_gamma 108.961756
_cell_volume 651.838912
_symmetry_space_group_name_H-M "P -1"
_symmetry_group_IT_number 2
_symmetry_cell_setting 'triclinic'
loop_
_space_group_symop_operation_xyz
x,y,z
-x,-y,-z
loop_
_atom_site_type_symbol
_atom_site_label
_atom_site_fract_x
_atom_site_fract_y
_atom_site_fract_z
Si Si1 0.165673 0.575846 0.852309
Si Si2 0.767647 0.654045 0.928618
Si Si3 0.584737 0.284983 0.541580
Si Si4 0.600544 0.253793 0.998521
Si Si5 0.809536 0.849812 0.217130
Si Si6 0.877346 0.100129 0.826752
Si Si7 0.602038 0.815192 0.513198
Si Si8 0.250448 0.765828 0.304219
O O1 0.225217 0.555897 0.701207
O O2 0.341554 0.924366 0.599302
O O3 0.174901 0.444247 0.000391
O O4 0.000000 0.500000 0.000000
O O5 0.891427 0.959481 0.781647
O O6 0.734931 0.552086 0.856845
O O7 0.556898 0.446809 0.184839
O O8 0.657205 0.513535 0.491250
O O9 0.505574 0.298421 0.487650
O O10 0.430264 0.955446 0.818485
O O11 0.383507 0.008537 0.216382
O O12 0.671725 0.286251 0.809911
O O13 0.784904 0.942921 0.306071
O O14 0.782385 0.913114 0.086505
O O15 0.000000 0.000000 0.000000
O O16 0.777421 0.114818 0.813090
O O17 0.059295 0.436177 0.608333
#
# Coordination Sequence:
#
# PCOD9052370 Si02
#       8
#     2   2   2   2   2   2   2   2
#     4  11  21  38  59 101 141 170 203 267 355 407
#     4  11  23  42  71  96 137 172 226 277 335 405
#     4  11  20  39  65  97 131 165 216 269 337 403
#     4  11  22  46  69  97 126 183 227 279 327 398
#     4  12  24  37  66 104 136 168 214 273 342 408
#     4  11  24  47  64  99 134 178 224 284 327 393
#     4  11  21  37  62  99 134 173 204 268 348 411
#     4  10  26  45  70  89 133 181 237 276 326 382
#
# _framework density 24.545943999999999
#
# number of rings (size 3 to 8) (size 9 to 14) (size 15 to 20)
#    0.000    1.000    5.000    3.375    1.750    1.000 
#    2.250    0.000    0.000    0.000    0.000    0.000 
#    0.000    0.000    0.000    0.000    0.000    0.000 
#
# Total GULP energy -89121.312444 kJ/mol
# GULP energy per Si atom -5570.082028 kJ/mol
# Density = 2.449008 g / cm^3
# Si number density = 24.545944 Si / 1000 Ang^3
#
#
#
# Elastic Constant Matrix: (Units=GPa)
#
#
# Indices 1 2 3 4 5 6 
#
# 1 67.8000 30.2269 17.3930 -3.7307 -2.0171 5.7999
# 2 30.2269 115.6160 2.8368 -18.3241 5.1392 -6.8048
# 3 17.3930 2.8368 51.0266 1.7803 -1.7677 -13.4061
# 4 -3.7307 -18.3241 1.7803 37.0362 -1.9679 1.8067
# 5 -2.0171 5.1392 -1.7677 -1.9679 19.0345 5.8149
# 6 5.7999 -6.8048 -13.4061 1.8067 5.8149 29.5343
#
#
#
# Elastic Compliance Matrix: (Units=1/GPa)
#
#
# Indices 1 2 3 4 5 6 
#
# 1 0.021145 -0.006175 -0.009608 0.000430 0.006494 -0.011241
# 2 -0.006175 0.011443 0.002655 0.004377 -0.004795 0.005731
# 3 -0.009608 0.002655 0.026740 -0.001923 -0.004211 0.015583
# 4 0.000430 0.004377 -0.001923 0.029540 0.002421 -0.002233
# 5 0.006494 -0.004795 -0.004211 0.002421 0.059301 -0.016115
# 6 -0.011241 0.005731 0.015583 -0.002233 -0.016115 0.047770
#
#
# Mechanical properties :
#
#
# Convention : Reuss Voigt Hill
#
# Bulk Modulus (GPa) = 30.23516 37.26179 33.74847
# Shear Modulus (GPa) = 21.43916 29.38673 25.41295
#
# Velocity S-wave (km/s) = 2.95859 3.46383 3.22113
# Velocity P-wave (km/s) = 4.90056 5.58667 5.25483
#
# Compressibility (1/GPa) = 0.03307408
#
# Stress axis : x y z
#
# Youngs Moduli (GPa) = 47.29188 87.39196 37.39677
#
# Poissons Ratio (x) = 0.53961 0.35930
# Poissons Ratio (y) = 0.29201 -0.09930
# Poissons Ratio (z) = 0.45437 -0.23205
#
# Static dielectric constant tensor:
#      x y z
#    x 2.018530 0.018570 -0.082420 
#    y 0.018570 2.042540 -0.040010 
#    z -0.082420 -0.040010 2.047380 
# 
# From -- ./inp_files/446940.got.cif
#   From: 2010.05.17/outbox.cif.g08.bks.cpg/sg2_224_cif.got.tgz:446940.got - 2010.06.03 11:33:40.
