data_PCOD9052619
_publ_section_title
;
Structure prediction by ZEFSAII (Michael W. Deem and Ramdas Pophale) SiO2 
 PCOD9052619
Probable space group: P -1
;
_chemical_formula_sum "Si O2"
_cell_formula_units_Z 14
_cell_length_a 8.690729
_cell_length_b 8.320118
_cell_length_c 11.149599
_cell_angle_alpha 124.128418
_cell_angle_beta 60.611220
_cell_angle_gamma 97.980757
_cell_volume 570.972489
_symmetry_space_group_name_H-M "P -1"
_symmetry_group_IT_number 2
_symmetry_cell_setting 'triclinic'
loop_
_space_group_symop_operation_xyz
x,y,z
-x,-y,-z
loop_
_atom_site_type_symbol
_atom_site_label
_atom_site_fract_x
_atom_site_fract_y
_atom_site_fract_z
Si Si1 0.449036 0.920532 0.858037
Si Si2 0.110685 0.176285 0.024633
Si Si3 0.146159 0.471233 0.329100
Si Si4 0.018012 0.808276 0.328274
Si Si5 0.194691 0.658572 0.957043
Si Si6 0.521555 0.330062 0.676300
Si Si7 0.375411 0.103782 0.444339
O O1 0.326194 0.762135 0.868391
O O2 0.622503 0.854168 0.680363
O O3 0.500000 0.000000 0.000000
O O4 0.318991 0.075696 0.884698
O O5 0.131126 0.267492 0.185572
O O6 0.990705 0.329738 0.042837
O O7 0.000000 0.000000 0.000000
O O8 0.337482 0.521250 0.315072
O O9 0.000000 0.500000 0.500000
O O10 0.091604 0.626744 0.308731
O O11 0.810356 0.810911 0.381789
O O12 0.000000 0.000000 0.500000
O O13 0.135372 0.783866 0.152782
O O14 0.329554 0.452645 0.846240
O O15 0.508247 0.230023 0.509327
O O16 0.589759 0.131405 0.643932
#
# Coordination Sequence:
#
# PCOD9052619 Si02
#       7
#     2   2   2   2   2   2   2
#     4  11  25  45  77 108 151 203 258 316 388 458
#     4  10  26  47  76 110 151 202 257 317 388 459
#     4  12  29  46  79 114 157 203 263 323 385 465
#     4  12  27  49  76 115 159 203 259 322 389 456
#     4  11  27  48  77 107 156 203 257 317 388 464
#     4  11  27  49  77 113 156 199 264 320 389 463
#     4  11  27  47  79 111 155 206 253 325 389 460
#
# _framework density 24.519568
#
# number of rings (size 3 to 8) (size 9 to 14) (size 15 to 20)
#    0.000    0.857    1.429    2.571   18.000    2.286 
#    0.000    0.000    0.000    0.000    0.000    0.000 
#    0.000    0.000    0.000    0.000    0.000    0.000 
#
# Total GULP energy -78205.531861 kJ/mol
# GULP energy per Si atom -5586.109419 kJ/mol
# Density = 2.446376 g / cm^3
# Si number density = 24.519568 Si / 1000 Ang^3
#
#
#
# Elastic Constant Matrix: (Units=GPa)
#
#
# Indices 1 2 3 4 5 6 
#
# 1 134.8465 47.1457 43.1614 15.7536 -5.6854 11.8848
# 2 47.1457 59.1807 44.4709 -9.5291 -0.4144 3.8700
# 3 43.1614 44.4709 145.0332 -14.1889 4.7993 17.6914
# 4 15.7536 -9.5291 -14.1889 37.9020 0.8314 -0.1043
# 5 -5.6854 -0.4144 4.7993 0.8314 53.6637 19.5414
# 6 11.8848 3.8700 17.6914 -0.1043 19.5414 46.4148
#
#
#
# Elastic Compliance Matrix: (Units=1/GPa)
#
#
# Indices 1 2 3 4 5 6 
#
# 1 0.012826 -0.010509 -0.001131 -0.008463 0.002642 -0.003108
# 2 -0.010509 0.030960 -0.005691 0.010065 -0.001605 0.002977
# 3 -0.001131 -0.005691 0.009584 0.002620 -0.000014 -0.002877
# 4 -0.008463 0.010065 0.002620 0.033460 -0.002030 0.001259
# 5 0.002642 -0.001605 -0.000014 -0.002030 0.022596 -0.010055
# 6 -0.003108 0.002977 -0.002877 0.001259 -0.010055 0.027426
#
#
# Mechanical properties :
#
#
# Convention : Reuss Voigt Hill
#
# Bulk Modulus (GPa) = 53.45091 67.62404 60.53748
# Shear Modulus (GPa) = 28.12919 41.21492 34.67206
#
# Velocity S-wave (km/s) = 3.39073 4.10432 3.76447
# Velocity P-wave (km/s) = 6.09721 7.07815 6.60591
#
# Compressibility (1/GPa) = 0.01870875
#
# Stress axis : x y z
#
# Youngs Moduli (GPa) = 77.96678 32.29930 104.33676
#
# Poissons Ratio (x) = 0.33943 0.11800
# Poissons Ratio (y) = 0.81934 0.59381
# Poissons Ratio (z) = 0.08818 0.18382
#
# Static dielectric constant tensor:
#      x y z
#    x 2.096080 -0.009970 -0.076560 
#    y -0.009970 1.903990 0.080660 
#    z -0.076560 0.080660 2.041290 
# 
# From -- ./inp_files/383443.got.cif
#   From: 2010.05.17/outbox.cif.g08.bks.cpg/sg2_192_cif.got.tgz:383443.got - 2010.06.03 11:33:40.
