data_PCOD9052316
_publ_section_title
;
Structure prediction by ZEFSAII (Michael W. Deem and Ramdas Pophale) SiO2 
 PCOD9052316
Probable space group: P -1
;
_chemical_formula_sum "Si O2"
_cell_formula_units_Z 15
_cell_length_a 10.271879
_cell_length_b 9.820581
_cell_length_c 22.973980
_cell_angle_alpha 38.011201
_cell_angle_beta 147.524910
_cell_angle_gamma 120.161652
_cell_volume 667.702195
_symmetry_space_group_name_H-M "P -1"
_symmetry_group_IT_number 2
_symmetry_cell_setting 'triclinic'
loop_
_space_group_symop_operation_xyz
x,y,z
-x,-y,-z
loop_
_atom_site_type_symbol
_atom_site_label
_atom_site_fract_x
_atom_site_fract_y
_atom_site_fract_z
Si Si1 0.786330 0.889886 0.264350
Si Si2 0.203738 0.199754 0.464655
Si Si3 0.473145 0.632823 0.186824
Si Si4 0.906702 0.022183 0.890539
Si Si5 0.500000 0.500000 0.500000
Si Si6 0.335297 0.874930 0.510292
Si Si7 0.552649 0.111722 0.225853
Si Si8 0.414095 0.423194 0.885767
O O1 0.732480 0.669657 0.293078
O O2 0.092157 0.860878 0.387073
O O3 0.679093 0.947183 0.271047
O O4 0.584812 0.140180 0.067877
O O5 0.444134 0.275387 0.528596
O O6 0.916113 0.460428 0.274610
O O7 0.199162 0.046999 0.458287
O O8 0.252872 0.034539 0.596849
O O9 0.470070 0.410083 0.297805
O O10 0.507888 0.565098 0.155293
O O11 0.187402 0.890411 0.003216
O O12 0.694059 0.301884 0.692820
O O13 0.742329 0.864641 0.879152
O O14 0.000000 0.000000 0.000000
O O15 0.500000 0.000000 0.500000
O O16 0.524186 0.386273 0.117539
#
# Coordination Sequence:
#
# PCOD9052316 Si02
#       8
#     2   2   2   2   1   2   2   2
#     4  12  26  45  74 108 140 197 244 298 371 439
#     4  11  24  46  71 103 143 196 236 304 372 429
#     4  12  27  49  72 107 150 190 246 308 366 439
#     4  11  25  46  76 106 148 194 245 306 373 437
#     4  10  26  44  74 106 142 192 250 296 376 448
#     4  12  29  45  73 107 150 190 247 308 365 438
#     4  11  23  44  74 102 138 196 240 293 369 443
#     4  12  25  44  76 103 144 186 248 303 364 445
#
# _framework density 22.465105999999999
#
# number of rings (size 3 to 8) (size 9 to 14) (size 15 to 20)
#    0.000    0.533    4.000    3.200    3.733    3.733 
#    0.000    0.000    0.000    0.000    0.000    0.000 
#    0.000    0.000    0.000    0.000    0.000    0.000 
#
# Total GULP energy -83693.421345 kJ/mol
# GULP energy per Si atom -5579.561423 kJ/mol
# Density = 2.241397 g / cm^3
# Si number density = 22.465106 Si / 1000 Ang^3
#
#
#
# Elastic Constant Matrix: (Units=GPa)
#
#
# Indices 1 2 3 4 5 6 
#
# 1 63.2617 7.7276 36.8536 3.9623 -11.5013 8.6693
# 2 7.7276 75.2531 15.2151 3.0228 -11.9528 20.2158
# 3 36.8536 15.2151 100.0647 5.5120 -27.4843 -2.0139
# 4 3.9623 3.0228 5.5120 38.3199 9.8401 -1.0258
# 5 -11.5013 -11.9528 -27.4843 9.8401 34.8954 -1.0818
# 6 8.6693 20.2158 -2.0139 -1.0258 -1.0818 39.5526
#
#
#
# Elastic Compliance Matrix: (Units=1/GPa)
#
#
# Indices 1 2 3 4 5 6 
#
# 1 0.021270 0.001228 -0.007526 -0.001839 0.001846 -0.005670
# 2 0.001228 0.016848 -0.001517 -0.002893 0.005522 -0.008882
# 3 -0.007526 -0.001517 0.016376 -0.004241 0.011201 0.003455
# 4 -0.001839 -0.002893 -0.004241 0.030652 -0.013517 0.002091
# 5 0.001846 0.005522 0.011201 -0.013517 0.043734 -0.001811
# 6 -0.005670 -0.008882 0.003455 0.002091 -0.001811 0.031246
#
#
# Mechanical properties :
#
#
# Convention : Reuss Voigt Hill
#
# Bulk Modulus (GPa) = 25.73095 39.79690 32.76392
# Shear Modulus (GPa) = 26.49577 34.47246 30.48412
#
# Velocity S-wave (km/s) = 3.43799 3.92151 3.68768
# Velocity P-wave (km/s) = 5.21904 6.18528 5.72259
#
# Compressibility (1/GPa) = 0.03886371
#
# Stress axis : x y z
#
# Youngs Moduli (GPa) = 47.01563 59.35308 61.06656
#
# Poissons Ratio (x) = -0.07287 0.45958
# Poissons Ratio (y) = -0.05773 0.09262
# Poissons Ratio (z) = 0.35383 0.09003
#
# Static dielectric constant tensor:
#      x y z
#    x 1.773690 -0.099190 0.123980 
#    y -0.099190 1.536230 0.237540 
#    z 0.123980 0.237540 1.675750 
# 
# From -- ./inp_files/609765.got.cif
#   From: 2010.05.17/outbox.cif.g08.bks.cpg/sg2_305_cif.got.tgz:609765.got - 2010.06.03 11:33:40.
