data_PCOD9052814
_publ_section_title
;
Structure prediction by ZEFSAII (Michael W. Deem and Ramdas Pophale) SiO2 
 PCOD9052814
Probable space group: P -1
;
_chemical_formula_sum "Si O2"
_cell_formula_units_Z 13
_cell_length_a 8.895913
_cell_length_b 10.268745
_cell_length_c 9.003418
_cell_angle_alpha 60.602195
_cell_angle_beta 86.716365
_cell_angle_gamma 125.823704
_cell_volume 507.188769
_symmetry_space_group_name_H-M "P -1"
_symmetry_group_IT_number 2
_symmetry_cell_setting 'triclinic'
loop_
_space_group_symop_operation_xyz
x,y,z
-x,-y,-z
loop_
_atom_site_type_symbol
_atom_site_label
_atom_site_fract_x
_atom_site_fract_y
_atom_site_fract_z
Si Si1 0.307629 0.437530 0.454595
Si Si2 0.000000 0.500000 0.500000
Si Si3 0.853275 0.985835 0.787046
Si Si4 0.258002 0.406384 0.135524
Si Si5 0.788971 0.137106 0.284497
Si Si6 0.516207 0.811539 0.693236
Si Si7 0.738212 0.108373 0.954584
O O1 0.500000 0.500000 0.500000
O O2 0.359559 0.472472 0.255424
O O3 0.216786 0.537482 0.450491
O O4 0.095737 0.189978 0.628904
O O5 0.904324 0.327175 0.733953
O O6 0.800500 0.791048 0.826938
O O7 0.699379 0.991529 0.699111
O O8 0.782620 0.972802 0.964348
O O9 0.027485 0.315771 0.226595
O O10 0.394790 0.593800 0.904398
O O11 0.663343 0.192361 0.319603
O O12 0.658055 0.903407 0.486132
O O13 0.783483 0.140189 0.107470
O O14 0.500000 0.000000 0.000000
#
# Coordination Sequence:
#
# PCOD9052814 Si02
#       7
#     2   1   2   2   2   2   2
#     4  11  26  53  84 122 164 214 275 342 410 483
#     4  10  26  50  80 114 162 206 272 326 404 488
#     4  11  25  52  74 115 163 204 267 333 401 491
#     4  12  26  50  78 115 166 209 265 334 413 480
#     4  11  25  46  79 115 156 212 269 330 398 479
#     4  11  24  48  78 115 154 211 270 324 399 492
#     4  11  24  48  77 113 159 210 264 334 399 474
#
# _framework density 25.631482999999999
#
# number of rings (size 3 to 8) (size 9 to 14) (size 15 to 20)
#    0.000    0.923    3.077    2.308    0.000    3.077 
#   13.846    0.769    0.000    0.000    0.000    0.000 
#    0.000    0.000    0.000    0.000    0.000    0.000 
#
# Total GULP energy -72559.349057 kJ/mol
# GULP energy per Si atom -5581.488389 kJ/mol
# Density = 2.557315 g / cm^3
# Si number density = 25.631483 Si / 1000 Ang^3
#
#
#
# Elastic Constant Matrix: (Units=GPa)
#
#
# Indices 1 2 3 4 5 6 
#
# 1 136.7950 49.3304 27.4271 -12.7654 -8.1391 25.6506
# 2 49.3304 81.8926 69.1454 -2.0344 4.7290 18.1285
# 3 27.4271 69.1454 218.8671 -7.1214 -10.2332 12.4003
# 4 -12.7654 -2.0344 -7.1214 31.0082 7.2291 -7.9397
# 5 -8.1391 4.7290 -10.2332 7.2291 39.8789 3.5561
# 6 25.6506 18.1285 12.4003 -7.9397 3.5561 41.8134
#
#
#
# Elastic Compliance Matrix: (Units=1/GPa)
#
#
# Indices 1 2 3 4 5 6 
#
# 1 0.010615 -0.006729 0.001238 0.002515 0.003161 -0.003753
# 2 -0.006729 0.022799 -0.006452 -0.002616 -0.004908 -0.003923
# 3 0.001238 -0.006452 0.006600 0.001031 0.002519 0.000062
# 4 0.002515 -0.002616 0.001031 0.036505 -0.006130 0.006739
# 5 0.003161 -0.004908 0.002519 -0.006130 0.028430 -0.004140
# 6 -0.003753 -0.003923 0.000062 0.006739 -0.004140 0.029532
#
#
# Mechanical properties :
#
#
# Convention : Reuss Voigt Hill
#
# Bulk Modulus (GPa) = 62.00302 81.04005 71.52153
# Shear Modulus (GPa) = 30.53596 41.98356 36.25976
#
# Velocity S-wave (km/s) = 3.45533 4.05157 3.76527
# Velocity P-wave (km/s) = 6.33733 7.31936 6.84598
#
# Compressibility (1/GPa) = 0.01612825
#
# Stress axis : x y z
#
# Youngs Moduli (GPa) = 94.20701 43.86229 151.51639
#
# Poissons Ratio (x) = 0.29513 -0.18754
# Poissons Ratio (y) = 0.63388 0.97755
# Poissons Ratio (z) = -0.11661 0.28299
#
# Static dielectric constant tensor:
#      x y z
#    x 1.941020 0.076940 0.025460 
#    y 0.076940 1.946770 0.012550 
#    z 0.025460 0.012550 1.988980 
# 
# From -- ./inp_files/167166.got.cif
#   From: 2010.05.17/outbox.cif.g08.bks.cpg/sg2_84_cif.got.tgz:167166.got - 2010.06.03 11:33:40.
