data_PCOD9052442
_publ_section_title
;
Structure prediction by ZEFSAII (Michael W. Deem and Ramdas Pophale) SiO2 
 PCOD9052442
Probable space group: P -1
;
_chemical_formula_sum "Si O2"
_cell_formula_units_Z 16
_cell_length_a 18.053307
_cell_length_b 10.847651
_cell_length_c 7.750474
_cell_angle_alpha 135.335626
_cell_angle_beta 133.082947
_cell_angle_gamma 45.814074
_cell_volume 710.297964
_symmetry_space_group_name_H-M "P -1"
_symmetry_group_IT_number 2
_symmetry_cell_setting 'triclinic'
loop_
_space_group_symop_operation_xyz
x,y,z
-x,-y,-z
loop_
_atom_site_type_symbol
_atom_site_label
_atom_site_fract_x
_atom_site_fract_y
_atom_site_fract_z
Si Si1 0.423301 0.182595 0.170982
Si Si2 0.119416 0.872116 0.456858
Si Si3 0.773865 0.632510 0.186835
Si Si4 0.803334 0.222680 0.909637
Si Si5 0.701975 0.002079 0.976317
Si Si6 0.856741 0.837959 0.780252
Si Si7 0.435927 0.686714 0.209290
Si Si8 0.061839 0.540420 0.982374
O O1 0.482815 0.275791 0.487357
O O2 0.341916 0.331378 0.051361
O O3 0.500000 0.000000 0.000000
O O4 0.355292 0.091157 0.082826
O O5 0.143557 0.874527 0.288922
O O6 0.226580 0.891708 0.723372
O O7 0.128324 0.658025 0.279123
O O8 0.000000 0.000000 0.500000
O O9 0.777841 0.795787 0.478296
O O10 0.854567 0.637319 0.166097
O O11 0.818585 0.422744 0.139271
O O12 0.672099 0.295938 0.829878
O O13 0.860074 0.043154 0.952132
O O14 0.615256 0.138916 0.835414
O O15 0.798288 0.834403 0.861714
O O16 0.977437 0.673286 0.834566
O O17 0.500000 0.500000 0.000000
O O18 0.000000 0.500000 0.000000
#
# Coordination Sequence:
#
# PCOD9052442 Si02
#       8
#     2   2   2   2   2   2   2   2
#     4  12  26  47  74 101 141 196 243 304 374 427
#     4  11  23  44  71 104 142 194 231 296 367 430
#     4  11  26  43  71 103 141 187 241 301 355 437
#     4  10  26  46  70 105 145 185 246 295 359 443
#     4  11  24  45  71 100 140 182 245 293 365 446
#     4  11  23  46  69 102 143 190 232 300 363 427
#     4  11  27  44  72 107 139 191 243 313 366 421
#     4  11  25  43  69 105 141 189 239 288 363 437
#
# _framework density 22.525756999999999
#
# number of rings (size 3 to 8) (size 9 to 14) (size 15 to 20)
#    0.000    1.000    1.250    4.500    8.750    4.500 
#    0.000    0.000    0.000    0.000    0.000    0.000 
#    0.000    0.000    0.000    0.000    0.000    0.000 
#
# Total GULP energy -89156.227485 kJ/mol
# GULP energy per Si atom -5572.264218 kJ/mol
# Density = 2.247449 g / cm^3
# Si number density = 22.525757 Si / 1000 Ang^3
#
#
#
# Elastic Constant Matrix: (Units=GPa)
#
#
# Indices 1 2 3 4 5 6 
#
# 1 151.9649 17.3349 23.4742 7.4675 9.5497 -0.5511
# 2 17.3349 82.5902 8.7255 -7.9487 1.6202 0.0150
# 3 23.4742 8.7255 105.7749 -0.4428 3.9803 -6.7240
# 4 7.4675 -7.9487 -0.4428 19.8204 -5.8340 5.6056
# 5 9.5497 1.6202 3.9803 -5.8340 31.1118 7.6426
# 6 -0.5511 0.0150 -6.7240 5.6056 7.6426 30.3479
#
#
#
# Elastic Compliance Matrix: (Units=1/GPa)
#
#
# Indices 1 2 3 4 5 6 
#
# 1 0.007456 -0.001847 -0.001293 -0.005031 -0.003370 0.001628
# 2 -0.001847 0.013231 -0.000846 0.007075 0.001801 -0.001988
# 3 -0.001293 -0.000846 0.010049 -0.000923 -0.001707 0.002804
# 4 -0.005031 0.007075 -0.000923 0.065090 0.017616 -0.016759
# 5 -0.003370 0.001801 -0.001707 0.017616 0.039986 -0.013764
# 6 0.001628 -0.001988 0.002804 -0.016759 -0.013764 0.040165
#
#
# Mechanical properties :
#
#
# Convention : Reuss Voigt Hill
#
# Bulk Modulus (GPa) = 43.92829 48.82214 46.37522
# Shear Modulus (GPa) = 26.10465 35.64237 30.87351
#
# Velocity S-wave (km/s) = 3.40793 3.98212 3.70616
# Velocity P-wave (km/s) = 5.91853 6.54706 6.24071
#
# Compressibility (1/GPa) = 0.02276437
#
# Stress axis : x y z
#
# Youngs Moduli (GPa) = 134.12441 75.58032 99.50850
#
# Poissons Ratio (x) = 0.13957 0.12867
# Poissons Ratio (y) = 0.24768 0.08420
# Poissons Ratio (z) = 0.17343 0.06395
#
# Static dielectric constant tensor:
#      x y z
#    x 1.819080 -0.147830 0.119770 
#    y -0.147830 1.818630 0.222140 
#    z 0.119770 0.222140 1.634510 
# 
# From -- ./inp_files/332585.got.cif
#   From: 2010.05.17/outbox.cif.g08.bks.cpg/sg2_167_cif.got.tgz:332585.got - 2010.06.03 11:33:40.
