data_PCOD9052529
_publ_section_title
;
Structure prediction by ZEFSAII (Michael W. Deem and Ramdas Pophale) SiO2 
 PCOD9052529
Probable space group: P -1
;
_chemical_formula_sum "Si O2"
_cell_formula_units_Z 13
_cell_length_a 9.030127
_cell_length_b 8.292359
_cell_length_c 11.535859
_cell_angle_alpha 139.148785
_cell_angle_beta 107.776886
_cell_angle_gamma 71.718086
_cell_volume 533.272435
_symmetry_space_group_name_H-M "P -1"
_symmetry_group_IT_number 2
_symmetry_cell_setting 'triclinic'
loop_
_space_group_symop_operation_xyz
x,y,z
-x,-y,-z
loop_
_atom_site_type_symbol
_atom_site_label
_atom_site_fract_x
_atom_site_fract_y
_atom_site_fract_z
Si Si1 0.538150 0.892406 0.747434
Si Si2 0.035510 0.490382 0.638031
Si Si3 0.213045 0.229262 0.851776
Si Si4 0.243277 0.420586 0.211235
Si Si5 0.000000 0.000000 0.500000
Si Si6 0.318501 0.616450 0.905429
Si Si7 0.527675 0.261272 0.595143
O O1 0.597578 0.736728 0.789630
O O2 0.556446 0.731922 0.546577
O O3 0.356565 0.005640 0.770985
O O4 0.633672 0.127720 0.897628
O O5 0.879383 0.596990 0.727416
O O6 0.068564 0.211751 0.545235
O O7 0.000000 0.500000 0.500000
O O8 0.174614 0.640733 0.793936
O O9 0.272937 0.446219 0.907007
O O10 0.069508 0.134057 0.701965
O O11 0.182156 0.328258 0.027210
O O12 0.290048 0.699925 0.362345
O O13 0.460100 0.463231 0.783600
O O14 0.500000 0.000000 0.500000
#
# Coordination Sequence:
#
# PCOD9052529 Si02
#       7
#     2   2   2   2   1   2   2
#     4  12  24  44  74 109 153 191 252 320 374 453
#     4  11  27  51  71 110 157 200 261 310 385 464
#     4  11  23  47  71 109 150 195 258 313 379 456
#     4  12  27  45  76 112 149 206 248 318 389 459
#     4  10  26  46  78 100 152 206 240 326 378 446
#     4  11  25  46  73 111 147 205 248 319 377 449
#     4  12  24  44  75 108 147 195 255 309 381 453
#
# _framework density 24.377784999999999
#
# number of rings (size 3 to 8) (size 9 to 14) (size 15 to 20)
#    0.000    0.615    3.077    4.154    4.308    3.077 
#    8.308    0.000    0.000    0.000    0.000    0.000 
#    0.000    0.000    0.000    0.000    0.000    0.000 
#
# Total GULP energy -72653.434970 kJ/mol
# GULP energy per Si atom -5588.725767 kJ/mol
# Density = 2.432230 g / cm^3
# Si number density = 24.377785 Si / 1000 Ang^3
#
#
#
# Elastic Constant Matrix: (Units=GPa)
#
#
# Indices 1 2 3 4 5 6 
#
# 1 64.0916 7.6394 49.9228 -23.4200 10.7291 8.0164
# 2 7.6394 96.8397 52.1698 -32.7328 2.1134 -0.4442
# 3 49.9228 52.1698 200.4179 -46.9945 25.2294 10.0955
# 4 -23.4200 -32.7328 -46.9945 59.3885 3.2750 -3.3179
# 5 10.7291 2.1134 25.2294 3.2750 42.9449 -8.0153
# 6 8.0164 -0.4442 10.0955 -3.3179 -8.0153 28.7878
#
#
#
# Elastic Compliance Matrix: (Units=1/GPa)
#
#
# Indices 1 2 3 4 5 6 
#
# 1 0.022382 0.002802 -0.003616 0.007489 -0.005204 -0.005507
# 2 0.002802 0.013853 -0.002821 0.006574 -0.000006 0.001179
# 3 -0.003616 -0.002821 0.008177 0.003587 -0.004550 -0.002758
# 4 0.007489 0.006574 0.003587 0.026508 -0.006706 -0.002054
# 5 -0.005204 -0.000006 -0.004550 -0.006706 0.029740 0.010552
# 6 -0.005507 0.001179 -0.002758 -0.002054 0.010552 0.039957
#
#
# Mechanical properties :
#
#
# Convention : Reuss Voigt Hill
#
# Bulk Modulus (GPa) = 26.92410 64.53480 45.72945
# Shear Modulus (GPa) = 31.19775 42.99870 37.09823
#
# Velocity S-wave (km/s) = 3.58126 4.20438 3.90526
# Velocity P-wave (km/s) = 5.30745 7.07808 6.25573
#
# Compressibility (1/GPa) = 0.03714144
#
# Stress axis : x y z
#
# Youngs Moduli (GPa) = 44.67922 72.18840 122.28860
#
# Poissons Ratio (x) = -0.20227 0.44220
# Poissons Ratio (y) = -0.12519 0.34498
# Poissons Ratio (z) = 0.16156 0.20365
#
# Static dielectric constant tensor:
#      x y z
#    x 2.194280 -0.229250 -0.081500 
#    y -0.229250 2.100430 0.094170 
#    z -0.081500 0.094170 1.887750 
# 
# From -- ./inp_files/237813.got.cif
#   From: 2010.05.17/outbox.cif.g08.bks.cpg/sg2_119_cif.got.tgz:237813.got - 2010.06.03 11:33:40.
