data_PCOD9052574
_publ_section_title
;
Structure prediction by ZEFSAII (Michael W. Deem and Ramdas Pophale) SiO2 
 PCOD9052574
Probable space group: P -1
;
_chemical_formula_sum "Si O2"
_cell_formula_units_Z 12
_cell_length_a 10.391124
_cell_length_b 13.651305
_cell_length_c 5.216404
_cell_angle_alpha 78.474637
_cell_angle_beta 109.021110
_cell_angle_gamma 54.667458
_cell_volume 493.105921
_symmetry_space_group_name_H-M "P -1"
_symmetry_group_IT_number 2
_symmetry_cell_setting 'triclinic'
loop_
_space_group_symop_operation_xyz
x,y,z
-x,-y,-z
loop_
_atom_site_type_symbol
_atom_site_label
_atom_site_fract_x
_atom_site_fract_y
_atom_site_fract_z
Si Si1 0.008318 0.896733 0.818084
Si Si2 0.679416 0.785454 0.222621
Si Si3 0.025232 0.752137 0.403899
Si Si4 0.679806 0.132111 0.157893
Si Si5 0.216276 0.383669 0.128063
Si Si6 0.612158 0.544917 0.077002
O O1 0.059472 0.802996 0.650122
O O2 0.157517 0.912194 0.906075
O O3 0.800652 0.045392 0.535789
O O4 0.025290 0.818011 0.114619
O O5 0.693299 0.734510 0.543138
O O6 0.821299 0.805293 0.281599
O O7 0.455173 0.894195 0.966009
O O8 0.764576 0.670032 0.116435
O O9 0.191322 0.584301 0.588442
O O10 0.534690 0.299174 0.988650
O O11 0.318887 0.438184 0.151255
O O12 0.000000 0.500000 0.000000
O O13 0.500000 0.500000 0.000000
#
# Coordination Sequence:
#
# PCOD9052574 Si02
#       6
#     2   2   2   2   2   2
#     4  11  27  48  70 100 145 185 226 284 346 415
#     4  11  25  42  71 100 139 182 228 282 344 411
#     4  12  26  45  73 106 137 179 236 289 337 405
#     4  10  26  47  71 101 142 188 227 279 355 411
#     4  11  23  41  65 101 144 176 218 283 356 400
#     4  11  24  43  73 106 136 179 235 290 336 408
#
# _framework density 24.335539000000001
#
# number of rings (size 3 to 8) (size 9 to 14) (size 15 to 20)
#    0.000    1.000    3.333    1.500    4.667    7.333 
#    0.000    0.000    0.000    0.000    0.000    0.000 
#    0.000    0.000    0.000    0.000    0.000    0.000 
#
# Total GULP energy -67097.361667 kJ/mol
# GULP energy per Si atom -5591.446806 kJ/mol
# Density = 2.428015 g / cm^3
# Si number density = 24.335539 Si / 1000 Ang^3
#
#
#
# Elastic Constant Matrix: (Units=GPa)
#
#
# Indices 1 2 3 4 5 6 
#
# 1 168.1379 12.3716 51.2754 7.5464 16.5795 -66.7208
# 2 12.3716 60.1000 52.6457 -41.3461 -0.3793 32.8408
# 3 51.2754 52.6457 139.3966 -23.3230 -12.5172 -24.7355
# 4 7.5464 -41.3461 -23.3230 39.1855 -15.2279 30.6889
# 5 16.5795 -0.3793 -12.5172 -15.2279 61.0753 6.3652
# 6 -66.7208 32.8408 -24.7355 30.6889 6.3652 -56.3879
#
#
#
# Elastic Compliance Matrix: (Units=1/GPa)
#
#
# Indices 1 2 3 4 5 6 
#
# 1 0.006269 0.004848 -0.004279 0.002058 -0.001847 -0.001806
# 2 0.004848 0.019104 -0.006216 0.005977 -0.002141 0.011127
# 3 -0.004279 -0.006216 0.012012 0.004086 0.004715 -0.001071
# 4 0.002058 0.005977 0.004086 0.025245 0.005195 0.013580
# 5 -0.001847 -0.002141 0.004715 0.005195 0.018726 0.003812
# 6 -0.001806 0.011127 -0.001071 0.013580 0.003812 -0.000826
#
#
# Mechanical properties :
#
#
# Convention : Reuss Voigt Hill
#
# Bulk Modulus (GPa) = 38.32591 66.69110 52.50850
# Shear Modulus (GPa) = 49.74092 25.53069 37.63581
#
# Velocity S-wave (km/s) = 4.52592 3.24251 3.93687
# Velocity P-wave (km/s) = 6.56469 6.44072 6.50300
#
# Compressibility (1/GPa) = 0.02609201
#
# Stress axis : x y z
#
# Youngs Moduli (GPa) = 159.51431 52.34527 83.24695
#
# Poissons Ratio (x) = -0.25379 0.35622
# Poissons Ratio (y) = -0.77340 0.51747
# Poissons Ratio (z) = 0.68258 0.32538
#
# Static dielectric constant tensor:
#      x y z
#    x 1.950350 0.034400 0.029640 
#    y 0.034400 1.996050 0.010280 
#    z 0.029640 0.010280 1.918340 
# 
# From -- ./inp_files/36965.got.cif
#   From: 2010.05.17/outbox.cif.g08.bks.cpg/sg2_19_cif.got.tgz:36965.got - 2010.06.03 11:33:40.
