data_PCOD9052815
_publ_section_title
;
Structure prediction by ZEFSAII (Michael W. Deem and Ramdas Pophale) SiO2 
 PCOD9052815
Probable space group: P -1
;
_chemical_formula_sum "Si O2"
_cell_formula_units_Z 12
_cell_length_a 9.978822
_cell_length_b 15.664859
_cell_length_c 5.054828
_cell_angle_alpha 117.346819
_cell_angle_beta 124.240538
_cell_angle_gamma 43.636066
_cell_volume 448.874652
_symmetry_space_group_name_H-M "P -1"
_symmetry_group_IT_number 2
_symmetry_cell_setting 'triclinic'
loop_
_space_group_symop_operation_xyz
x,y,z
-x,-y,-z
loop_
_atom_site_type_symbol
_atom_site_label
_atom_site_fract_x
_atom_site_fract_y
_atom_site_fract_z
Si Si1 0.278326 0.125661 0.327535
Si Si2 0.696437 0.174511 0.547328
Si Si3 0.560696 0.389439 0.102202
Si Si4 0.918750 0.895714 0.444215
Si Si5 0.190575 0.539766 0.295400
Si Si6 0.758207 0.672668 0.719848
O O1 0.111950 0.154791 0.400985
O O2 0.262771 0.246481 0.434850
O O3 0.500000 0.000000 0.500000
O O4 0.210884 0.103599 0.941501
O O5 0.362557 0.437559 0.130644
O O6 0.470263 0.228617 0.261607
O O7 0.809279 0.038665 0.590408
O O8 0.644752 0.270684 0.853697
O O9 0.729769 0.383487 0.454840
O O10 0.853223 0.161616 0.492529
O O11 0.500000 0.500000 0.000000
O O12 0.203148 0.457594 0.432228
O O13 0.960711 0.627714 0.044914
#
# Coordination Sequence:
#
# PCOD9052815 Si02
#       6
#     2   2   2   2   2   2
#     4  12  27  53  84 122 168 221 282 346 423 486
#     4  11  26  51  82 117 170 216 278 346 413 504
#     4  11  24  50  81 121 163 222 276 352 419 502
#     4  11  29  53  82 125 165 230 277 338 428 504
#     4  10  26  50  81 123 165 219 285 334 438 489
#     4  11  25  50  81 120 164 218 271 358 401 509
#
# _framework density 26.733523999999999
#
# number of rings (size 3 to 8) (size 9 to 14) (size 15 to 20)
#    0.000    1.000    3.333    0.500    2.333    8.667 
#    0.000    0.000    0.000    1.000    0.000    0.000 
#    0.000    0.000    0.000    0.000    0.000    0.000 
#
# Total GULP energy -67295.446879 kJ/mol
# GULP energy per Si atom -5607.953907 kJ/mol
# Density = 2.667268 g / cm^3
# Si number density = 26.733524 Si / 1000 Ang^3
#
#
#
# Elastic Constant Matrix: (Units=GPa)
#
#
# Indices 1 2 3 4 5 6 
#
# 1 174.7618 106.6722 59.6713 -17.9239 7.6580 0.9947
# 2 106.6722 200.3122 53.2968 0.3228 -10.4869 9.6941
# 3 59.6713 53.2968 104.8303 5.5233 9.1005 -7.3218
# 4 -17.9239 0.3228 5.5233 53.4762 -8.9171 -7.0984
# 5 7.6580 -10.4869 9.1005 -8.9171 54.0373 -21.5224
# 6 0.9947 9.6941 -7.3218 -7.0984 -21.5224 68.4893
#
#
#
# Elastic Compliance Matrix: (Units=1/GPa)
#
#
# Indices 1 2 3 4 5 6 
#
# 1 0.010098 -0.004502 -0.003549 0.003625 -0.001046 0.000158
# 2 -0.004502 0.007970 -0.001652 -0.001154 0.001979 -0.000737
# 3 -0.003549 -0.001652 0.012780 -0.002767 -0.002152 0.000688
# 4 0.003625 -0.001154 -0.002767 0.021450 0.004663 0.003504
# 5 -0.001046 0.001979 -0.002152 0.004663 0.023050 0.007232
# 6 0.000158 -0.000737 0.000688 0.003504 0.007232 0.017412
#
#
# Mechanical properties :
#
#
# Convention : Reuss Voigt Hill
#
# Bulk Modulus (GPa) = 87.38602 102.13165 94.75884
# Shear Modulus (GPa) = 43.11081 52.55148 47.83114
#
# Velocity S-wave (km/s) = 4.02009 4.43849 4.23446
# Velocity P-wave (km/s) = 7.36932 8.03452 7.70910
#
# Compressibility (1/GPa) = 0.01144348
#
# Stress axis : x y z
#
# Youngs Moduli (GPa) = 99.02787 125.46728 78.24848
#
# Poissons Ratio (x) = 0.56481 0.27767
# Poissons Ratio (y) = 0.44579 0.12928
# Poissons Ratio (z) = 0.35140 0.20729
#
# Static dielectric constant tensor:
#      x y z
#    x 2.065230 0.004410 0.052280 
#    y 0.004410 2.099080 -0.035340 
#    z 0.052280 -0.035340 2.175730 
# 
# From -- ./inp_files/99953.got.cif
#   From: 2010.05.17/outbox.cif.g08.bks.cpg/sg2_50_cif.got.tgz:99953.got - 2010.06.03 11:33:40.
