data_PCOD9052119
_publ_section_title
;
Structure prediction by ZEFSAII (Michael W. Deem and Ramdas Pophale) SiO2 
 PCOD9052119
Probable space group: P -1
;
_chemical_formula_sum "Si O2"
_cell_formula_units_Z 14
_cell_length_a 14.965518
_cell_length_b 6.682457
_cell_length_c 9.449392
_cell_angle_alpha 57.439099
_cell_angle_beta 49.665413
_cell_angle_gamma 42.223325
_cell_volume 480.883658
_symmetry_space_group_name_H-M "P -1"
_symmetry_group_IT_number 2
_symmetry_cell_setting 'triclinic'
loop_
_space_group_symop_operation_xyz
x,y,z
-x,-y,-z
loop_
_atom_site_type_symbol
_atom_site_label
_atom_site_fract_x
_atom_site_fract_y
_atom_site_fract_z
Si Si1 0.750359 0.343647 0.469712
Si Si2 0.636588 0.971519 0.234791
Si Si3 0.763982 0.202015 0.204477
Si Si4 0.382515 0.847534 0.120025
Si Si5 0.357272 0.257707 0.244438
Si Si6 0.053571 0.539843 0.082266
Si Si7 0.020437 0.698810 0.503495
O O1 0.920221 0.047303 0.430548
O O2 0.707057 0.265628 0.398643
O O3 0.660425 0.343857 0.691208
O O4 0.804326 0.485733 0.628096
O O5 0.724858 0.649574 0.342942
O O6 0.650297 0.186858 0.235160
O O7 0.478340 0.053099 0.320742
O O8 0.695195 0.981288 0.014560
O O9 0.817504 0.411963 0.050486
O O10 0.913125 0.869481 0.155027
O O11 0.353935 0.062662 0.198323
O O12 0.552939 0.651130 0.968537
O O13 0.049125 0.323114 0.275302
O O14 0.000000 0.500000 0.000000
O O15 0.000000 0.500000 0.500000
#
# Coordination Sequence:
#
# PCOD9052119 Si02
#       7
#     2   2   2   2   2   2   2
#     4  12  25  47  88 130 169 237 291 367 442 536
#     4  10  25  51  86 124 179 228 298 360 451 530
#     4  11  25  49  79 128 176 224 297 366 434 532
#     4   9  21  47  83 124 174 235 293 359 442 537
#     4   9  21  48  87 122 180 229 295 375 436 537
#     4  11  26  49  82 126 176 232 289 364 446 524
#     4  12  24  49  85 130 175 224 300 369 442 524
#
# _framework density 29.113071000000001
#
# number of rings (size 3 to 8) (size 9 to 14) (size 15 to 20)
#    0.857    0.571    2.857    0.857    4.000    0.571 
#    2.571    7.143    0.000   11.143    0.000    3.000 
#    0.000    0.143    0.000    0.000    0.000    0.000 
#
# Total GULP energy -78367.769742 kJ/mol
# GULP energy per Si atom -5597.697839 kJ/mol
# Density = 2.904681 g / cm^3
# Si number density = 29.113071 Si / 1000 Ang^3
#
#
#
# Elastic Constant Matrix: (Units=GPa)
#
#
# Indices 1 2 3 4 5 6 
#
# 1 228.0733 95.1355 117.5855 -18.6615 -5.4342 24.3822
# 2 95.1355 172.9727 114.4658 -30.9697 9.2816 16.1349
# 3 117.5855 114.4658 255.6465 -1.9359 -8.9038 10.8873
# 4 -18.6615 -30.9697 -1.9359 59.7141 -12.3026 -1.4859
# 5 -5.4342 9.2816 -8.9038 -12.3026 61.3868 8.4331
# 6 24.3822 16.1349 10.8873 -1.4859 8.4331 74.0899
#
#
#
# Elastic Compliance Matrix: (Units=1/GPa)
#
#
# Indices 1 2 3 4 5 6 
#
# 1 0.006519 -0.001969 -0.002009 0.001123 0.001017 -0.001515
# 2 -0.001969 0.010169 -0.003626 0.004259 -0.001274 -0.000804
# 3 -0.002009 -0.003626 0.006456 -0.002118 0.000832 0.000365
# 4 0.001123 0.004259 -0.002118 0.019886 0.003265 -0.000959
# 5 0.001017 -0.001274 0.000832 0.003265 0.017639 -0.002122
# 6 -0.001515 -0.000804 0.000365 -0.000959 -0.002122 0.014339
#
#
# Mechanical properties :
#
#
# Convention : Reuss Voigt Hill
#
# Bulk Modulus (GPa) = 125.96183 145.67402 135.81792
# Shear Modulus (GPa) = 53.84320 61.00520 57.42420
#
# Velocity S-wave (km/s) = 4.30519 4.58258 4.44605
# Velocity P-wave (km/s) = 8.25065 8.84002 8.55042
#
# Compressibility (1/GPa) = 0.00793891
#
# Stress axis : x y z
#
# Youngs Moduli (GPa) = 153.38890 98.33714 154.88478
#
# Poissons Ratio (x) = 0.19358 0.31113
# Poissons Ratio (y) = 0.30195 0.56156
# Poissons Ratio (z) = 0.30813 0.35654
#
# Static dielectric constant tensor:
#      x y z
#    x 2.521200 -0.045650 -0.011130 
#    y -0.045650 2.301320 0.073640 
#    z -0.011130 0.073640 2.271710 
# 
# From -- ./inp_files/322446.got.cif
#   From: 2010.05.17/outbox.cif.g08.bks.cpg/sg2_162_cif.got.tgz:322446.got - 2010.06.03 11:33:40.
