data_PCOD9052821
_publ_section_title
;
Structure prediction by ZEFSAII (Michael W. Deem and Ramdas Pophale) SiO2 
 PCOD9052821
Probable space group: P -1
;
_chemical_formula_sum "Si O2"
_cell_formula_units_Z 13
_cell_length_a 7.797637
_cell_length_b 6.883589
_cell_length_c 13.435581
_cell_angle_alpha 62.889657
_cell_angle_beta 122.669846
_cell_angle_gamma 121.193935
_cell_volume 503.528897
_symmetry_space_group_name_H-M "P -1"
_symmetry_group_IT_number 2
_symmetry_cell_setting 'triclinic'
loop_
_space_group_symop_operation_xyz
x,y,z
-x,-y,-z
loop_
_atom_site_type_symbol
_atom_site_label
_atom_site_fract_x
_atom_site_fract_y
_atom_site_fract_z
Si Si1 0.511174 0.867743 0.432285
Si Si2 0.435922 0.211910 0.189446
Si Si3 0.334834 0.873766 0.065755
Si Si4 0.141188 0.384690 0.382741
Si Si5 0.012623 0.186422 0.178539
Si Si6 0.676876 0.667816 0.241021
Si Si7 0.000000 0.500000 0.500000
O O1 0.277150 0.660316 0.384495
O O2 0.691363 0.750955 0.527338
O O3 0.500000 0.000000 0.500000
O O4 0.548999 0.046210 0.312170
O O5 0.597375 0.479946 0.170233
O O6 0.248768 0.207146 0.209744
O O7 0.325128 0.075768 0.087987
O O8 0.459019 0.717759 0.190916
O O9 0.111845 0.748181 0.967410
O O10 0.500000 0.000000 0.000000
O O11 0.979228 0.326391 0.438505
O O12 0.030812 0.329593 0.252789
O O13 0.868999 0.913216 0.219761
O O14 0.777532 0.548956 0.382636
#
# Coordination Sequence:
#
# PCOD9052821 Si02
#       7
#     2   2   2   2   2   2   1
#     4  11  23  47  73 109 150 190 252 305 366 448
#     4  12  25  47  79 106 147 199 240 309 379 424
#     4  10  26  51  71 109 149 193 253 303 362 444
#     4  11  26  45  72 108 152 195 246 307 366 446
#     4  11  26  50  74 109 146 196 250 302 367 444
#     4  11  28  48  72 113 145 194 245 306 367 442
#     4  12  26  44  70 108 148 192 236 306 376 430
#
# _framework density 25.817782999999999
#
# number of rings (size 3 to 8) (size 9 to 14) (size 15 to 20)
#    0.000    0.923    1.538    3.231   10.769    3.692 
#    2.769    0.000    0.000    0.000    0.000    0.000 
#    0.000    0.000    0.000    0.000    0.000    0.000 
#
# Total GULP energy -72576.972673 kJ/mol
# GULP energy per Si atom -5582.844052 kJ/mol
# Density = 2.575902 g / cm^3
# Si number density = 25.817783 Si / 1000 Ang^3
#
#
#
# Elastic Constant Matrix: (Units=GPa)
#
#
# Indices 1 2 3 4 5 6 
#
# 1 -34.2050 16.0414 41.3011 -8.0671 8.3632 -33.1683
# 2 16.0414 181.6197 65.2650 39.8151 -0.4232 -6.3394
# 3 41.3011 65.2650 161.6976 44.2746 18.3451 -26.9168
# 4 -8.0671 39.8151 44.2746 44.9338 -15.1671 -8.5566
# 5 8.3632 -0.4232 18.3451 -15.1671 42.0613 8.5885
# 6 -33.1683 -6.3394 -26.9168 -8.5566 8.5885 56.2131
#
#
#
# Elastic Compliance Matrix: (Units=1/GPa)
#
#
# Indices 1 2 3 4 5 6 
#
# 1 -0.013833 0.001547 0.004800 -0.010488 -0.001674 -0.007030
# 2 0.001547 0.007009 -0.001828 -0.004445 -0.001108 0.000320
# 3 0.004800 -0.001828 0.011439 -0.011167 -0.011660 0.008185
# 4 -0.010488 -0.004445 -0.011167 0.041571 0.023810 -0.009346
# 5 -0.001674 -0.001108 -0.011660 0.023810 0.039631 -0.009127
# 6 -0.007030 0.000320 0.008185 -0.009346 -0.009127 0.017569
#
#
# Mechanical properties :
#
#
# Convention : Reuss Voigt Hill
#
# Bulk Modulus (GPa) = 73.24268 61.59191 67.41729
# Shear Modulus (GPa) = 50.55631 41.07530 45.81580
#
# Velocity S-wave (km/s) = 4.42995 3.99302 4.21715
# Velocity P-wave (km/s) = 7.38895 6.72065 7.06271
#
# Compressibility (1/GPa) = 0.01365324
#
# Stress axis : x y z
#
# Youngs Moduli (GPa) = -72.29062 142.66655 87.41872
#
# Poissons Ratio (x) = -0.22065 -0.41964
# Poissons Ratio (y) = 0.11181 0.15981
# Poissons Ratio (z) = 0.34702 0.26081
#
# Static dielectric constant tensor:
#      x y z
#    x 2.130390 0.123460 -0.004090 
#    y 0.123460 2.130780 -0.014960 
#    z -0.004090 -0.014960 2.129380 
# 
# From -- ./inp_files/28653.got.cif
#   From: 2010.05.17/outbox.cif.g08.bks.cpg/sg2_15_cif.got.tgz:28653.got - 2010.06.03 11:33:40.
