data_PCOD9052478
_publ_section_title
;
Structure prediction by ZEFSAII (Michael W. Deem and Ramdas Pophale) SiO2 
 PCOD9052478
Probable space group: P -1
;
_chemical_formula_sum "Si O2"
_cell_formula_units_Z 14
_cell_length_a 12.196327
_cell_length_b 5.450362
_cell_length_c 12.446848
_cell_angle_alpha 109.758208
_cell_angle_beta 68.372997
_cell_angle_gamma 133.041014
_cell_volume 557.570805
_symmetry_space_group_name_H-M "P -1"
_symmetry_group_IT_number 2
_symmetry_cell_setting 'triclinic'
loop_
_space_group_symop_operation_xyz
x,y,z
-x,-y,-z
loop_
_atom_site_type_symbol
_atom_site_label
_atom_site_fract_x
_atom_site_fract_y
_atom_site_fract_z
Si Si1 0.058944 0.352203 0.671894
Si Si2 0.179081 0.216318 0.987617
Si Si3 0.527936 0.346586 0.568651
Si Si4 0.839717 0.592306 0.579316
Si Si5 0.467241 0.833311 0.872092
Si Si6 0.672417 0.027484 0.216548
Si Si7 0.222903 0.707202 0.218185
O O1 0.101657 0.489819 0.555033
O O2 0.212282 0.599980 0.720006
O O3 0.931596 0.362660 0.767714
O O4 0.979023 0.961058 0.630195
O O5 0.293143 0.498680 0.898914
O O6 0.234671 0.000005 0.913519
O O7 0.218427 0.423800 0.114245
O O8 0.000000 0.000000 0.000000
O O9 0.500000 0.500000 0.500000
O O10 0.704697 0.586696 0.579976
O O11 0.500000 0.000000 0.500000
O O12 0.406335 0.232357 0.692278
O O13 0.778937 0.338676 0.661266
O O14 0.465288 0.032838 0.805444
O O15 0.627708 0.912935 0.809534
O O16 0.500000 0.000000 0.000000
#
# Coordination Sequence:
#
# PCOD9052478 Si02
#       7
#     2   2   2   2   2   2   2
#     4  11  26  44  73 111 151 204 260 331 395 479
#     4  11  26  46  72 109 144 201 255 332 394 482
#     4  12  29  51  83 120 162 213 272 332 406 482
#     4  11  26  46  74 110 153 208 260 325 405 471
#     4  10  26  46  72 106 152 200 261 319 400 470
#     4  12  26  47  78 111 154 202 269 328 401 481
#     4  11  24  47  71 106 153 199 262 320 412 470
#
# _framework density 25.108917999999999
#
# number of rings (size 3 to 8) (size 9 to 14) (size 15 to 20)
#    0.000    0.857    4.286    0.429    8.000    7.429 
#    0.000    0.000    0.000    0.000    0.000    0.000 
#    0.000    0.000    0.000    0.000    0.000    0.000 
#
# Total GULP energy -78193.263655 kJ/mol
# GULP energy per Si atom -5585.233118 kJ/mol
# Density = 2.505177 g / cm^3
# Si number density = 25.108918 Si / 1000 Ang^3
#
#
#
# Elastic Constant Matrix: (Units=GPa)
#
#
# Indices 1 2 3 4 5 6 
#
# 1 87.6590 35.4532 24.7052 -3.7296 0.9726 25.4496
# 2 35.4532 110.3158 36.1773 1.5931 6.8186 33.9849
# 3 24.7052 36.1773 114.3558 0.9841 -19.4349 6.3888
# 4 -3.7296 1.5931 0.9841 49.7549 0.8387 -8.5333
# 5 0.9726 6.8186 -19.4349 0.8387 49.0039 -9.1351
# 6 25.4496 33.9849 6.3888 -8.5333 -9.1351 44.0717
#
#
#
# Elastic Compliance Matrix: (Units=1/GPa)
#
#
# Indices 1 2 3 4 5 6 
#
# 1 0.015047 -0.001318 -0.002856 -0.000071 -0.002707 -0.007834
# 2 -0.001318 0.015223 -0.004898 -0.002448 -0.006236 -0.012034
# 3 -0.002856 -0.004898 0.011695 0.000486 0.006325 0.005135
# 4 -0.000071 -0.002448 0.000486 0.021210 0.001335 0.006242
# 5 -0.002707 -0.006236 0.006325 0.001335 0.025879 0.011078
# 6 -0.007834 -0.012034 0.005135 0.006242 0.011078 0.039254
#
#
# Mechanical properties :
#
#
# Convention : Reuss Voigt Hill
#
# Bulk Modulus (GPa) = 41.97634 56.11133 49.04384
# Shear Modulus (GPa) = 32.38550 42.96576 37.67563
#
# Velocity S-wave (km/s) = 3.59528 4.14112 3.87782
# Velocity P-wave (km/s) = 5.82998 6.72762 6.29482
#
# Compressibility (1/GPa) = 0.02382294
#
# Stress axis : x y z
#
# Youngs Moduli (GPa) = 66.45880 65.69161 85.50769
#
# Poissons Ratio (x) = 0.08655 0.24418
# Poissons Ratio (y) = 0.08756 0.41878
# Poissons Ratio (z) = 0.18979 0.32173
#
# Static dielectric constant tensor:
#      x y z
#    x 1.999540 -0.043560 -0.061120 
#    y -0.043560 2.205650 0.070400 
#    z -0.061120 0.070400 1.992290 
# 
# From -- ./inp_files/411041.got.cif
#   From: 2010.05.17/outbox.cif.g08.bks.cpg/sg2_206_cif.got.tgz:411041.got - 2010.06.03 11:33:40.
