data_PCOD9052399
_publ_section_title
;
Structure prediction by ZEFSAII (Michael W. Deem and Ramdas Pophale) SiO2 
 PCOD9052399
Probable space group: P -1
;
_chemical_formula_sum "Si O2"
_cell_formula_units_Z 14
_cell_length_a 8.979588
_cell_length_b 11.727334
_cell_length_c 10.794077
_cell_angle_alpha 43.676375
_cell_angle_beta 135.567544
_cell_angle_gamma 141.539316
_cell_volume 458.447109
_symmetry_space_group_name_H-M "P -1"
_symmetry_group_IT_number 2
_symmetry_cell_setting 'triclinic'
loop_
_space_group_symop_operation_xyz
x,y,z
-x,-y,-z
loop_
_atom_site_type_symbol
_atom_site_label
_atom_site_fract_x
_atom_site_fract_y
_atom_site_fract_z
Si Si1 0.372116 0.552070 0.946288
Si Si2 0.902324 0.699853 0.368951
Si Si3 0.401290 0.994772 0.307281
Si Si4 0.163709 0.014645 0.469593
Si Si5 0.025467 0.745710 0.943009
Si Si6 0.604477 0.329460 0.872567
Si Si7 0.259754 0.694907 0.297209
O O1 0.057398 0.417030 0.854933
O O2 0.216936 0.757479 0.940295
O O3 0.502534 0.787719 0.846895
O O4 0.426677 0.514749 0.861208
O O5 0.104264 0.827039 0.279076
O O6 0.806682 0.474619 0.508290
O O7 0.680248 0.738647 0.216121
O O8 0.059082 0.806149 0.508204
O O9 0.531600 0.888598 0.394346
O O10 0.500000 0.000000 0.500000
O O11 0.110917 0.136453 0.245791
O O12 0.000000 0.000000 0.500000
O O13 0.259202 0.881697 0.080236
O O14 0.248559 0.481156 0.094998
O O15 0.630698 0.361962 0.713450
#
# Coordination Sequence:
#
# PCOD9052399 Si02
#       7
#     2   2   2   2   2   2   2
#     4  12  27  48  77 113 159 204 252 320 388 464
#     4  12  26  48  76 115 157 204 252 326 390 457
#     4  12  28  50  78 115 159 201 258 319 390 461
#     4  12  27  47  80 115 159 202 260 315 389 463
#     4  10  26  48  78 112 151 203 258 314 385 458
#     4  10  26  45  83 110 154 193 272 307 394 448
#     4  10  26  49  80 110 152 203 261 318 385 451
#
# _framework density 30.537876000000001
#
# number of rings (size 3 to 8) (size 9 to 14) (size 15 to 20)
#    0.857    0.000    0.000    5.143    8.000    2.857 
#    0.000    1.429    0.000    0.000    0.000    0.000 
#    0.000    0.000    0.000    0.000    0.000    0.000 
#
# Total GULP energy -77941.349422 kJ/mol
# GULP energy per Si atom -5567.239244 kJ/mol
# Density = 3.046837 g / cm^3
# Si number density = 30.537876 Si / 1000 Ang^3
#
#
#
# Elastic Constant Matrix: (Units=GPa)
#
#
# Indices 1 2 3 4 5 6 
#
# 1 252.5840 110.3337 67.4205 0.3676 27.9586 41.6609
# 2 110.3337 259.2857 92.7498 -4.6611 31.2801 10.8578
# 3 67.4205 92.7498 194.4517 20.0282 22.3107 4.5098
# 4 0.3676 -4.6611 20.0282 69.4993 -4.8798 12.7405
# 5 27.9586 31.2801 22.3107 -4.8798 52.0152 15.8778
# 6 41.6609 10.8578 4.5098 12.7405 15.8778 82.1601
#
#
#
# Elastic Compliance Matrix: (Units=1/GPa)
#
#
# Indices 1 2 3 4 5 6 
#
# 1 0.005475 -0.001793 -0.000966 0.000531 -0.000655 -0.002442
# 2 -0.001793 0.005484 -0.001896 0.000722 -0.001601 0.000486
# 3 -0.000966 -0.001896 0.006814 -0.002414 -0.001824 0.001093
# 4 0.000531 0.000722 -0.002414 0.015921 0.002799 -0.003242
# 5 -0.000655 -0.001601 -0.001824 0.002799 0.022870 -0.004210
# 6 -0.002442 0.000486 0.001093 -0.003242 -0.004210 0.014602
#
#
# Mechanical properties :
#
#
# Convention : Reuss Voigt Hill
#
# Bulk Modulus (GPa) = 118.15977 138.59215 128.37596
# Shear Modulus (GPa) = 60.02678 69.78944 64.90811
#
# Velocity S-wave (km/s) = 4.43838 4.78571 4.61531
# Velocity P-wave (km/s) = 8.06489 8.71892 8.39827
#
# Compressibility (1/GPa) = 0.00846312
#
# Stress axis : x y z
#
# Youngs Moduli (GPa) = 182.65862 182.35341 146.75015
#
# Poissons Ratio (x) = 0.32704 0.14171
# Poissons Ratio (y) = 0.32758 0.27821
# Poissons Ratio (z) = 0.17639 0.34570
#
# Static dielectric constant tensor:
#      x y z
#    x 2.713180 -0.210890 -0.337210 
#    y -0.210890 2.867040 0.299820 
#    z -0.337210 0.299820 2.375360 
# 
# From -- ./inp_files/503931.got.cif
#   From: 2010.05.17/outbox.cif.g08.bks.cpg/sg2_252_cif.got.tgz:503931.got - 2010.06.03 11:33:40.
