data_PCOD9052419
_publ_section_title
;
Structure prediction by ZEFSAII (Michael W. Deem and Ramdas Pophale) SiO2 
 PCOD9052419
Probable space group: P -1
;
_chemical_formula_sum "Si O2"
_cell_formula_units_Z 14
_cell_length_a 11.274749
_cell_length_b 20.412724
_cell_length_c 8.919733
_cell_angle_alpha 35.307213
_cell_angle_beta 126.075583
_cell_angle_gamma 148.820830
_cell_volume 571.780793
_symmetry_space_group_name_H-M "P -1"
_symmetry_group_IT_number 2
_symmetry_cell_setting 'triclinic'
loop_
_space_group_symop_operation_xyz
x,y,z
-x,-y,-z
loop_
_atom_site_type_symbol
_atom_site_label
_atom_site_fract_x
_atom_site_fract_y
_atom_site_fract_z
Si Si1 0.246191 0.864431 0.366073
Si Si2 0.111885 0.392815 0.141285
Si Si3 0.716853 0.010739 0.410338
Si Si4 0.988118 0.536753 0.592347
Si Si5 0.354139 0.278948 0.957154
Si Si6 0.587781 0.775748 0.210290
Si Si7 0.120873 0.999549 0.720951
O O1 0.057221 0.712739 0.639085
O O2 0.141060 0.743369 0.362055
O O3 0.512137 0.972041 0.381835
O O4 0.289475 0.025150 0.100429
O O5 0.981749 0.226783 0.240316
O O6 0.385691 0.527874 0.139220
O O7 0.096294 0.506028 0.839657
O O8 0.707700 0.978322 0.287347
O O9 0.678518 0.872541 0.733496
O O10 0.702859 0.384734 0.698919
O O11 0.000000 0.500000 0.500000
O O12 0.117318 0.194574 0.005107
O O13 0.355467 0.275869 0.784386
O O14 0.711623 0.824288 0.370406
O O15 0.000000 0.000000 0.500000
#
# Coordination Sequence:
#
# PCOD9052419 Si02
#       7
#     2   2   2   2   2   2   2
#     4  12  23  41  69 107 134 170 220 278 345 393
#     4  12  23  41  69 104 139 175 215 271 344 398
#     4  11  22  41  68 100 138 174 218 271 342 394
#     4  12  26  38  65 107 144 171 212 276 343 405
#     4  11  23  45  68  95 136 182 227 267 320 407
#     4  12  24  44  71 100 134 173 228 280 329 398
#     4  10  26  46  68  92 134 188 223 272 330 394
#
# _framework density 24.484905999999999
#
# number of rings (size 3 to 8) (size 9 to 14) (size 15 to 20)
#    0.000    0.571    5.714    3.000    4.000    1.714 
#    0.000    3.571    0.000    0.000    0.000    0.000 
#    0.000    0.000    0.000    0.000    0.000    0.000 
#
# Total GULP energy -78446.256710 kJ/mol
# GULP energy per Si atom -5603.304051 kJ/mol
# Density = 2.442918 g / cm^3
# Si number density = 24.484906 Si / 1000 Ang^3
#
#
#
# Elastic Constant Matrix: (Units=GPa)
#
#
# Indices 1 2 3 4 5 6 
#
# 1 78.2966 22.2952 14.6316 3.5054 -28.7112 -2.4933
# 2 22.2952 149.0832 16.1660 -17.2416 -6.9160 -9.9153
# 3 14.6316 16.1660 54.6230 -0.7591 11.0132 1.6841
# 4 3.5054 -17.2416 -0.7591 41.7104 1.4631 -1.3468
# 5 -28.7112 -6.9160 11.0132 1.4631 42.7186 3.4243
# 6 -2.4933 -9.9153 1.6841 -1.3468 3.4243 48.6008
#
#
#
# Elastic Compliance Matrix: (Units=1/GPa)
#
#
# Indices 1 2 3 4 5 6 
#
# 1 0.020851 -0.001869 -0.008291 -0.003244 0.015979 -0.000240
# 2 -0.001869 0.007689 -0.001821 0.003347 0.000214 0.001614
# 3 -0.008291 -0.001821 0.023499 0.000764 -0.011892 -0.000752
# 4 -0.003244 0.003347 0.000764 0.025789 -0.002831 0.001404
# 5 0.015979 0.000214 -0.011892 -0.002831 0.037462 -0.001442
# 6 -0.000240 0.001614 -0.000752 0.001404 -0.001442 0.021059
#
#
# Mechanical properties :
#
#
# Convention : Reuss Voigt Hill
#
# Bulk Modulus (GPa) = 35.61913 43.13203 39.37558
# Shear Modulus (GPa) = 29.46883 41.86663 35.66773
#
# Velocity S-wave (km/s) = 3.47299 4.13957 3.82084
# Velocity P-wave (km/s) = 5.53725 6.36413 5.96503
#
# Compressibility (1/GPa) = 0.02807480
#
# Stress axis : x y z
#
# Youngs Moduli (GPa) = 47.96001 130.05597 42.55542
#
# Poissons Ratio (x) = 0.24307 0.35285
# Poissons Ratio (y) = 0.08964 0.07751
# Poissons Ratio (z) = 0.39766 0.23689
#
# Static dielectric constant tensor:
#      x y z
#    x 1.949680 -0.017770 -0.005070 
#    y -0.017770 1.940530 0.048110 
#    z -0.005070 0.048110 1.973490 
# 
# From -- ./inp_files/255659.got.cif
#   From: 2010.05.17/outbox.cif.g08.bks.cpg/sg2_128_cif.got.tgz:255659.got - 2010.06.03 11:33:40.
