data_PCOD9052849
_publ_section_title
;
Structure prediction by ZEFSAII (Michael W. Deem and Ramdas Pophale) SiO2 
 PCOD9052849
Probable space group: P -1
;
_chemical_formula_sum "Si O2"
_cell_formula_units_Z 14
_cell_length_a 7.584036
_cell_length_b 7.369421
_cell_length_c 11.055439
_cell_angle_alpha 66.323337
_cell_angle_beta 62.459216
_cell_angle_gamma 59.354642
_cell_volume 460.073952
_symmetry_space_group_name_H-M "P -1"
_symmetry_group_IT_number 2
_symmetry_cell_setting 'triclinic'
loop_
_space_group_symop_operation_xyz
x,y,z
-x,-y,-z
loop_
_atom_site_type_symbol
_atom_site_label
_atom_site_fract_x
_atom_site_fract_y
_atom_site_fract_z
Si Si1 0.574077 0.341005 0.808877
Si Si2 0.761884 0.889356 0.165870
Si Si3 0.500000 0.000000 0.000000
Si Si4 0.135911 0.639376 0.955209
Si Si5 0.500000 0.500000 0.500000
Si Si6 0.340962 0.270689 0.268666
Si Si7 0.861565 0.745996 0.438489
Si Si8 0.940635 0.163262 0.330466
O O1 0.376059 0.459495 0.937827
O O2 0.537911 0.406997 0.659486
O O3 0.715943 0.477797 0.769190
O O4 0.033097 0.084897 0.605905
O O5 0.779780 0.771781 0.319944
O O6 0.627080 0.837029 0.114701
O O7 0.577158 0.132842 0.175231
O O8 0.002569 0.795439 0.061714
O O9 0.315630 0.905004 0.108269
O O10 0.131405 0.771763 0.801231
O O11 0.000000 0.500000 0.000000
O O12 0.736745 0.313932 0.435292
O O13 0.346007 0.189532 0.425430
O O14 0.152671 0.215023 0.278896
O O15 0.000000 0.500000 0.500000
#
# Coordination Sequence:
#
# PCOD9052849 Si02
#       8
#     2   2   1   2   1   2   2   2
#     4  11  28  51  87 133 176 240 304 376 471 553
#     4  12  28  54  89 125 188 237 309 386 462 550
#     4  12  28  50  90 134 178 238 296 388 470 558
#     4  11  25  52  86 123 174 242 302 374 468 554
#     4  10  26  54 102 126 188 244 304 392 462 564
#     4  12  30  52  87 135 178 238 314 380 466 559
#     4  12  32  56  87 133 181 249 316 380 465 563
#     4  11  28  57  93 133 183 239 314 386 468 553
#
# _framework density 30.429891000000001
#
# number of rings (size 3 to 8) (size 9 to 14) (size 15 to 20)
#    0.000    0.571    1.429    3.429    8.000    5.143 
#    2.571    2.143    0.000    3.429    0.000    0.000 
#    0.000    0.000    0.000    0.000    0.000    0.000 
#
# Total GULP energy -77968.195763 kJ/mol
# GULP energy per Si atom -5569.156840 kJ/mol
# Density = 3.036063 g / cm^3
# Si number density = 30.429891 Si / 1000 Ang^3
#
#
#
# Elastic Constant Matrix: (Units=GPa)
#
#
# Indices 1 2 3 4 5 6 
#
# 1 130.8632 53.9965 53.0710 4.0914 11.1435 -17.1341
# 2 53.9965 170.0186 85.4807 -4.3318 25.7229 -1.7211
# 3 53.0710 85.4807 245.3644 19.0222 23.1778 -23.6864
# 4 4.0914 -4.3318 19.0222 65.8391 -8.7257 -5.5212
# 5 11.1435 25.7229 23.1778 -8.7257 45.9369 -14.4004
# 6 -17.1341 -1.7211 -23.6864 -5.5212 -14.4004 61.8889
#
#
#
# Elastic Compliance Matrix: (Units=1/GPa)
#
#
# Indices 1 2 3 4 5 6 
#
# 1 0.009332 -0.002517 -0.000934 -0.000258 0.000255 0.002193
# 2 -0.002517 0.008352 -0.002301 0.000744 -0.003414 -0.002073
# 3 -0.000934 -0.002301 0.005449 -0.001705 -0.001136 0.001346
# 4 -0.000258 0.000744 -0.001705 0.016445 0.004174 0.001735
# 5 0.000255 -0.003414 -0.001136 0.004174 0.026921 0.006177
# 6 0.002193 -0.002073 0.001346 0.001735 0.006177 0.018815
#
#
# Mechanical properties :
#
#
# Convention : Reuss Voigt Hill
#
# Bulk Modulus (GPa) = 85.98892 103.48252 94.73572
# Shear Modulus (GPa) = 49.65492 58.31284 53.98388
#
# Velocity S-wave (km/s) = 4.04391 4.38231 4.21651
# Velocity P-wave (km/s) = 7.07981 7.72573 7.40981
#
# Compressibility (1/GPa) = 0.01162940
#
# Stress axis : x y z
#
# Youngs Moduli (GPa) = 107.15296 119.72566 183.53333
#
# Poissons Ratio (x) = 0.30139 0.17142
# Poissons Ratio (y) = 0.26974 0.42226
# Poissons Ratio (z) = 0.10008 0.27545
#
# Static dielectric constant tensor:
#      x y z
#    x 4.453130 3.810930 0.825950 
#    y 3.810930 11.012110 2.459750 
#    z 0.825950 2.459750 3.393880 
# 
# From -- ./inp_files/387250.got.cif
#   From: 2010.05.17/outbox.cif.g08.bks.cpg/sg2_194_cif.got.tgz:387250.got - 2010.06.03 11:33:40.
