data_PCOD9052721
_publ_section_title
;
Structure prediction by ZEFSAII (Michael W. Deem and Ramdas Pophale) SiO2 
 PCOD9052721
Probable space group: P -1
;
_chemical_formula_sum "Si O2"
_cell_formula_units_Z 16
_cell_length_a 9.169539
_cell_length_b 15.989751
_cell_length_c 13.383369
_cell_angle_alpha 160.280367
_cell_angle_beta 96.876542
_cell_angle_gamma 83.716619
_cell_volume 657.304624
_symmetry_space_group_name_H-M "P -1"
_symmetry_group_IT_number 2
_symmetry_cell_setting 'triclinic'
loop_
_space_group_symop_operation_xyz
x,y,z
-x,-y,-z
loop_
_atom_site_type_symbol
_atom_site_label
_atom_site_fract_x
_atom_site_fract_y
_atom_site_fract_z
Si Si1 0.651510 0.749139 0.262928
Si Si2 0.289247 0.835587 0.026561
Si Si3 0.815250 0.671695 0.506225
Si Si4 0.442097 0.988919 0.647118
Si Si5 0.889898 0.587485 0.790551
Si Si6 0.944746 0.979657 0.587146
Si Si7 0.813790 0.344705 0.708777
Si Si8 0.673614 0.556694 0.560725
O O1 0.531424 0.753005 0.344234
O O2 0.769828 0.961055 0.542958
O O3 0.576073 0.829743 0.244123
O O4 0.751091 0.516692 0.984114
O O5 0.204652 0.096032 0.307452
O O6 0.457950 0.900875 0.134546
O O7 0.253420 0.600383 0.831869
O O8 0.264941 0.704800 0.770587
O O9 0.720193 0.727926 0.662038
O O10 0.986800 0.604000 0.456112
O O11 0.284404 0.901215 0.570630
O O12 0.798764 0.470529 0.742643
O O13 0.772211 0.645106 0.760490
O O14 0.983829 0.809428 0.099686
O O15 0.017693 0.725378 0.344431
O O16 0.000000 0.000000 0.500000
O O17 0.500000 0.500000 0.500000
#
# Coordination Sequence:
#
# PCOD9052721 Si02
#       8
#     2   2   2   2   2   2   2   2
#     4  11  25  46  66 102 143 197 241 303 364 430
#     4  10  26  48  78 109 146 193 246 302 365 432
#     4  10  26  50  77 107 149 189 252 296 368 437
#     4  11  25  44  71 101 149 189 246 300 364 439
#     4  12  27  46  74 105 144 192 238 308 365 434
#     4  12  25  45  67 102 146 185 247 296 361 434
#     4  12  26  40  72 102 143 191 244 300 365 435
#     4  10  27  48  75 109 147 187 241 305 372 443
#
# _framework density 24.341835
#
# number of rings (size 3 to 8) (size 9 to 14) (size 15 to 20)
#    0.750    0.250    2.500    1.875   10.500    2.000 
#    0.000    0.000    0.000    0.000    0.000    0.000 
#    0.000    0.000    0.000    0.000    0.000    0.000 
#
# Total GULP energy -89304.009465 kJ/mol
# GULP energy per Si atom -5581.500592 kJ/mol
# Density = 2.428643 g / cm^3
# Si number density = 24.341835 Si / 1000 Ang^3
#
#
#
# Elastic Constant Matrix: (Units=GPa)
#
#
# Indices 1 2 3 4 5 6 
#
# 1 110.0211 11.0021 15.8421 -11.1857 3.6887 -5.1072
# 2 11.0021 80.2779 32.0179 -9.3167 15.1130 -8.8639
# 3 15.8421 32.0179 94.2801 -2.4089 -1.1908 -13.0876
# 4 -11.1857 -9.3167 -2.4089 39.3772 -7.2097 7.0651
# 5 3.6887 15.1130 -1.1908 -7.2097 38.0100 -3.1819
# 6 -5.1072 -8.8639 -13.0876 7.0651 -3.1819 41.2655
#
#
#
# Elastic Compliance Matrix: (Units=1/GPa)
#
#
# Indices 1 2 3 4 5 6 
#
# 1 0.009599 -0.000388 -0.001393 0.002449 -0.000338 0.000218
# 2 -0.000388 0.016110 -0.005303 0.002106 -0.006059 0.000903
# 3 -0.001393 -0.005303 0.013099 -0.000922 0.002748 0.003213
# 4 0.002449 0.002106 -0.000922 0.027963 0.003863 -0.004027
# 5 -0.000338 -0.006059 0.002748 0.003863 0.029666 0.001154
# 6 0.000218 0.000903 0.003213 -0.004027 0.001154 0.026252
#
#
# Mechanical properties :
#
#
# Convention : Reuss Voigt Hill
#
# Bulk Modulus (GPa) = 40.58520 44.70037 42.64278
# Shear Modulus (GPa) = 34.46646 38.77834 36.62240
#
# Velocity S-wave (km/s) = 3.76697 3.99566 3.88300
# Velocity P-wave (km/s) = 5.96903 6.30004 6.13677
#
# Compressibility (1/GPa) = 0.02463952
#
# Stress axis : x y z
#
# Youngs Moduli (GPa) = 104.17858 62.07450 76.34315
#
# Poissons Ratio (x) = 0.02410 0.10631
# Poissons Ratio (y) = 0.04045 0.40485
# Poissons Ratio (z) = 0.14508 0.32919
#
# Static dielectric constant tensor:
#      x y z
#    x 1.952740 0.019780 -0.041280 
#    y 0.019780 1.954540 -0.002420 
#    z -0.041280 -0.002420 2.041360 
# 
# From -- ./inp_files/507170.got.cif
#   From: 2010.05.17/outbox.cif.g08.bks.cpg/sg2_254_cif.got.tgz:507170.got - 2010.06.03 11:33:40.
