data_PCOD9052198
_publ_section_title
;
Structure prediction by ZEFSAII (Michael W. Deem and Ramdas Pophale) SiO2 
 PCOD9052198
Probable space group: P -1
;
_chemical_formula_sum "Si O2"
_cell_formula_units_Z 13
_cell_length_a 14.655035
_cell_length_b 9.740750
_cell_length_c 8.491340
_cell_angle_alpha 77.802491
_cell_angle_beta 123.639298
_cell_angle_gamma 141.577740
_cell_volume 566.064289
_symmetry_space_group_name_H-M "P -1"
_symmetry_group_IT_number 2
_symmetry_cell_setting 'triclinic'
loop_
_space_group_symop_operation_xyz
x,y,z
-x,-y,-z
loop_
_atom_site_type_symbol
_atom_site_label
_atom_site_fract_x
_atom_site_fract_y
_atom_site_fract_z
Si Si1 0.749213 0.970259 0.445545
Si Si2 0.438863 0.485914 0.774191
Si Si3 0.000000 0.500000 0.500000
Si Si4 0.841076 0.953681 0.879179
Si Si5 0.102924 0.461409 0.096657
Si Si6 0.669817 0.311564 0.426668
Si Si7 0.567658 0.138784 0.866739
O O1 0.714473 0.785461 0.372731
O O2 0.808394 0.997551 0.672528
O O3 0.548658 0.842126 0.279634
O O4 0.896122 0.234621 0.448444
O O5 0.633582 0.690269 0.806566
O O6 0.356058 0.556162 0.685320
O O7 0.500000 0.500000 0.000000
O O8 0.819947 0.370659 0.464274
O O9 0.000000 0.000000 0.000000
O O10 0.945813 0.177009 0.034601
O O11 0.261152 0.608397 0.347180
O O12 0.211235 0.584461 0.001053
O O13 0.000000 0.500000 0.000000
O O14 0.474822 0.024918 0.265669
O O15 0.500000 0.000000 0.000000
#
# Coordination Sequence:
#
# PCOD9052198 Si02
#       7
#     2   2   1   2   2   2   2
#     4  11  25  47  73 100 151 187 239 284 371 426
#     4  12  27  47  73 106 145 192 240 296 360 431
#     4  10  26  42  76 104 134 190 240 300 358 410
#     4  12  27  46  73 106 143 192 239 289 365 429
#     4  12  25  42  71 105 142 183 244 299 349 429
#     4  11  25  45  70 101 148 186 243 290 372 415
#     4  11  24  43  71 102 144 193 237 288 363 433
#
# _framework density 22.965589999999999
#
# number of rings (size 3 to 8) (size 9 to 14) (size 15 to 20)
#    0.000    0.615    0.000    7.385   12.923    0.615 
#    0.000    0.000    0.000    0.000    0.000    0.000 
#    0.000    0.000    0.000    0.000    0.000    0.000 
#
# Total GULP energy -72499.318230 kJ/mol
# GULP energy per Si atom -5576.870633 kJ/mol
# Density = 2.291332 g / cm^3
# Si number density = 22.965590 Si / 1000 Ang^3
#
#
#
# Elastic Constant Matrix: (Units=GPa)
#
#
# Indices 1 2 3 4 5 6 
#
# 1 50.9341 13.2557 1.4331 -11.4880 18.2732 -12.6676
# 2 13.2557 136.5548 16.0596 14.8351 -4.2162 -16.5934
# 3 1.4331 16.0596 91.2477 -16.5675 -5.1057 -9.1154
# 4 -11.4880 14.8351 -16.5675 33.5946 -17.6198 6.5963
# 5 18.2732 -4.2162 -5.1057 -17.6198 38.3110 3.1590
# 6 -12.6676 -16.5934 -9.1154 6.5963 3.1590 55.6345
#
#
#
# Elastic Compliance Matrix: (Units=1/GPa)
#
#
# Indices 1 2 3 4 5 6 
#
# 1 0.026749 -0.002686 0.000529 0.003195 -0.011982 0.005678
# 2 -0.002686 0.009026 -0.002807 -0.007813 -0.001912 0.002656
# 3 0.000529 -0.002807 0.013967 0.011920 0.006801 -0.000228
# 4 0.003195 -0.007813 0.011920 0.054803 0.025034 -0.007569
# 5 -0.011982 -0.001912 0.006801 0.025034 0.044661 -0.007688
# 6 0.005678 0.002656 -0.000228 -0.007569 -0.007688 0.021356
#
#
# Mechanical properties :
#
#
# Convention : Reuss Voigt Hill
#
# Bulk Modulus (GPa) = 25.11575 37.80372 31.45973
# Shear Modulus (GPa) = 25.80514 42.04058 33.92286
#
# Velocity S-wave (km/s) = 3.35572 4.28318 3.84750
# Velocity P-wave (km/s) = 5.09651 6.39981 5.78498
#
# Compressibility (1/GPa) = 0.03981565
#
# Stress axis : x y z
#
# Youngs Moduli (GPa) = 37.38498 110.78764 71.59798
#
# Poissons Ratio (x) = 0.29757 -0.03791
# Poissons Ratio (y) = 0.10041 0.20095
# Poissons Ratio (z) = -0.01979 0.31094
#
# Static dielectric constant tensor:
#      x y z
#    x 1.833050 -0.015870 -0.045630 
#    y -0.015870 1.918510 0.044560 
#    z -0.045630 0.044560 1.895530 
# 
# From -- ./inp_files/151741.got.cif
#   From: 2010.05.17/outbox.cif.g08.bks.cpg/sg2_76_cif.got.tgz:151741.got - 2010.06.03 11:33:40.
