data_PCOD9052264
_publ_section_title
;
Structure prediction by ZEFSAII (Michael W. Deem and Ramdas Pophale) SiO2 
 PCOD9052264
Probable space group: P -1
;
_chemical_formula_sum "Si O2"
_cell_formula_units_Z 12
_cell_length_a 4.955193
_cell_length_b 12.491543
_cell_length_c 7.572472
_cell_angle_alpha 80.107229
_cell_angle_beta 107.302193
_cell_angle_gamma 83.988527
_cell_volume 434.764670
_symmetry_space_group_name_H-M "P -1"
_symmetry_group_IT_number 2
_symmetry_cell_setting 'triclinic'
loop_
_space_group_symop_operation_xyz
x,y,z
-x,-y,-z
loop_
_atom_site_type_symbol
_atom_site_label
_atom_site_fract_x
_atom_site_fract_y
_atom_site_fract_z
Si Si1 0.863641 0.311375 0.422986
Si Si2 0.096755 0.117716 0.000290
Si Si3 0.338007 0.107536 0.680727
Si Si4 0.722811 0.344855 0.783377
Si Si5 0.435059 0.873428 0.644430
Si Si6 0.778002 0.528402 0.148990
O O1 0.730931 0.356168 0.570675
O O2 0.650790 0.243993 0.297143
O O3 0.926877 0.414769 0.298269
O O4 0.117569 0.212872 0.544217
O O5 0.250881 0.130665 0.211088
O O6 0.672032 0.880523 0.113792
O O7 0.843413 0.219072 0.891802
O O8 0.000000 0.000000 0.000000
O O9 0.580293 0.110458 0.575756
O O10 0.266574 0.984934 0.666339
O O11 0.400613 0.386490 0.770679
O O12 0.965220 0.412404 0.888103
O O13 0.500000 0.500000 0.000000
#
# Coordination Sequence:
#
# PCOD9052264 Si02
#       6
#     2   2   2   2   2   2
#     4  11  26  44  75 100 148 190 246 302 373 439
#     4  11  27  45  74 107 148 195 245 306 374 439
#     4  10  26  44  69 107 147 186 248 300 368 435
#     4  11  28  48  73 110 147 191 248 307 367 442
#     4  11  25  44  73 105 149 191 248 301 375 440
#     4  12  27  48  77 107 146 194 249 304 370 441
#
# _framework density 27.601140000000001
#
# number of rings (size 3 to 8) (size 9 to 14) (size 15 to 20)
#    0.000    1.000    0.000    3.500   21.000    1.333 
#    0.000    0.000    0.000    0.000    0.000    0.000 
#    0.000    0.000    0.000    0.000    0.000    0.000 
#
# Total GULP energy -67246.648521 kJ/mol
# GULP energy per Si atom -5603.887377 kJ/mol
# Density = 2.753832 g / cm^3
# Si number density = 27.601140 Si / 1000 Ang^3
#
#
#
# Elastic Constant Matrix: (Units=GPa)
#
#
# Indices 1 2 3 4 5 6 
#
# 1 123.1420 42.1726 14.3841 -5.9683 -9.6168 0.0727
# 2 42.1726 150.6464 32.9032 -20.4311 5.8960 34.0882
# 3 14.3841 32.9032 95.1362 -10.3773 -5.3666 8.8896
# 4 -5.9683 -20.4311 -10.3773 60.1974 -4.0687 -0.0605
# 5 -9.6168 5.8960 -5.3666 -4.0687 34.2218 7.6425
# 6 0.0727 34.0882 8.8896 -0.0605 7.6425 57.0113
#
#
#
# Elastic Compliance Matrix: (Units=1/GPa)
#
#
# Indices 1 2 3 4 5 6 
#
# 1 0.009404 -0.002986 -0.000364 0.000046 0.002780 0.001457
# 2 -0.002986 0.009499 -0.002162 0.002457 -0.001372 -0.005152
# 3 -0.000364 -0.002162 0.011687 0.001410 0.002462 -0.000858
# 4 0.000046 0.002457 0.001410 0.017852 0.002377 -0.001989
# 5 0.002780 -0.001372 0.002462 0.002377 0.031761 -0.003822
# 6 0.001457 -0.005152 -0.000858 -0.001989 -0.003822 0.021263
#
#
# Mechanical properties :
#
#
# Convention : Reuss Voigt Hill
#
# Bulk Modulus (GPa) = 51.10416 60.87162 55.98789
# Shear Modulus (GPa) = 42.01303 48.91709 45.46506
#
# Velocity S-wave (km/s) = 3.90570 4.21442 4.06299
# Velocity P-wave (km/s) = 6.23657 6.76636 6.50686
#
# Compressibility (1/GPa) = 0.01956788
#
# Stress axis : x y z
#
# Youngs Moduli (GPa) = 106.33650 105.27674 85.56692
#
# Poissons Ratio (x) = 0.31431 0.03112
# Poissons Ratio (y) = 0.31747 0.18497
# Poissons Ratio (z) = 0.03867 0.22758
#
# Static dielectric constant tensor:
#      x y z
#    x 2.164830 0.009740 0.024810 
#    y 0.009740 2.141270 0.097810 
#    z 0.024810 0.097810 2.119000 
# 
# From -- ./inp_files/131565.got.cif
#   From: 2010.05.17/outbox.cif.g08.bks.cpg/sg2_66_cif.got.tgz:131565.got - 2010.06.03 11:33:40.
