data_PCOD9052106
_publ_section_title
;
Structure prediction by ZEFSAII (Michael W. Deem and Ramdas Pophale) SiO2 
 PCOD9052106
Probable space group: P -1
;
_chemical_formula_sum "Si O2"
_cell_formula_units_Z 16
_cell_length_a 12.110081
_cell_length_b 15.282074
_cell_length_c 5.612999
_cell_angle_alpha 107.428449
_cell_angle_beta 116.322436
_cell_angle_gamma 44.699652
_cell_volume 654.705746
_symmetry_space_group_name_H-M "P -1"
_symmetry_group_IT_number 2
_symmetry_cell_setting 'triclinic'
loop_
_space_group_symop_operation_xyz
x,y,z
-x,-y,-z
loop_
_atom_site_type_symbol
_atom_site_label
_atom_site_fract_x
_atom_site_fract_y
_atom_site_fract_z
Si Si1 0.286518 0.127384 0.616400
Si Si2 0.461964 0.628518 0.568846
Si Si3 0.128306 0.889576 0.349214
Si Si4 0.561590 0.089619 0.039630
Si Si5 0.935788 0.453895 0.224394
Si Si6 0.404223 0.449440 0.868900
Si Si7 0.820605 0.986289 0.858802
Si Si8 0.792162 0.685436 0.980770
O O1 0.216581 0.098065 0.324857
O O2 0.341688 0.034314 0.814297
O O3 0.456349 0.099760 0.723152
O O4 0.164327 0.264362 0.724452
O O5 0.500000 0.500000 0.500000
O O6 0.549068 0.617739 0.396727
O O7 0.591179 0.793650 0.857652
O O8 0.523856 0.632420 0.888182
O O9 0.266608 0.750893 0.464080
O O10 0.215416 0.929257 0.326850
O O11 0.000000 0.000000 0.500000
O O12 0.011507 0.898943 0.049867
O O13 0.703531 0.076005 0.037873
O O14 0.796555 0.456557 0.205545
O O15 0.000000 0.500000 0.500000
O O16 0.103756 0.333707 0.161558
O O17 0.843715 0.558443 0.010161
O O18 0.500000 0.500000 0.000000
#
# Coordination Sequence:
#
# PCOD9052106 Si02
#       8
#     2   2   2   2   2   2   2   2
#     4   9  20  42  66 100 137 181 237 295 373 453
#     4  10  25  52  76 106 147 205 262 317 385 466
#     4  11  27  46  67 108 150 192 255 320 387 450
#     4   9  20  41  65 101 138 178 237 299 374 453
#     4  11  25  44  68 106 149 195 250 318 387 447
#     4  10  25  51  77 107 147 206 265 314 384 474
#     4  11  23  41  70 108 142 195 242 312 386 460
#     4   9  23  42  65 100 148 189 245 312 381 456
#
# _framework density 24.438459999999999
#
# number of rings (size 3 to 8) (size 9 to 14) (size 15 to 20)
#    0.750    1.250    0.000    1.125    8.750    3.000 
#   13.500    0.000    0.000    0.000    0.000    0.000 
#    0.000    0.000    0.000    0.000    0.000    0.000 
#
# Total GULP energy -89279.778451 kJ/mol
# GULP energy per Si atom -5579.986153 kJ/mol
# Density = 2.438284 g / cm^3
# Si number density = 24.438460 Si / 1000 Ang^3
#
#
#
# Elastic Constant Matrix: (Units=GPa)
#
#
# Indices 1 2 3 4 5 6 
#
# 1 146.2225 49.1600 26.0079 5.1758 -5.7826 -29.9860
# 2 49.1600 121.9058 19.0518 -1.1969 -10.5070 -7.9932
# 3 26.0079 19.0518 99.3720 1.0474 -2.5773 -6.1701
# 4 5.1758 -1.1969 1.0474 31.7802 -0.1277 -5.9707
# 5 -5.7826 -10.5070 -2.5773 -0.1277 49.1015 6.5493
# 6 -29.9860 -7.9932 -6.1701 -5.9707 6.5493 29.4002
#
#
#
# Elastic Compliance Matrix: (Units=1/GPa)
#
#
# Indices 1 2 3 4 5 6 
#
# 1 0.010071 -0.003299 -0.001450 0.000020 -0.000831 0.009260
# 2 -0.003299 0.009783 -0.001046 0.000726 0.001809 -0.001180
# 3 -0.001450 -0.001046 0.010674 -0.000072 0.000107 0.000438
# 4 0.000020 0.000726 -0.000072 0.032809 -0.000697 0.007021
# 5 -0.000831 0.001809 0.000107 -0.000697 0.021357 -0.005232
# 6 0.009260 -0.001180 0.000438 0.007021 -0.005232 0.045820
#
#
# Mechanical properties :
#
#
# Convention : Reuss Voigt Hill
#
# Bulk Modulus (GPa) = 52.80595 61.77110 57.28853
# Shear Modulus (GPa) = 33.68886 40.27509 36.98197
#
# Velocity S-wave (km/s) = 3.71687 4.06399 3.89430
# Velocity P-wave (km/s) = 6.33046 6.88131 6.61162
#
# Compressibility (1/GPa) = 0.01893726
#
# Stress axis : x y z
#
# Youngs Moduli (GPa) = 99.29179 102.22244 93.68517
#
# Poissons Ratio (x) = 0.33723 0.13586
# Poissons Ratio (y) = 0.32757 0.09801
# Poissons Ratio (z) = 0.14399 0.10694
#
# Static dielectric constant tensor:
#      x y z
#    x 1.086970 -1.189000 -1.000960 
#    y -1.189000 0.373320 -1.283860 
#    z -1.000960 -1.283860 0.953680 
# 
# From -- ./inp_files/80867.got.cif
#   From: 2010.05.17/outbox.cif.g08.bks.cpg/sg2_41_cif.got.tgz:80867.got - 2010.06.03 11:33:40.
