data_PCOD9052794
_publ_section_title
;
Structure prediction by ZEFSAII (Michael W. Deem and Ramdas Pophale) SiO2 
 PCOD9052794
Probable space group: P -1
;
_chemical_formula_sum "Si O2"
_cell_formula_units_Z 15
_cell_length_a 11.297415
_cell_length_b 13.931329
_cell_length_c 12.183020
_cell_angle_alpha 31.225716
_cell_angle_beta 144.982266
_cell_angle_gamma 130.079590
_cell_volume 560.030592
_symmetry_space_group_name_H-M "P -1"
_symmetry_group_IT_number 2
_symmetry_cell_setting 'triclinic'
loop_
_space_group_symop_operation_xyz
x,y,z
-x,-y,-z
loop_
_atom_site_type_symbol
_atom_site_label
_atom_site_fract_x
_atom_site_fract_y
_atom_site_fract_z
Si Si1 0.052357 0.762990 0.373434
Si Si2 0.663960 0.734011 0.829761
Si Si3 0.319600 0.889151 0.273510
Si Si4 0.523351 0.357070 0.785892
Si Si5 0.937285 0.448218 0.742660
Si Si6 0.632467 0.730752 0.472604
Si Si7 0.000000 0.500000 0.000000
Si Si8 0.416146 0.680931 0.890487
O O1 0.983816 0.578827 0.549719
O O2 0.178977 0.757796 0.360092
O O3 0.221478 0.792856 0.565267
O O4 0.850420 0.926330 0.058607
O O5 0.497100 0.899448 0.489132
O O6 0.620270 0.695533 0.960129
O O7 0.610657 0.540587 0.920751
O O8 0.901465 0.743670 0.972252
O O9 0.465398 0.826681 0.339802
O O10 0.312974 0.517560 0.479212
O O11 0.696488 0.490678 0.768509
O O12 0.472365 0.241848 0.754331
O O13 0.568481 0.259959 0.030619
O O14 0.999746 0.508327 0.851806
O O15 0.871926 0.738041 0.670126
#
# Coordination Sequence:
#
# PCOD9052794 Si02
#       8
#     2   2   2   2   2   2   1   2
#     4   9  20  33  58  79 106 140 184 219 263 306
#     4   9  16  29  55  73  98 134 185 216 256 293
#     4  10  17  35  58  79 105 139 184 226 253 313
#     4  10  20  31  51  78 116 133 170 222 279 311
#     4  10  19  32  52  84 105 141 175 222 265 317
#     4  10  19  33  54  79 106 142 173 223 270 312
#     4  10  18  34  56  76 104 134 186 224 250 308
#     4   9  16  31  49  77 100 136 176 223 249 312
#
# _framework density 26.784251000000001
#
# number of rings (size 3 to 8) (size 9 to 14) (size 15 to 20)
#    0.000    2.400    2.667    1.600    0.000    0.533 
#    0.000    3.333    2.933    2.400    0.000    0.000 
#    0.000    0.000    0.000    0.000    0.000    0.000 
#
# Total GULP energy -83600.158981 kJ/mol
# GULP energy per Si atom -5573.343932 kJ/mol
# Density = 2.672329 g / cm^3
# Si number density = 26.784251 Si / 1000 Ang^3
#
#
#
# Elastic Constant Matrix: (Units=GPa)
#
#
# Indices 1 2 3 4 5 6 
#
# 1 162.8770 34.7258 63.0260 6.6815 11.8291 -40.8615
# 2 34.7258 82.8837 39.7049 13.9361 -8.6943 -11.2996
# 3 63.0260 39.7049 178.0461 17.0511 7.6752 -29.0582
# 4 6.6815 13.9361 17.0511 36.7719 -13.4035 -11.3809
# 5 11.8291 -8.6943 7.6752 -13.4035 55.9544 10.8218
# 6 -40.8615 -11.2996 -29.0582 -11.3809 10.8218 30.5200
#
#
#
# Elastic Compliance Matrix: (Units=1/GPa)
#
#
# Indices 1 2 3 4 5 6 
#
# 1 0.011504 -0.003255 -0.000679 0.002572 -0.005406 0.016427
# 2 -0.003255 0.015159 -0.002614 -0.003967 0.003196 -0.003847
# 3 -0.000679 -0.002614 0.007671 -0.001681 -0.002841 0.005807
# 4 0.002572 -0.003967 -0.001681 0.034397 0.005107 0.011389
# 5 -0.005406 0.003196 -0.002841 0.005107 0.024103 -0.015401
# 6 0.016427 -0.003847 0.005807 0.011389 -0.015401 0.068572
#
#
# Mechanical properties :
#
#
# Convention : Reuss Voigt Hill
#
# Bulk Modulus (GPa) = 47.08295 77.63558 62.35927
# Shear Modulus (GPa) = 27.53602 43.73928 35.63765
#
# Velocity S-wave (km/s) = 3.20983 4.04545 3.65162
# Velocity P-wave (km/s) = 5.59947 7.13228 6.41184
#
# Compressibility (1/GPa) = 0.02123911
#
# Stress axis : x y z
#
# Youngs Moduli (GPa) = 86.92318 65.96825 130.36144
#
# Poissons Ratio (x) = 0.21471 0.08850
# Poissons Ratio (y) = 0.28291 0.34075
# Poissons Ratio (z) = 0.05901 0.17244
#
# Static dielectric constant tensor:
#      x y z
#    x 2.239470 0.155950 0.181090 
#    y 0.155950 2.296830 0.105790 
#    z 0.181090 0.105790 2.293700 
# 
# From -- ./inp_files/220869.got.cif
#   From: 2010.05.17/outbox.cif.g08.bks.cpg/sg2_111_cif.got.tgz:220869.got - 2010.06.03 11:33:40.
