data_PCOD9052173
_publ_section_title
;
Structure prediction by ZEFSAII (Michael W. Deem and Ramdas Pophale) SiO2 
 PCOD9052173
Probable space group: P -1
;
_chemical_formula_sum "Si O2"
_cell_formula_units_Z 15
_cell_length_a 9.022564
_cell_length_b 19.882066
_cell_length_c 5.205274
_cell_angle_alpha 71.823572
_cell_angle_beta 94.739120
_cell_angle_gamma 138.777740
_cell_volume 567.132676
_symmetry_space_group_name_H-M "P -1"
_symmetry_group_IT_number 2
_symmetry_cell_setting 'triclinic'
loop_
_space_group_symop_operation_xyz
x,y,z
-x,-y,-z
loop_
_atom_site_type_symbol
_atom_site_label
_atom_site_fract_x
_atom_site_fract_y
_atom_site_fract_z
Si Si1 0.809282 0.895260 0.415914
Si Si2 0.541681 0.906737 0.086093
Si Si3 0.817296 0.195753 0.490464
Si Si4 0.456944 0.686848 0.917528
Si Si5 0.500000 0.000000 0.500000
Si Si6 0.398050 0.526531 0.780551
Si Si7 0.881509 0.330180 0.918516
Si Si8 0.799910 0.747723 0.283537
O O1 0.748073 0.929320 0.145547
O O2 0.563839 0.792543 0.652831
O O3 0.845038 0.831208 0.376073
O O4 0.000000 0.000000 0.500000
O O5 0.461445 0.914610 0.336500
O O6 0.303874 0.776817 0.160522
O O7 0.583142 0.970484 0.777675
O O8 0.782948 0.127008 0.338277
O O9 0.887631 0.292829 0.242649
O O10 0.978858 0.220963 0.695598
O O11 0.367643 0.587681 0.865102
O O12 0.241813 0.638757 0.105372
O O13 0.686182 0.741767 0.027661
O O14 0.593393 0.620264 0.497073
O O15 0.500000 0.500000 0.000000
O O16 0.144209 0.421254 0.753598
#
# Coordination Sequence:
#
# PCOD9052173 Si02
#       8
#     2   2   2   2   1   2   2   2
#     4  11  26  45  72 102 144 185 234 289 351 419
#     4  11  24  45  71 102 137 186 235 283 349 417
#     4  11  24  42  69  98 142 181 231 287 345 414
#     4  11  25  45  69 103 139 183 239 283 352 419
#     4  10  26  42  68 102 138 180 240 278 348 412
#     4  11  25  45  70 103 139 182 236 294 353 410
#     4  11  23  46  69  98 141 183 231 289 347 421
#     4  11  26  45  69 105 139 182 237 291 348 417
#
# _framework density 26.448839
#
# number of rings (size 3 to 8) (size 9 to 14) (size 15 to 20)
#    0.000    1.067    4.000    0.800    5.600    3.733 
#    0.000    0.000    0.000    0.000    0.000    0.000 
#    0.000    0.000    0.000    0.000    0.000    0.000 
#
# Total GULP energy -83771.164073 kJ/mol
# GULP energy per Si atom -5584.744272 kJ/mol
# Density = 2.638864 g / cm^3
# Si number density = 26.448839 Si / 1000 Ang^3
#
#
#
# Elastic Constant Matrix: (Units=GPa)
#
#
# Indices 1 2 3 4 5 6 
#
# 1 118.8105 40.1103 26.7370 7.3444 20.4685 21.1371
# 2 40.1103 147.0758 18.6691 1.5927 9.1965 5.6989
# 3 26.7370 18.6691 132.1393 4.4637 32.2190 4.1991
# 4 7.3444 1.5927 4.4637 39.7572 5.2869 5.8678
# 5 20.4685 9.1965 32.2190 5.2869 42.7474 5.8243
# 6 21.1371 5.6989 4.1991 5.8678 5.8243 35.2898
#
#
#
# Elastic Compliance Matrix: (Units=1/GPa)
#
#
# Indices 1 2 3 4 5 6 
#
# 1 0.011021 -0.002471 -0.000894 -0.000598 -0.003254 -0.005459
# 2 -0.002471 0.007535 -0.000561 0.000182 -0.000080 0.000313
# 3 -0.000894 -0.000561 0.009428 -0.000079 -0.006631 0.000612
# 4 -0.000598 0.000182 -0.000079 0.026120 -0.002432 -0.003603
# 5 -0.003254 -0.000080 -0.006631 -0.002432 0.030524 -0.001882
# 6 -0.005459 0.000313 0.000612 -0.003603 -0.001882 0.032393
#
#
# Mechanical properties :
#
#
# Convention : Reuss Voigt Hill
#
# Bulk Modulus (GPa) = 49.67071 63.22871 56.44971
# Shear Modulus (GPa) = 37.99892 44.39281 41.19586
#
# Velocity S-wave (km/s) = 3.79449 4.10132 3.95089
# Velocity P-wave (km/s) = 6.16589 6.81071 6.49630
#
# Compressibility (1/GPa) = 0.02013259
#
# Stress axis : x y z
#
# Youngs Moduli (GPa) = 90.73775 132.71100 106.06836
#
# Poissons Ratio (x) = 0.32788 0.09480
# Poissons Ratio (y) = 0.22418 0.05953
# Poissons Ratio (z) = 0.08110 0.07448
#
# Static dielectric constant tensor:
#      x y z
#    x 2.343360 -0.148260 -0.120890 
#    y -0.148260 2.263950 0.237390 
#    z -0.120890 0.237390 2.391710 
# 
# From -- ./inp_files/52553.got.cif
#   From: 2010.05.17/outbox.cif.g08.bks.cpg/sg2_27_cif.got.tgz:52553.got - 2010.06.03 11:33:40.
