data_PCOD9052472
_publ_section_title
;
Structure prediction by ZEFSAII (Michael W. Deem and Ramdas Pophale) SiO2 
 PCOD9052472
Probable space group: P -1
;
_chemical_formula_sum "Si O2"
_cell_formula_units_Z 13
_cell_length_a 5.382164
_cell_length_b 17.154378
_cell_length_c 7.386367
_cell_angle_alpha 70.469060
_cell_angle_beta 62.523793
_cell_angle_gamma 102.885795
_cell_volume 508.891033
_symmetry_space_group_name_H-M "P -1"
_symmetry_group_IT_number 2
_symmetry_cell_setting 'triclinic'
loop_
_space_group_symop_operation_xyz
x,y,z
-x,-y,-z
loop_
_atom_site_type_symbol
_atom_site_label
_atom_site_fract_x
_atom_site_fract_y
_atom_site_fract_z
Si Si1 0.333973 0.032679 0.184588
Si Si2 0.296966 0.134689 0.426857
Si Si3 0.855100 0.701930 0.099841
Si Si4 0.170649 0.583934 0.242278
Si Si5 0.059487 0.280866 0.341365
Si Si6 0.626327 0.832379 0.222979
Si Si7 0.500000 0.500000 0.000000
O O1 0.486586 0.101847 0.249469
O O2 0.238192 0.097879 0.042392
O O3 0.066866 0.939060 0.429324
O O4 0.500000 0.000000 0.000000
O O5 0.291188 0.233008 0.326988
O O6 0.329106 0.117733 0.639476
O O7 0.507430 0.643467 0.176846
O O8 0.809893 0.770794 0.198830
O O9 0.978935 0.638632 0.210864
O O10 0.048784 0.739127 0.819090
O O11 0.000000 0.500000 0.500000
O O12 0.241781 0.539039 0.076722
O O13 0.749012 0.232289 0.606986
O O14 0.230636 0.391200 0.222609
#
# Coordination Sequence:
#
# PCOD9052472 Si02
#       7
#     2   2   2   2   2   2   1
#     4  11  24  49  74 110 150 195 255 321 389 469
#     4  11  26  46  74 108 151 193 257 313 392 463
#     4  11  27  44  73 109 153 197 259 320 387 462
#     4  11  25  46  72 106 147 201 263 320 385 455
#     4  11  25  47  70 110 148 204 255 317 385 462
#     4  12  26  44  78 107 152 205 252 321 392 463
#     4  10  26  46  72 102 152 194 256 312 378 446
#
# _framework density 25.545746000000001
#
# number of rings (size 3 to 8) (size 9 to 14) (size 15 to 20)
#    0.000    0.923    3.077    1.846    8.615    4.308 
#    0.000    0.000    0.000    0.000    0.000    0.000 
#    0.000    0.000    0.000    0.000    0.000    0.000 
#
# Total GULP energy -72423.801392 kJ/mol
# GULP energy per Si atom -5571.061646 kJ/mol
# Density = 2.548760 g / cm^3
# Si number density = 25.545746 Si / 1000 Ang^3
#
#
#
# Elastic Constant Matrix: (Units=GPa)
#
#
# Indices 1 2 3 4 5 6 
#
# 1 75.8510 18.8916 28.4343 0.5335 8.3561 2.4287
# 2 18.8916 134.6879 41.1348 1.1564 -8.5966 -6.5284
# 3 28.4343 41.1348 97.1528 1.8491 9.5093 -2.1850
# 4 0.5335 1.1564 1.8491 46.3332 2.6165 -4.3096
# 5 8.3561 -8.5966 9.5093 2.6165 37.2482 9.5314
# 6 2.4287 -6.5284 -2.1850 -4.3096 9.5314 27.8022
#
#
#
# Elastic Compliance Matrix: (Units=1/GPa)
#
#
# Indices 1 2 3 4 5 6 
#
# 1 0.015182 -0.001203 -0.003717 0.000046 -0.002470 -0.001047
# 2 -0.001203 0.008970 -0.003727 -0.000158 0.003089 0.000835
# 3 -0.003717 -0.003727 0.013383 -0.000006 -0.003914 0.001842
# 4 0.000046 -0.000158 -0.000006 0.022141 -0.002705 0.004318
# 5 -0.002470 0.003089 -0.003914 -0.002705 0.032061 -0.010777
# 6 -0.001047 0.000835 0.001842 0.004318 -0.010777 0.040765
#
#
# Mechanical properties :
#
#
# Convention : Reuss Voigt Hill
#
# Bulk Modulus (GPa) = 49.39964 53.84591 51.62277
# Shear Modulus (GPa) = 31.94015 36.89211 34.41613
#
# Velocity S-wave (km/s) = 3.53981 3.80433 3.67445
# Velocity P-wave (km/s) = 6.00722 6.35777 6.18498
#
# Compressibility (1/GPa) = 0.02024306
#
# Stress axis : x y z
#
# Youngs Moduli (GPa) = 65.86765 111.47731 74.71993
#
# Poissons Ratio (x) = 0.13412 0.27771
# Poissons Ratio (y) = 0.07925 0.27845
# Poissons Ratio (z) = 0.24481 0.41542
#
# Static dielectric constant tensor:
#      x y z
#    x 2.083980 0.096940 -0.078200 
#    y 0.096940 2.095560 0.018630 
#    z -0.078200 0.018630 2.088180 
# 
# From -- ./inp_files/136564.got.cif
#   From: 2010.05.17/outbox.cif.g08.bks.cpg/sg2_69_cif.got.tgz:136564.got - 2010.06.03 11:33:40.
