data_PCOD9052259
_publ_section_title
;
Structure prediction by ZEFSAII (Michael W. Deem and Ramdas Pophale) SiO2 
 PCOD9052259
Probable space group: P -1
;
_chemical_formula_sum "Si O2"
_cell_formula_units_Z 15
_cell_length_a 10.810023
_cell_length_b 9.616650
_cell_length_c 9.638390
_cell_angle_alpha 44.352353
_cell_angle_beta 96.742989
_cell_angle_gamma 91.050754
_cell_volume 692.486941
_symmetry_space_group_name_H-M "P -1"
_symmetry_group_IT_number 2
_symmetry_cell_setting 'triclinic'
loop_
_space_group_symop_operation_xyz
x,y,z
-x,-y,-z
loop_
_atom_site_type_symbol
_atom_site_label
_atom_site_fract_x
_atom_site_fract_y
_atom_site_fract_z
Si Si1 0.612929 0.608275 0.999591
Si Si2 0.500000 0.500000 0.500000
Si Si3 0.745183 0.873780 0.625849
Si Si4 0.982280 0.294926 0.220336
Si Si5 0.975345 0.308150 0.541298
Si Si6 0.696404 0.285934 0.467652
Si Si7 0.805167 0.011300 0.254644
Si Si8 0.445373 0.827280 0.031039
O O1 0.693639 0.689568 0.828970
O O2 0.500000 0.500000 0.000000
O O3 0.689126 0.462653 0.223852
O O4 0.539942 0.791404 0.940476
O O5 0.593009 0.345586 0.525782
O O6 0.457156 0.626637 0.264312
O O7 0.894365 0.855961 0.684684
O O8 0.682271 0.079969 0.532523
O O9 0.737851 0.878882 0.454515
O O10 0.979990 0.337792 0.353567
O O11 0.867811 0.183136 0.226089
O O12 0.000000 0.500000 0.000000
O O13 0.832213 0.263969 0.575211
O O14 0.000000 0.500000 0.500000
O O15 0.085294 0.129065 0.706788
O O16 0.696341 0.109403 0.074875
O O17 0.500000 0.000000 0.000000
#
# Coordination Sequence:
#
# PCOD9052259 Si02
#       8
#     2   1   2   2   2   2   2   2
#     4  11  26  42  70 103 138 191 246 296 360 438
#     4  10  26  44  68  94 146 188 232 298 368 426
#     4  11  22  44  75 102 146 183 241 309 360 426
#     4  11  23  45  74 109 147 193 246 306 369 445
#     4  11  24  44  71 106 149 191 238 312 372 441
#     4  11  22  46  69 100 144 188 245 294 369 436
#     4  11  24  46  76 108 143 193 251 303 376 450
#     4  11  26  47  67 100 147 185 242 299 362 437
#
# _framework density 21.661057
#
# number of rings (size 3 to 8) (size 9 to 14) (size 15 to 20)
#    0.000    1.067    2.667    3.200    5.600    5.333 
#    4.800    1.333    0.000    0.000    0.000    0.000 
#    0.000    0.000    0.000    0.000    0.000    0.000 
#
# Total GULP energy -83608.849465 kJ/mol
# GULP energy per Si atom -5573.923298 kJ/mol
# Density = 2.161176 g / cm^3
# Si number density = 21.661057 Si / 1000 Ang^3
#
#
#
# Elastic Constant Matrix: (Units=GPa)
#
#
# Indices 1 2 3 4 5 6 
#
# 1 94.1276 39.8554 43.8793 4.6762 19.0345 -11.4876
# 2 39.8554 117.9853 7.2047 -2.0173 6.7335 -16.5872
# 3 43.8793 7.2047 88.1678 -5.8245 16.0554 1.4204
# 4 4.6762 -2.0173 -5.8245 20.9181 -3.5286 7.4189
# 5 19.0345 6.7335 16.0554 -3.5286 41.4844 -3.9580
# 6 -11.4876 -16.5872 1.4204 7.4189 -3.9580 42.9137
#
#
#
# Elastic Compliance Matrix: (Units=1/GPa)
#
#
# Indices 1 2 3 4 5 6 
#
# 1 0.018907 -0.005090 -0.008827 -0.009620 -0.004812 0.004605
# 2 -0.005090 0.010429 0.001700 0.001854 0.000364 0.002325
# 3 -0.008827 0.001700 0.016596 0.007711 -0.002356 -0.003806
# 4 -0.009620 0.001854 0.007711 0.057204 0.004893 -0.011552
# 5 -0.004812 0.000364 -0.002356 0.004893 0.027643 0.000635
# 6 0.004605 0.002325 -0.003806 -0.011552 0.000635 0.027616
#
#
# Mechanical properties :
#
#
# Convention : Reuss Voigt Hill
#
# Bulk Modulus (GPa) = 46.51895 53.57328 50.04611
# Shear Modulus (GPa) = 26.31633 35.01932 30.66783
#
# Velocity S-wave (km/s) = 3.48934 4.02518 3.76680
# Velocity P-wave (km/s) = 6.14463 6.81094 6.48635
#
# Compressibility (1/GPa) = 0.02149662
#
# Stress axis : x y z
#
# Youngs Moduli (GPa) = 52.89006 95.88532 60.25566
#
# Poissons Ratio (x) = 0.48808 0.53189
# Poissons Ratio (y) = 0.26922 -0.10242
# Poissons Ratio (z) = 0.46687 -0.16297
#
# Static dielectric constant tensor:
#      x y z
#    x 1.798350 -0.007080 0.002540 
#    y -0.007080 1.763470 -0.013790 
#    z 0.002540 -0.013790 1.785940 
# 
# From -- ./inp_files/226616.got.cif
#   From: 2010.05.17/outbox.cif.g08.bks.cpg/sg2_114_cif.got.tgz:226616.got - 2010.06.03 11:33:40.
