data_PCOD9052808
_publ_section_title
;
Structure prediction by ZEFSAII (Michael W. Deem and Ramdas Pophale) SiO2 
 PCOD9052808
Probable space group: P -1
;
_chemical_formula_sum "Si O2"
_cell_formula_units_Z 11
_cell_length_a 8.855896
_cell_length_b 5.353573
_cell_length_c 12.716493
_cell_angle_alpha 84.419498
_cell_angle_beta 52.728624
_cell_angle_gamma 105.197575
_cell_volume 436.510187
_symmetry_space_group_name_H-M "P -1"
_symmetry_group_IT_number 2
_symmetry_cell_setting 'triclinic'
loop_
_space_group_symop_operation_xyz
x,y,z
-x,-y,-z
loop_
_atom_site_type_symbol
_atom_site_label
_atom_site_fract_x
_atom_site_fract_y
_atom_site_fract_z
Si Si1 0.924904 0.612607 0.738293
Si Si2 0.956914 0.958835 0.895746
Si Si3 0.487972 0.222711 0.859164
Si Si4 0.522117 0.772889 0.708211
Si Si5 0.713923 0.497389 0.369899
Si Si6 0.000000 0.000000 0.500000
O O1 0.951137 0.693560 0.846078
O O2 0.705648 0.363786 0.821254
O O3 0.126399 0.561194 0.618324
O O4 0.922231 0.853643 0.654996
O O5 0.720901 0.927402 0.980656
O O6 0.135607 0.215983 0.755838
O O7 0.000000 0.000000 0.000000
O O8 0.460044 0.476792 0.801853
O O9 0.506311 0.003547 0.780172
O O10 0.371077 0.731759 0.675402
O O11 0.758360 0.870066 0.567780
O O12 0.500000 0.500000 0.500000
#
# Coordination Sequence:
#
# PCOD9052808 Si02
#       6
#     2   2   2   2   2   1
#     4  11  28  49  81 117 161 215 273 337 405 490
#     4  12  26  50  80 119 163 214 265 339 410 487
#     4  11  27  48  81 115 161 210 273 332 409 483
#     4  11  26  48  78 117 159 216 267 332 404 488
#     4  12  29  47  81 118 160 217 273 336 409 486
#     4  10  26  50  78 110 166 210 268 328 408 474
#
# _framework density 25.199869
#
# number of rings (size 3 to 8) (size 9 to 14) (size 15 to 20)
#    0.000    0.727    1.818    2.727   12.727    5.091 
#    0.000    0.000    0.000    0.000    0.000    0.000 
#    0.000    0.000    0.000    0.000    0.000    0.000 
#
# Total GULP energy -61339.336434 kJ/mol
# GULP energy per Si atom -5576.303312 kJ/mol
# Density = 2.514251 g / cm^3
# Si number density = 25.199869 Si / 1000 Ang^3
#
#
#
# Elastic Constant Matrix: (Units=GPa)
#
#
# Indices 1 2 3 4 5 6 
#
# 1 136.7991 36.0007 51.7246 0.2676 -36.0763 37.0933
# 2 36.0007 131.3744 61.5835 17.0711 -13.3009 26.0226
# 3 51.7246 61.5835 135.9305 -19.6972 -32.6606 25.8307
# 4 0.2676 17.0711 -19.6972 44.2395 6.8511 -1.4878
# 5 -36.0763 -13.3009 -32.6606 6.8511 53.7285 -31.8964
# 6 37.0933 26.0226 25.8307 -1.4878 -31.8964 33.0003
#
#
#
# Elastic Compliance Matrix: (Units=1/GPa)
#
#
# Indices 1 2 3 4 5 6 
#
# 1 0.011169 0.000762 -0.002817 -0.001891 -0.000785 -0.011795
# 2 0.000762 0.013464 -0.006635 -0.007468 -0.007425 -0.013793
# 3 -0.002817 -0.006635 0.013185 0.007657 0.006026 0.004248
# 4 -0.001891 -0.007468 0.007657 0.029074 -0.000453 0.002894
# 5 -0.000785 -0.007425 0.006026 -0.000453 0.049637 0.049976
# 6 -0.011795 -0.013793 0.004248 0.002894 0.049976 0.099547
#
#
# Mechanical properties :
#
#
# Convention : Reuss Voigt Hill
#
# Bulk Modulus (GPa) = 48.92538 78.08018 63.50278
# Shear Modulus (GPa) = 20.81007 43.18001 31.99504
#
# Velocity S-wave (km/s) = 2.87679 4.14394 3.56708
# Velocity P-wave (km/s) = 5.52193 7.34492 6.49768
#
# Compressibility (1/GPa) = 0.02043929
#
# Stress axis : x y z
#
# Youngs Moduli (GPa) = 89.53113 74.27115 75.84435
#
# Poissons Ratio (x) = -0.05661 0.21363
# Poissons Ratio (y) = -0.06824 0.50323
# Poissons Ratio (z) = 0.25218 0.49279
#
# Static dielectric constant tensor:
#      x y z
#    x 2.006740 0.012670 0.041500 
#    y 0.012670 1.943990 0.019000 
#    z 0.041500 0.019000 1.997560 
# 
# From -- ./inp_files/16993.got.cif
#   From: 2010.05.17/outbox.cif.g08.bks.cpg/sg2_9_cif.got.tgz:16993.got - 2010.06.03 11:33:40.
