data_PCOD9052536
_publ_section_title
;
Structure prediction by ZEFSAII (Michael W. Deem and Ramdas Pophale) SiO2 
 PCOD9052536
Probable space group: P -1
;
_chemical_formula_sum "Si O2"
_cell_formula_units_Z 13
_cell_length_a 11.231898
_cell_length_b 6.950468
_cell_length_c 8.760956
_cell_angle_alpha 63.276735
_cell_angle_beta 61.117430
_cell_angle_gamma 85.828148
_cell_volume 525.697563
_symmetry_space_group_name_H-M "P -1"
_symmetry_group_IT_number 2
_symmetry_cell_setting 'triclinic'
loop_
_space_group_symop_operation_xyz
x,y,z
-x,-y,-z
loop_
_atom_site_type_symbol
_atom_site_label
_atom_site_fract_x
_atom_site_fract_y
_atom_site_fract_z
Si Si1 0.088901 0.015263 0.781942
Si Si2 0.853323 0.490709 0.507634
Si Si3 0.351068 0.567195 0.077697
Si Si4 0.500000 0.500000 0.500000
Si Si5 0.784487 0.368923 0.265643
Si Si6 0.157980 0.227824 0.111132
Si Si7 0.591073 0.959029 0.104834
O O1 0.159731 0.264835 0.625514
O O2 0.191750 0.844789 0.763632
O O3 0.982499 0.945522 0.732591
O O4 0.000000 0.000000 0.000000
O O5 0.719431 0.410791 0.722970
O O6 0.839195 0.354011 0.409609
O O7 0.000000 0.500000 0.500000
O O8 0.236882 0.377530 0.141530
O O9 0.500000 0.500000 0.000000
O O10 0.380159 0.811516 0.905494
O O11 0.632009 0.428565 0.348548
O O12 0.528516 0.744775 0.314927
O O13 0.870596 0.586592 0.055759
O O14 0.264842 0.088549 0.028603
O O15 0.500000 0.000000 0.000000
#
# Coordination Sequence:
#
# PCOD9052536 Si02
#       7
#     2   2   2   1   2   2   2
#     4  12  27  48  79 111 155 212 269 337 396 478
#     4  12  28  48  76 117 157 211 272 325 413 485
#     4  12  27  45  77 117 160 211 260 334 408 478
#     4  10  26  46  78 118 150 216 264 324 410 488
#     4  11  26  47  75 112 160 200 273 331 402 488
#     4  11  25  46  75 112 153 216 259 328 408 471
#     4  11  23  47  74 107 166 199 264 328 398 481
#
# _framework density 24.729049
#
# number of rings (size 3 to 8) (size 9 to 14) (size 15 to 20)
#    0.000    0.615    3.077    3.231    8.615    3.692 
#    0.000    3.846    0.000    0.000    0.000    0.000 
#    0.000    0.000    0.000    0.000    0.000    0.000 
#
# Total GULP energy -72480.511425 kJ/mol
# GULP energy per Si atom -5575.423956 kJ/mol
# Density = 2.467276 g / cm^3
# Si number density = 24.729049 Si / 1000 Ang^3
#
#
#
# Elastic Constant Matrix: (Units=GPa)
#
#
# Indices 1 2 3 4 5 6 
#
# 1 102.7886 49.3817 26.4447 13.7489 1.4184 -10.6957
# 2 49.3817 197.1452 51.2473 -3.3381 -1.4580 -31.3863
# 3 26.4447 51.2473 90.1739 -11.4483 -0.8709 -10.7676
# 4 13.7489 -3.3381 -11.4483 48.0291 0.6733 -1.0907
# 5 1.4184 -1.4580 -0.8709 0.6733 30.0847 6.3329
# 6 -10.6957 -31.3863 -10.7676 -1.0907 6.3329 52.1254
#
#
#
# Elastic Compliance Matrix: (Units=1/GPa)
#
#
# Indices 1 2 3 4 5 6 
#
# 1 0.012194 -0.002336 -0.002736 -0.004282 -0.000784 0.000536
# 2 -0.002336 0.006890 -0.002787 0.000559 -0.000311 0.003143
# 3 -0.002736 -0.002787 0.014067 0.003957 0.000159 0.000730
# 4 -0.004282 0.000559 0.003957 0.023051 -0.000341 0.000799
# 5 -0.000784 -0.000311 0.000159 -0.000341 0.034217 -0.004479
# 6 0.000536 0.003143 0.000730 0.000799 -0.004479 0.021899
#
#
# Mechanical properties :
#
#
# Convention : Reuss Voigt Hill
#
# Bulk Modulus (GPa) = 57.36305 71.58391 64.47348
# Shear Modulus (GPa) = 37.35631 43.58343 40.46987
#
# Velocity S-wave (km/s) = 3.89089 4.20270 4.04980
# Velocity P-wave (km/s) = 6.59032 7.24985 6.92794
#
# Compressibility (1/GPa) = 0.01743282
#
# Stress axis : x y z
#
# Youngs Moduli (GPa) = 82.00564 145.14580 71.08897
#
# Poissons Ratio (x) = 0.33911 0.19447
# Poissons Ratio (y) = 0.19159 0.19813
# Poissons Ratio (z) = 0.22433 0.40453
#
# Static dielectric constant tensor:
#      x y z
#    x 2.314790 0.091200 0.248770 
#    y 0.091200 1.999910 -0.003610 
#    z 0.248770 -0.003610 2.135400 
# 
# From -- ./inp_files/229489.got.cif
#   From: 2010.05.17/outbox.cif.g08.bks.cpg/sg2_115_cif.got.tgz:229489.got - 2010.06.03 11:33:40.
