data_PCOD9052576
_publ_section_title
;
Structure prediction by ZEFSAII (Michael W. Deem and Ramdas Pophale) SiO2 
 PCOD9052576
Probable space group: P -1
;
_chemical_formula_sum "Si O2"
_cell_formula_units_Z 14
_cell_length_a 6.814739
_cell_length_b 10.781596
_cell_length_c 13.143959
_cell_angle_alpha 111.626082
_cell_angle_beta 139.562521
_cell_angle_gamma 74.422513
_cell_volume 582.186477
_symmetry_space_group_name_H-M "P -1"
_symmetry_group_IT_number 2
_symmetry_cell_setting 'triclinic'
loop_
_space_group_symop_operation_xyz
x,y,z
-x,-y,-z
loop_
_atom_site_type_symbol
_atom_site_label
_atom_site_fract_x
_atom_site_fract_y
_atom_site_fract_z
Si Si1 0.224746 0.380555 0.581182
Si Si2 0.633353 0.744426 0.958680
Si Si3 0.200158 0.477916 0.174161
Si Si4 0.965825 0.122231 0.286399
Si Si5 0.825018 0.905800 0.326043
Si Si6 0.166306 0.377961 0.790471
Si Si7 0.840329 0.059108 0.854633
O O1 0.554579 0.406346 0.672848
O O2 0.290774 0.398340 0.733209
O O3 0.000000 0.500000 0.500000
O O4 0.098782 0.238279 0.447797
O O5 0.617480 0.651205 0.823602
O O6 0.323945 0.821198 0.867981
O O7 0.658534 0.663003 0.049651
O O8 0.932977 0.832483 0.075427
O O9 0.996158 0.488221 0.196491
O O10 0.000000 0.500000 0.000000
O O11 0.827215 0.996747 0.255229
O O12 0.197916 0.060673 0.278649
O O13 0.994162 0.767227 0.335341
O O14 0.481721 0.882384 0.222572
O O15 0.000000 0.000000 0.500000
O O16 0.000000 0.000000 0.000000
#
# Coordination Sequence:
#
# PCOD9052576 Si02
#       7
#     2   2   2   2   2   2   2
#     4  12  27  48  72 107 141 188 238 293 364 416
#     4  11  23  49  71 106 144 187 244 294 346 432
#     4  10  26  47  71 103 141 189 238 288 349 428
#     4  12  25  47  73 108 149 179 240 303 352 421
#     4  12  26  44  70 108 145 183 233 295 359 421
#     4  11  26  45  73  99 147 182 239 290 350 423
#     4  12  26  43  75 105 141 194 237 283 363 420
#
# _framework density 24.047277999999999
#
# number of rings (size 3 to 8) (size 9 to 14) (size 15 to 20)
#    0.000    0.571    5.714    1.286    6.000    4.571 
#    0.000    0.000    0.000    0.000    0.000    0.000 
#    0.000    0.000    0.000    0.000    0.000    0.000 
#
# Total GULP energy -78137.289351 kJ/mol
# GULP energy per Si atom -5581.234954 kJ/mol
# Density = 2.399254 g / cm^3
# Si number density = 24.047278 Si / 1000 Ang^3
#
#
#
# Elastic Constant Matrix: (Units=GPa)
#
#
# Indices 1 2 3 4 5 6 
#
# 1 104.3975 26.0315 39.6104 10.0351 -19.8480 -6.6347
# 2 26.0315 65.1363 10.2425 13.6589 -8.7488 -7.3583
# 3 39.6104 10.2425 84.4508 21.7941 -2.0907 2.0782
# 4 10.0351 13.6589 21.7941 45.5950 0.8386 -12.0861
# 5 -19.8480 -8.7488 -2.0907 0.8386 43.2995 14.9439
# 6 -6.6347 -7.3583 2.0782 -12.0861 14.9439 35.0789
#
#
#
# Elastic Compliance Matrix: (Units=1/GPa)
#
#
# Indices 1 2 3 4 5 6 
#
# 1 0.013805 -0.004064 -0.006155 0.001121 0.005067 0.000351
# 2 -0.004064 0.018146 0.001003 -0.004912 0.001762 0.000535
# 3 -0.006155 0.001003 0.016863 -0.008283 0.000017 -0.004814
# 4 0.001121 -0.004912 -0.008283 0.030592 -0.005857 0.012708
# 5 0.005067 0.001762 0.000017 -0.005857 0.030630 -0.013739
# 6 0.000351 0.000535 -0.004814 0.012708 -0.013739 0.039202
#
#
# Mechanical properties :
#
#
# Convention : Reuss Voigt Hill
#
# Bulk Modulus (GPa) = 32.91310 45.08373 38.99841
# Shear Modulus (GPa) = 28.12199 36.66804 32.39501
#
# Velocity S-wave (km/s) = 3.42343 3.90915 3.67432
# Velocity P-wave (km/s) = 5.41692 6.25810 5.85264
#
# Compressibility (1/GPa) = 0.03038304
#
# Stress axis : x y z
#
# Youngs Moduli (GPa) = 72.43599 55.10849 59.30278
#
# Poissons Ratio (x) = 0.22397 0.36499
# Poissons Ratio (y) = 0.29440 -0.05951
# Poissons Ratio (z) = 0.44582 -0.05530
#
# Static dielectric constant tensor:
#      x y z
#    x 1.924810 0.014520 -0.042880 
#    y 0.014520 1.981510 0.019730 
#    z -0.042880 0.019730 1.943640 
# 
# From -- ./inp_files/364914.got.cif
#   From: 2010.05.17/outbox.cif.g08.bks.cpg/sg2_183_cif.got.tgz:364914.got - 2010.06.03 11:33:40.
