data_PCOD9052950
_publ_section_title
;
Structure prediction by ZEFSAII (Michael W. Deem and Ramdas Pophale) SiO2 
 PCOD9052950
Probable space group: P -1
;
_chemical_formula_sum "Si O2"
_cell_formula_units_Z 16
_cell_length_a 11.596223
_cell_length_b 11.088495
_cell_length_c 9.412973
_cell_angle_alpha 45.594186
_cell_angle_beta 77.647856
_cell_angle_gamma 109.248759
_cell_volume 613.871720
_symmetry_space_group_name_H-M "P -1"
_symmetry_group_IT_number 2
_symmetry_cell_setting 'triclinic'
loop_
_space_group_symop_operation_xyz
x,y,z
-x,-y,-z
loop_
_atom_site_type_symbol
_atom_site_label
_atom_site_fract_x
_atom_site_fract_y
_atom_site_fract_z
Si Si1 0.364165 0.216723 0.120667
Si Si2 0.566968 0.325723 0.738292
Si Si3 0.010346 0.402081 0.261485
Si Si4 0.001420 0.243075 0.090819
Si Si5 0.730098 0.824594 0.242568
Si Si6 0.694715 0.293468 0.464351
Si Si7 0.546323 0.759144 0.610301
Si Si8 0.032270 0.910715 0.280511
O O1 0.364763 0.155107 0.333496
O O2 0.188942 0.065911 0.218049
O O3 0.494849 0.225488 0.995829
O O4 0.443926 0.482935 0.870075
O O5 0.707049 0.605500 0.468121
O O6 0.411440 0.264977 0.758031
O O7 0.619024 0.232981 0.690807
O O8 0.818895 0.262512 0.439685
O O9 0.037227 0.312958 0.189987
O O10 0.061056 0.348411 0.430481
O O11 0.083156 0.660926 0.008657
O O12 0.944683 0.999925 0.268053
O O13 0.175049 0.424738 0.814767
O O14 0.671171 0.868848 0.357610
O O15 0.894158 0.028457 0.946786
O O16 0.572769 0.208446 0.436991
#
# Coordination Sequence:
#
# PCOD9052950 Si02
#       8
#     2   2   2   2   2   2   2   2
#     4   9  16  24  42  72  92 119 156 168 213 283
#     4   8  12  23  41  61  89 119 143 180 215 260
#     4   9  19  28  46  71  88 113 153 188 229 258
#     4   9  17  31  45  68  93 112 145 196 229 254
#     4   8  13  22  40  64  88 117 147 174 220 261
#     4   9  14  29  45  61  92 117 142 183 224 250
#     4   9  15  26  43  65  97 126 142 175 219 270
#     4  11  16  29  48  70  91 116 146 189 220 258
#
# _framework density 26.064077000000001
#
# number of rings (size 3 to 8) (size 9 to 14) (size 15 to 20)
#    0.750    2.250    2.500    1.875    0.000    0.000 
#    0.000    6.250    0.000    0.000    0.000   10.500 
#    0.000    0.000    0.000    0.000    0.000    0.000 
#
# Total GULP energy -89346.951026 kJ/mol
# GULP energy per Si atom -5584.184439 kJ/mol
# Density = 2.600475 g / cm^3
# Si number density = 26.064077 Si / 1000 Ang^3
#
#
#
# Elastic Constant Matrix: (Units=GPa)
#
#
# Indices 1 2 3 4 5 6 
#
# 1 85.4504 9.7096 9.3734 3.2576 17.3562 -9.8580
# 2 9.7096 69.1235 26.0434 4.2331 10.0931 -14.1494
# 3 9.3734 26.0434 119.9485 28.3640 25.8137 -14.6177
# 4 3.2576 4.2331 28.3640 45.0863 -0.8200 0.1999
# 5 17.3562 10.0931 25.8137 -0.8200 29.0210 -0.5664
# 6 -9.8580 -14.1494 -14.6177 0.1999 -0.5664 38.6892
#
#
#
# Elastic Compliance Matrix: (Units=1/GPa)
#
#
# Indices 1 2 3 4 5 6 
#
# 1 0.014203 -0.000321 0.002374 -0.002699 -0.010488 0.004259
# 2 -0.000321 0.016956 -0.002146 -0.000309 -0.003702 0.005256
# 3 0.002374 -0.002146 0.014360 -0.009274 -0.013609 0.005094
# 4 -0.002699 -0.000309 -0.009274 0.028452 0.010691 -0.004295
# 5 -0.010488 -0.003702 -0.013609 0.010691 0.054260 -0.008429
# 6 0.004259 0.005256 0.005094 -0.004295 -0.008429 0.030678
#
#
# Mechanical properties :
#
#
# Convention : Reuss Voigt Hill
#
# Bulk Modulus (GPa) = 22.05898 40.53057 31.29478
# Shear Modulus (GPa) = 28.70170 37.85236 33.27703
#
# Velocity S-wave (km/s) = 3.32203 3.81501 3.57703
# Velocity P-wave (km/s) = 4.81625 5.91523 5.39380
#
# Compressibility (1/GPa) = 0.04533300
#
# Stress axis : x y z
#
# Youngs Moduli (GPa) = 70.40686 58.97651 69.63823
#
# Poissons Ratio (x) = 0.01894 -0.16533
# Poissons Ratio (y) = 0.02261 0.14944
# Poissons Ratio (z) = -0.16715 0.12656
#
# Static dielectric constant tensor:
#      x y z
#    x 2.062800 0.063840 0.020410 
#    y 0.063840 2.102460 -0.051290 
#    z 0.020410 -0.051290 2.090320 
# 
# From -- ./inp_files/284876.got.cif
#   From: 2010.05.17/outbox.cif.g08.bks.cpg/sg2_143_cif.got.tgz:284876.got - 2010.06.03 11:33:40.
