data_PCOD9052713
_publ_section_title
;
Structure prediction by ZEFSAII (Michael W. Deem and Ramdas Pophale) SiO2 
 PCOD9052713
Probable space group: P -1
;
_chemical_formula_sum "Si O2"
_cell_formula_units_Z 13
_cell_length_a 13.438027
_cell_length_b 10.515567
_cell_length_c 12.870827
_cell_angle_alpha 39.198464
_cell_angle_beta 31.301786
_cell_angle_gamma 31.051061
_cell_volume 481.093579
_symmetry_space_group_name_H-M "P -1"
_symmetry_group_IT_number 2
_symmetry_cell_setting 'triclinic'
loop_
_space_group_symop_operation_xyz
x,y,z
-x,-y,-z
loop_
_atom_site_type_symbol
_atom_site_label
_atom_site_fract_x
_atom_site_fract_y
_atom_site_fract_z
Si Si1 0.478260 0.095316 0.202150
Si Si2 0.639102 0.196221 0.785859
Si Si3 0.017757 0.605157 0.250258
Si Si4 0.500000 0.000000 0.500000
Si Si5 0.965450 0.297603 0.344578
Si Si6 0.391876 0.705679 0.871159
Si Si7 0.269309 0.425801 0.798253
O O1 0.598100 0.076459 0.218244
O O2 0.202366 0.326459 0.309838
O O3 0.559588 0.830009 0.257342
O O4 0.574762 0.180227 0.970390
O O5 0.851083 0.224901 0.577874
O O6 0.404550 0.390852 0.805391
O O7 0.768991 0.926038 0.784793
O O8 0.958617 0.528483 0.244331
O O9 0.785893 0.807165 0.392094
O O10 0.164651 0.719348 0.035482
O O11 0.499748 0.262551 0.348537
O O12 0.794332 0.357452 0.361162
O O13 0.500000 0.500000 0.000000
O O14 0.000000 0.500000 0.000000
#
# Coordination Sequence:
#
# PCOD9052713 Si02
#       7
#     2   2   2   1   2   2   2
#     4  11  23  47  71 106 148 192 244 312 381 440
#     4  11  24  44  70 110 151 191 248 314 367 456
#     4  11  25  48  75 105 151 195 250 317 373 449
#     4  12  26  50  74 112 144 198 262 308 374 460
#     4  11  24  44  73 108 147 196 252 302 378 454
#     4  10  26  48  77 110 150 198 253 316 384 443
#     4  12  22  41  70 106 144 196 243 301 377 449
#
# _framework density 27.021768000000002
#
# number of rings (size 3 to 8) (size 9 to 14) (size 15 to 20)
#    0.000    0.923    3.077    3.231    4.308    2.462 
#    2.769    0.000    0.000    0.000    0.000    0.000 
#    0.000    0.000    0.000    0.000    0.000    0.000 
#
# Total GULP energy -72388.163118 kJ/mol
# GULP energy per Si atom -5568.320240 kJ/mol
# Density = 2.696027 g / cm^3
# Si number density = 27.021768 Si / 1000 Ang^3
#
#
#
# Elastic Constant Matrix: (Units=GPa)
#
#
# Indices 1 2 3 4 5 6 
#
# 1 122.7411 22.2178 2.2474 11.0860 -3.6743 0.7782
# 2 22.2178 169.6644 23.1571 20.3810 4.2787 -4.7824
# 3 2.2474 23.1571 130.1630 8.6227 -27.0543 -5.0857
# 4 11.0860 20.3810 8.6227 31.8459 6.4883 0.8931
# 5 -3.6743 4.2787 -27.0543 6.4883 41.3021 -5.6229
# 6 0.7782 -4.7824 -5.0857 0.8931 -5.6229 43.1941
#
#
#
# Elastic Compliance Matrix: (Units=1/GPa)
#
#
# Indices 1 2 3 4 5 6 
#
# 1 0.008613 -0.000893 0.000561 -0.002927 0.001699 0.000094
# 2 -0.000893 0.006614 -0.001086 -0.003471 -0.000851 0.000582
# 3 0.000561 -0.001086 0.009729 -0.003699 0.007396 0.002054
# 4 -0.002927 -0.003471 -0.003699 0.037464 -0.008571 -0.002657
# 5 0.001699 -0.000851 0.007396 -0.008571 0.031323 0.005001
# 6 0.000094 0.000582 0.002054 -0.002657 0.005001 0.024162
#
#
# Mechanical properties :
#
#
# Convention : Reuss Voigt Hill
#
# Bulk Modulus (GPa) = 45.20716 57.53478 51.37097
# Shear Modulus (GPa) = 39.02795 48.26484 43.64640
#
# Velocity S-wave (km/s) = 3.80454 4.23087 4.02335
# Velocity P-wave (km/s) = 6.00546 6.72348 6.37459
#
# Compressibility (1/GPa) = 0.02212039
#
# Stress axis : x y z
#
# Youngs Moduli (GPa) = 116.09992 151.19694 102.78934
#
# Poissons Ratio (x) = 0.13502 -0.05765
# Poissons Ratio (y) = 0.10368 0.11158
# Poissons Ratio (z) = -0.06511 0.16413
#
# Static dielectric constant tensor:
#      x y z
#    x 2.043130 0.037380 -0.168270 
#    y 0.037380 2.263110 -0.017580 
#    z -0.168270 -0.017580 1.815380 
# 
# From -- ./inp_files/530940.got.cif
#   From: 2010.05.17/outbox.cif.g08.bks.cpg/sg2_266_cif.got.tgz:530940.got - 2010.06.03 11:33:40.
