data_PCOD9052915
_publ_section_title
;
Structure prediction by ZEFSAII (Michael W. Deem and Ramdas Pophale) SiO2 
 PCOD9052915
Probable space group: P -1
;
_chemical_formula_sum "Si O2"
_cell_formula_units_Z 15
_cell_length_a 17.784435
_cell_length_b 9.303095
_cell_length_c 8.819516
_cell_angle_alpha 101.667506
_cell_angle_beta 117.286917
_cell_angle_gamma 130.882291
_cell_volume 651.242990
_symmetry_space_group_name_H-M "P -1"
_symmetry_group_IT_number 2
_symmetry_cell_setting 'triclinic'
loop_
_space_group_symop_operation_xyz
x,y,z
-x,-y,-z
loop_
_atom_site_type_symbol
_atom_site_label
_atom_site_fract_x
_atom_site_fract_y
_atom_site_fract_z
Si Si1 0.604060 0.073701 0.741373
Si Si2 0.787320 0.792843 0.492691
Si Si3 0.379253 0.460207 0.402905
Si Si4 0.435715 0.775480 0.997678
Si Si5 0.000000 0.000000 0.500000
Si Si6 0.729013 0.990424 0.313249
Si Si7 0.943054 0.403825 0.101386
Si Si8 0.829842 0.977544 0.119755
O O1 0.633855 0.244182 0.927624
O O2 0.500000 0.000000 0.500000
O O3 0.484515 0.759674 0.606303
O O4 0.777370 0.253142 0.913205
O O5 0.754034 0.748464 0.629481
O O6 0.696477 0.799133 0.342717
O O7 0.702982 0.528515 0.274536
O O8 0.966704 0.046961 0.639268
O O9 0.500000 0.500000 0.500000
O O10 0.284673 0.316512 0.125377
O O11 0.590828 0.903555 0.201972
O O12 0.500000 0.000000 0.000000
O O13 0.948089 0.067752 0.363362
O O14 0.730841 0.943558 0.129663
O O15 0.908412 0.315030 0.597365
O O16 0.903173 0.185872 0.095286
O O17 0.000000 0.500000 0.000000
#
# Coordination Sequence:
#
# PCOD9052915 Si02
#       8
#     2   2   2   2   1   2   2   2
#     4  12  29  44  75 114 149 196 253 323 380 455
#     4  11  26  47  74 108 152 196 262 306 397 450
#     4  12  25  49  76 107 149 202 256 312 384 461
#     4  12  25  46  72 107 148 192 255 313 376 447
#     4  10  28  46  72 116 146 204 244 330 372 458
#     4  11  26  46  79 105 148 207 248 314 383 467
#     4  12  26  49  75 112 155 203 254 319 393 461
#     4  11  25  47  79 107 155 198 261 308 387 465
#
# _framework density 23.032879000000001
#
# number of rings (size 3 to 8) (size 9 to 14) (size 15 to 20)
#    0.000    0.533    2.667    4.000   11.200    1.600 
#    0.000    0.000    0.000    0.000    0.000    0.000 
#    0.000    0.000    0.000    0.000    0.000    0.000 
#
# Total GULP energy -83617.162780 kJ/mol
# GULP energy per Si atom -5574.477519 kJ/mol
# Density = 2.298046 g / cm^3
# Si number density = 23.032879 Si / 1000 Ang^3
#
#
#
# Elastic Constant Matrix: (Units=GPa)
#
#
# Indices 1 2 3 4 5 6 
#
# 1 155.7030 52.2963 36.3387 -14.1861 4.6527 6.0206
# 2 52.2963 76.2642 17.2137 -12.5590 1.8418 -5.4770
# 3 36.3387 17.2137 100.0923 2.3045 -9.3690 5.3284
# 4 -14.1861 -12.5590 2.3045 26.7947 -12.0016 -4.0462
# 5 4.6527 1.8418 -9.3690 -12.0016 45.6598 -4.8986
# 6 6.0206 -5.4770 5.3284 -4.0462 -4.8986 48.3187
#
#
#
# Elastic Compliance Matrix: (Units=1/GPa)
#
#
# Indices 1 2 3 4 5 6 
#
# 1 0.009062 -0.005448 -0.002401 0.001851 -0.000861 -0.001414
# 2 -0.005448 0.018603 -0.001417 0.007350 0.001848 0.003747
# 3 -0.002401 -0.001417 0.011398 -0.002214 0.001940 -0.001107
# 4 0.001851 0.007350 -0.002214 0.048447 0.012456 0.006166
# 5 -0.000861 0.001848 0.001940 0.012456 0.025992 0.003781
# 6 -0.001414 0.003747 -0.001107 0.006166 0.003781 0.022319
#
#
# Mechanical properties :
#
#
# Convention : Reuss Voigt Hill
#
# Bulk Modulus (GPa) = 48.70839 60.41743 54.56291
# Shear Modulus (GPa) = 31.01829 39.23537 35.12683
#
# Velocity S-wave (km/s) = 3.67372 4.13177 3.90946
# Velocity P-wave (km/s) = 6.26005 7.00356 6.64222
#
# Compressibility (1/GPa) = 0.02053034
#
# Stress axis : x y z
#
# Youngs Moduli (GPa) = 110.35481 53.75538 87.73750
#
# Poissons Ratio (x) = 0.29285 0.21065
# Poissons Ratio (y) = 0.60119 0.12434
# Poissons Ratio (z) = 0.26495 0.07618
#
# Static dielectric constant tensor:
#      x y z
#    x 2.943500 0.749700 0.066400 
#    y 0.749700 2.397630 0.046200 
#    z 0.066400 0.046200 1.842670 
# 
# From -- ./inp_files/329205.got.cif
#   From: 2010.05.17/outbox.cif.g08.bks.cpg/sg2_165_cif.got.tgz:329205.got - 2010.06.03 11:33:40.
