data_PCOD9052003
_publ_section_title
;
Structure prediction by ZEFSAII (Michael W. Deem and Ramdas Pophale) SiO2 
 PCOD9052003
Probable space group: P -1
;
_chemical_formula_sum "Si O2"
_cell_formula_units_Z 15
_cell_length_a 14.105746
_cell_length_b 11.342270
_cell_length_c 13.342825
_cell_angle_alpha 46.503500
_cell_angle_beta 21.573916
_cell_angle_gamma 49.859002
_cell_volume 569.327608
_symmetry_space_group_name_H-M "P -1"
_symmetry_group_IT_number 2
_symmetry_cell_setting 'triclinic'
loop_
_space_group_symop_operation_xyz
x,y,z
-x,-y,-z
loop_
_atom_site_type_symbol
_atom_site_label
_atom_site_fract_x
_atom_site_fract_y
_atom_site_fract_z
Si Si1 0.500000 0.500000 0.000000
Si Si2 0.472570 0.978288 0.692846
Si Si3 0.670422 0.214185 0.513706
Si Si4 0.781119 0.229501 0.767157
Si Si5 0.277378 0.581731 0.955776
Si Si6 0.174607 0.327131 0.031106
Si Si7 0.281261 0.118987 0.224185
Si Si8 0.764460 0.785372 0.364073
O O1 0.270876 0.599382 0.229440
O O2 0.669184 0.488667 0.945291
O O3 0.640227 0.119460 0.494578
O O4 0.290971 0.055412 0.741363
O O5 0.660321 0.836415 0.547445
O O6 0.295420 0.902869 0.996368
O O7 0.919258 0.320811 0.220496
O O8 0.685790 0.065504 0.665239
O O9 0.419154 0.319863 0.723477
O O10 0.060396 0.194699 0.468994
O O11 0.556285 0.204266 0.920535
O O12 0.553779 0.655868 0.611616
O O13 0.189061 0.461831 0.024676
O O14 0.049997 0.716191 0.114570
O O15 0.189829 0.158780 0.179362
#
# Coordination Sequence:
#
# PCOD9052003 Si02
#       8
#     1   2   2   2   2   2   2   2
#     4  12  26  44  70 106 150 178 232 282 358 432
#     4  10  25  49  74 105 138 181 245 295 347 405
#     4  11  24  41  70  99 138 188 234 288 339 415
#     4  11  24  39  69 103 138 176 223 289 347 415
#     4  12  28  46  72 105 144 189 230 285 362 417
#     4  12  24  44  65 101 147 186 231 279 348 429
#     4  11  23  40  63 100 138 180 225 280 348 407
#     4  11  27  49  75 102 139 185 238 298 346 413
#
# _framework density 26.346869000000002
#
# number of rings (size 3 to 8) (size 9 to 14) (size 15 to 20)
#    0.000    0.800    2.667    4.000    5.600    7.467 
#    0.000    4.000    0.000    0.000    0.000    0.000 
#    0.000    0.000    0.000    0.000    0.000    0.000 
#
# Total GULP energy -83901.143300 kJ/mol
# GULP energy per Si atom -5593.409553 kJ/mol
# Density = 2.628690 g / cm^3
# Si number density = 26.346869 Si / 1000 Ang^3
#
#
#
# Elastic Constant Matrix: (Units=GPa)
#
#
# Indices 1 2 3 4 5 6 
#
# 1 67.3766 25.6533 31.6720 2.9336 -25.3583 24.8663
# 2 25.6533 107.1989 60.9247 28.5934 -17.6653 32.3249
# 3 31.6720 60.9247 118.1636 25.5182 -18.2821 14.2376
# 4 2.9336 28.5934 25.5182 48.4989 5.1561 5.6065
# 5 -25.3583 -17.6653 -18.2821 5.1561 34.2487 -4.4980
# 6 24.8663 32.3249 14.2376 5.6065 -4.4980 44.3111
#
#
#
# Elastic Compliance Matrix: (Units=1/GPa)
#
#
# Indices 1 2 3 4 5 6 
#
# 1 0.028177 0.003968 -0.004435 -0.001967 0.018852 -0.015119
# 2 0.003968 0.019341 -0.006477 -0.007763 0.009002 -0.012359
# 3 -0.004435 -0.006477 0.013618 -0.003655 0.001650 0.003468
# 4 -0.001967 -0.007763 -0.003655 0.028053 -0.011207 0.003254
# 5 0.018852 0.009002 0.001650 -0.011207 0.048885 -0.011296
# 6 -0.015119 -0.012359 0.003468 0.003254 -0.011296 0.037395
#
#
# Mechanical properties :
#
#
# Convention : Reuss Voigt Hill
#
# Bulk Modulus (GPa) = 21.16526 58.80435 39.98480
# Shear Modulus (GPa) = 24.37762 37.04435 30.71099
#
# Velocity S-wave (km/s) = 3.04510 3.75377 3.41785
# Velocity P-wave (km/s) = 4.51822 6.41525 5.54841
#
# Compressibility (1/GPa) = 0.04724723
#
# Stress axis : x y z
#
# Youngs Moduli (GPa) = 35.48985 51.70405 73.43276
#
# Poissons Ratio (x) = -0.20517 0.32568
# Poissons Ratio (y) = -0.14083 0.47565
# Poissons Ratio (z) = 0.15740 0.33490
#
# Static dielectric constant tensor:
#      x y z
#    x 1.992140 -0.050340 0.002580 
#    y -0.050340 2.103480 -0.103370 
#    z 0.002580 -0.103370 2.030930 
# 
# From -- ./inp_files/531695.got.cif
#   From: 2010.05.17/outbox.cif.g08.bks.cpg/sg2_266_cif.got.tgz:531695.got - 2010.06.03 11:33:40.
