data_PCOD9052013
_publ_section_title
;
Structure prediction by ZEFSAII (Michael W. Deem and Ramdas Pophale) SiO2 
 PCOD9052013
Probable space group: P -1
;
_chemical_formula_sum "Si O2"
_cell_formula_units_Z 12
_cell_length_a 20.611821
_cell_length_b 5.120326
_cell_length_c 11.492822
_cell_angle_alpha 123.317996
_cell_angle_beta 29.848762
_cell_angle_gamma 111.759295
_cell_volume 487.903432
_symmetry_space_group_name_H-M "P -1"
_symmetry_group_IT_number 2
_symmetry_cell_setting 'triclinic'
loop_
_space_group_symop_operation_xyz
x,y,z
-x,-y,-z
loop_
_atom_site_type_symbol
_atom_site_label
_atom_site_fract_x
_atom_site_fract_y
_atom_site_fract_z
Si Si1 0.621593 0.753270 0.815875
Si Si2 0.100847 0.177011 0.720146
Si Si3 0.722389 0.078151 0.419905
Si Si4 0.350635 0.609103 0.628299
Si Si5 0.062628 0.799121 0.466765
Si Si6 0.350381 0.764097 0.928473
O O1 0.617094 0.383551 0.717315
O O2 0.760895 0.765605 0.535823
O O3 0.500000 0.000000 0.000000
O O4 0.633977 0.900784 0.959157
O O5 0.851238 0.038103 0.292564
O O6 0.038827 0.007282 0.672643
O O7 0.000000 0.500000 0.000000
O O8 0.726469 0.179337 0.304793
O O9 0.686396 0.734916 0.392648
O O10 0.325702 0.778776 0.832923
O O11 0.511748 0.510108 0.331659
O O12 0.000000 0.500000 0.500000
O O13 0.223105 0.688748 0.170596
O O14 0.000000 0.000000 0.500000
#
# Coordination Sequence:
#
# PCOD9052013 Si02
#       6
#     2   2   2   2   2   2
#     4  11  23  50  75 115 149 198 248 320 378 455
#     4  11  28  50  77 111 151 202 258 315 379 457
#     4  12  25  49  76 114 153 200 249 314 384 457
#     4  11  26  47  76 117 153 195 248 317 386 458
#     4  11  29  51  75 106 149 204 256 311 371 451
#     4  10  25  49  75 114 152 200 251 312 384 451
#
# _framework density 24.595027999999999
#
# number of rings (size 3 to 8) (size 9 to 14) (size 15 to 20)
#    0.000    1.000    3.333    0.000    7.000   10.000 
#    3.000    0.000    0.000    0.000    0.000    0.000 
#    0.000    0.000    0.000    0.000    0.000    0.000 
#
# Total GULP energy -67301.650972 kJ/mol
# GULP energy per Si atom -5608.470914 kJ/mol
# Density = 2.453905 g / cm^3
# Si number density = 24.595028 Si / 1000 Ang^3
#
#
#
# Elastic Constant Matrix: (Units=GPa)
#
#
# Indices 1 2 3 4 5 6 
#
# 1 249.2634 102.7506 73.7337 33.8753 42.1529 2.4315
# 2 102.7506 168.3925 54.6450 9.0136 10.4539 5.1355
# 3 73.7337 54.6450 156.9620 16.5689 19.9301 11.5941
# 4 33.8753 9.0136 16.5689 34.4636 11.5865 -1.9299
# 5 42.1529 10.4539 19.9301 11.5865 45.2083 15.1717
# 6 2.4315 5.1355 11.5941 -1.9299 15.1717 52.1206
#
#
#
# Elastic Compliance Matrix: (Units=1/GPa)
#
#
# Indices 1 2 3 4 5 6 
#
# 1 0.007141 -0.003500 -0.001234 -0.003790 -0.004857 0.001560
# 2 -0.003500 0.008432 -0.001618 0.001303 0.001973 -0.000834
# 3 -0.001234 -0.001618 0.007945 -0.001905 -0.001048 -0.001316
# 4 -0.003790 0.001303 -0.001905 0.035628 -0.006273 0.003617
# 5 -0.004857 0.001973 -0.001048 -0.006273 0.031309 -0.009081
# 6 0.001560 -0.000834 -0.001316 0.003617 -0.009081 0.022266
#
#
# Mechanical properties :
#
#
# Convention : Reuss Voigt Hill
#
# Bulk Modulus (GPa) = 92.47207 115.20849 103.84028
# Shear Modulus (GPa) = 38.75044 49.25774 44.00409
#
# Velocity S-wave (km/s) = 3.97361 4.48007 4.23442
# Velocity P-wave (km/s) = 7.66370 8.58517 8.13749
#
# Compressibility (1/GPa) = 0.01081408
#
# Stress axis : x y z
#
# Youngs Moduli (GPa) = 140.03919 118.59108 125.85785
#
# Poissons Ratio (x) = 0.41505 0.15537
# Poissons Ratio (y) = 0.49011 0.20364
# Poissons Ratio (z) = 0.17287 0.19188
#
# Static dielectric constant tensor:
#      x y z
#    x 1.946000 0.005170 -0.013010 
#    y 0.005170 1.967480 -0.059360 
#    z -0.013010 -0.059360 1.983350 
# 
# From -- ./inp_files/468211.got.cif
#   From: 2010.05.17/outbox.cif.g08.bks.cpg/sg2_235_cif.got.tgz:468211.got - 2010.06.03 11:33:40.
