data_PCOD9052751
_publ_section_title
;
Structure prediction by ZEFSAII (Michael W. Deem and Ramdas Pophale) SiO2 
 PCOD9052751
Probable space group: P -1
;
_chemical_formula_sum "Si O2"
_cell_formula_units_Z 12
_cell_length_a 6.948913
_cell_length_b 13.166494
_cell_length_c 8.980918
_cell_angle_alpha 141.924337
_cell_angle_beta 75.207090
_cell_angle_gamma 94.019521
_cell_volume 477.989937
_symmetry_space_group_name_H-M "P -1"
_symmetry_group_IT_number 2
_symmetry_cell_setting 'triclinic'
loop_
_space_group_symop_operation_xyz
x,y,z
-x,-y,-z
loop_
_atom_site_type_symbol
_atom_site_label
_atom_site_fract_x
_atom_site_fract_y
_atom_site_fract_z
Si Si1 0.460930 0.828167 0.383750
Si Si2 0.794567 0.244795 0.890578
Si Si3 0.474300 0.803245 0.885051
Si Si4 0.230702 0.938636 0.834596
Si Si5 0.115579 0.312788 0.705666
Si Si6 0.160706 0.455857 0.550672
O O1 0.393350 0.708758 0.135016
O O2 0.268843 0.886517 0.597783
O O3 0.654899 0.736381 0.334717
O O4 0.500000 0.000000 0.500000
O O5 0.992273 0.199124 0.695581
O O6 0.703453 0.122223 0.875824
O O7 0.824810 0.384708 0.165589
O O8 0.351767 0.791283 0.744979
O O9 0.627952 0.624799 0.665802
O O10 0.634495 0.923227 0.001298
O O11 0.000000 0.000000 0.000000
O O12 0.114789 0.326361 0.541143
O O13 0.000000 0.500000 0.000000
O O14 0.000000 0.500000 0.500000
#
# Coordination Sequence:
#
# PCOD9052751 Si02
#       6
#     2   2   2   2   2   2
#     4  12  26  49  77 110 152 194 252 315 381 457
#     4  11  27  44  77 106 151 196 249 308 384 439
#     4  11  25  48  67 112 148 192 260 299 372 455
#     4  11  27  46  76 105 150 198 248 312 377 445
#     4  10  26  49  71 112 150 193 252 310 378 451
#     4  11  26  48  75 106 153 202 252 310 375 452
#
# _framework density 25.105132000000001
#
# number of rings (size 3 to 8) (size 9 to 14) (size 15 to 20)
#    0.000    1.000    3.333    0.500   11.667    3.333 
#    0.000    0.000    0.000    0.000    0.000    0.000 
#    0.000    0.000    0.000    0.000    0.000    0.000 
#
# Total GULP energy -66995.147859 kJ/mol
# GULP energy per Si atom -5582.928988 kJ/mol
# Density = 2.504799 g / cm^3
# Si number density = 25.105132 Si / 1000 Ang^3
#
#
#
# Elastic Constant Matrix: (Units=GPa)
#
#
# Indices 1 2 3 4 5 6 
#
# 1 173.2233 65.1179 67.8494 -19.1059 -4.6473 -11.4282
# 2 65.1179 97.5451 40.0681 -32.8452 -2.1091 -0.6260
# 3 67.8494 40.0681 127.5701 -29.4011 2.7277 -10.7199
# 4 -19.1059 -32.8452 -29.4011 48.6474 1.3222 -5.4708
# 5 -4.6473 -2.1091 2.7277 1.3222 50.5872 -17.2104
# 6 -11.4282 -0.6260 -10.7199 -5.4708 -17.2104 57.5606
#
#
#
# Elastic Compliance Matrix: (Units=1/GPa)
#
#
# Indices 1 2 3 4 5 6 
#
# 1 0.009013 -0.005200 -0.003543 -0.002005 0.001286 0.001267
# 2 -0.005200 0.016993 -0.000471 0.009139 -0.000006 -0.000069
# 3 -0.003543 -0.000471 0.011249 0.005299 -0.000498 0.001741
# 4 -0.002005 0.009139 0.005299 0.029536 0.000365 0.003605
# 5 0.001286 -0.000006 -0.000498 0.000365 0.022231 0.006844
# 6 0.001267 -0.000069 0.001741 0.003605 0.006844 0.020337
#
#
# Mechanical properties :
#
#
# Convention : Reuss Voigt Hill
#
# Bulk Modulus (GPa) = 53.11774 82.71215 67.91494
# Shear Modulus (GPa) = 37.29540 46.37926 41.83733
#
# Velocity S-wave (km/s) = 3.85849 4.30280 4.08669
# Velocity P-wave (km/s) = 6.40739 7.59627 7.02702
#
# Compressibility (1/GPa) = 0.01882610
#
# Stress axis : x y z
#
# Youngs Moduli (GPa) = 110.95648 58.84660 88.89356
#
# Poissons Ratio (x) = 0.30602 0.31498
# Poissons Ratio (y) = 0.57702 0.04186
# Poissons Ratio (z) = 0.39315 0.02771
#
# Static dielectric constant tensor:
#      x y z
#    x 1.983670 0.098750 0.022030 
#    y 0.098750 2.293750 0.091890 
#    z 0.022030 0.091890 2.067390 
# 
# From -- ./inp_files/68075.got.cif
#   From: 2010.05.17/outbox.cif.g08.bks.cpg/sg2_35_cif.got.tgz:68075.got - 2010.06.03 11:33:40.
