data_PCOD9052460
_publ_section_title
;
Structure prediction by ZEFSAII (Michael W. Deem and Ramdas Pophale) SiO2 
 PCOD9052460
Probable space group: P -1
;
_chemical_formula_sum "Si O2"
_cell_formula_units_Z 16
_cell_length_a 11.454496
_cell_length_b 14.042108
_cell_length_c 9.031225
_cell_angle_alpha 96.589415
_cell_angle_beta 102.852778
_cell_angle_gamma 32.106411
_cell_volume 745.072325
_symmetry_space_group_name_H-M "P -1"
_symmetry_group_IT_number 2
_symmetry_cell_setting 'triclinic'
loop_
_space_group_symop_operation_xyz
x,y,z
-x,-y,-z
loop_
_atom_site_type_symbol
_atom_site_label
_atom_site_fract_x
_atom_site_fract_y
_atom_site_fract_z
Si Si1 0.808701 0.112014 0.839084
Si Si2 0.627583 0.508495 0.091458
Si Si3 0.974812 0.192483 0.353668
Si Si4 0.331221 0.073209 0.585372
Si Si5 0.053418 0.427597 0.666377
Si Si6 0.816050 0.547240 0.023329
Si Si7 0.685755 0.288062 0.524379
Si Si8 0.558755 0.727098 0.701922
O O1 0.569205 0.282940 0.884562
O O2 0.772454 0.207338 0.702036
O O3 0.877618 0.966613 0.751908
O O4 0.000000 0.000000 0.000000
O O5 0.758989 0.383263 0.248639
O O6 0.808025 0.435858 0.017360
O O7 0.500000 0.500000 0.000000
O O8 0.893665 0.179221 0.460577
O O9 0.113368 0.184622 0.457994
O O10 0.241850 0.217203 0.690435
O O11 0.500000 0.000000 0.500000
O O12 0.443792 0.904527 0.658338
O O13 0.154071 0.444177 0.796247
O O14 0.000000 0.500000 0.500000
O O15 0.815238 0.550490 0.681847
O O16 0.597083 0.706159 0.885434
O O17 0.000000 0.500000 0.000000
O O18 0.500000 0.500000 0.500000
O O19 0.574616 0.269951 0.410799
#
# Coordination Sequence:
#
# PCOD9052460 Si02
#       8
#     2   2   2   2   2   2   2   2
#     4  12  27  44  73 112 146 191 242 303 368 443
#     4  12  25  47  75 107 146 193 245 302 372 440
#     4  12  26  46  72 104 146 191 243 303 362 441
#     4  12  26  42  72 103 137 188 244 295 353 435
#     4  11  23  45  70  99 140 187 236 294 362 431
#     4  10  26  46  71 105 147 189 240 307 367 438
#     4  12  25  47  75 107 151 194 240 304 375 435
#     4  11  25  46  69 104 142 183 242 296 364 433
#
# _framework density 21.474425
#
# number of rings (size 3 to 8) (size 9 to 14) (size 15 to 20)
#    0.000    0.500    5.000    2.625    5.250    0.500 
#    0.000    2.500    0.000    0.000    0.000    0.000 
#    0.000    0.000    0.000    0.000    0.000    0.000 
#
# Total GULP energy -89232.006711 kJ/mol
# GULP energy per Si atom -5577.000419 kJ/mol
# Density = 2.142555 g / cm^3
# Si number density = 21.474425 Si / 1000 Ang^3
#
#
#
# Elastic Constant Matrix: (Units=GPa)
#
#
# Indices 1 2 3 4 5 6 
#
# 1 138.2511 9.5366 47.1632 -6.8943 1.0722 -5.4345
# 2 9.5366 86.2129 0.9570 -8.1433 -10.6482 3.6669
# 3 47.1632 0.9570 149.2368 -31.1053 -3.0142 0.4375
# 4 -6.8943 -8.1433 -31.1053 32.3000 2.9759 -2.6255
# 5 1.0722 -10.6482 -3.0142 2.9759 26.4522 -4.5158
# 6 -5.4345 3.6669 0.4375 -2.6255 -4.5158 36.6454
#
#
#
# Elastic Compliance Matrix: (Units=1/GPa)
#
#
# Indices 1 2 3 4 5 6 
#
# 1 0.008286 -0.001138 -0.002861 -0.001103 -0.000791 0.001200
# 2 -0.001138 0.012661 0.001113 0.003532 0.004768 -0.000608
# 3 -0.002861 0.001113 0.009421 0.008686 0.000670 0.000057
# 4 -0.001103 0.003532 0.008686 0.040306 -0.001728 0.002054
# 5 -0.000791 0.004768 0.000670 -0.001728 0.040760 0.004297
# 6 0.001200 -0.000608 0.000057 0.002054 0.004297 0.028203
#
#
# Mechanical properties :
#
#
# Convention : Reuss Voigt Hill
#
# Bulk Modulus (GPa) = 40.65534 54.33494 47.49514
# Shear Modulus (GPa) = 32.55050 40.14912 36.34981
#
# Velocity S-wave (km/s) = 3.89753 4.32861 4.11871
# Velocity P-wave (km/s) = 6.26317 7.09504 6.69204
#
# Compressibility (1/GPa) = 0.02459701
#
# Stress axis : x y z
#
# Youngs Moduli (GPa) = 120.68704 78.98199 106.14151
#
# Poissons Ratio (x) = 0.08986 0.30363
# Poissons Ratio (y) = 0.13730 -0.11809
# Poissons Ratio (z) = 0.34524 -0.08787
#
# Static dielectric constant tensor:
#      x y z
#    x 1.816110 -0.002260 -0.046840 
#    y -0.002260 1.818030 0.031280 
#    z -0.046840 0.031280 1.799920 
# 
# From -- ./inp_files/273182.got.cif
#   From: 2010.05.17/outbox.cif.g08.bks.cpg/sg2_137_cif.got.tgz:273182.got - 2010.06.03 11:33:40.
