data_PCOD9052710
_publ_section_title
;
Structure prediction by ZEFSAII (Michael W. Deem and Ramdas Pophale) SiO2 
 PCOD9052710
Probable space group: P -1
;
_chemical_formula_sum "Si O2"
_cell_formula_units_Z 12
_cell_length_a 11.953446
_cell_length_b 5.718637
_cell_length_c 13.173538
_cell_angle_alpha 47.159609
_cell_angle_beta 136.585975
_cell_angle_gamma 117.611203
_cell_volume 452.970987
_symmetry_space_group_name_H-M "P -1"
_symmetry_group_IT_number 2
_symmetry_cell_setting 'triclinic'
loop_
_space_group_symop_operation_xyz
x,y,z
-x,-y,-z
loop_
_atom_site_type_symbol
_atom_site_label
_atom_site_fract_x
_atom_site_fract_y
_atom_site_fract_z
Si Si1 0.519948 0.281298 0.350130
Si Si2 0.098109 0.747027 0.065304
Si Si3 0.203317 0.489240 0.417077
Si Si4 0.651163 0.232968 0.043798
Si Si5 0.911158 0.830901 0.235477
Si Si6 0.248748 0.802810 0.660328
O O1 0.620723 0.522659 0.411687
O O2 0.373448 0.475601 0.138122
O O3 0.631066 0.163441 0.364291
O O4 0.500000 0.000000 0.500000
O O5 0.202927 0.555697 0.276606
O O6 0.000000 0.500000 0.000000
O O7 0.182183 0.994209 0.973884
O O8 0.000000 0.000000 0.000000
O O9 0.090198 0.753874 0.327510
O O10 0.146838 0.137392 0.500686
O O11 0.653341 0.299281 0.144348
O O12 0.500000 0.000000 0.000000
O O13 0.834667 0.075956 0.195103
O O14 0.858268 0.495155 0.338462
#
# Coordination Sequence:
#
# PCOD9052710 Si02
#       6
#     2   2   2   2   2   2
#     4  12  30  50  79 111 161 209 266 331 406 485
#     4  10  26  48  76 118 165 209 264 331 413 477
#     4  11  27  49  77 121 154 207 270 337 397 480
#     4  12  26  50  72 114 155 209 259 325 405 484
#     4  11  27  46  83 108 157 205 266 327 405 473
#     4  12  26  47  80 111 159 202 274 322 409 475
#
# _framework density 26.491764
#
# number of rings (size 3 to 8) (size 9 to 14) (size 15 to 20)
#    0.000    0.667    3.333    1.000   14.000    3.333 
#    0.000    0.000    0.000    0.000    0.000    0.000 
#    0.000    0.000    0.000    0.000    0.000    0.000 
#
# Total GULP energy -67005.569231 kJ/mol
# GULP energy per Si atom -5583.797436 kJ/mol
# Density = 2.643147 g / cm^3
# Si number density = 26.491764 Si / 1000 Ang^3
#
#
#
# Elastic Constant Matrix: (Units=GPa)
#
#
# Indices 1 2 3 4 5 6 
#
# 1 92.1896 32.4076 40.1309 -2.0891 -31.5991 -8.7076
# 2 32.4076 97.9261 80.2738 4.2141 -3.7421 -9.0623
# 3 40.1309 80.2738 196.5783 0.4242 -33.0904 -3.6540
# 4 -2.0891 4.2141 0.4242 57.9959 0.6968 -9.5651
# 5 -31.5991 -3.7421 -33.0904 0.6968 57.5660 -8.2433
# 6 -8.7076 -9.0623 -3.6540 -9.5651 -8.2433 34.8411
#
#
#
# Elastic Compliance Matrix: (Units=1/GPa)
#
#
# Indices 1 2 3 4 5 6 
#
# 1 0.016258 -0.004899 0.000400 0.001744 0.009614 0.005584
# 2 -0.004899 0.017561 -0.007068 -0.001172 -0.005455 0.000990
# 3 0.000400 -0.007068 0.008711 0.000480 0.004826 0.000449
# 4 0.001744 -0.001172 0.000480 0.018292 0.001740 0.005615
# 5 0.009614 -0.005455 0.004826 0.001740 0.026217 0.008171
# 6 0.005584 0.000990 0.000449 0.005615 0.008171 0.033877
#
#
# Mechanical properties :
#
#
# Convention : Reuss Voigt Hill
#
# Bulk Modulus (GPa) = 51.55894 76.92428 64.24161
# Shear Modulus (GPa) = 33.21925 45.67273 39.44599
#
# Velocity S-wave (km/s) = 3.54495 4.15665 3.86293
# Velocity P-wave (km/s) = 6.02163 7.22060 6.64820
#
# Compressibility (1/GPa) = 0.01939528
#
# Stress axis : x y z
#
# Youngs Moduli (GPa) = 61.50965 56.94549 114.79251
#
# Poissons Ratio (x) = 0.27898 -0.04592
# Poissons Ratio (y) = 0.30134 0.81137
# Poissons Ratio (z) = -0.02460 0.40250
#
# Static dielectric constant tensor:
#      x y z
#    x 2.185690 -0.015040 0.058830 
#    y -0.015040 2.259740 -0.020570 
#    z 0.058830 -0.020570 2.110570 
# 
# From -- ./inp_files/78277.got.cif
#   From: 2010.05.17/outbox.cif.g08.bks.cpg/sg2_40_cif.got.tgz:78277.got - 2010.06.03 11:33:40.
