data_PCOD9052887
_publ_section_title
;
Structure prediction by ZEFSAII (Michael W. Deem and Ramdas Pophale) SiO2 
 PCOD9052887
Probable space group: P -1
;
_chemical_formula_sum "Si O2"
_cell_formula_units_Z 16
_cell_length_a 9.490499
_cell_length_b 12.374571
_cell_length_c 10.676657
_cell_angle_alpha 92.640072
_cell_angle_beta 93.337232
_cell_angle_gamma 150.032480
_cell_volume 613.442630
_symmetry_space_group_name_H-M "P -1"
_symmetry_group_IT_number 2
_symmetry_cell_setting 'triclinic'
loop_
_space_group_symop_operation_xyz
x,y,z
-x,-y,-z
loop_
_atom_site_type_symbol
_atom_site_label
_atom_site_fract_x
_atom_site_fract_y
_atom_site_fract_z
Si Si1 0.601395 0.207487 0.450503
Si Si2 0.609500 0.377267 0.246205
Si Si3 0.863998 0.055527 0.969958
Si Si4 0.130936 0.769183 0.713337
Si Si5 0.033737 0.402636 0.046403
Si Si6 0.264001 0.798316 0.297656
Si Si7 0.541358 0.495430 0.649073
Si Si8 0.685372 0.776258 0.147372
O O1 0.840745 0.287087 0.409754
O O2 0.319609 0.949564 0.383214
O O3 0.401278 0.685738 0.620891
O O4 0.658925 0.243833 0.600870
O O5 0.395789 0.167796 0.136183
O O6 0.937680 0.588429 0.228012
O O7 0.509722 0.432183 0.266123
O O8 0.853225 0.177349 0.981255
O O9 0.846683 0.988241 0.103352
O O10 0.149017 0.207950 0.918139
O O11 0.458782 0.027839 0.767287
O O12 0.870915 0.676911 0.680349
O O13 0.054579 0.643255 0.816950
O O14 0.359811 0.577127 0.075077
O O15 0.000000 0.500000 0.000000
O O16 0.500000 0.500000 0.500000
O O17 0.347842 0.277086 0.708185
#
# Coordination Sequence:
#
# PCOD9052887 Si02
#       8
#     2   2   2   2   2   2   2   2
#     4   9  21  44  73 106 144 209 265 308 378 466
#     4  12  26  43  78 115 147 212 264 314 376 475
#     4  11  28  49  77 116 154 204 271 309 394 475
#     4   9  22  47  71 108 154 198 253 321 391 449
#     4  11  26  51  78 113 152 203 255 332 392 456
#     4   9  21  45  74 100 157 200 262 312 382 463
#     4  11  26  48  78 118 160 203 263 324 399 450
#     4  10  27  50  79 107 162 211 251 325 383 477
#
# _framework density 26.082311000000001
#
# number of rings (size 3 to 8) (size 9 to 14) (size 15 to 20)
#    0.750    1.000    0.000    1.500   12.250    0.500 
#    9.000    1.875    0.000    0.000    0.000    0.000 
#    0.000    0.000    0.000    0.000    0.000    0.000 
#
# Total GULP energy -89467.144339 kJ/mol
# GULP energy per Si atom -5591.696521 kJ/mol
# Density = 2.602295 g / cm^3
# Si number density = 26.082311 Si / 1000 Ang^3
#
#
#
# Elastic Constant Matrix: (Units=GPa)
#
#
# Indices 1 2 3 4 5 6 
#
# 1 165.2101 70.9653 60.9566 -3.8082 14.6946 3.6616
# 2 70.9653 147.4375 75.8461 -13.0502 7.3867 16.9449
# 3 60.9566 75.8461 154.7584 -26.4028 26.4685 -3.7877
# 4 -3.8082 -13.0502 -26.4028 44.7401 -9.3045 -3.1638
# 5 14.6946 7.3867 26.4685 -9.3045 43.6735 -5.3618
# 6 3.6616 16.9449 -3.7877 -3.1638 -5.3618 47.7353
#
#
#
# Elastic Compliance Matrix: (Units=1/GPa)
#
#
# Indices 1 2 3 4 5 6 
#
# 1 0.008100 -0.003110 -0.001664 -0.001506 -0.001501 0.000082
# 2 -0.003110 0.010953 -0.004430 0.000356 0.001487 -0.003811
# 3 -0.001664 -0.004430 0.010758 0.004249 -0.004013 0.002385
# 4 -0.001506 0.000356 0.004249 0.025769 0.003662 0.002446
# 5 -0.001501 0.001487 -0.004013 0.003662 0.026671 0.002507
# 6 0.000082 -0.003811 0.002385 0.002446 0.002507 0.022928
#
#
# Mechanical properties :
#
#
# Convention : Reuss Voigt Hill
#
# Bulk Modulus (GPa) = 87.70171 98.10467 92.90319
# Shear Modulus (GPa) = 39.25000 44.53899 41.89449
#
# Velocity S-wave (km/s) = 3.88345 4.13683 4.01214
# Velocity P-wave (km/s) = 7.33527 7.77901 7.56040
#
# Compressibility (1/GPa) = 0.01140229
#
# Stress axis : x y z
#
# Youngs Moduli (GPa) = 123.45834 91.29634 92.95467
#
# Poissons Ratio (x) = 0.28393 0.15471
# Poissons Ratio (y) = 0.38396 0.41179
# Poissons Ratio (z) = 0.20548 0.40445
#
# Static dielectric constant tensor:
#      x y z
#    x 1.990290 -0.057960 -0.003680 
#    y -0.057960 2.117470 0.010470 
#    z -0.003680 0.010470 2.127990 
# 
# From -- ./inp_files/277831.got.cif
#   From: 2010.05.17/outbox.cif.g08.bks.cpg/sg2_139_cif.got.tgz:277831.got - 2010.06.03 11:33:40.
