data_PCOD9052743
_publ_section_title
;
Structure prediction by ZEFSAII (Michael W. Deem and Ramdas Pophale) SiO2 
 PCOD9052743
Probable space group: P -1
;
_chemical_formula_sum "Si O2"
_cell_formula_units_Z 16
_cell_length_a 8.492225
_cell_length_b 15.447724
_cell_length_c 12.099255
_cell_angle_alpha 152.178320
_cell_angle_beta 92.835833
_cell_angle_gamma 96.315175
_cell_volume 698.489199
_symmetry_space_group_name_H-M "P -1"
_symmetry_group_IT_number 2
_symmetry_cell_setting 'triclinic'
loop_
_space_group_symop_operation_xyz
x,y,z
-x,-y,-z
loop_
_atom_site_type_symbol
_atom_site_label
_atom_site_fract_x
_atom_site_fract_y
_atom_site_fract_z
Si Si1 0.572939 0.770920 0.076144
Si Si2 0.107105 0.379062 0.589760
Si Si3 0.787301 0.206627 0.973679
Si Si4 0.442911 0.659353 0.335040
Si Si5 0.158770 0.442323 0.912621
Si Si6 0.735622 0.904909 0.461093
Si Si7 0.189025 0.058603 0.118890
Si Si8 0.265168 0.925683 0.748895
O O1 0.398653 0.783927 0.039518
O O2 0.628929 0.885235 0.323734
O O3 0.708128 0.895123 0.132830
O O4 0.559922 0.545153 0.840012
O O5 0.184293 0.453465 0.795438
O O6 0.219673 0.277810 0.411790
O O7 0.925365 0.221453 0.427029
O O8 0.094183 0.572549 0.750458
O O9 0.824187 0.113965 0.755604
O O10 0.801394 0.072840 0.924912
O O11 0.609230 0.786258 0.419793
O O12 0.380631 0.798401 0.570848
O O13 0.311327 0.585251 0.146844
O O14 0.142251 0.220807 0.695685
O O15 0.000000 0.500000 0.000000
O O16 0.295988 0.017566 0.976116
O O17 0.000000 0.000000 0.000000
#
# Coordination Sequence:
#
# PCOD9052743 Si02
#       8
#     2   2   2   2   2   2   2   2
#     4  11  25  42  70 106 141 185 228 282 356 422
#     4  11  24  44  70 102 140 181 236 288 349 410
#     4  12  24  42  76  99 131 194 234 277 349 420
#     4  11  23  44  69 103 148 183 223 290 352 416
#     4  11  21  40  67 104 141 177 225 289 342 411
#     4  11  23  44  71 104 149 184 224 282 362 424
#     4  10  26  49  69  96 142 186 235 290 348 406
#     4  11  25  45  69  98 144 180 236 292 341 407
#
# _framework density 22.906582
#
# number of rings (size 3 to 8) (size 9 to 14) (size 15 to 20)
#    0.000    1.000    3.750    3.375    1.750    5.500 
#    0.000    3.125    0.000    0.000    0.000    0.000 
#    0.000    0.000    0.000    0.000    0.000    0.000 
#
# Total GULP energy -89533.992329 kJ/mol
# GULP energy per Si atom -5595.874521 kJ/mol
# Density = 2.285445 g / cm^3
# Si number density = 22.906582 Si / 1000 Ang^3
#
#
#
# Elastic Constant Matrix: (Units=GPa)
#
#
# Indices 1 2 3 4 5 6 
#
# 1 83.9859 36.3734 43.2732 -4.0803 -16.8500 -7.5650
# 2 36.3734 112.0770 69.7224 -7.3012 1.0650 -2.8074
# 3 43.2732 69.7224 145.9941 -7.1978 -25.2510 9.5371
# 4 -4.0803 -7.3012 -7.1978 44.1184 10.6662 -1.6318
# 5 -16.8500 1.0650 -25.2510 10.6662 32.8934 -4.0369
# 6 -7.5650 -2.8074 9.5371 -1.6318 -4.0369 34.5618
#
#
#
# Elastic Compliance Matrix: (Units=1/GPa)
#
#
# Indices 1 2 3 4 5 6 
#
# 1 0.016766 -0.004353 -0.001822 -0.001307 0.008335 0.004731
# 2 -0.004353 0.015437 -0.007657 0.003249 -0.009483 0.001460
# 3 -0.001822 -0.007657 0.012795 -0.001718 0.009258 -0.003551
# 4 -0.001307 0.003249 -0.001718 0.025295 -0.010241 0.000450
# 5 0.008335 -0.009483 0.009258 -0.010241 0.045819 0.003368
# 6 0.004731 0.001460 -0.003551 0.000450 0.003368 0.031482
#
#
# Mechanical properties :
#
#
# Convention : Reuss Voigt Hill
#
# Bulk Modulus (GPa) = 57.69549 71.19946 64.44748
# Shear Modulus (GPa) = 27.61847 35.16059 31.38953
#
# Velocity S-wave (km/s) = 3.47609 3.92210 3.70581
# Velocity P-wave (km/s) = 6.43062 7.18753 6.81958
#
# Compressibility (1/GPa) = 0.01733238
#
# Stress axis : x y z
#
# Youngs Moduli (GPa) = 59.64453 64.77880 78.15478
#
# Poissons Ratio (x) = 0.28201 0.14242
# Poissons Ratio (y) = 0.25966 0.59845
# Poissons Ratio (z) = 0.10869 0.49602
#
# Static dielectric constant tensor:
#      x y z
#    x 1.719400 -0.065160 0.119510 
#    y -0.065160 1.829200 0.076370 
#    z 0.119510 0.076370 1.845170 
# 
# From -- ./inp_files/400057.got.cif
#   From: 2010.05.17/outbox.cif.g08.bks.cpg/sg2_201_cif.got.tgz:400057.got - 2010.06.03 11:33:40.
