data_PCOD9052767
_publ_section_title
;
Structure prediction by ZEFSAII (Michael W. Deem and Ramdas Pophale) SiO2 
 PCOD9052767
Probable space group: P -1
;
_chemical_formula_sum "Si O2"
_cell_formula_units_Z 16
_cell_length_a 12.223247
_cell_length_b 5.195533
_cell_length_c 20.560862
_cell_angle_alpha 116.015755
_cell_angle_beta 38.469089
_cell_angle_gamma 121.399313
_cell_volume 692.178481
_symmetry_space_group_name_H-M "P -1"
_symmetry_group_IT_number 2
_symmetry_cell_setting 'triclinic'
loop_
_space_group_symop_operation_xyz
x,y,z
-x,-y,-z
loop_
_atom_site_type_symbol
_atom_site_label
_atom_site_fract_x
_atom_site_fract_y
_atom_site_fract_z
Si Si1 0.107421 0.637477 0.186428
Si Si2 0.710162 0.600207 0.195289
Si Si3 0.500255 0.109840 0.770239
Si Si4 0.115900 0.842520 0.474514
Si Si5 0.908958 0.047017 0.898762
Si Si6 0.453133 0.279484 0.584020
Si Si7 0.796068 0.685490 0.415040
Si Si8 0.507935 0.203493 0.924742
O O1 0.098869 0.302080 0.130624
O O2 0.314182 0.849326 0.131199
O O3 0.973186 0.587888 0.305468
O O4 0.038348 0.813493 0.181947
O O5 0.629334 0.241251 0.204371
O O6 0.644674 0.758260 0.305508
O O7 0.613719 0.698213 0.190122
O O8 0.932541 0.743007 0.105672
O O9 0.685052 0.125440 0.646317
O O10 0.552104 0.245088 0.832802
O O11 0.000000 0.500000 0.500000
O O12 0.137092 0.978505 0.552516
O O13 0.000000 0.000000 0.500000
O O14 0.696529 0.039811 0.005086
O O15 0.656022 0.523041 0.519169
O O16 0.325539 0.371503 0.600293
O O17 0.500000 0.000000 0.500000
O O18 0.500000 0.500000 0.000000
#
# Coordination Sequence:
#
# PCOD9052767 Si02
#       8
#     2   2   2   2   2   2   2   2
#     4  11  23  43  70 105 141 179 238 292 344 416
#     4  12  25  45  71 102 150 179 234 291 356 420
#     4  12  27  48  70 103 143 187 231 297 357 420
#     4  12  27  45  67 100 145 190 232 281 347 424
#     4  11  24  44  72 106 136 184 232 298 356 409
#     4  11  23  40  69 102 143 189 231 289 334 424
#     4  11  24  40  69 103 138 188 234 278 349 410
#     4  10  26  49  75 101 138 182 245 297 354 421
#
# _framework density 23.115424000000001
#
# number of rings (size 3 to 8) (size 9 to 14) (size 15 to 20)
#    0.000    0.750    2.500    4.125    3.500    7.000 
#    0.000    0.000    0.000    0.000    0.000    0.000 
#    0.000    0.000    0.000    0.000    0.000    0.000 
#
# Total GULP energy -89475.070683 kJ/mol
# GULP energy per Si atom -5592.191918 kJ/mol
# Density = 2.306281 g / cm^3
# Si number density = 23.115424 Si / 1000 Ang^3
#
#
#
# Elastic Constant Matrix: (Units=GPa)
#
#
# Indices 1 2 3 4 5 6 
#
# 1 37.7675 -16.3950 3.6079 -7.9719 -11.8315 -1.2783
# 2 -16.3950 96.0574 4.9440 -13.9153 -15.2285 0.6329
# 3 3.6079 4.9440 76.6013 -5.5417 -20.8914 13.9418
# 4 -7.9719 -13.9153 -5.5417 33.7892 22.4000 4.1805
# 5 -11.8315 -15.2285 -20.8914 22.4000 41.0669 -6.2034
# 6 -1.2783 0.6329 13.9418 4.1805 -6.2034 32.1386
#
#
#
# Elastic Compliance Matrix: (Units=1/GPa)
#
#
# Indices 1 2 3 4 5 6 
#
# 1 0.034532 0.008224 0.000868 0.003383 0.012005 0.002712
# 2 0.008224 0.013205 0.000457 0.003730 0.005532 0.000451
# 3 0.000868 0.000457 0.016231 -0.002509 0.009306 -0.004893
# 4 0.003383 0.003730 -0.002509 0.052194 -0.029088 -0.011254
# 5 0.012005 0.005532 0.009306 -0.029088 0.051994 0.010151
# 6 0.002712 0.000451 -0.004893 -0.011254 0.010151 0.036760
#
#
# Mechanical properties :
#
#
# Convention : Reuss Voigt Hill
#
# Bulk Modulus (GPa) = 12.03858 21.63778 16.83818
# Shear Modulus (GPa) = 23.41848 35.95022 29.68435
#
# Velocity S-wave (km/s) = 3.18639 3.94794 3.58743
# Velocity P-wave (km/s) = 4.33091 5.49206 4.94568
#
# Compressibility (1/GPa) = 0.08306627
#
# Stress axis : x y z
#
# Youngs Moduli (GPa) = 28.95897 75.72817 61.60932
#
# Poissons Ratio (x) = -0.62282 -0.05347
# Poissons Ratio (y) = -0.23817 -0.02814
# Poissons Ratio (z) = -0.02513 -0.03459
#
# Static dielectric constant tensor:
#      x y z
#    x 1.836880 0.001070 -0.011000 
#    y 0.001070 1.920110 -0.022920 
#    z -0.011000 -0.022920 1.882050 
# 
# From -- ./inp_files/592831.got.cif
#   From: 2010.05.17/outbox.cif.g08.bks.cpg/sg2_297_cif.got.tgz:592831.got - 2010.06.03 11:33:40.
