data_PCOD9052095
_publ_section_title
;
Structure prediction by ZEFSAII (Michael W. Deem and Ramdas Pophale) SiO2 
 PCOD9052095
Probable space group: P -1
;
_chemical_formula_sum "Si O2"
_cell_formula_units_Z 12
_cell_length_a 13.076296
_cell_length_b 7.730805
_cell_length_c 8.586407
_cell_angle_alpha 128.832381
_cell_angle_beta 46.500542
_cell_angle_gamma 100.619258
_cell_volume 440.988175
_symmetry_space_group_name_H-M "P -1"
_symmetry_group_IT_number 2
_symmetry_cell_setting 'triclinic'
loop_
_space_group_symop_operation_xyz
x,y,z
-x,-y,-z
loop_
_atom_site_type_symbol
_atom_site_label
_atom_site_fract_x
_atom_site_fract_y
_atom_site_fract_z
Si Si1 0.143830 0.187110 0.822910
Si Si2 0.090716 0.919165 0.197911
Si Si3 0.401598 0.403827 0.162513
Si Si4 0.378675 0.986906 0.742025
Si Si5 0.368808 0.378394 0.539027
Si Si6 0.899678 0.584675 0.499538
O O1 0.231561 0.049004 0.813332
O O2 0.270945 0.214836 0.588982
O O3 0.041868 0.068522 0.778666
O O4 0.019321 0.463976 0.163294
O O5 0.162568 0.119096 0.242094
O O6 0.000000 0.000000 0.500000
O O7 0.233870 0.650358 0.875449
O O8 0.438020 0.332919 0.265084
O O9 0.212709 0.554286 0.463470
O O10 0.500000 0.500000 0.000000
O O11 0.390638 0.182630 0.958450
O O12 0.500000 0.000000 0.500000
O O13 0.481843 0.719248 0.557831
O O14 0.000000 0.500000 0.500000
#
# Coordination Sequence:
#
# PCOD9052095 Si02
#       6
#     2   2   2   2   2   2
#     4  11  23  52  87 126 171 219 290 360 431 511
#     4  12  25  46  89 130 167 219 290 364 434 501
#     4  12  27  51  83 126 177 231 282 354 435 511
#     4  10  25  50  81 118 174 226 279 352 435 520
#     4  11  24  51  84 125 173 221 289 359 426 515
#     4  12  26  49  86 123 168 219 294 355 429 510
#
# _framework density 27.211614999999998
#
# number of rings (size 3 to 8) (size 9 to 14) (size 15 to 20)
#    0.000    0.667    5.000    2.000    0.000    4.667 
#    0.000   11.667    0.000    0.000    0.000    0.000 
#    0.000    0.000    0.000    0.000    0.000    0.000 
#
# Total GULP energy -66909.766996 kJ/mol
# GULP energy per Si atom -5575.813916 kJ/mol
# Density = 2.714968 g / cm^3
# Si number density = 27.211615 Si / 1000 Ang^3
#
#
#
# Elastic Constant Matrix: (Units=GPa)
#
#
# Indices 1 2 3 4 5 6 
#
# 1 208.4359 93.1637 73.4925 -1.7178 7.1665 3.0165
# 2 93.1637 175.9714 94.1105 -14.3790 0.0008 17.9996
# 3 73.4925 94.1105 119.7203 -24.6796 37.6384 16.6655
# 4 -1.7178 -14.3790 -24.6796 71.7110 6.5643 -9.2970
# 5 7.1665 0.0008 37.6384 6.5643 60.7225 -3.3449
# 6 3.0165 17.9996 16.6655 -9.2970 -3.3449 57.5665
#
#
#
# Elastic Compliance Matrix: (Units=1/GPa)
#
#
# Indices 1 2 3 4 5 6 
#
# 1 0.006875 -0.001853 -0.003799 -0.001524 0.001773 0.001176
# 2 -0.001853 0.012832 -0.011806 -0.002299 0.007762 -0.000418
# 3 -0.003799 -0.011806 0.027840 0.008260 -0.017914 -0.003876
# 4 -0.001524 -0.002299 0.008260 0.017006 -0.006737 0.000762
# 5 0.001773 0.007762 -0.017914 -0.006737 0.028269 0.003221
# 6 0.001176 -0.000418 -0.003876 0.000762 0.003221 0.018873
#
#
# Mechanical properties :
#
#
# Convention : Reuss Voigt Hill
#
# Bulk Modulus (GPa) = 79.16855 113.96234 96.56544
# Shear Modulus (GPa) = 33.15212 54.22408 43.68810
#
# Velocity S-wave (km/s) = 3.49421 4.46879 4.01121
# Velocity P-wave (km/s) = 6.74064 8.28237 7.55096
#
# Compressibility (1/GPa) = 0.01263128
#
# Stress axis : x y z
#
# Youngs Moduli (GPa) = 145.46084 77.92779 35.91973
#
# Poissons Ratio (x) = 0.14438 0.13646
# Poissons Ratio (y) = 0.26950 0.42407
# Poissons Ratio (z) = 0.55261 0.92002
#
# Static dielectric constant tensor:
#      x y z
#    x 2.152890 -0.102010 -0.041840 
#    y -0.102010 2.930320 -0.519040 
#    z -0.041840 -0.519040 1.877020 
# 
# From -- ./inp_files/296546.got.cif
#   From: 2010.05.17/outbox.cif.g08.bks.cpg/sg2_149_cif.got.tgz:296546.got - 2010.06.03 11:33:40.
