data_PCOD9052886
_publ_section_title
;
Structure prediction by ZEFSAII (Michael W. Deem and Ramdas Pophale) SiO2 
 PCOD9052886
Probable space group: P -1
;
_chemical_formula_sum "Si O2"
_cell_formula_units_Z 14
_cell_length_a 21.528796
_cell_length_b 4.770627
_cell_length_c 7.173840
_cell_angle_alpha 71.870291
_cell_angle_beta 49.176130
_cell_angle_gamma 71.666698
_cell_volume 523.506324
_symmetry_space_group_name_H-M "P -1"
_symmetry_group_IT_number 2
_symmetry_cell_setting 'triclinic'
loop_
_space_group_symop_operation_xyz
x,y,z
-x,-y,-z
loop_
_atom_site_type_symbol
_atom_site_label
_atom_site_fract_x
_atom_site_fract_y
_atom_site_fract_z
Si Si1 0.491259 0.798698 0.327713
Si Si2 0.680241 0.091823 0.521880
Si Si3 0.173971 0.673121 0.022986
Si Si4 0.006120 0.554367 0.196590
Si Si5 0.096865 0.937017 0.463212
Si Si6 0.407507 0.669383 0.986345
Si Si7 0.754545 0.514839 0.725388
O O1 0.500000 0.500000 0.500000
O O2 0.395847 0.941131 0.460025
O O3 0.532131 0.643742 0.089794
O O4 0.547264 0.050932 0.213932
O O5 0.633309 0.282782 0.741707
O O6 0.724336 0.790376 0.595693
O O7 0.749702 0.252945 0.259222
O O8 0.140773 0.949277 0.171518
O O9 0.206136 0.416357 0.166553
O O10 0.096829 0.605962 0.068979
O O11 0.057363 0.177167 0.641406
O O12 0.000000 0.500000 0.000000
O O13 0.974279 0.265873 0.403921
O O14 0.172460 0.717254 0.461681
O O15 0.325822 0.635518 0.033986
#
# Coordination Sequence:
#
# PCOD9052886 Si02
#       7
#     2   2   2   2   2   2   2
#     4  12  28  51  83 118 162 224 281 344 418 503
#     4  12  27  51  82 123 167 220 281 347 426 492
#     4  10  27  53  82 125 167 225 279 351 426 500
#     4  12  26  52  88 123 164 225 283 347 423 505
#     4  10  27  53  82 117 173 219 281 348 420 504
#     4  12  26  52  78 116 167 216 278 346 413 501
#     4  10  27  49  83 117 173 213 284 341 422 495
#
# _framework density 26.742754000000001
#
# number of rings (size 3 to 8) (size 9 to 14) (size 15 to 20)
#    0.857    0.000    1.429    3.429    6.000    1.143 
#    5.143    0.000    0.000    0.000    0.000    0.000 
#    0.000    0.000    0.000    0.000    0.000    0.000 
#
# Total GULP energy -78427.203564 kJ/mol
# GULP energy per Si atom -5601.943112 kJ/mol
# Density = 2.668189 g / cm^3
# Si number density = 26.742754 Si / 1000 Ang^3
#
#
#
# Elastic Constant Matrix: (Units=GPa)
#
#
# Indices 1 2 3 4 5 6 
#
# 1 213.7018 68.6771 79.6195 3.7403 -17.4625 -12.0071
# 2 68.6771 169.9107 44.8979 1.2429 -3.6542 -3.8396
# 3 79.6195 44.8979 164.8874 9.0759 -15.3565 -11.1868
# 4 3.7403 1.2429 9.0759 42.4744 -1.8390 4.1744
# 5 -17.4625 -3.6542 -15.3565 -1.8390 51.4295 4.5567
# 6 -12.0071 -3.8396 -11.1868 4.1744 4.5567 54.3165
#
#
#
# Elastic Compliance Matrix: (Units=1/GPa)
#
#
# Indices 1 2 3 4 5 6 
#
# 1 0.006306 -0.001880 -0.002372 -0.000006 0.001240 0.000669
# 2 -0.001880 0.006904 -0.001031 0.000176 -0.000439 -0.000117
# 3 -0.002372 -0.001031 0.007760 -0.001462 0.001297 0.001005
# 4 -0.000006 0.000176 -0.001462 0.024094 0.000630 -0.002194
# 5 0.001240 -0.000439 0.001297 0.000630 0.020354 -0.001246
# 6 0.000669 -0.000117 0.001005 -0.002194 -0.001246 0.019030
#
#
# Mechanical properties :
#
#
# Convention : Reuss Voigt Hill
#
# Bulk Modulus (GPa) = 96.10626 103.87653 99.99140
# Shear Modulus (GPa) = 50.76958 53.33109 52.05034
#
# Velocity S-wave (km/s) = 4.36184 4.47052 4.41651
# Velocity P-wave (km/s) = 7.83472 8.09781 7.96735
#
# Compressibility (1/GPa) = 0.01040515
#
# Stress axis : x y z
#
# Youngs Moduli (GPa) = 158.56672 144.83400 128.86336
#
# Poissons Ratio (x) = 0.27235 0.30567
# Poissons Ratio (y) = 0.29817 0.13280
# Poissons Ratio (z) = 0.37612 0.14926
#
# Static dielectric constant tensor:
#      x y z
#    x 2.245070 0.020280 0.071490 
#    y 0.020280 2.125830 -0.031770 
#    z 0.071490 -0.031770 2.150580 
# 
# From -- ./inp_files/350615.got.cif
#   From: 2010.05.17/outbox.cif.g08.bks.cpg/sg2_176_cif.got.tgz:350615.got - 2010.06.03 11:33:40.
