data_PCOD9052061
_publ_section_title
;
Structure prediction by ZEFSAII (Michael W. Deem and Ramdas Pophale) SiO2 
 PCOD9052061
Probable space group: P -1
;
_chemical_formula_sum "Si O2"
_cell_formula_units_Z 16
_cell_length_a 7.480520
_cell_length_b 12.536917
_cell_length_c 25.207744
_cell_angle_alpha 27.263025
_cell_angle_beta 131.710008
_cell_angle_gamma 114.683842
_cell_volume 696.171113
_symmetry_space_group_name_H-M "P -1"
_symmetry_group_IT_number 2
_symmetry_cell_setting 'triclinic'
loop_
_space_group_symop_operation_xyz
x,y,z
-x,-y,-z
loop_
_atom_site_type_symbol
_atom_site_label
_atom_site_fract_x
_atom_site_fract_y
_atom_site_fract_z
Si Si1 0.880458 0.699660 0.112341
Si Si2 0.770813 0.593408 0.457631
Si Si3 0.705362 0.745276 0.688633
Si Si4 0.187729 0.894996 0.164159
Si Si5 0.480160 0.096534 0.244909
Si Si6 0.196829 0.646874 0.903505
Si Si7 0.281191 0.726678 0.693221
Si Si8 0.047252 0.964218 0.222098
O O1 0.129054 0.486626 0.218787
O O2 0.000297 0.809008 0.132707
O O3 0.749226 0.533546 0.186193
O O4 0.725258 0.939306 0.932353
O O5 0.479531 0.650497 0.350629
O O6 0.000000 0.500000 0.500000
O O7 0.690377 0.882790 0.338547
O O8 0.900263 0.337233 0.635182
O O9 0.519474 0.678805 0.719931
O O10 0.936407 0.775413 0.754989
O O11 0.500000 0.000000 0.500000
O O12 0.024761 0.043640 0.120470
O O13 0.636685 0.188654 0.273678
O O14 0.334902 0.941723 0.309042
O O15 0.216684 0.375787 0.050003
O O16 0.165358 0.838822 0.862150
O O17 0.500000 0.500000 0.000000
O O18 0.000000 0.000000 0.500000
#
# Coordination Sequence:
#
# PCOD9052061 Si02
#       8
#     2   2   2   2   2   2   2   2
#     4  11  26  50  75 106 156 204 250 315 384 476
#     4  11  25  43  72 107 147 195 254 315 382 455
#     4  12  26  46  74 113 157 198 256 322 386 464
#     4  10  25  50  74 106 153 198 257 313 385 467
#     4  11  24  45  70 106 147 193 254 318 377 451
#     4  12  26  46  77 113 152 197 259 324 390 452
#     4  12  27  44  77 111 154 202 261 315 394 461
#     4  11  24  44  78 106 146 202 250 323 383 450
#
# _framework density 22.982856000000002
#
# number of rings (size 3 to 8) (size 9 to 14) (size 15 to 20)
#    0.000    0.750    2.500    4.875    7.000    2.000 
#    0.000    1.250    0.000    0.000    0.000    0.000 
#    0.000    0.000    0.000    0.000    0.000    0.000 
#
# Total GULP energy -89363.810332 kJ/mol
# GULP energy per Si atom -5585.238146 kJ/mol
# Density = 2.293055 g / cm^3
# Si number density = 22.982856 Si / 1000 Ang^3
#
#
#
# Elastic Constant Matrix: (Units=GPa)
#
#
# Indices 1 2 3 4 5 6 
#
# 1 159.7031 51.2709 25.9033 4.4611 -0.1776 -13.5027
# 2 51.2709 149.0426 49.9837 9.0820 -5.6833 -12.9268
# 3 25.9033 49.9837 89.5496 11.5941 -7.3962 -8.3459
# 4 4.4611 9.0820 11.5941 33.2307 -3.6843 5.3561
# 5 -0.1776 -5.6833 -7.3962 -3.6843 42.5058 -13.1685
# 6 -13.5027 -12.9268 -8.3459 5.3561 -13.1685 40.6788
#
#
#
# Elastic Compliance Matrix: (Units=1/GPa)
#
#
# Indices 1 2 3 4 5 6 
#
# 1 0.007192 -0.002061 -0.000711 -0.000412 0.000115 0.001678
# 2 -0.002061 0.009036 -0.004078 -0.000951 0.000961 0.001787
# 3 -0.000711 -0.004078 0.014649 -0.004077 0.002523 0.002827
# 4 -0.000412 -0.000951 -0.004077 0.032748 0.000299 -0.005491
# 5 0.000115 0.000961 0.002523 0.000299 0.027092 0.009592
# 6 0.001678 0.001787 0.002827 -0.005491 0.009592 0.030116
#
#
# Mechanical properties :
#
#
# Convention : Reuss Voigt Hill
#
# Bulk Modulus (GPa) = 58.21848 72.51236 65.36542
# Shear Modulus (GPa) = 35.64868 41.35887 38.50378
#
# Velocity S-wave (km/s) = 3.94267 4.24672 4.09752
# Velocity P-wave (km/s) = 6.79062 7.46091 7.13364
#
# Compressibility (1/GPa) = 0.01717668
#
# Stress axis : x y z
#
# Youngs Moduli (GPa) = 139.04382 110.67260 68.26538
#
# Poissons Ratio (x) = 0.22805 0.04854
# Poissons Ratio (y) = 0.28651 0.27840
# Poissons Ratio (z) = 0.09886 0.45135
#
# Static dielectric constant tensor:
#      x y z
#    x 1.991540 -0.016540 -0.132900 
#    y -0.016540 1.814500 0.042780 
#    z -0.132900 0.042780 2.124520 
# 
# From -- ./inp_files/607537.got.cif
#   From: 2010.05.17/outbox.cif.g08.bks.cpg/sg2_304_cif.got.tgz:607537.got - 2010.06.03 11:33:40.
