data_PCOD9052711
_publ_section_title
;
Structure prediction by ZEFSAII (Michael W. Deem and Ramdas Pophale) SiO2 
 PCOD9052711
Probable space group: P -1
;
_chemical_formula_sum "Si O2"
_cell_formula_units_Z 16
_cell_length_a 21.118810
_cell_length_b 9.735019
_cell_length_c 12.376970
_cell_angle_alpha 144.393759
_cell_angle_beta 143.859679
_cell_angle_gamma 35.864526
_cell_volume 781.165864
_symmetry_space_group_name_H-M "P -1"
_symmetry_group_IT_number 2
_symmetry_cell_setting 'triclinic'
loop_
_space_group_symop_operation_xyz
x,y,z
-x,-y,-z
loop_
_atom_site_type_symbol
_atom_site_label
_atom_site_fract_x
_atom_site_fract_y
_atom_site_fract_z
Si Si1 0.010309 0.980829 0.677758
Si Si2 0.468959 0.272230 0.359549
Si Si3 0.923446 0.718583 0.205733
Si Si4 0.854005 0.453681 0.237749
Si Si5 0.732682 0.950814 0.546870
Si Si6 0.030480 0.235646 0.161073
Si Si7 0.309995 0.166474 0.912447
Si Si8 0.263991 0.745318 0.452546
O O1 0.869422 0.152443 0.621078
O O2 0.064512 0.159459 0.811431
O O3 0.002401 0.792609 0.449148
O O4 0.089137 0.807385 0.776010
O O5 0.500000 0.500000 0.500000
O O6 0.355283 0.437487 0.385832
O O7 0.592588 0.059066 0.444902
O O8 0.424138 0.148659 0.122310
O O9 0.788624 0.824690 0.130991
O O10 0.972880 0.405436 0.085075
O O11 0.789329 0.689605 0.384263
O O12 0.750503 0.565091 0.072157
O O13 0.966396 0.426854 0.299738
O O14 0.827400 0.878264 0.726056
O O15 0.750394 0.166555 0.635895
O O16 0.000000 0.000000 0.000000
O O17 0.324495 0.918467 0.700680
#
# Coordination Sequence:
#
# PCOD9052711 Si02
#       8
#     2   2   2   2   2   2   2   2
#     4  10  17  35  57  90 110 151 186 231 292 341
#     4  10  22  35  53  83 113 150 195 232 280 332
#     4   9  20  32  59  85 117 145 188 233 288 344
#     4  10  19  32  59  79 115 138 184 231 289 332
#     4  10  19  34  54  79 108 151 182 232 274 329
#     4  11  21  33  53  88 117 141 177 238 292 335
#     4   9  20  36  53  87 112 147 187 241 277 334
#     4   9  19  33  55  79 118 148 182 235 281 338
#
# _framework density 20.482205
#
# number of rings (size 3 to 8) (size 9 to 14) (size 15 to 20)
#    0.000    2.250    2.500    1.125    7.000    4.500 
#    0.000    2.500    0.000    1.500    6.500    0.000 
#    0.000    0.000    0.000    0.000    0.000    0.000 
#
# Total GULP energy -89104.716340 kJ/mol
# GULP energy per Si atom -5569.044771 kJ/mol
# Density = 2.043559 g / cm^3
# Si number density = 20.482205 Si / 1000 Ang^3
#
#
#
# Elastic Constant Matrix: (Units=GPa)
#
#
# Indices 1 2 3 4 5 6 
#
# 1 62.0257 44.9515 3.3090 2.9554 0.2339 12.9014
# 2 44.9515 115.5182 20.5009 -2.1639 1.9236 -11.5794
# 3 3.3090 20.5009 87.2424 -3.9555 -3.5229 -3.8189
# 4 2.9554 -2.1639 -3.9555 26.2773 -2.2252 3.6613
# 5 0.2339 1.9236 -3.5229 -2.2252 20.8020 4.6537
# 6 12.9014 -11.5794 -3.8189 3.6613 4.6537 45.0012
#
#
#
# Elastic Compliance Matrix: (Units=1/GPa)
#
#
# Indices 1 2 3 4 5 6 
#
# 1 0.027064 -0.011954 0.001345 -0.002033 0.003248 -0.010891
# 2 -0.011954 0.014588 -0.002750 0.000856 -0.003201 0.007209
# 3 0.001345 -0.002750 0.012221 0.001747 0.002600 -0.000467
# 4 -0.002033 0.000856 0.001747 0.039436 0.005080 -0.002782
# 5 0.003248 -0.003201 0.002600 0.005080 0.050930 -0.007214
# 6 -0.010891 0.007209 -0.000467 -0.002782 -0.007214 0.028132
#
#
# Mechanical properties :
#
#
# Convention : Reuss Voigt Hill
#
# Bulk Modulus (GPa) = 36.82449 44.70104 40.76277
# Shear Modulus (GPa) = 24.02234 31.48441 27.75338
#
# Velocity S-wave (km/s) = 3.42839 3.92492 3.68503
# Velocity P-wave (km/s) = 5.80428 6.51242 6.16852
#
# Compressibility (1/GPa) = 0.02715584
#
# Stress axis : x y z
#
# Youngs Moduli (GPa) = 36.94964 68.54877 81.82508
#
# Poissons Ratio (x) = 0.81942 -0.11003
# Poissons Ratio (y) = 0.44169 0.22498
# Poissons Ratio (z) = -0.04969 0.18848
#
# Static dielectric constant tensor:
#      x y z
#    x 1.731770 -0.044060 -0.054010 
#    y -0.044060 1.801990 0.036940 
#    z -0.054010 0.036940 1.879390 
# 
# From -- ./inp_files/283034.got.cif
#   From: 2010.05.17/outbox.cif.g08.bks.cpg/sg2_142_cif.got.tgz:283034.got - 2010.06.03 11:33:40.
