data_PCOD9052427
_publ_section_title
;
Structure prediction by ZEFSAII (Michael W. Deem and Ramdas Pophale) SiO2 
 PCOD9052427
Probable space group: P -1
;
_chemical_formula_sum "Si O2"
_cell_formula_units_Z 16
_cell_length_a 15.862471
_cell_length_b 7.966384
_cell_length_c 7.667258
_cell_angle_alpha 140.815833
_cell_angle_beta 88.543987
_cell_angle_gamma 86.685431
_cell_volume 607.332625
_symmetry_space_group_name_H-M "P -1"
_symmetry_group_IT_number 2
_symmetry_cell_setting 'triclinic'
loop_
_space_group_symop_operation_xyz
x,y,z
-x,-y,-z
loop_
_atom_site_type_symbol
_atom_site_label
_atom_site_fract_x
_atom_site_fract_y
_atom_site_fract_z
Si Si1 0.449221 0.624347 0.332336
Si Si2 0.540030 0.050966 0.851328
Si Si3 0.099289 0.131957 0.398847
Si Si4 0.219984 0.468187 0.785927
Si Si5 0.805626 0.847508 0.953692
Si Si6 0.697161 0.108757 0.697105
Si Si7 0.702789 0.401645 0.467718
Si Si8 0.956142 0.789425 0.159726
O O1 0.373132 0.749117 0.313329
O O2 0.396510 0.580765 0.476100
O O3 0.513629 0.832096 0.542113
O O4 0.494746 0.343784 0.039225
O O5 0.640875 0.052003 0.825588
O O6 0.500000 0.000000 0.000000
O O7 0.127969 0.431262 0.678991
O O8 0.160810 0.076225 0.180414
O O9 0.090034 0.060590 0.548925
O O10 0.015965 0.996529 0.240599
O O11 0.279701 0.526294 0.671853
O O12 0.258857 0.171896 0.603187
O O13 0.232551 0.694513 0.106294
O O14 0.744688 0.618586 0.753023
O O15 0.886502 0.742158 0.981474
O O16 0.753351 0.108135 0.251130
O O17 0.000000 0.500000 0.000000
#
# Coordination Sequence:
#
# PCOD9052427 Si02
#       8
#     2   2   2   2   2   2   2   2
#     4  12  25  42  68 100 140 172 233 284 343 402
#     4  12  24  44  68  96 138 183 228 279 340 410
#     4  10  26  46  69 103 138 186 228 291 344 422
#     4  11  24  44  68  95 136 177 231 272 348 410
#     4  11  26  46  72 100 145 183 238 285 352 411
#     4  12  25  41  70 101 135 180 222 290 342 406
#     4  11  25  45  68 102 133 188 230 284 340 418
#     4  11  27  44  74 103 142 180 239 284 358 418
#
# _framework density 26.344708000000001
#
# number of rings (size 3 to 8) (size 9 to 14) (size 15 to 20)
#    0.000    0.750    0.000    6.750   12.250    0.500 
#    0.000    0.000    0.000    0.000    0.000    0.000 
#    0.000    0.000    0.000    0.000    0.000    0.000 
#
# Total GULP energy -89456.980889 kJ/mol
# GULP energy per Si atom -5591.061306 kJ/mol
# Density = 2.628475 g / cm^3
# Si number density = 26.344708 Si / 1000 Ang^3
#
#
#
# Elastic Constant Matrix: (Units=GPa)
#
#
# Indices 1 2 3 4 5 6 
#
# 1 133.9793 23.9461 66.0908 23.1834 14.5280 18.1071
# 2 23.9461 86.0828 37.9042 9.4758 -10.1884 -2.9370
# 3 66.0908 37.9042 159.8068 48.1859 22.1949 -20.0634
# 4 23.1834 9.4758 48.1859 32.8684 10.6375 -7.8932
# 5 14.5280 -10.1884 22.1949 10.6375 64.4839 -0.2575
# 6 18.1071 -2.9370 -20.0634 -7.8932 -0.2575 63.8804
#
#
#
# Elastic Compliance Matrix: (Units=1/GPa)
#
#
# Indices 1 2 3 4 5 6 
#
# 1 0.010735 -0.001286 -0.003890 -0.002308 -0.000920 -0.004613
# 2 -0.001286 0.013841 -0.003524 0.000945 0.003534 0.000025
# 3 -0.003890 -0.003524 0.014038 -0.015358 -0.001965 0.003444
# 4 -0.002308 0.000945 -0.015358 0.056023 -0.003275 0.002783
# 5 -0.000920 0.003534 -0.001965 -0.003275 0.017488 -0.000528
# 6 -0.004613 0.000025 0.003444 0.002783 -0.000528 0.018386
#
#
# Mechanical properties :
#
#
# Convention : Reuss Voigt Hill
#
# Bulk Modulus (GPa) = 47.13538 70.63901 58.88720
# Shear Modulus (GPa) = 32.26174 49.04174 40.65174
#
# Velocity S-wave (km/s) = 3.50323 4.31924 3.93246
# Velocity P-wave (km/s) = 5.85611 7.19347 6.55897
#
# Compressibility (1/GPa) = 0.02121548
#
# Stress axis : x y z
#
# Youngs Moduli (GPa) = 93.15167 72.24908 71.23439
#
# Poissons Ratio (x) = 0.09288 0.27711
# Poissons Ratio (y) = 0.11976 0.25101
# Poissons Ratio (z) = 0.36237 0.25459
#
# Static dielectric constant tensor:
#      x y z
#    x 2.102000 0.004910 -0.039160 
#    y 0.004910 2.178970 0.018700 
#    z -0.039160 0.018700 2.068890 
# 
# From -- ./inp_files/329735.got.cif
#   From: 2010.05.17/outbox.cif.g08.bks.cpg/sg2_165_cif.got.tgz:329735.got - 2010.06.03 11:33:40.
