data_PCOD9052877
_publ_section_title
;
Structure prediction by ZEFSAII (Michael W. Deem and Ramdas Pophale) SiO2 
 PCOD9052877
Probable space group: P -1
;
_chemical_formula_sum "Si O2"
_cell_formula_units_Z 16
_cell_length_a 5.335123
_cell_length_b 9.309638
_cell_length_c 14.059520
_cell_angle_alpha 103.712422
_cell_angle_beta 74.261018
_cell_angle_gamma 82.154215
_cell_volume 637.736011
_symmetry_space_group_name_H-M "P -1"
_symmetry_group_IT_number 2
_symmetry_cell_setting 'triclinic'
loop_
_space_group_symop_operation_xyz
x,y,z
-x,-y,-z
loop_
_atom_site_type_symbol
_atom_site_label
_atom_site_fract_x
_atom_site_fract_y
_atom_site_fract_z
Si Si1 0.568993 0.274666 0.530502
Si Si2 0.641139 0.286498 0.874964
Si Si3 0.516333 0.893071 0.308989
Si Si4 0.319278 0.724854 0.848472
Si Si5 0.974463 0.986277 0.156949
Si Si6 0.073044 0.166904 0.350191
Si Si7 0.338984 0.416010 0.383481
Si Si8 0.800264 0.595177 0.919562
O O1 0.433746 0.187006 0.607644
O O2 0.390412 0.362571 0.478646
O O3 0.684675 0.406156 0.592510
O O4 0.809924 0.162498 0.435287
O O5 0.620337 0.210403 0.763443
O O6 0.804693 0.418381 0.877070
O O7 0.785241 0.153248 0.910195
O O8 0.347931 0.356383 0.957350
O O9 0.775942 0.915106 0.231017
O O10 0.319428 0.057858 0.360423
O O11 0.422556 0.667782 0.722947
O O12 0.581655 0.676273 0.877835
O O13 0.080413 0.643434 0.889312
O O14 0.197676 0.904857 0.884861
O O15 0.083340 0.099810 0.233467
O O16 0.095330 0.340857 0.367919
#
# Coordination Sequence:
#
# PCOD9052877 Si02
#       8
#     2   2   2   2   2   2   2   2
#     4  11  24  40  66 100 131 192 233 292 356 423
#     4  10  27  48  71 109 138 186 238 303 349 440
#     4  11  24  43  68  98 140 185 235 292 357 421
#     4  12  25  48  74 109 144 194 234 299 361 426
#     4  11  25  43  73 100 149 183 242 294 357 431
#     4  11  21  44  62  97 139 187 231 294 347 420
#     4  11  24  41  66 100 140 176 242 295 345 428
#     4  11  28  48  80 105 144 191 239 296 369 426
#
# _framework density 25.088750000000001
#
# number of rings (size 3 to 8) (size 9 to 14) (size 15 to 20)
#    0.000    1.000    2.500    2.250    7.000    6.000 
#    2.250    0.000    0.000    0.000    0.000    0.000 
#    0.000    0.000    0.000    0.000    0.000    0.000 
#
# Total GULP energy -89655.345313 kJ/mol
# GULP energy per Si atom -5603.459082 kJ/mol
# Density = 2.503165 g / cm^3
# Si number density = 25.088750 Si / 1000 Ang^3
#
#
#
# Elastic Constant Matrix: (Units=GPa)
#
#
# Indices 1 2 3 4 5 6 
#
# 1 80.3317 18.3995 16.8030 -12.7767 -2.2209 8.6606
# 2 18.3995 103.4758 38.2826 -2.4439 6.2799 0.9340
# 3 16.8030 38.2826 59.2789 -9.7820 -5.7402 2.3989
# 4 -12.7767 -2.4439 -9.7820 46.6015 -0.8285 -3.1453
# 5 -2.2209 6.2799 -5.7402 -0.8285 34.4982 -8.9622
# 6 8.6606 0.9340 2.3989 -3.1453 -8.9622 40.5242
#
#
#
# Elastic Compliance Matrix: (Units=1/GPa)
#
#
# Indices 1 2 3 4 5 6 
#
# 1 0.014070 -0.001548 -0.002351 0.003115 0.000210 -0.002544
# 2 -0.001548 0.013460 -0.008921 -0.001701 -0.004209 -0.000514
# 3 -0.002351 -0.008921 0.024524 0.004200 0.005884 0.000883
# 4 0.003115 -0.001701 0.004200 0.023237 0.002131 0.001400
# 5 0.000210 -0.004209 0.005884 0.002131 0.032638 0.007087
# 6 -0.002544 -0.000514 0.000883 0.001400 0.007087 0.026856
#
#
# Mechanical properties :
#
#
# Convention : Reuss Voigt Hill
#
# Bulk Modulus (GPa) = 37.85944 43.33961 40.59952
# Shear Modulus (GPa) = 29.54560 35.63154 32.58857
#
# Velocity S-wave (km/s) = 3.43540 3.77267 3.60798
# Velocity P-wave (km/s) = 5.55508 6.02407 5.79432
#
# Compressibility (1/GPa) = 0.02641350
#
# Stress axis : x y z
#
# Youngs Moduli (GPa) = 71.07174 74.29577 40.77650
#
# Poissons Ratio (x) = 0.11503 0.09587
# Poissons Ratio (y) = 0.11004 0.36376
# Poissons Ratio (z) = 0.16709 0.66278
#
# Static dielectric constant tensor:
#      x y z
#    x 2.013580 -0.004950 0.054120 
#    y -0.004950 1.971800 0.003950 
#    z 0.054120 0.003950 1.984770 
# 
# From -- ./inp_files/38783.got.cif
#   From: 2010.05.17/outbox.cif.g08.bks.cpg/sg2_20_cif.got.tgz:38783.got - 2010.06.03 11:33:40.
