data_PCOD9052187
_publ_section_title
;
Structure prediction by ZEFSAII (Michael W. Deem and Ramdas Pophale) SiO2 
 PCOD9052187
Probable space group: P -1
;
_chemical_formula_sum "Si O2"
_cell_formula_units_Z 15
_cell_length_a 13.529291
_cell_length_b 25.995331
_cell_length_c 25.651479
_cell_angle_alpha 168.897952
_cell_angle_beta 22.590304
_cell_angle_gamma 157.380321
_cell_volume 649.278046
_symmetry_space_group_name_H-M "P -1"
_symmetry_group_IT_number 2
_symmetry_cell_setting 'triclinic'
loop_
_space_group_symop_operation_xyz
x,y,z
-x,-y,-z
loop_
_atom_site_type_symbol
_atom_site_label
_atom_site_fract_x
_atom_site_fract_y
_atom_site_fract_z
Si Si1 0.024746 0.719365 0.896067
Si Si2 0.368842 0.681628 0.860299
Si Si3 0.321564 0.868671 0.504454
Si Si4 0.500000 0.500000 0.500000
Si Si5 0.640069 0.251093 0.328781
Si Si6 0.419514 0.140730 0.521639
Si Si7 0.092897 0.567842 0.081962
Si Si8 0.181821 0.797247 0.699306
O O1 0.294377 0.659097 0.727915
O O2 0.082948 0.742105 0.828324
O O3 0.797942 0.457452 0.762648
O O4 0.930748 0.990007 0.228486
O O5 0.376895 0.581187 0.697176
O O6 0.600925 0.558201 0.649824
O O7 0.121980 0.549664 0.885582
O O8 0.431148 0.009500 0.160681
O O9 0.507079 0.919080 0.514943
O O10 0.500000 0.000000 0.500000
O O11 0.609237 0.163329 0.316284
O O12 0.678707 0.156112 0.376894
O O13 0.190735 0.892650 0.365095
O O14 0.330964 0.422661 0.835391
O O15 0.000000 0.500000 0.000000
O O16 0.000000 0.500000 0.500000
O O17 0.000000 0.000000 0.000000
#
# Coordination Sequence:
#
# PCOD9052187 Si02
#       8
#     2   2   2   1   2   2   2   2
#     4  11  24  45  68  99 138 174 245 287 358 409
#     4  11  24  41  66  97 133 177 228 283 364 406
#     4  12  27  44  69  97 143 192 235 284 346 431
#     4  10  26  42  74 100 134 184 238 314 352 408
#     4  11  22  42  65  97 131 173 217 294 349 414
#     4  12  26  44  68 104 137 190 237 280 363 426
#     4  12  25  45  71 101 145 184 235 296 355 435
#     4  12  23  40  68  96 132 170 225 279 347 413
#
# _framework density 23.102582999999999
#
# number of rings (size 3 to 8) (size 9 to 14) (size 15 to 20)
#    0.000    0.533    0.000    8.800    3.733    4.800 
#    0.000    0.000    0.000    0.000    0.000    0.000 
#    0.000    0.000    0.000    0.000    0.000    0.000 
#
# Total GULP energy -83650.393278 kJ/mol
# GULP energy per Si atom -5576.692885 kJ/mol
# Density = 2.305000 g / cm^3
# Si number density = 23.102583 Si / 1000 Ang^3
#
#
#
# Elastic Constant Matrix: (Units=GPa)
#
#
# Indices 1 2 3 4 5 6 
#
# 1 127.2517 11.0794 3.6868 -10.1807 -2.0848 -31.2997
# 2 11.0794 97.9525 -2.3080 3.7937 14.8529 -26.6395
# 3 3.6868 -2.3080 79.0970 -2.5691 -6.4354 -2.0939
# 4 -10.1807 3.7937 -2.5691 49.9024 2.7453 2.0193
# 5 -2.0848 14.8529 -6.4354 2.7453 25.1929 -10.2195
# 6 -31.2997 -26.6395 -2.0939 2.0193 -10.2195 26.0611
#
#
#
# Elastic Compliance Matrix: (Units=1/GPa)
#
#
# Indices 1 2 3 4 5 6 
#
# 1 0.013384 0.003389 0.000804 0.001125 0.008454 0.022831
# 2 0.003389 0.015316 0.000736 -0.001209 -0.000435 0.019708
# 3 0.000804 0.000736 0.013154 0.000331 0.004842 0.004648
# 4 0.001125 -0.001209 0.000331 0.020600 -0.002312 -0.002360
# 5 0.008454 -0.000435 0.004842 -0.002312 0.055067 0.031870
# 6 0.022831 0.019708 0.004648 -0.002360 0.031870 0.098991
#
#
# Mechanical properties :
#
#
# Convention : Reuss Voigt Hill
#
# Bulk Modulus (GPa) = 19.33803 36.57974 27.95888
# Shear Modulus (GPa) = 22.33220 39.68750 31.00985
#
# Velocity S-wave (km/s) = 3.11248 4.14923 3.66767
# Velocity P-wave (km/s) = 4.61577 6.23079 5.48307
#
# Compressibility (1/GPa) = 0.05171159
#
# Stress axis : x y z
#
# Youngs Moduli (GPa) = 74.71426 65.29276 76.01992
#
# Poissons Ratio (x) = -0.22127 -0.06110
# Poissons Ratio (y) = -0.25319 -0.05595
# Poissons Ratio (z) = -0.06005 -0.04806
#
# Static dielectric constant tensor:
#      x y z
#    x 2.009540 0.203660 0.006300 
#    y 0.203660 2.151060 -0.029490 
#    z 0.006300 -0.029490 1.836810 
# 
# From -- ./inp_files/452677.got.cif
#   From: 2010.05.17/outbox.cif.g08.bks.cpg/sg2_227_cif.got.tgz:452677.got - 2010.06.03 11:33:40.
