data_PCOD9052932
_publ_section_title
;
Structure prediction by ZEFSAII (Michael W. Deem and Ramdas Pophale) SiO2 
 PCOD9052932
Probable space group: P -1
;
_chemical_formula_sum "Si O2"
_cell_formula_units_Z 12
_cell_length_a 9.495037
_cell_length_b 5.065328
_cell_length_c 13.208806
_cell_angle_alpha 107.607633
_cell_angle_beta 45.970745
_cell_angle_gamma 100.091902
_cell_volume 434.791867
_symmetry_space_group_name_H-M "P -1"
_symmetry_group_IT_number 2
_symmetry_cell_setting 'triclinic'
loop_
_space_group_symop_operation_xyz
x,y,z
-x,-y,-z
loop_
_atom_site_type_symbol
_atom_site_label
_atom_site_fract_x
_atom_site_fract_y
_atom_site_fract_z
Si Si1 0.420418 0.419290 0.922089
Si Si2 0.407473 0.002231 0.715732
Si Si3 0.004433 0.810014 0.573953
Si Si4 0.268718 0.239616 0.599430
Si Si5 0.855207 0.254728 0.024501
Si Si6 0.950760 0.756199 0.797542
O O1 0.793303 0.671484 0.948341
O O2 0.508177 0.182870 0.774626
O O3 0.500000 0.500000 0.000000
O O4 0.358611 0.668654 0.907838
O O5 0.450511 0.240346 0.429690
O O6 0.215923 0.882738 0.851616
O O7 0.351714 0.190363 0.666155
O O8 0.000000 0.500000 0.500000
O O9 0.849692 0.788557 0.740748
O O10 0.170583 0.952430 0.576687
O O11 0.000000 0.000000 0.500000
O O12 0.119402 0.506375 0.686127
O O13 0.964605 0.071151 0.863050
O O14 0.000000 0.500000 0.000000
#
# Coordination Sequence:
#
# PCOD9052932 Si02
#       6
#     2   2   2   2   2   2
#     4  11  28  50  80 118 166 218 290 354 430 515
#     4  10  28  51  82 119 170 223 280 365 434 517
#     4  12  27  46  79 121 163 222 277 350 426 517
#     4  11  26  52  82 123 171 221 287 358 442 514
#     4  11  28  51  87 120 165 223 296 352 432 516
#     4  11  27  50  85 119 165 220 292 348 434 515
#
# _framework density 27.599412999999998
#
# number of rings (size 3 to 8) (size 9 to 14) (size 15 to 20)
#    0.000    1.000    1.667    1.000    9.333    8.667 
#    0.000    4.167    0.000    0.000    0.000    0.000 
#    0.000    0.000    0.000    0.000    0.000    0.000 
#
# Total GULP energy -66997.672173 kJ/mol
# GULP energy per Si atom -5583.139348 kJ/mol
# Density = 2.753660 g / cm^3
# Si number density = 27.599413 Si / 1000 Ang^3
#
#
#
# Elastic Constant Matrix: (Units=GPa)
#
#
# Indices 1 2 3 4 5 6 
#
# 1 120.4061 43.2847 58.0522 22.1434 53.4185 -5.2016
# 2 43.2847 161.8421 74.4658 20.8246 33.7130 -19.6536
# 3 58.0522 74.4658 253.7769 20.3088 35.0348 -3.0953
# 4 22.1434 20.8246 20.3088 56.9845 1.3841 14.1760
# 5 53.4185 33.7130 35.0348 1.3841 62.9756 -5.1248
# 6 -5.2016 -19.6536 -3.0953 14.1760 -5.1248 43.8788
#
#
#
# Elastic Compliance Matrix: (Units=1/GPa)
#
#
# Indices 1 2 3 4 5 6 
#
# 1 0.015477 0.000026 -0.001393 -0.005784 -0.012061 0.002208
# 2 0.000026 0.008672 -0.001760 -0.003606 -0.003236 0.004550
# 3 -0.001393 -0.001760 0.004888 -0.000405 -0.000631 -0.000552
# 4 -0.005784 -0.003606 -0.000405 0.023410 0.005797 -0.009215
# 5 -0.012061 -0.003236 -0.000631 0.005797 0.027941 -0.001533
# 6 0.002208 0.004550 -0.000552 -0.009215 -0.001533 0.027849
#
#
# Mechanical properties :
#
#
# Convention : Reuss Voigt Hill
#
# Bulk Modulus (GPa) = 43.89006 98.62562 71.25784
# Shear Modulus (GPa) = 40.95454 56.78260 48.86857
#
# Velocity S-wave (km/s) = 3.85631 4.54076 4.21246
# Velocity P-wave (km/s) = 5.98040 7.95636 7.03807
#
# Compressibility (1/GPa) = 0.02278420
#
# Stress axis : x y z
#
# Youngs Moduli (GPa) = 64.61051 115.31090 204.56194
#
# Poissons Ratio (x) = -0.00305 0.28504
# Poissons Ratio (y) = -0.00171 0.36001
# Poissons Ratio (z) = 0.09003 0.20294
#
# Static dielectric constant tensor:
#      x y z
#    x 2.244790 0.091560 -0.068090 
#    y 0.091560 2.523530 -0.000800 
#    z -0.068090 -0.000800 2.254070 
# 
# From -- ./inp_files/488743.got.cif
#   From: 2010.05.17/outbox.cif.g08.bks.cpg/sg2_245_cif.got.tgz:488743.got - 2010.06.03 11:33:40.
