data_PCOD9052218
_publ_section_title
;
Structure prediction by ZEFSAII (Michael W. Deem and Ramdas Pophale) SiO2 
 PCOD9052218
Probable space group: P -1
;
_chemical_formula_sum "Si O2"
_cell_formula_units_Z 12
_cell_length_a 9.120105
_cell_length_b 14.749287
_cell_length_c 7.891382
_cell_angle_alpha 114.246797
_cell_angle_beta 33.074220
_cell_angle_gamma 98.520187
_cell_volume 485.501764
_symmetry_space_group_name_H-M "P -1"
_symmetry_group_IT_number 2
_symmetry_cell_setting 'triclinic'
loop_
_space_group_symop_operation_xyz
x,y,z
-x,-y,-z
loop_
_atom_site_type_symbol
_atom_site_label
_atom_site_fract_x
_atom_site_fract_y
_atom_site_fract_z
Si Si1 0.446839 0.392723 0.423331
Si Si2 0.740062 0.195875 0.509065
Si Si3 0.897174 0.738974 0.253324
Si Si4 0.333432 0.426501 0.159182
Si Si5 0.551711 0.072282 0.356983
Si Si6 0.314977 0.136151 0.096708
O O1 0.500000 0.500000 0.500000
O O2 0.196550 0.363948 0.734946
O O3 0.383329 0.397090 0.287250
O O4 0.756968 0.298639 0.100056
O O5 0.772933 0.120689 0.256924
O O6 0.038541 0.199142 0.289800
O O7 0.490707 0.314951 0.819584
O O8 0.605453 0.144512 0.747150
O O9 0.733839 0.823318 0.331367
O O10 0.763565 0.804818 0.604490
O O11 0.000000 0.500000 0.500000
O O12 0.500000 0.500000 0.000000
O O13 0.500000 0.000000 0.500000
O O14 0.654995 0.987826 0.037722
#
# Coordination Sequence:
#
# PCOD9052218 Si02
#       6
#     2   2   2   2   2   2
#     4  12  28  47  69 102 138 179 231 277 339 407
#     4  11  23  43  66  98 136 171 224 275 337 397
#     4  12  24  47  71  99 138 184 220 283 339 401
#     4  12  25  43  71  98 134 176 225 283 337 396
#     4  10  26  43  71 104 137 177 229 281 336 405
#     4  11  21  45  67  95 134 176 221 274 331 405
#
# _framework density 24.716698999999998
#
# number of rings (size 3 to 8) (size 9 to 14) (size 15 to 20)
#    0.000    0.667    3.333    3.500    4.667    5.333 
#    0.000    5.833    0.000    0.000    0.000    0.000 
#    0.000    0.000    0.000    0.000    0.000    0.000 
#
# Total GULP energy -67223.274638 kJ/mol
# GULP energy per Si atom -5601.939553 kJ/mol
# Density = 2.466044 g / cm^3
# Si number density = 24.716699 Si / 1000 Ang^3
#
#
#
# Elastic Constant Matrix: (Units=GPa)
#
#
# Indices 1 2 3 4 5 6 
#
# 1 102.6034 40.8162 18.6465 0.3269 -20.6945 -4.7090
# 2 40.8162 120.9581 23.1687 13.3605 -5.3756 5.8942
# 3 18.6465 23.1687 80.3264 -4.5416 -34.7020 -1.9782
# 4 0.3269 13.3605 -4.5416 54.0215 5.5520 0.5823
# 5 -20.6945 -5.3756 -34.7020 5.5520 48.6811 16.9592
# 6 -4.7090 5.8942 -1.9782 0.5823 16.9592 44.4771
#
#
#
# Elastic Compliance Matrix: (Units=1/GPa)
#
#
# Indices 1 2 3 4 5 6 
#
# 1 0.012301 -0.004076 0.000581 0.000451 0.005181 -0.000113
# 2 -0.004076 0.010500 -0.003193 -0.002606 -0.002168 -0.001104
# 3 0.000581 -0.003193 0.019902 0.000908 0.015573 -0.004580
# 4 0.000451 -0.002606 0.000908 0.019424 -0.001991 0.000938
# 5 0.005181 -0.002168 0.015573 -0.001991 0.038392 -0.013084
# 6 -0.000113 -0.001104 -0.004580 0.000938 -0.013084 0.027391
#
#
# Mechanical properties :
#
#
# Convention : Reuss Voigt Hill
#
# Bulk Modulus (GPa) = 34.09930 52.12786 43.11358
# Shear Modulus (GPa) = 33.09950 44.18639 38.64295
#
# Velocity S-wave (km/s) = 3.66342 4.23272 3.95832
# Velocity P-wave (km/s) = 5.63207 6.70998 6.19451
#
# Compressibility (1/GPa) = 0.02932612
#
# Stress axis : x y z
#
# Youngs Moduli (GPa) = 81.29742 95.24049 50.24681
#
# Poissons Ratio (x) = 0.38821 -0.02922
# Poissons Ratio (y) = 0.33138 0.16045
# Poissons Ratio (z) = -0.04727 0.30413
#
# Static dielectric constant tensor:
#      x y z
#    x 1.967380 0.018920 0.049580 
#    y 0.018920 2.006160 0.059630 
#    z 0.049580 0.059630 1.929750 
# 
# From -- ./inp_files/24383.got.cif
#   From: 2010.05.17/outbox.cif.g08.bks.cpg/sg2_13_cif.got.tgz:24383.got - 2010.06.03 11:33:40.
