data_PCOD9052707
_publ_section_title
;
Structure prediction by ZEFSAII (Michael W. Deem and Ramdas Pophale) SiO2 
 PCOD9052707
Probable space group: P -1
;
_chemical_formula_sum "Si O2"
_cell_formula_units_Z 16
_cell_length_a 11.754475
_cell_length_b 12.216368
_cell_length_c 9.168511
_cell_angle_alpha 59.750340
_cell_angle_beta 128.654715
_cell_angle_gamma 145.050144
_cell_volume 588.881594
_symmetry_space_group_name_H-M "P -1"
_symmetry_group_IT_number 2
_symmetry_cell_setting 'triclinic'
loop_
_space_group_symop_operation_xyz
x,y,z
-x,-y,-z
loop_
_atom_site_type_symbol
_atom_site_label
_atom_site_fract_x
_atom_site_fract_y
_atom_site_fract_z
Si Si1 0.304318 0.887678 0.807207
Si Si2 0.016178 0.472613 0.858728
Si Si3 0.122302 0.981335 0.780078
Si Si4 0.794841 0.675757 0.930933
Si Si5 0.370631 0.375968 0.623952
Si Si6 0.183055 0.492831 0.558686
Si Si7 0.717464 0.080127 0.550114
Si Si8 0.639064 0.806879 0.878248
O O1 0.221963 0.694556 0.832091
O O2 0.131030 0.859586 0.775236
O O3 0.348075 0.986611 0.625411
O O4 0.500000 0.000000 0.000000
O O5 0.833554 0.409871 0.644788
O O6 0.051206 0.347884 0.937357
O O7 0.000000 0.500000 0.000000
O O8 0.892341 0.832467 0.779604
O O9 0.707095 0.906125 0.022071
O O10 0.208473 0.152282 0.636475
O O11 0.563083 0.471795 0.828833
O O12 0.742620 0.733749 0.985879
O O13 0.500000 0.500000 0.500000
O O14 0.240303 0.406755 0.568395
O O15 0.383282 0.638406 0.735669
O O16 0.945274 0.309643 0.564836
O O17 0.753395 0.977222 0.740621
O O18 0.500000 0.000000 0.500000
#
# Coordination Sequence:
#
# PCOD9052707 Si02
#       8
#     2   2   2   2   2   2   2   2
#     4  11  25  44  76 112 153 201 264 330 394 482
#     4  11  22  45  76 116 156 208 271 324 408 462
#     4  12  26  47  78 115 161 209 267 325 404 489
#     4  11  25  46  78 115 160 216 265 333 395 483
#     4  11  26  46  78 117 162 204 263 331 411 473
#     4  10  26  48  76 114 156 210 270 331 391 488
#     4  11  26  49  77 111 159 208 269 334 405 471
#     4  11  27  49  79 117 161 211 267 326 411 481
#
# _framework density 27.170148000000001
#
# number of rings (size 3 to 8) (size 9 to 14) (size 15 to 20)
#    0.000    1.000    1.250    3.375    7.000    6.000 
#    0.000    0.000    0.000    0.000    0.000    0.000 
#    0.000    0.000    0.000    0.000    0.000    0.000 
#
# Total GULP energy -89671.837084 kJ/mol
# GULP energy per Si atom -5604.489818 kJ/mol
# Density = 2.710831 g / cm^3
# Si number density = 27.170148 Si / 1000 Ang^3
#
#
#
# Elastic Constant Matrix: (Units=GPa)
#
#
# Indices 1 2 3 4 5 6 
#
# 1 160.5960 32.7502 54.6808 -11.0717 -8.2346 1.5694
# 2 32.7502 177.1202 43.6857 5.2625 -1.8851 -1.8790
# 3 54.6808 43.6857 160.4174 1.5031 -14.3772 -2.6902
# 4 -11.0717 5.2625 1.5031 62.8019 -0.9606 1.4851
# 5 -8.2346 -1.8851 -14.3772 -0.9606 50.5610 -8.5812
# 6 1.5694 -1.8790 -2.6902 1.4851 -8.5812 46.8658
#
#
#
# Elastic Compliance Matrix: (Units=1/GPa)
#
#
# Indices 1 2 3 4 5 6 
#
# 1 0.007284 -0.000838 -0.002230 0.001424 0.000486 -0.000362
# 2 -0.000838 0.006166 -0.001411 -0.000639 -0.000293 0.000161
# 3 -0.002230 -0.001411 0.007563 -0.000447 0.001863 0.000808
# 4 0.001424 -0.000639 -0.000447 0.016256 0.000295 -0.000560
# 5 0.000486 -0.000293 0.001863 0.000295 0.021048 0.003923
# 6 -0.000362 0.000161 0.000808 -0.000560 0.003923 0.022139
#
#
# Mechanical properties :
#
#
# Convention : Reuss Voigt Hill
#
# Bulk Modulus (GPa) = 82.95695 84.48523 83.72109
# Shear Modulus (GPa) = 53.51463 56.51355 55.01409
#
# Velocity S-wave (km/s) = 4.44284 4.56563 4.50466
# Velocity P-wave (km/s) = 7.54435 7.67826 7.61160
#
# Compressibility (1/GPa) = 0.01205444
#
# Stress axis : x y z
#
# Youngs Moduli (GPa) = 137.29314 162.16854 132.22122
#
# Poissons Ratio (x) = 0.13583 0.29491
# Poissons Ratio (y) = 0.11500 0.18660
# Poissons Ratio (z) = 0.30623 0.22887
#
# Static dielectric constant tensor:
#      x y z
#    x 2.107570 0.011300 0.044040 
#    y 0.011300 2.127430 0.005770 
#    z 0.044040 0.005770 2.233840 
# 
# From -- ./inp_files/272634.got.cif
#   From: 2010.05.17/outbox.cif.g08.bks.cpg/sg2_137_cif.got.tgz:272634.got - 2010.06.03 11:33:40.
