data_PCOD9052335
_publ_section_title
;
Structure prediction by ZEFSAII (Michael W. Deem and Ramdas Pophale) SiO2 
 PCOD9052335
Probable space group: P -1
;
_chemical_formula_sum "Si O2"
_cell_formula_units_Z 16
_cell_length_a 8.882924
_cell_length_b 9.989658
_cell_length_c 15.141376
_cell_angle_alpha 46.568454
_cell_angle_beta 75.800338
_cell_angle_gamma 111.585995
_cell_volume 612.416071
_symmetry_space_group_name_H-M "P -1"
_symmetry_group_IT_number 2
_symmetry_cell_setting 'triclinic'
loop_
_space_group_symop_operation_xyz
x,y,z
-x,-y,-z
loop_
_atom_site_type_symbol
_atom_site_label
_atom_site_fract_x
_atom_site_fract_y
_atom_site_fract_z
Si Si1 0.716321 0.487993 0.443783
Si Si2 0.563042 0.664239 0.793750
Si Si3 0.908978 0.787656 0.462584
Si Si4 0.422708 0.155681 0.484035
Si Si5 0.757788 0.916914 0.182557
Si Si6 0.537949 0.245724 0.051759
Si Si7 0.607681 0.217878 0.810055
Si Si8 0.031405 0.513025 0.883991
O O1 0.880851 0.655558 0.432311
O O2 0.651137 0.316953 0.441725
O O3 0.813027 0.757301 0.258600
O O4 0.448571 0.237706 0.641586
O O5 0.535980 0.738432 0.670225
O O6 0.450268 0.680750 0.881661
O O7 0.477501 0.374542 0.946605
O O8 0.840267 0.911879 0.674904
O O9 0.729326 0.800085 0.479350
O O10 0.831434 0.549872 0.645533
O O11 0.253042 0.826075 0.672266
O O12 0.599223 0.823386 0.164247
O O13 0.985667 0.254288 0.995324
O O14 0.366537 0.914405 0.210358
O O15 0.798996 0.399664 0.925520
O O16 0.500000 0.000000 0.000000
O O17 0.000000 0.500000 0.000000
#
# Coordination Sequence:
#
# PCOD9052335 Si02
#       8
#     2   2   2   2   2   2   2   2
#     4  10  17  35  56  88 115 150 191 253 298 337
#     4  11  25  40  59  87 127 167 195 242 311 365
#     4  11  20  36  61  88 116 156 206 245 298 355
#     4  12  20  35  63  95 114 155 212 251 286 361
#     4   9  17  30  50  84 116 140 180 249 306 322
#     4  10  24  42  57  85 128 162 193 251 314 357
#     4  10  20  33  60  86 113 150 202 256 292 347
#     4  11  20  34  63  89 115 152 203 254 296 350
#
# _framework density 26.126027000000001
#
# number of rings (size 3 to 8) (size 9 to 14) (size 15 to 20)
#    0.000    1.500    6.250    1.125    3.500    0.500 
#    0.000    0.625    0.000    3.000    0.000    0.000 
#    0.000    0.000    0.000    0.000    0.000    0.000 
#
# Total GULP energy -89243.951430 kJ/mol
# GULP energy per Si atom -5577.746964 kJ/mol
# Density = 2.606656 g / cm^3
# Si number density = 26.126027 Si / 1000 Ang^3
#
#
#
# Elastic Constant Matrix: (Units=GPa)
#
#
# Indices 1 2 3 4 5 6 
#
# 1 57.3205 10.1585 14.8654 1.3025 4.5539 -3.8447
# 2 10.1585 87.7511 30.0834 5.2273 -0.6950 -2.4460
# 3 14.8654 30.0834 139.4060 -14.4166 28.6796 -7.4287
# 4 1.3025 5.2273 -14.4166 60.0829 3.6976 22.2694
# 5 4.5539 -0.6950 28.6796 3.6976 21.9796 -4.1884
# 6 -3.8447 -2.4460 -7.4287 22.2694 -4.1884 16.9984
#
#
#
# Elastic Compliance Matrix: (Units=1/GPa)
#
#
# Indices 1 2 3 4 5 6 
#
# 1 0.018742 -0.000992 -0.001955 -0.004182 0.001051 0.008980
# 2 -0.000992 0.014334 -0.005534 -0.008012 0.011666 0.012791
# 3 -0.001955 -0.005534 0.013338 0.010365 -0.021647 -0.014322
# 4 -0.004182 -0.008012 0.010365 0.046970 -0.033656 -0.067396
# 5 0.001051 0.011666 -0.021647 -0.033656 0.090782 0.058917
# 6 0.008980 0.012791 -0.014322 -0.067396 0.058917 0.159253
#
#
# Mechanical properties :
#
#
# Convention : Reuss Voigt Hill
#
# Bulk Modulus (GPa) = 33.95267 43.85470 38.90368
# Shear Modulus (GPa) = 13.50627 35.10353 24.30490
#
# Velocity S-wave (km/s) = 2.27616 3.66952 3.05338
# Velocity P-wave (km/s) = 4.46450 5.89713 5.23010
#
# Compressibility (1/GPa) = 0.02945277
#
# Stress axis : x y z
#
# Youngs Moduli (GPa) = 53.35518 69.76281 74.97354
#
# Poissons Ratio (x) = 0.06919 0.14655
# Poissons Ratio (y) = 0.05292 0.41494
# Poissons Ratio (z) = 0.10429 0.38610
#
# Static dielectric constant tensor:
#      x y z
#    x 2.166050 0.005540 -0.082830 
#    y 0.005540 2.197430 0.035880 
#    z -0.082830 0.035880 2.082650 
# 
# From -- ./inp_files/519540.got.cif
#   From: 2010.05.17/outbox.cif.g08.bks.cpg/sg2_260_cif.got.tgz:519540.got - 2010.06.03 11:33:40.
