data_PCOD9052780
_publ_section_title
;
Structure prediction by ZEFSAII (Michael W. Deem and Ramdas Pophale) SiO2 
 PCOD9052780
Probable space group: P -1
;
_chemical_formula_sum "Si O2"
_cell_formula_units_Z 13
_cell_length_a 9.314481
_cell_length_b 10.994123
_cell_length_c 14.184261
_cell_angle_alpha 148.154140
_cell_angle_beta 108.839696
_cell_angle_gamma 92.643481
_cell_volume 556.323939
_symmetry_space_group_name_H-M "P -1"
_symmetry_group_IT_number 2
_symmetry_cell_setting 'triclinic'
loop_
_space_group_symop_operation_xyz
x,y,z
-x,-y,-z
loop_
_atom_site_type_symbol
_atom_site_label
_atom_site_fract_x
_atom_site_fract_y
_atom_site_fract_z
Si Si1 0.564009 0.077274 0.671095
Si Si2 0.936264 0.155653 0.024364
Si Si3 0.702738 0.740617 0.538218
Si Si4 0.056299 0.052689 0.436573
Si Si5 0.503028 0.877272 0.820232
Si Si6 0.245388 0.866954 0.600465
Si Si7 0.000000 0.500000 0.000000
O O1 0.500000 0.000000 0.500000
O O2 0.557762 0.814597 0.541117
O O3 0.407119 0.075579 0.692514
O O4 0.787525 0.380918 0.923386
O O5 0.896979 0.031894 0.826813
O O6 0.724652 0.047264 0.942588
O O7 0.094429 0.518203 0.302682
O O8 0.000000 0.000000 0.000000
O O9 0.756629 0.669353 0.403176
O O10 0.604029 0.469395 0.410694
O O11 0.879626 0.027105 0.335802
O O12 0.100921 0.832399 0.276072
O O13 0.000000 0.000000 0.500000
O O14 0.367664 0.888701 0.727917
O O15 0.500000 0.000000 0.000000
#
# Coordination Sequence:
#
# PCOD9052780 Si02
#       7
#     2   2   2   2   2   2   1
#     4  11  25  43  74 104 144 194 250 303 370 442
#     4  12  25  45  78 105 153 197 247 307 376 451
#     4  11  24  47  72 109 148 197 250 306 374 453
#     4  11  27  46  76 107 149 195 253 305 371 450
#     4  12  27  45  70 111 150 193 250 309 378 450
#     4  12  26  46  73 111 147 193 252 314 375 440
#     4  10  26  50  70 100 146 196 246 298 376 430
#
# _framework density 23.367683
#
# number of rings (size 3 to 8) (size 9 to 14) (size 15 to 20)
#    0.000    0.615    3.077    4.154   10.769    4.308 
#    0.000    0.000    0.000    0.000    0.000    0.000 
#    0.000    0.000    0.000    0.000    0.000    0.000 
#
# Total GULP energy -72415.850906 kJ/mol
# GULP energy per Si atom -5570.450070 kJ/mol
# Density = 2.331450 g / cm^3
# Si number density = 23.367683 Si / 1000 Ang^3
#
#
#
# Elastic Constant Matrix: (Units=GPa)
#
#
# Indices 1 2 3 4 5 6 
#
# 1 135.8312 15.9022 20.8948 1.9872 11.6854 7.9634
# 2 15.9022 85.9545 20.0272 -32.7150 3.0389 -0.8683
# 3 20.8948 20.0272 81.9024 -8.7900 10.0803 4.9323
# 4 1.9872 -32.7150 -8.7900 26.6506 8.5687 5.0219
# 5 11.6854 3.0389 10.0803 8.5687 44.1024 2.1847
# 6 7.9634 -0.8683 4.9323 5.0219 2.1847 57.7530
#
#
#
# Elastic Compliance Matrix: (Units=1/GPa)
#
#
# Indices 1 2 3 4 5 6 
#
# 1 0.008092 -0.002594 -0.001727 -0.003992 -0.000764 -0.000631
# 2 -0.002594 0.025446 -0.000915 0.033836 -0.007340 -0.001846
# 3 -0.001727 -0.000915 0.013924 0.004984 -0.003568 -0.001263
# 4 -0.003992 0.033836 0.004984 0.088387 -0.019272 -0.006323
# 5 -0.000764 -0.007340 -0.003568 -0.019272 0.027897 0.000920
# 6 -0.000631 -0.001846 -0.001263 -0.006323 0.000920 0.017997
#
#
# Mechanical properties :
#
#
# Convention : Reuss Voigt Hill
#
# Bulk Modulus (GPa) = 27.03263 46.37071 36.70167
# Shear Modulus (GPa) = 24.44454 42.15881 33.30167
#
# Velocity S-wave (km/s) = 3.23783 4.25214 3.77917
# Velocity P-wave (km/s) = 5.05683 6.63284 5.89772
#
# Compressibility (1/GPa) = 0.03699234
#
# Stress axis : x y z
#
# Youngs Moduli (GPa) = 123.57144 39.29880 71.81928
#
# Poissons Ratio (x) = 0.10193 0.12401
# Poissons Ratio (y) = 0.32051 0.06569
# Poissons Ratio (z) = 0.21338 0.03594
#
# Static dielectric constant tensor:
#      x y z
#    x 1.899480 0.110370 0.075600 
#    y 0.110370 2.051280 0.099200 
#    z 0.075600 0.099200 1.983640 
# 
# From -- ./inp_files/134630.got.cif
#   From: 2010.05.17/outbox.cif.g08.bks.cpg/sg2_68_cif.got.tgz:134630.got - 2010.06.03 11:33:40.
