data_PCOD9052992
_publ_section_title
;
Structure prediction by ZEFSAII (Michael W. Deem and Ramdas Pophale) SiO2 
 PCOD9052992
Probable space group: P -1
;
_chemical_formula_sum "Si O2"
_cell_formula_units_Z 16
_cell_length_a 15.139646
_cell_length_b 11.199432
_cell_length_c 9.236255
_cell_angle_alpha 54.025547
_cell_angle_beta 45.795302
_cell_angle_gamma 79.873434
_cell_volume 831.516056
_symmetry_space_group_name_H-M "P -1"
_symmetry_group_IT_number 2
_symmetry_cell_setting 'triclinic'
loop_
_space_group_symop_operation_xyz
x,y,z
-x,-y,-z
loop_
_atom_site_type_symbol
_atom_site_label
_atom_site_fract_x
_atom_site_fract_y
_atom_site_fract_z
Si Si1 0.553057 0.676045 0.945730
Si Si2 0.288656 0.392557 0.421808
Si Si3 0.959347 0.501908 0.375843
Si Si4 0.642035 0.998368 0.790451
Si Si5 0.224983 0.786309 0.787399
Si Si6 0.137435 0.024014 0.906257
Si Si7 0.814800 0.142122 0.764529
Si Si8 0.407928 0.825150 0.791097
O O1 0.421872 0.521242 0.255320
O O2 0.663625 0.623948 0.784400
O O3 0.611744 0.822206 0.885729
O O4 0.495702 0.745474 0.827003
O O5 0.170647 0.455310 0.511717
O O6 0.230099 0.212347 0.678947
O O7 0.918337 0.323832 0.486633
O O8 0.000000 0.500000 0.500000
O O9 0.081243 0.637848 0.054995
O O10 0.706422 0.133796 0.496653
O O11 0.745603 0.043463 0.772634
O O12 0.500000 0.000000 0.000000
O O13 0.320987 0.734042 0.817309
O O14 0.203885 0.929029 0.798809
O O15 0.118390 0.943132 0.142994
O O16 0.000000 0.000000 0.000000
O O17 0.694180 0.159703 0.983119
O O18 0.500000 0.000000 0.500000
#
# Coordination Sequence:
#
# PCOD9052992 Si02
#       8
#     2   2   2   2   2   2   2   2
#     4  11  21  35  60  91 125 163 205 260 308 366
#     4  11  21  35  62  93 120 158 210 263 308 351
#     4  12  20  40  65  94 123 152 217 266 303 362
#     4  12  22  40  58  91 133 167 200 250 323 376
#     4  11  22  34  66  92 121 161 209 255 306 371
#     4  11  20  39  64  91 120 160 210 259 311 364
#     4  11  23  37  62  92 123 165 201 257 312 373
#     4  11  17  35  59  92 115 155 217 251 293 360
#
# _framework density 19.241961
#
# number of rings (size 3 to 8) (size 9 to 14) (size 15 to 20)
#    0.000    0.750    8.750    0.750    0.000    0.500 
#    0.000    1.250    0.000    3.000    0.000    0.000 
#    0.000    0.000    0.000    0.000    0.000    0.000 
#
# Total GULP energy -89374.010027 kJ/mol
# GULP energy per Si atom -5585.875627 kJ/mol
# Density = 1.919817 g / cm^3
# Si number density = 19.241961 Si / 1000 Ang^3
#
#
#
# Elastic Constant Matrix: (Units=GPa)
#
#
# Indices 1 2 3 4 5 6 
#
# 1 115.4911 46.8002 41.9524 -6.2271 0.6324 15.4106
# 2 46.8002 76.2808 53.1506 -27.3024 -3.3177 19.2028
# 3 41.9524 53.1506 140.4426 -26.5540 -12.8496 14.4256
# 4 -6.2271 -27.3024 -26.5540 39.7737 5.1089 -1.9015
# 5 0.6324 -3.3177 -12.8496 5.1089 30.6305 -4.1164
# 6 15.4106 19.2028 14.4256 -1.9015 -4.1164 30.4537
#
#
#
# Elastic Compliance Matrix: (Units=1/GPa)
#
#
# Indices 1 2 3 4 5 6 
#
# 1 0.012297 -0.007848 -0.001538 -0.004388 -0.001148 -0.000975
# 2 -0.007848 0.029977 -0.005060 0.015778 -0.002951 -0.011948
# 3 -0.001538 -0.005060 0.010352 0.002755 0.003325 -0.000313
# 4 -0.004388 0.015778 0.002755 0.037323 -0.004248 -0.007278
# 5 -0.001148 -0.002951 0.003325 -0.004248 0.035174 0.005356
# 6 -0.000975 -0.011948 -0.000313 -0.007278 0.005356 0.041282
#
#
# Mechanical properties :
#
#
# Convention : Reuss Voigt Hill
#
# Bulk Modulus (GPa) = 42.13320 68.44679 55.29000
# Shear Modulus (GPa) = 24.60521 32.85900 28.73210
#
# Velocity S-wave (km/s) = 3.57981 4.13688 3.86839
# Velocity P-wave (km/s) = 6.24746 7.64639 6.98205
#
# Compressibility (1/GPa) = 0.02373425
#
# Stress axis : x y z
#
# Youngs Moduli (GPa) = 81.31790 33.35902 96.60030
#
# Poissons Ratio (x) = 0.26181 0.14855
# Poissons Ratio (y) = 0.63821 0.48879
# Poissons Ratio (z) = 0.12505 0.16879
#
# Static dielectric constant tensor:
#      x y z
#    x 1.700190 -0.011310 -0.024320 
#    y -0.011310 1.666890 -0.018640 
#    z -0.024320 -0.018640 1.698310 
# 
# From -- ./inp_files/306450.got.cif
#   From: 2010.05.17/outbox.cif.g08.bks.cpg/sg2_154_cif.got.tgz:306450.got - 2010.06.03 11:33:40.
