data_PCOD9052810
_publ_section_title
;
Structure prediction by ZEFSAII (Michael W. Deem and Ramdas Pophale) SiO2 
 PCOD9052810
Probable space group: P -1
;
_chemical_formula_sum "Si O2"
_cell_formula_units_Z 13
_cell_length_a 5.472823
_cell_length_b 13.647742
_cell_length_c 8.953503
_cell_angle_alpha 69.279244
_cell_angle_beta 107.143771
_cell_angle_gamma 65.076247
_cell_volume 483.372772
_symmetry_space_group_name_H-M "P -1"
_symmetry_group_IT_number 2
_symmetry_cell_setting 'triclinic'
loop_
_space_group_symop_operation_xyz
x,y,z
-x,-y,-z
loop_
_atom_site_type_symbol
_atom_site_label
_atom_site_fract_x
_atom_site_fract_y
_atom_site_fract_z
Si Si1 0.489658 0.465684 0.344015
Si Si2 0.285239 0.211920 0.323429
Si Si3 0.996484 0.908086 0.170308
Si Si4 0.000000 0.500000 0.000000
Si Si5 0.525104 0.684416 0.181301
Si Si6 0.144933 0.241855 0.613045
Si Si7 0.838919 0.117965 0.252931
O O1 0.500000 0.500000 0.500000
O O2 0.573047 0.552505 0.225050
O O3 0.781822 0.315798 0.459209
O O4 0.186527 0.493634 0.191561
O O5 0.327108 0.214148 0.507766
O O6 0.615642 0.133626 0.337729
O O7 0.092523 0.149307 0.305027
O O8 0.080843 0.356728 0.139058
O O9 0.247844 0.770507 0.207436
O O10 0.744965 0.881107 0.198122
O O11 0.995580 0.980869 0.276805
O O12 0.000000 0.000000 0.000000
O O13 0.819199 0.665620 0.326932
O O14 0.416196 0.770859 0.968830
#
# Coordination Sequence:
#
# PCOD9052810 Si02
#       7
#     2   2   2   1   2   2   2
#     4  12  25  49  83 126 165 219 280 347 432 502
#     4  12  29  50  77 121 163 218 271 350 426 496
#     4  10  26  50  78 116 160 219 285 340 416 502
#     4  12  28  50  84 116 178 214 276 342 428 508
#     4  11  25  48  79 115 159 217 278 344 414 501
#     4  12  28  47  81 120 163 215 282 352 413 511
#     4  11  28  49  81 113 164 222 279 335 419 503
#
# _framework density 26.894359000000001
#
# number of rings (size 3 to 8) (size 9 to 14) (size 15 to 20)
#    0.000    0.615    3.077    2.308   12.923    3.692 
#    0.000    0.000    0.000    0.000    0.000    0.000 
#    0.000    0.000    0.000    0.000    0.000    0.000 
#
# Total GULP energy -72477.827680 kJ/mol
# GULP energy per Si atom -5575.217514 kJ/mol
# Density = 2.683315 g / cm^3
# Si number density = 26.894359 Si / 1000 Ang^3
#
#
#
# Elastic Constant Matrix: (Units=GPa)
#
#
# Indices 1 2 3 4 5 6 
#
# 1 158.7748 66.3268 62.9813 25.0756 -22.4849 -3.5703
# 2 66.3268 103.1019 28.3051 14.3726 -16.4395 17.0644
# 3 62.9813 28.3051 130.5476 27.3677 -17.0787 -25.4633
# 4 25.0756 14.3726 27.3677 56.1526 16.1333 1.3487
# 5 -22.4849 -16.4395 -17.0787 16.1333 39.6505 13.2396
# 6 -3.5703 17.0644 -25.4633 1.3487 13.2396 51.8560
#
#
#
# Elastic Compliance Matrix: (Units=1/GPa)
#
#
# Indices 1 2 3 4 5 6 
#
# 1 0.010557 -0.004924 -0.002812 -0.003248 0.004050 0.000017
# 2 -0.004924 0.016128 -0.000969 -0.003429 0.007528 -0.007955
# 3 -0.002812 -0.000969 0.011839 -0.005420 0.003584 0.005165
# 4 -0.003248 -0.003429 -0.005420 0.027778 -0.017571 0.002007
# 5 0.004050 0.007528 0.003584 -0.017571 0.042990 -0.010958
# 6 0.000017 -0.007955 0.005165 0.002007 -0.010958 0.027185
#
#
# Mechanical properties :
#
#
# Convention : Reuss Voigt Hill
#
# Bulk Modulus (GPa) = 47.36049 78.62787 62.99418
# Shear Modulus (GPa) = 31.07010 45.18590 38.12800
#
# Velocity S-wave (km/s) = 3.40261 4.10338 3.76931
# Velocity P-wave (km/s) = 5.75196 7.19372 6.51286
#
# Compressibility (1/GPa) = 0.02111464
#
# Stress axis : x y z
#
# Youngs Moduli (GPa) = 94.72030 62.00393 84.46494
#
# Poissons Ratio (x) = 0.30532 0.23748
# Poissons Ratio (y) = 0.46642 0.08187
# Poissons Ratio (z) = 0.26632 0.06010
#
# Static dielectric constant tensor:
#      x y z
#    x 2.189470 -0.035120 0.003240 
#    y -0.035120 2.051300 -0.045130 
#    z 0.003240 -0.045130 2.101420 
# 
# From -- ./inp_files/132213.got.cif
#   From: 2010.05.17/outbox.cif.g08.bks.cpg/sg2_67_cif.got.tgz:132213.got - 2010.06.03 11:33:40.
