data_PCOD9052677
_publ_section_title
;
Structure prediction by ZEFSAII (Michael W. Deem and Ramdas Pophale) SiO2 
 PCOD9052677
Probable space group: P -1
;
_chemical_formula_sum "Si O2"
_cell_formula_units_Z 14
_cell_length_a 12.135649
_cell_length_b 11.643468
_cell_length_c 12.877675
_cell_angle_alpha 105.073055
_cell_angle_beta 147.080985
_cell_angle_gamma 98.952270
_cell_volume 669.962167
_symmetry_space_group_name_H-M "P -1"
_symmetry_group_IT_number 2
_symmetry_cell_setting 'triclinic'
loop_
_space_group_symop_operation_xyz
x,y,z
-x,-y,-z
loop_
_atom_site_type_symbol
_atom_site_label
_atom_site_fract_x
_atom_site_fract_y
_atom_site_fract_z
Si Si1 0.257353 0.999022 0.821021
Si Si2 0.322932 0.904299 0.232097
Si Si3 0.276589 0.616197 0.168964
Si Si4 0.320221 0.260678 0.807732
Si Si5 0.499473 0.166986 0.265296
Si Si6 0.658308 0.693766 0.667660
Si Si7 0.164224 0.419599 0.835673
O O1 0.319644 0.126847 0.815753
O O2 0.291524 0.065059 0.978779
O O3 0.931426 0.822733 0.496125
O O4 0.500000 0.000000 0.000000
O O5 0.301488 0.753483 0.164242
O O6 0.500000 0.000000 0.500000
O O7 0.463479 0.038126 0.282111
O O8 0.998741 0.816780 0.968595
O O9 0.553693 0.710988 0.482371
O O10 0.231893 0.494115 0.021665
O O11 0.000000 0.500000 0.000000
O O12 0.236433 0.312068 0.848629
O O13 0.625328 0.424281 0.040077
O O14 0.436859 0.258577 0.304036
O O15 0.830310 0.305835 0.522378
O O16 0.500000 0.500000 0.500000
#
# Coordination Sequence:
#
# PCOD9052677 Si02
#       7
#     2   2   2   2   2   2   2
#     4  11  25  48  70 101 137 173 242 290 350 408
#     4  12  26  45  70 102 147 182 230 288 346 426
#     4  12  24  45  70 102 145 182 228 292 347 425
#     4  10  26  48  72  98 137 189 228 300 342 407
#     4  12  26  44  73 103 137 190 228 292 350 418
#     4  12  26  46  68 106 141 186 235 280 357 425
#     4  11  24  47  69 101 140 184 234 279 356 410
#
# _framework density 20.896701
#
# number of rings (size 3 to 8) (size 9 to 14) (size 15 to 20)
#    0.000    0.571    5.714    0.429    6.000    0.571 
#    0.000    0.000    0.000    0.000    0.000    0.000 
#    0.000    0.000    0.000    0.000    0.000    0.000 
#
# Total GULP energy -78362.848243 kJ/mol
# GULP energy per Si atom -5597.346303 kJ/mol
# Density = 2.084914 g / cm^3
# Si number density = 20.896701 Si / 1000 Ang^3
#
#
#
# Elastic Constant Matrix: (Units=GPa)
#
#
# Indices 1 2 3 4 5 6 
#
# 1 112.3078 28.3001 58.3339 4.3355 -11.8302 -21.5416
# 2 28.3001 98.2919 45.2948 0.4423 13.6865 -11.2232
# 3 58.3339 45.2948 149.2969 -0.2835 7.3935 -0.6155
# 4 4.3355 0.4423 -0.2835 33.3287 0.0531 0.1581
# 5 -11.8302 13.6865 7.3935 0.0531 42.4719 4.0528
# 6 -21.5416 -11.2232 -0.6155 0.1581 4.0528 28.7935
#
#
#
# Elastic Compliance Matrix: (Units=1/GPa)
#
#
# Indices 1 2 3 4 5 6 
#
# 1 0.014418 -0.001139 -0.005471 -0.001960 0.004421 0.009615
# 2 -0.001139 0.013207 -0.003321 -0.000071 -0.004458 0.004853
# 3 -0.005471 -0.003321 0.009909 0.000866 -0.001708 -0.004940
# 4 -0.001960 -0.000071 0.000866 0.030276 -0.000562 -0.001562
# 5 0.004421 -0.004458 -0.001708 -0.000562 0.026723 -0.002225
# 6 0.009615 0.004853 -0.004940 -0.001562 -0.002225 0.044031
#
#
# Mechanical properties :
#
#
# Convention : Reuss Voigt Hill
#
# Bulk Modulus (GPa) = 56.58577 69.30603 62.94590
# Shear Modulus (GPa) = 30.42876 36.11665 33.27271
#
# Velocity S-wave (km/s) = 3.82010 4.16184 3.99463
# Velocity P-wave (km/s) = 6.82606 7.50551 7.17383
#
# Compressibility (1/GPa) = 0.01767229
#
# Stress axis : x y z
#
# Youngs Moduli (GPa) = 69.35654 75.71501 100.91616
#
# Poissons Ratio (x) = 0.08624 0.55211
# Poissons Ratio (y) = 0.07900 0.33517
# Poissons Ratio (z) = 0.37945 0.25147
#
# Static dielectric constant tensor:
#      x y z
#    x 1.732690 -0.021830 -0.010410 
#    y -0.021830 1.766590 0.016010 
#    z -0.010410 0.016010 1.733160 
# 
# From -- ./inp_files/61055.got.cif
#   From: 2010.05.17/outbox.cif.g08.bks.cpg/sg2_31_cif.got.tgz:61055.got - 2010.06.03 11:33:40.
