data_PCOD9052749
_publ_section_title
;
Structure prediction by ZEFSAII (Michael W. Deem and Ramdas Pophale) SiO2 
 PCOD9052749
Probable space group: P -1
;
_chemical_formula_sum "Si O2"
_cell_formula_units_Z 16
_cell_length_a 4.994770
_cell_length_b 16.121511
_cell_length_c 8.884049
_cell_angle_alpha 69.181423
_cell_angle_beta 75.803695
_cell_angle_gamma 62.956175
_cell_volume 592.539469
_symmetry_space_group_name_H-M "P -1"
_symmetry_group_IT_number 2
_symmetry_cell_setting 'triclinic'
loop_
_space_group_symop_operation_xyz
x,y,z
-x,-y,-z
loop_
_atom_site_type_symbol
_atom_site_label
_atom_site_fract_x
_atom_site_fract_y
_atom_site_fract_z
Si Si1 0.213454 0.362584 0.918271
Si Si2 0.305949 0.548858 0.849003
Si Si3 0.418340 0.689807 0.525308
Si Si4 0.993484 0.706983 0.311188
Si Si5 0.981489 0.008225 0.730169
Si Si6 0.546693 0.175718 0.115332
Si Si7 0.839188 0.878659 0.581714
Si Si8 0.614805 0.889911 0.105601
O O1 0.242395 0.464084 0.831475
O O2 0.056839 0.344040 0.801084
O O3 0.529370 0.278960 0.994740
O O4 0.000502 0.373691 0.085512
O O5 0.452120 0.601091 0.685971
O O6 0.500000 0.500000 0.000000
O O7 0.731494 0.700709 0.458623
O O8 0.297681 0.673154 0.387887
O O9 0.148829 0.785083 0.569607
O O10 0.888994 0.820580 0.211709
O O11 0.152865 0.922707 0.880530
O O12 0.888090 0.947170 0.658699
O O13 0.208411 0.051747 0.601292
O O14 0.686650 0.097961 0.769371
O O15 0.407885 0.160295 0.302155
O O16 0.329014 0.165993 0.023111
O O17 0.500000 0.000000 0.000000
#
# Coordination Sequence:
#
# PCOD9052749 Si02
#       8
#     2   2   2   2   2   2   2   2
#     4  10  26  49  70 113 142 194 247 308 374 450
#     4  11  27  48  82 109 146 189 247 313 381 452
#     4  12  28  49  79 108 151 198 245 315 367 446
#     4  11  29  50  75 110 155 198 249 301 372 442
#     4  11  24  40  64  98 145 191 245 300 363 431
#     4  11  23  40  70  94 140 190 243 305 361 435
#     4  11  24  40  62 104 137 190 244 296 363 429
#     4  11  23  43  65 104 143 198 248 297 356 430
#
# _framework density 27.002424000000001
#
# number of rings (size 3 to 8) (size 9 to 14) (size 15 to 20)
#    0.000    1.000    3.750    0.750   10.500    3.000 
#    0.000    0.000    0.000    0.000    0.000    0.000 
#    0.000    0.000    0.000    0.000    0.000    0.000 
#
# Total GULP energy -89520.430681 kJ/mol
# GULP energy per Si atom -5595.026918 kJ/mol
# Density = 2.694096 g / cm^3
# Si number density = 27.002424 Si / 1000 Ang^3
#
#
#
# Elastic Constant Matrix: (Units=GPa)
#
#
# Indices 1 2 3 4 5 6 
#
# 1 84.1396 17.8922 13.5996 6.4091 12.9518 7.5175
# 2 17.8922 89.4434 40.3049 7.2332 5.2279 9.5439
# 3 13.5996 40.3049 126.4734 -25.4744 1.2284 11.2224
# 4 6.4091 7.2332 -25.4744 51.0764 -4.4136 4.5673
# 5 12.9518 5.2279 1.2284 -4.4136 46.6444 3.7488
# 6 7.5175 9.5439 11.2224 4.5673 3.7488 43.3720
#
#
#
# Elastic Compliance Matrix: (Units=1/GPa)
#
#
# Indices 1 2 3 4 5 6 
#
# 1 0.013246 -0.001577 -0.001250 -0.002277 -0.003597 -0.001075
# 2 -0.001577 0.014394 -0.005222 -0.004479 -0.001385 -0.000951
# 3 -0.001250 -0.005222 0.011288 0.006869 0.001478 -0.002406
# 4 -0.002277 -0.004479 0.006869 0.024524 0.003538 -0.003285
# 5 -0.003597 -0.001385 0.001478 0.003538 0.023035 -0.001818
# 6 -0.001075 -0.000951 -0.002406 -0.003285 -0.001818 0.024578
#
#
# Mechanical properties :
#
#
# Convention : Reuss Voigt Hill
#
# Bulk Modulus (GPa) = 43.80362 49.29441 46.54902
# Shear Modulus (GPa) = 37.09983 43.43586 40.26785
#
# Velocity S-wave (km/s) = 3.71070 4.01508 3.86588
# Velocity P-wave (km/s) = 5.88357 6.30790 6.09943
#
# Compressibility (1/GPa) = 0.02282916
#
# Stress axis : x y z
#
# Youngs Moduli (GPa) = 75.49652 69.47575 88.58940
#
# Poissons Ratio (x) = 0.10959 0.11073
# Poissons Ratio (y) = 0.11908 0.46259
# Poissons Ratio (z) = 0.09437 0.36278
#
# Static dielectric constant tensor:
#      x y z
#    x 2.150640 -0.046770 -0.066290 
#    y -0.046770 2.320200 0.022510 
#    z -0.066290 0.022510 2.152690 
# 
# From -- ./inp_files/39179.got.cif
#   From: 2010.05.17/outbox.cif.g08.bks.cpg/sg2_20_cif.got.tgz:39179.got - 2010.06.03 11:33:40.
