data_PCOD9052437
_publ_section_title
;
Structure prediction by ZEFSAII (Michael W. Deem and Ramdas Pophale) SiO2 
 PCOD9052437
Probable space group: P -1
;
_chemical_formula_sum "Si O2"
_cell_formula_units_Z 16
_cell_length_a 22.898915
_cell_length_b 18.555114
_cell_length_c 8.911795
_cell_angle_alpha 35.082854
_cell_angle_beta 132.496792
_cell_angle_gamma 159.201070
_cell_volume 694.632706
_symmetry_space_group_name_H-M "P -1"
_symmetry_group_IT_number 2
_symmetry_cell_setting 'triclinic'
loop_
_space_group_symop_operation_xyz
x,y,z
-x,-y,-z
loop_
_atom_site_type_symbol
_atom_site_label
_atom_site_fract_x
_atom_site_fract_y
_atom_site_fract_z
Si Si1 0.464690 0.599609 0.269370
Si Si2 0.920713 0.920895 0.656924
Si Si3 0.961736 0.254651 0.251167
Si Si4 0.018929 0.807515 0.149858
Si Si5 0.336092 0.172072 0.305552
Si Si6 0.262249 0.662655 0.303548
Si Si7 0.455971 0.735376 0.331421
Si Si8 0.876850 0.230530 0.840836
O O1 0.500000 0.500000 0.500000
O O2 0.298304 0.390139 0.223193
O O3 0.416361 0.582164 0.384830
O O4 0.657925 0.933341 0.977905
O O5 0.000449 0.170246 0.407032
O O6 0.000000 0.000000 0.500000
O O7 0.988173 0.912258 0.906281
O O8 0.108195 0.505052 0.199605
O O9 0.766458 0.955710 0.498006
O O10 0.947238 0.329012 0.964195
O O11 0.072886 0.831287 0.041149
O O12 0.830764 0.487245 0.441242
O O13 0.182237 0.986964 0.231485
O O14 0.422348 0.159368 0.508107
O O15 0.500000 0.500000 0.000000
O O16 0.307912 0.596232 0.413959
O O17 0.436708 0.000308 0.019243
O O18 0.000000 0.500000 0.500000
#
# Coordination Sequence:
#
# PCOD9052437 Si02
#       8
#     2   2   2   2   2   2   2   2
#     4  12  24  46  76 107 141 190 243 302 363 428
#     4  12  24  43  70 102 145 181 236 301 361 425
#     4  11  24  45  68 100 142 192 232 294 368 422
#     4  11  27  43  67 105 137 186 239 291 357 428
#     4  11  27  41  70 100 137 180 238 299 356 421
#     4  10  26  46  70 101 143 193 231 291 365 438
#     4  11  24  47  72  99 143 186 240 289 364 431
#     4  12  26  45  71 106 146 189 247 295 362 437
#
# _framework density 23.033756
#
# number of rings (size 3 to 8) (size 9 to 14) (size 15 to 20)
#    0.000    0.750    3.750    1.500   10.500    2.000 
#    2.250    1.250    0.000    0.000    0.000    0.000 
#    0.000    0.000    0.000    0.000    0.000    0.000 
#
# Total GULP energy -89378.582590 kJ/mol
# GULP energy per Si atom -5586.161412 kJ/mol
# Density = 2.298133 g / cm^3
# Si number density = 23.033756 Si / 1000 Ang^3
#
#
#
# Elastic Constant Matrix: (Units=GPa)
#
#
# Indices 1 2 3 4 5 6 
#
# 1 97.4641 26.8236 9.9543 4.2229 -3.3164 12.3274
# 2 26.8236 72.1932 8.6178 18.9201 4.2208 13.1165
# 3 9.9543 8.6178 90.6485 12.3564 -7.8346 6.6142
# 4 4.2229 18.9201 12.3564 38.0415 6.5357 -5.8822
# 5 -3.3164 4.2208 -7.8346 6.5357 37.6337 -4.6558
# 6 12.3274 13.1165 6.6142 -5.8822 -4.6558 27.5237
#
#
#
# Elastic Compliance Matrix: (Units=1/GPa)
#
#
# Indices 1 2 3 4 5 6 
#
# 1 0.011800 -0.003842 -0.000648 0.000173 0.000922 -0.003106
# 2 -0.003842 0.020193 0.000650 -0.011172 -0.001859 -0.010761
# 3 -0.000648 0.000650 0.012277 -0.005295 0.002899 -0.003611
# 4 0.000173 -0.011172 -0.005295 0.036408 -0.004482 0.013542
# 5 0.000922 -0.001859 0.002899 -0.004482 0.028698 0.003673
# 6 -0.003106 -0.010761 -0.003611 0.013542 0.003673 0.047235
#
#
# Mechanical properties :
#
#
# Convention : Reuss Voigt Hill
#
# Bulk Modulus (GPa) = 27.32991 39.01079 33.17035
# Shear Modulus (GPa) = 28.33040 34.96713 31.64876
#
# Velocity S-wave (km/s) = 3.51087 3.90048 3.71079
# Velocity P-wave (km/s) = 5.32221 6.10395 5.72643
#
# Compressibility (1/GPa) = 0.03658995
#
# Stress axis : x y z
#
# Youngs Moduli (GPa) = 84.74262 49.52100 81.45446
#
# Poissons Ratio (x) = 0.19026 0.05277
# Poissons Ratio (y) = 0.32558 -0.05291
# Poissons Ratio (z) = 0.05490 -0.03216
#
# Static dielectric constant tensor:
#      x y z
#    x 1.906490 -0.001750 0.035450 
#    y -0.001750 1.914430 0.001010 
#    z 0.035450 0.001010 1.852670 
# 
# From -- ./inp_files/307665.got.cif
#   From: 2010.05.17/outbox.cif.g08.bks.cpg/sg2_154_cif.got.tgz:307665.got - 2010.06.03 11:33:40.
