data_PCOD9052941
_publ_section_title
;
Structure prediction by ZEFSAII (Michael W. Deem and Ramdas Pophale) SiO2 
 PCOD9052941
Probable space group: P -1
;
_chemical_formula_sum "Si O2"
_cell_formula_units_Z 13
_cell_length_a 14.152356
_cell_length_b 5.861397
_cell_length_c 7.706603
_cell_angle_alpha 62.776149
_cell_angle_beta 56.552684
_cell_angle_gamma 88.871478
_cell_volume 450.446431
_symmetry_space_group_name_H-M "P -1"
_symmetry_group_IT_number 2
_symmetry_cell_setting 'triclinic'
loop_
_space_group_symop_operation_xyz
x,y,z
-x,-y,-z
loop_
_atom_site_type_symbol
_atom_site_label
_atom_site_fract_x
_atom_site_fract_y
_atom_site_fract_z
Si Si1 0.625477 0.648304 0.607589
Si Si2 0.000000 0.500000 0.000000
Si Si3 0.414764 0.186309 0.022369
Si Si4 0.206189 0.542161 0.661914
Si Si5 0.359353 0.836007 0.712073
Si Si6 0.864063 0.463895 0.786792
Si Si7 0.859055 0.060077 0.631571
O O1 0.496169 0.453051 0.751164
O O2 0.727274 0.506834 0.556866
O O3 0.682822 0.897663 0.338296
O O4 0.601675 0.750853 0.782152
O O5 0.906909 0.682547 0.075085
O O6 0.918987 0.399298 0.934034
O O7 0.500000 0.000000 0.000000
O O8 0.281754 0.064853 0.136644
O O9 0.312093 0.668693 0.643430
O O10 0.133532 0.759434 0.619053
O O11 0.282052 0.646485 0.003538
O O12 0.500000 0.000000 0.500000
O O13 0.898628 0.292076 0.657628
O O14 0.896547 0.794424 0.640941
#
# Coordination Sequence:
#
# PCOD9052941 Si02
#       7
#     2   1   2   2   2   2   2
#     4  11  22  40  71 105 148 205 239 301 372 443
#     4  10  28  58  70 110 144 206 248 320 380 440
#     4  11  22  38  69 114 153 190 235 306 371 450
#     4  11  25  47  77 102 150 197 256 312 370 441
#     4  11  25  43  66 108 151 203 238 303 379 453
#     4  11  29  48  77 108 150 196 252 317 373 457
#     4  12  25  47  76 116 144 194 255 312 378 445
#
# _framework density 28.860258000000002
#
# number of rings (size 3 to 8) (size 9 to 14) (size 15 to 20)
#    0.000    0.923    3.077    1.846   10.769    2.462 
#    2.769    0.000    0.000    0.000    0.000    0.000 
#    0.000    0.000    0.000    0.000    0.000    0.000 
#
# Total GULP energy -72489.300586 kJ/mol
# GULP energy per Si atom -5576.100045 kJ/mol
# Density = 2.879457 g / cm^3
# Si number density = 28.860258 Si / 1000 Ang^3
#
#
#
# Elastic Constant Matrix: (Units=GPa)
#
#
# Indices 1 2 3 4 5 6 
#
# 1 126.7457 76.4899 39.2179 28.3020 -24.6114 14.9534
# 2 76.4899 191.7743 76.7899 19.7707 -11.9934 -1.9006
# 3 39.2179 76.7899 94.1249 13.1435 -18.0247 4.5848
# 4 28.3020 19.7707 13.1435 72.7169 -3.8579 -9.9780
# 5 -24.6114 -11.9934 -18.0247 -3.8579 78.6129 0.5675
# 6 14.9534 -1.9006 4.5848 -9.9780 0.5675 44.6500
#
#
#
# Elastic Compliance Matrix: (Units=1/GPa)
#
#
# Indices 1 2 3 4 5 6 
#
# 1 0.012874 -0.004437 -0.000274 -0.004342 0.003117 -0.005482
# 2 -0.004437 0.009377 -0.006283 0.000608 -0.001389 0.002684
# 3 -0.000274 -0.006283 0.016686 -0.001362 0.002731 -0.002228
# 4 -0.004342 0.000608 -0.001362 0.016200 -0.000822 0.005250
# 5 0.003117 -0.001389 0.002731 -0.000822 0.014083 -0.001746
# 6 -0.005482 0.002684 -0.002228 0.005250 -0.001746 0.025771
#
#
# Mechanical properties :
#
#
# Convention : Reuss Voigt Hill
#
# Bulk Modulus (GPa) = 59.00053 88.62669 73.81361
# Shear Modulus (GPa) = 40.77410 53.87244 47.32327
#
# Velocity S-wave (km/s) = 3.76282 4.32518 4.05376
# Velocity P-wave (km/s) = 6.27426 7.46448 6.89510
#
# Compressibility (1/GPa) = 0.01694900
#
# Stress axis : x y z
#
# Youngs Moduli (GPa) = 77.67795 106.64407 59.93135
#
# Poissons Ratio (x) = 0.47316 0.01642
# Poissons Ratio (y) = 0.34464 0.37654
# Poissons Ratio (z) = 0.02129 0.67003
#
# Static dielectric constant tensor:
#      x y z
#    x 2.382720 -0.116320 0.049110 
#    y -0.116320 2.345780 0.103520 
#    z 0.049110 0.103520 -0.465980 
# 
# From -- ./inp_files/286862.got.cif
#   From: 2010.05.17/outbox.cif.g08.bks.cpg/sg2_144_cif.got.tgz:286862.got - 2010.06.03 11:33:40.
