data_PCOD9052918
_publ_section_title
;
Structure prediction by ZEFSAII (Michael W. Deem and Ramdas Pophale) SiO2 
 PCOD9052918
Probable space group: P -1
;
_chemical_formula_sum "Si O2"
_cell_formula_units_Z 15
_cell_length_a 14.777090
_cell_length_b 4.958204
_cell_length_c 19.579410
_cell_angle_alpha 54.813243
_cell_angle_beta 151.379770
_cell_angle_gamma 121.776122
_cell_volume 560.800014
_symmetry_space_group_name_H-M "P -1"
_symmetry_group_IT_number 2
_symmetry_cell_setting 'triclinic'
loop_
_space_group_symop_operation_xyz
x,y,z
-x,-y,-z
loop_
_atom_site_type_symbol
_atom_site_label
_atom_site_fract_x
_atom_site_fract_y
_atom_site_fract_z
Si Si1 0.788767 0.736458 0.608913
Si Si2 0.162691 0.774171 0.771275
Si Si3 0.772097 0.696731 0.757373
Si Si4 0.500000 0.000000 0.000000
Si Si5 0.165162 0.539350 0.660169
Si Si6 0.533713 0.500952 0.838499
Si Si7 0.120435 0.973806 0.014439
Si Si8 0.589956 0.361468 0.412018
O O1 0.754117 0.595776 0.681663
O O2 0.646833 0.604887 0.475653
O O3 0.993785 0.675602 0.723401
O O4 0.759395 0.124542 0.543198
O O5 0.107436 0.724650 0.663171
O O6 0.219672 0.163524 0.771490
O O7 0.369602 0.660689 0.937613
O O8 0.787072 0.374739 0.861361
O O9 0.589782 0.857122 0.645093
O O10 0.964543 0.920833 0.859797
O O11 0.454516 0.862773 0.069517
O O12 0.357900 0.674069 0.733646
O O13 0.000000 0.500000 0.500000
O O14 0.463888 0.477460 0.717614
O O15 0.725161 0.730213 0.933835
O O16 0.000000 0.000000 0.000000
#
# Coordination Sequence:
#
# PCOD9052918 Si02
#       8
#     2   2   2   1   2   2   2   2
#     4  12  27  45  77 110 155 209 257 318 389 463
#     4  11  25  45  69 106 144 186 259 307 378 451
#     4  11  27  45  75 114 159 201 264 312 390 465
#     4  10  28  46  76 110 142 206 254 320 392 460
#     4  11  24  45  72 104 143 195 247 313 378 456
#     4  11  25  48  79 106 160 195 263 320 399 457
#     4  11  25  47  77 117 155 206 256 321 389 466
#     4  12  26  47  74 114 152 206 257 326 387 465
#
# _framework density 26.747502999999998
#
# number of rings (size 3 to 8) (size 9 to 14) (size 15 to 20)
#    0.000    0.800    1.333    4.400    3.733    9.600 
#    0.000    0.000    0.000    0.000    0.000    0.000 
#    0.000    0.000    0.000    0.000    0.000    0.000 
#
# Total GULP energy -83849.358027 kJ/mol
# GULP energy per Si atom -5589.957202 kJ/mol
# Density = 2.668662 g / cm^3
# Si number density = 26.747503 Si / 1000 Ang^3
#
#
#
# Elastic Constant Matrix: (Units=GPa)
#
#
# Indices 1 2 3 4 5 6 
#
# 1 179.2165 53.1684 73.4097 9.2258 -3.9125 10.7929
# 2 53.1684 101.8745 34.3613 13.2231 -5.8914 16.2335
# 3 73.4097 34.3613 121.1602 25.5975 -23.9995 9.5989
# 4 9.2258 13.2231 25.5975 40.6065 1.5200 5.2208
# 5 -3.9125 -5.8914 -23.9995 1.5200 52.1868 8.3507
# 6 10.7929 16.2335 9.5989 5.2208 8.3507 49.5357
#
#
#
# Elastic Compliance Matrix: (Units=1/GPa)
#
#
# Indices 1 2 3 4 5 6 
#
# 1 0.008457 -0.003152 -0.005214 0.002434 -0.002242 0.000322
# 2 -0.003152 0.012607 -0.000526 -0.002688 0.001555 -0.003321
# 3 -0.005214 -0.000526 0.014751 -0.007960 0.006864 -0.001868
# 4 0.002434 -0.002688 -0.007960 0.030205 -0.004578 -0.000519
# 5 -0.002242 0.001555 0.006864 -0.004578 0.023225 -0.004784
# 6 0.000322 -0.003321 -0.001868 -0.000519 -0.004784 0.022429
#
#
# Mechanical properties :
#
#
# Convention : Reuss Voigt Hill
#
# Bulk Modulus (GPa) = 55.46343 80.45890 67.96117
# Shear Modulus (GPa) = 36.90899 44.55325 40.73112
#
# Velocity S-wave (km/s) = 3.71874 4.08572 3.90654
# Velocity P-wave (km/s) = 6.26256 7.23904 6.76843
#
# Compressibility (1/GPa) = 0.01802990
#
# Stress axis : x y z
#
# Youngs Moduli (GPa) = 118.24451 79.32274 67.79084
#
# Poissons Ratio (x) = 0.25003 0.35346
# Poissons Ratio (y) = 0.37271 0.03569
# Poissons Ratio (z) = 0.61653 0.04176
#
# Static dielectric constant tensor:
#      x y z
#    x 1.980100 0.015110 -0.199400 
#    y 0.015110 2.079490 0.031380 
#    z -0.199400 0.031380 1.808660 
# 
# From -- ./inp_files/571511.got.cif
#   From: 2010.05.17/outbox.cif.g08.bks.cpg/sg2_286_cif.got.tgz:571511.got - 2010.06.03 11:33:40.
