data_PCOD9052022
_publ_section_title
;
Structure prediction by ZEFSAII (Michael W. Deem and Ramdas Pophale) SiO2 
 PCOD9052022
Probable space group: P -1
;
_chemical_formula_sum "Si O2"
_cell_formula_units_Z 10
_cell_length_a 8.927965
_cell_length_b 8.991512
_cell_length_c 12.335789
_cell_angle_alpha 145.964020
_cell_angle_beta 38.653301
_cell_angle_gamma 134.059508
_cell_volume 342.884559
_symmetry_space_group_name_H-M "P -1"
_symmetry_group_IT_number 2
_symmetry_cell_setting 'triclinic'
loop_
_space_group_symop_operation_xyz
x,y,z
-x,-y,-z
loop_
_atom_site_type_symbol
_atom_site_label
_atom_site_fract_x
_atom_site_fract_y
_atom_site_fract_z
Si Si1 0.038665 0.142190 0.737298
Si Si2 0.046033 0.440449 0.561157
Si Si3 0.535226 0.158947 0.897012
Si Si4 0.747384 0.742210 0.077912
Si Si5 0.424121 0.618287 0.725948
O O1 0.201759 0.412727 0.768293
O O2 0.790029 0.149975 0.812946
O O3 0.119684 0.138035 0.816547
O O4 0.088591 0.846729 0.494976
O O5 0.326735 0.400065 0.366132
O O6 0.000000 0.500000 0.500000
O O7 0.948745 0.646776 0.824321
O O8 0.561731 0.481877 0.065441
O O9 0.381337 0.922741 0.912747
O O10 0.412155 0.084671 0.802380
O O11 0.500000 0.500000 0.500000
#
# Coordination Sequence:
#
# PCOD9052022 Si02
#       5
#     2   2   2   2   2
#     4  11  26  53  80 110 157 207 255 320 391 457
#     4  11  28  51  75 116 155 198 264 323 379 470
#     4  10  25  49  76 116 154 197 263 317 379 468
#     4  11  25  51  81 110 157 205 257 320 387 461
#     4  11  25  48  80 112 158 204 253 322 394 454
#
# _framework density 29.164334
#
# number of rings (size 3 to 8) (size 9 to 14) (size 15 to 20)
#    0.000    1.200    0.000    3.000    8.400    5.600 
#    7.200    7.000    0.000    0.000    0.000    0.000 
#    0.000    0.000    0.000    0.000    0.000    0.000 
#
# Total GULP energy -55811.530628 kJ/mol
# GULP energy per Si atom -5581.153063 kJ/mol
# Density = 2.909795 g / cm^3
# Si number density = 29.164334 Si / 1000 Ang^3
#
#
#
# Elastic Constant Matrix: (Units=GPa)
#
#
# Indices 1 2 3 4 5 6 
#
# 1 315.8225 109.9182 50.6641 -11.3272 12.7765 -21.0927
# 2 109.9182 187.8271 32.8626 -10.6836 -20.0254 6.8486
# 3 50.6641 32.8626 81.4496 -11.3960 21.4338 2.8067
# 4 -11.3272 -10.6836 -11.3960 41.3617 -2.3102 -2.3988
# 5 12.7765 -20.0254 21.4338 -2.3102 54.1493 -13.5402
# 6 -21.0927 6.8486 2.8067 -2.3988 -13.5402 67.0851
#
#
#
# Elastic Compliance Matrix: (Units=1/GPa)
#
#
# Indices 1 2 3 4 5 6 
#
# 1 0.004416 -0.002465 -0.001525 0.000187 -0.000963 0.001516
# 2 -0.002465 0.007759 -0.002618 0.000821 0.004386 -0.000543
# 3 -0.001525 -0.002618 0.016814 0.002969 -0.007730 -0.002370
# 4 0.000187 0.000821 0.002969 0.025327 0.000373 0.000831
# 5 -0.000963 0.004386 -0.007730 0.000373 0.024527 0.004537
# 6 0.001516 -0.000543 -0.002370 0.000831 0.004537 0.016483
#
#
# Mechanical properties :
#
#
# Convention : Reuss Voigt Hill
#
# Bulk Modulus (GPa) = 63.40151 107.99876 85.70013
# Shear Modulus (GPa) = 43.93761 58.62952 51.28357
#
# Velocity S-wave (km/s) = 3.88564 4.48852 4.19792
# Velocity P-wave (km/s) = 6.47438 7.99837 7.27638
#
# Compressibility (1/GPa) = 0.01577250
#
# Stress axis : x y z
#
# Youngs Moduli (GPa) = 226.46810 128.89056 59.47537
#
# Poissons Ratio (x) = 0.31765 0.09071
# Poissons Ratio (y) = 0.55813 0.15571
# Poissons Ratio (z) = 0.34539 0.33744
#
# Static dielectric constant tensor:
#      x y z
#    x 2.159820 0.000590 -0.003440 
#    y 0.000590 2.184670 -0.090430 
#    z -0.003440 -0.090430 2.456260 
# 
# From -- ./inp_files/383438.got.cif
#   From: 2010.05.17/outbox.cif.g08.bks.cpg/sg2_192_cif.got.tgz:383438.got - 2010.06.03 11:33:40.
