data_PCOD9052714
_publ_section_title
;
Structure prediction by ZEFSAII (Michael W. Deem and Ramdas Pophale) SiO2 
 PCOD9052714
Probable space group: P -1
;
_chemical_formula_sum "Si O2"
_cell_formula_units_Z 12
_cell_length_a 8.933753
_cell_length_b 12.603925
_cell_length_c 5.320025
_cell_angle_alpha 81.987179
_cell_angle_beta 54.587450
_cell_angle_gamma 68.145729
_cell_volume 450.817649
_symmetry_space_group_name_H-M "P -1"
_symmetry_group_IT_number 2
_symmetry_cell_setting 'triclinic'
loop_
_space_group_symop_operation_xyz
x,y,z
-x,-y,-z
loop_
_atom_site_type_symbol
_atom_site_label
_atom_site_fract_x
_atom_site_fract_y
_atom_site_fract_z
Si Si1 0.860202 0.906014 0.415383
Si Si2 0.115298 0.301443 0.851171
Si Si3 0.219554 0.465663 0.388228
Si Si4 0.326546 0.617940 0.537494
Si Si5 0.444619 0.248682 0.920317
Si Si6 0.259701 0.952103 0.006130
O O1 0.861783 0.780735 0.383496
O O2 0.082921 0.903343 0.171286
O O3 0.795298 0.959734 0.734016
O O4 0.735167 0.989962 0.286282
O O5 0.198609 0.402753 0.686210
O O6 0.268639 0.233949 0.938424
O O7 0.885912 0.347389 0.132305
O O8 0.276886 0.575727 0.329468
O O9 0.000000 0.500000 0.500000
O O10 0.360676 0.368933 0.108388
O O11 0.500000 0.500000 0.500000
O O12 0.392208 0.727519 0.424110
O O13 0.547324 0.148654 0.050533
#
# Coordination Sequence:
#
# PCOD9052714 Si02
#       6
#     2   2   2   2   2   2
#     4  10  26  48  77 112 154 196 256 319 379 460
#     4  12  28  47  76 112 151 196 256 317 376 457
#     4  12  26  48  72 109 152 195 253 314 374 453
#     4  12  26  48  74 105 154 201 247 313 379 451
#     4  12  28  46  78 111 147 203 254 309 388 453
#     4  10  26  48  77 113 150 202 253 314 389 457
#
# _framework density 26.618300999999999
#
# number of rings (size 3 to 8) (size 9 to 14) (size 15 to 20)
#    0.000    0.667    3.333    2.000   16.333    1.333 
#    0.000    0.000    0.000    0.000    0.000    0.000 
#    0.000    0.000    0.000    0.000    0.000    0.000 
#
# Total GULP energy -67243.773824 kJ/mol
# GULP energy per Si atom -5603.647819 kJ/mol
# Density = 2.655772 g / cm^3
# Si number density = 26.618301 Si / 1000 Ang^3
#
#
#
# Elastic Constant Matrix: (Units=GPa)
#
#
# Indices 1 2 3 4 5 6 
#
# 1 168.9917 49.3638 37.8213 0.5312 -13.1821 -11.3030
# 2 49.3638 81.9073 11.1371 -6.9612 -10.8178 14.8699
# 3 37.8213 11.1371 78.7053 -3.9476 -15.7162 22.1051
# 4 0.5312 -6.9612 -3.9476 43.8122 -1.6863 15.2154
# 5 -13.1821 -10.8178 -15.7162 -1.6863 40.5329 0.9537
# 6 -11.3030 14.8699 22.1051 15.2154 0.9537 48.4941
#
#
#
# Elastic Compliance Matrix: (Units=1/GPa)
#
#
# Indices 1 2 3 4 5 6 
#
# 1 0.010362 -0.007789 -0.007351 -0.005554 -0.002024 0.009937
# 2 -0.007789 0.020087 0.006427 0.008894 0.006015 -0.013813
# 3 -0.007351 0.006427 0.022310 0.009347 0.008763 -0.016959
# 4 -0.005554 0.008894 0.009347 0.031753 0.005945 -0.018362
# 5 -0.002024 0.006015 0.008763 0.005945 0.029470 -0.008755
# 6 0.009937 -0.013813 -0.016959 -0.018362 -0.008755 0.040837
#
#
# Mechanical properties :
#
#
# Convention : Reuss Voigt Hill
#
# Bulk Modulus (GPa) = 28.30064 58.47207 43.38635
# Shear Modulus (GPa) = 27.17074 41.98664 34.57869
#
# Velocity S-wave (km/s) = 3.19839 3.97591 3.60815
# Velocity P-wave (km/s) = 4.92897 6.56443 5.80458
#
# Compressibility (1/GPa) = 0.03533489
#
# Stress axis : x y z
#
# Youngs Moduli (GPa) = 96.50727 49.78313 44.82235
#
# Poissons Ratio (x) = 0.38775 0.32948
# Poissons Ratio (y) = 0.75167 -0.28808
# Poissons Ratio (z) = 0.70940 -0.31997
#
# Static dielectric constant tensor:
#      x y z
#    x 2.155840 -0.213110 0.174130 
#    y -0.213110 2.407390 -0.428880 
#    z 0.174130 -0.428880 2.546340 
# 
# From -- ./inp_files/27407.got.cif
#   From: 2010.05.17/outbox.cif.g08.bks.cpg/sg2_14_cif.got.tgz:27407.got - 2010.06.03 11:33:40.
