data_PCOD9052377
_publ_section_title
;
Structure prediction by ZEFSAII (Michael W. Deem and Ramdas Pophale) SiO2 
 PCOD9052377
Probable space group: P -1
;
_chemical_formula_sum "Si O2"
_cell_formula_units_Z 16
_cell_length_a 6.620893
_cell_length_b 8.042326
_cell_length_c 14.863589
_cell_angle_alpha 95.455310
_cell_angle_beta 68.787618
_cell_angle_gamma 102.115309
_cell_volume 721.230885
_symmetry_space_group_name_H-M "P -1"
_symmetry_group_IT_number 2
_symmetry_cell_setting 'triclinic'
loop_
_space_group_symop_operation_xyz
x,y,z
-x,-y,-z
loop_
_atom_site_type_symbol
_atom_site_label
_atom_site_fract_x
_atom_site_fract_y
_atom_site_fract_z
Si Si1 0.661461 0.572540 0.324589
Si Si2 0.645351 0.153760 0.580511
Si Si3 0.165678 0.772178 0.249212
Si Si4 0.987227 0.221215 0.179176
Si Si5 0.195672 0.650058 0.956341
Si Si6 0.743579 0.032813 0.921659
Si Si7 0.323194 0.799602 0.616153
Si Si8 0.590194 0.513596 0.827249
O O1 0.535495 0.720460 0.389363
O O2 0.652290 0.394884 0.372701
O O3 0.533058 0.515223 0.249698
O O4 0.916186 0.667056 0.273945
O O5 0.780359 0.198608 0.652870
O O6 0.774539 0.195141 0.468119
O O7 0.537095 0.952574 0.589260
O O8 0.225733 0.942723 0.189371
O O9 0.338591 0.664341 0.173502
O O10 0.177929 0.357282 0.201950
O O11 0.829960 0.293023 0.138720
O O12 0.831260 0.139945 0.280200
O O13 0.115560 0.109549 0.090321
O O14 0.426803 0.587784 0.923458
O O15 0.155637 0.793398 0.038233
O O16 0.000000 0.500000 0.000000
O O17 0.500000 0.000000 0.000000
#
# Coordination Sequence:
#
# PCOD9052377 Si02
#       8
#     2   2   2   2   2   2   2   2
#     4  11  22  46  71 103 141 184 228 287 348 413
#     4  10  26  45  71 105 141 180 232 291 345 421
#     4  11  25  46  69 102 141 180 231 287 345 414
#     4  12  25  45  69 100 137 179 232 283 342 413
#     4  12  26  44  69  98 134 182 234 279 344 410
#     4  12  27  43  67 100 136 182 225 286 345 402
#     4  11  23  47  72 102 140 184 232 284 356 413
#     4  11  22  43  70  98 135 182 225 288 337 408
#
# _framework density 22.184297999999998
#
# number of rings (size 3 to 8) (size 9 to 14) (size 15 to 20)
#    0.000    0.750    3.750    3.000    5.250    2.500 
#    2.250    1.875    0.000    0.000    0.000    0.000 
#    0.000    0.000    0.000    0.000    0.000    0.000 
#
# Total GULP energy -89311.036241 kJ/mol
# GULP energy per Si atom -5581.939765 kJ/mol
# Density = 2.213381 g / cm^3
# Si number density = 22.184298 Si / 1000 Ang^3
#
#
#
# Elastic Constant Matrix: (Units=GPa)
#
#
# Indices 1 2 3 4 5 6 
#
# 1 63.5467 4.0242 22.0890 -5.0096 21.4885 -10.4742
# 2 4.0242 72.9031 2.1103 -0.3148 8.5301 -3.3259
# 3 22.0890 2.1103 103.1854 -2.9627 14.4601 -8.7278
# 4 -5.0096 -0.3148 -2.9627 34.7817 1.2063 2.2542
# 5 21.4885 8.5301 14.4601 1.2063 25.7074 12.1414
# 6 -10.4742 -3.3259 -8.7278 2.2542 12.1414 22.7399
#
#
#
# Elastic Compliance Matrix: (Units=1/GPa)
#
#
# Indices 1 2 3 4 5 6 
#
# 1 0.060653 0.012064 0.008252 0.007474 -0.100114 0.085582
# 2 0.012064 0.017599 0.003415 0.001588 -0.029824 0.025208
# 3 0.008252 0.003415 0.013723 0.001782 -0.027103 0.023862
# 4 0.007474 0.001588 0.001782 0.029904 -0.013156 0.008418
# 5 -0.100114 -0.029824 -0.027103 -0.013156 0.235987 -0.185573
# 6 0.085582 0.025208 0.023862 0.008418 -0.185573 0.194488
#
#
# Mechanical properties :
#
#
# Convention : Reuss Voigt Hill
#
# Bulk Modulus (GPa) = 7.17176 32.89804 20.03490
# Shear Modulus (GPa) = 9.06832 30.73992 19.90412
#
# Velocity S-wave (km/s) = 2.02400 3.72649 2.99861
# Velocity P-wave (km/s) = 2.94991 5.77730 4.58689
#
# Compressibility (1/GPa) = 0.13943573
#
# Stress axis : x y z
#
# Youngs Moduli (GPa) = 16.48719 56.82293 72.87297
#
# Poissons Ratio (x) = -0.68549 -0.60137
# Poissons Ratio (y) = -0.19890 -0.24885
# Poissons Ratio (z) = -0.13606 -0.19404
#
# Static dielectric constant tensor:
#      x y z
#    x 1.775300 -0.027450 0.012860 
#    y -0.027450 1.861390 -0.012860 
#    z 0.012860 -0.012860 1.834050 
# 
# From -- ./inp_files/90028.got.cif
#   From: 2010.05.17/outbox.cif.g08.bks.cpg/sg2_46_cif.got.tgz:90028.got - 2010.06.03 11:33:40.
