data_PCOD9052420
_publ_section_title
;
Structure prediction by ZEFSAII (Michael W. Deem and Ramdas Pophale) SiO2 
 PCOD9052420
Probable space group: P -1
;
_chemical_formula_sum "Si O2"
_cell_formula_units_Z 16
_cell_length_a 11.417046
_cell_length_b 15.012214
_cell_length_c 8.547162
_cell_angle_alpha 104.801734
_cell_angle_beta 137.818167
_cell_angle_gamma 104.521801
_cell_volume 699.211294
_symmetry_space_group_name_H-M "P -1"
_symmetry_group_IT_number 2
_symmetry_cell_setting 'triclinic'
loop_
_space_group_symop_operation_xyz
x,y,z
-x,-y,-z
loop_
_atom_site_type_symbol
_atom_site_label
_atom_site_fract_x
_atom_site_fract_y
_atom_site_fract_z
Si Si1 0.445211 0.200636 0.756894
Si Si2 0.828940 0.236804 0.774667
Si Si3 0.937976 0.722842 0.297616
Si Si4 0.864786 0.052467 0.811558
Si Si5 0.985031 0.349200 0.316304
Si Si6 0.697240 0.897871 0.829699
Si Si7 0.696847 0.989988 0.198663
Si Si8 0.485132 0.588606 0.928860
O O1 0.373303 0.102824 0.774130
O O2 0.289899 0.098032 0.421836
O O3 0.722521 0.295648 0.040648
O O4 0.400457 0.288052 0.803234
O O5 0.751748 0.101401 0.646764
O O6 0.588019 0.209537 0.528736
O O7 0.961819 0.294338 0.764845
O O8 0.978903 0.299140 0.113580
O O9 0.990155 0.695341 0.509651
O O10 0.654549 0.634255 0.969193
O O11 0.061973 0.866659 0.483380
O O12 0.829528 0.039274 0.956230
O O13 0.121583 0.122916 0.028213
O O14 0.204415 0.498859 0.586489
O O15 0.703202 0.925234 0.030037
O O16 0.500000 0.000000 0.000000
O O17 0.500000 0.500000 0.000000
#
# Coordination Sequence:
#
# PCOD9052420 Si02
#       8
#     2   2   2   2   2   2   2   2
#     4  12  22  41  73  99 134 182 231 285 356 418
#     4  12  23  42  72 100 146 183 222 290 361 417
#     4  11  23  43  68 105 138 181 226 286 356 410
#     4  11  24  38  66 105 140 180 220 285 361 427
#     4  11  24  45  72  97 138 194 234 281 344 415
#     4  11  23  38  57  99 148 174 220 272 344 434
#     4  12  21  37  68 104 141 174 216 292 363 421
#     4  10  26  46  68  95 136 188 243 290 328 411
#
# _framework density 22.882925
#
# number of rings (size 3 to 8) (size 9 to 14) (size 15 to 20)
#    0.000    0.750    5.000    2.250    1.750    4.500 
#    0.000    0.000    5.500    4.500    0.000    0.000 
#    0.000    0.000    0.000    0.000    0.000    0.000 
#
# Total GULP energy -89140.475937 kJ/mol
# GULP energy per Si atom -5571.279746 kJ/mol
# Density = 2.283084 g / cm^3
# Si number density = 22.882925 Si / 1000 Ang^3
#
#
#
# Elastic Constant Matrix: (Units=GPa)
#
#
# Indices 1 2 3 4 5 6 
#
# 1 65.2252 19.2413 21.2222 13.3858 24.9578 17.8816
# 2 19.2413 49.8774 20.0968 9.2817 4.2574 2.2485
# 3 21.2222 20.0968 78.9164 15.1250 12.7794 10.4911
# 4 13.3858 9.2817 15.1250 30.1874 3.3815 -0.8245
# 5 24.9578 4.2574 12.7794 3.3815 44.5818 5.6548
# 6 17.8816 2.2485 10.4911 -0.8245 5.6548 38.1079
#
#
#
# Elastic Compliance Matrix: (Units=1/GPa)
#
#
# Indices 1 2 3 4 5 6 
#
# 1 0.026843 -0.007101 -0.000425 -0.008417 -0.012267 -0.010421
# 2 -0.007101 0.024781 -0.004772 -0.002320 0.002808 0.002717
# 3 -0.000425 -0.004772 0.016164 -0.006206 -0.003005 -0.003657
# 4 -0.008417 -0.002320 -0.006206 0.040533 0.002845 0.006250
# 5 -0.012267 0.002808 -0.003005 0.002845 0.029407 0.002115
# 6 -0.010421 0.002717 -0.003657 0.006250 0.002115 0.031799
#
#
# Mechanical properties :
#
#
# Convention : Reuss Voigt Hill
#
# Bulk Modulus (GPa) = 23.15325 35.01550 29.08438
# Shear Modulus (GPa) = 23.97853 31.47268 27.72560
#
# Velocity S-wave (km/s) = 3.24061 3.71263 3.48462
# Velocity P-wave (km/s) = 4.91347 5.80633 5.37846
#
# Compressibility (1/GPa) = 0.04319047
#
# Stress axis : x y z
#
# Youngs Moduli (GPa) = 37.25409 40.35370 61.86778
#
# Poissons Ratio (x) = 0.28654 0.02631
# Poissons Ratio (y) = 0.26453 0.29526
# Poissons Ratio (z) = 0.01584 0.19258
#
# Static dielectric constant tensor:
#      x y z
#    x 1.707060 0.024550 -0.035520 
#    y 0.024550 1.914690 -0.090340 
#    z -0.035520 -0.090340 2.011160 
# 
# From -- ./inp_files/279662.got.cif
#   From: 2010.05.17/outbox.cif.g08.bks.cpg/sg2_140_cif.got.tgz:279662.got - 2010.06.03 11:33:40.
