data_PCOD9052177
_publ_section_title
;
Structure prediction by ZEFSAII (Michael W. Deem and Ramdas Pophale) SiO2 
 PCOD9052177
Probable space group: P -1
;
_chemical_formula_sum "Si O2"
_cell_formula_units_Z 15
_cell_length_a 6.579658
_cell_length_b 13.846203
_cell_length_c 11.538028
_cell_angle_alpha 79.357441
_cell_angle_beta 87.137825
_cell_angle_gamma 136.712835
_cell_volume 681.303153
_symmetry_space_group_name_H-M "P -1"
_symmetry_group_IT_number 2
_symmetry_cell_setting 'triclinic'
loop_
_space_group_symop_operation_xyz
x,y,z
-x,-y,-z
loop_
_atom_site_type_symbol
_atom_site_label
_atom_site_fract_x
_atom_site_fract_y
_atom_site_fract_z
Si Si1 0.598501 0.335673 0.170254
Si Si2 0.245710 0.002283 0.269411
Si Si3 0.035855 0.394815 0.533665
Si Si4 0.196187 0.113499 0.865562
Si Si5 0.000000 0.000000 0.500000
Si Si6 0.602329 0.945673 0.335187
Si Si7 0.474854 0.461312 0.311957
Si Si8 0.669646 0.425740 0.888763
O O1 0.415127 0.167207 0.204232
O O2 0.457501 0.347844 0.277205
O O3 0.959938 0.445157 0.159745
O O4 0.585341 0.387277 0.035887
O O5 0.022237 0.937527 0.398498
O O6 0.502882 0.018490 0.290979
O O7 0.029454 0.892692 0.193516
O O8 0.212573 0.409407 0.416454
O O9 0.228429 0.437912 0.634493
O O10 0.000000 0.500000 0.500000
O O11 0.700417 0.226775 0.587674
O O12 0.257744 0.051598 0.784426
O O13 0.509836 0.274886 0.864746
O O14 0.000000 0.000000 0.000000
O O15 0.180420 0.983401 0.576952
O O16 0.469546 0.532831 0.186332
#
# Coordination Sequence:
#
# PCOD9052177 Si02
#       8
#     2   2   2   2   1   2   2   2
#     4  11  25  44  69 106 140 178 231 291 343 411
#     4  11  25  45  70 102 140 182 228 282 351 414
#     4  11  25  45  71 106 138 179 233 286 343 416
#     4  11  23  46  69  98 138 183 230 280 337 420
#     4  10  26  42  68  96 140 174 226 280 340 412
#     4  11  25  45  70 100 139 183 227 284 348 408
#     4  11  24  42  73 103 136 184 226 284 352 408
#     4  11  24  46  69 100 142 179 234 290 341 406
#
# _framework density 22.016632999999999
#
# number of rings (size 3 to 8) (size 9 to 14) (size 15 to 20)
#    0.000    1.067    1.333    4.000    5.600    4.800 
#    4.800    0.000    0.000    0.000    0.000    0.000 
#    0.000    0.000    0.000    0.000    0.000    0.000 
#
# Total GULP energy -83632.554847 kJ/mol
# GULP energy per Si atom -5575.503656 kJ/mol
# Density = 2.196652 g / cm^3
# Si number density = 22.016633 Si / 1000 Ang^3
#
#
#
# Elastic Constant Matrix: (Units=GPa)
#
#
# Indices 1 2 3 4 5 6 
#
# 1 95.7486 17.5680 43.1438 3.3910 14.0740 -5.1376
# 2 17.5680 89.1575 36.3175 -2.6185 -2.8832 8.2003
# 3 43.1438 36.3175 106.6316 24.7422 13.5057 5.8626
# 4 3.3910 -2.6185 24.7422 32.4784 6.2081 5.4336
# 5 14.0740 -2.8832 13.5057 6.2081 39.8203 4.9426
# 6 -5.1376 8.2003 5.8626 5.4336 4.9426 28.1478
#
#
#
# Elastic Compliance Matrix: (Units=1/GPa)
#
#
# Indices 1 2 3 4 5 6 
#
# 1 0.013882 -0.000817 -0.005740 0.002933 -0.003985 0.004101
# 2 -0.000817 0.014644 -0.006228 0.006233 0.003094 -0.004865
# 3 -0.005740 -0.006228 0.016986 -0.012416 -0.002250 0.000021
# 4 0.002933 0.006233 -0.012416 0.041922 -0.002114 -0.006416
# 5 -0.003985 0.003094 -0.002250 -0.002114 0.028554 -0.005766
# 6 0.004101 -0.004865 0.000021 -0.006416 -0.005766 0.039939
#
#
# Mechanical properties :
#
#
# Convention : Reuss Voigt Hill
#
# Bulk Modulus (GPa) = 50.14101 53.95516 52.04809
# Shear Modulus (GPa) = 26.57519 33.05652 29.81585
#
# Velocity S-wave (km/s) = 3.47803 3.87904 3.68400
# Velocity P-wave (km/s) = 6.24120 6.67999 6.46432
#
# Compressibility (1/GPa) = 0.01994375
#
# Stress axis : x y z
#
# Youngs Moduli (GPa) = 72.03455 68.28518 58.87074
#
# Poissons Ratio (x) = 0.05581 0.33790
# Poissons Ratio (y) = 0.05888 0.36662
# Poissons Ratio (z) = 0.41346 0.42525
#
# Static dielectric constant tensor:
#      x y z
#    x 1.848170 0.014140 -0.012760 
#    y 0.014140 1.799410 -0.033190 
#    z -0.012760 -0.033190 1.808900 
# 
# From -- ./inp_files/71895.got.cif
#   From: 2010.05.17/outbox.cif.g08.bks.cpg/sg2_36_cif.got.tgz:71895.got - 2010.06.03 11:33:40.
