data_PCOD9052824
_publ_section_title
;
Structure prediction by ZEFSAII (Michael W. Deem and Ramdas Pophale) SiO2 
 PCOD9052824
Probable space group: P -1
;
_chemical_formula_sum "Si O2"
_cell_formula_units_Z 16
_cell_length_a 6.792586
_cell_length_b 11.375275
_cell_length_c 16.645244
_cell_angle_alpha 127.879017
_cell_angle_beta 43.452458
_cell_angle_gamma 123.881536
_cell_volume 683.224705
_symmetry_space_group_name_H-M "P -1"
_symmetry_group_IT_number 2
_symmetry_cell_setting 'triclinic'
loop_
_space_group_symop_operation_xyz
x,y,z
-x,-y,-z
loop_
_atom_site_type_symbol
_atom_site_label
_atom_site_fract_x
_atom_site_fract_y
_atom_site_fract_z
Si Si1 0.758302 0.182439 0.839251
Si Si2 0.869084 0.912858 0.083086
Si Si3 0.150193 0.649062 0.961632
Si Si4 0.914443 0.473824 0.607082
Si Si5 0.117374 0.801430 0.702851
Si Si6 0.262243 0.259941 0.493201
Si Si7 0.847320 0.060323 0.417716
Si Si8 0.300751 0.404917 0.717275
O O1 0.476241 0.128070 0.846912
O O2 0.968443 0.331829 0.805646
O O3 0.678883 0.231739 0.972931
O O4 0.973495 0.064370 0.717581
O O5 0.958801 0.045465 0.177333
O O6 0.957542 0.756424 0.019930
O O7 0.000000 0.000000 0.000000
O O8 0.313718 0.580900 0.811584
O O9 0.000000 0.500000 0.000000
O O10 0.583770 0.375857 0.670812
O O11 0.000000 0.500000 0.500000
O O12 0.928029 0.637512 0.712684
O O13 0.170640 0.400800 0.535188
O O14 0.440649 0.794594 0.636799
O O15 0.108490 0.817509 0.615881
O O16 0.319473 0.326388 0.593455
O O17 0.993029 0.127309 0.486835
O O18 0.500000 0.000000 0.500000
#
# Coordination Sequence:
#
# PCOD9052824 Si02
#       8
#     2   2   2   2   2   2   2   2
#     4  11  25  49  73 104 148 192 252 312 373 448
#     4  12  29  47  77 114 145 203 259 312 380 446
#     4  10  26  51  75 104 152 197 252 312 377 443
#     4  12  25  43  66 104 148 190 244 298 378 452
#     4  12  26  45  68 106 151 193 242 314 379 454
#     4  12  24  43  70 106 146 191 245 304 375 447
#     4  12  25  43  73 107 148 191 240 308 384 452
#     4  11  27  44  74 107 138 203 247 304 373 452
#
# _framework density 23.418358000000001
#
# number of rings (size 3 to 8) (size 9 to 14) (size 15 to 20)
#    0.000    0.500    5.000    1.875    5.250    6.500 
#    0.000    0.000    0.000    0.000    0.000    0.000 
#    0.000    0.000    0.000    0.000    0.000    0.000 
#
# Total GULP energy -89150.731316 kJ/mol
# GULP energy per Si atom -5571.920707 kJ/mol
# Density = 2.336506 g / cm^3
# Si number density = 23.418358 Si / 1000 Ang^3
#
#
#
# Elastic Constant Matrix: (Units=GPa)
#
#
# Indices 1 2 3 4 5 6 
#
# 1 101.3377 31.2558 23.1705 10.8401 -0.7861 12.7491
# 2 31.2558 72.4917 22.1699 18.7965 -2.0577 8.9415
# 3 23.1705 22.1699 103.7127 41.9037 8.3445 8.6333
# 4 10.8401 18.7965 41.9037 42.7777 6.4781 -4.0928
# 5 -0.7861 -2.0577 8.3445 6.4781 38.5693 7.8919
# 6 12.7491 8.9415 8.6333 -4.0928 7.8919 45.4279
#
#
#
# Elastic Compliance Matrix: (Units=1/GPa)
#
#
# Indices 1 2 3 4 5 6 
#
# 1 0.011865 -0.004354 -0.001682 0.000216 0.000802 -0.002273
# 2 -0.004354 0.018174 0.000430 -0.008094 0.002898 -0.003670
# 3 -0.001682 0.000430 0.017158 -0.016997 0.000034 -0.004410
# 4 0.000216 -0.008094 -0.016997 0.045456 -0.006426 0.009974
# 5 0.000802 0.002898 0.000034 -0.006426 0.028465 -0.006326
# 6 -0.002273 -0.003670 -0.004410 0.009974 -0.006326 0.026209
#
#
# Mechanical properties :
#
#
# Convention : Reuss Voigt Hill
#
# Bulk Modulus (GPa) = 27.78996 47.85941 37.82468
# Shear Modulus (GPa) = 29.32000 38.75138 34.03569
#
# Velocity S-wave (km/s) = 3.54221 4.07227 3.81645
# Velocity P-wave (km/s) = 5.34997 6.52627 5.96718
#
# Compressibility (1/GPa) = 0.03598422
#
# Stress axis : x y z
#
# Youngs Moduli (GPa) = 84.28382 55.02410 58.28274
#
# Poissons Ratio (x) = 0.23957 0.09806
# Poissons Ratio (y) = 0.36696 -0.02508
# Poissons Ratio (z) = 0.14180 -0.02367
#
# Static dielectric constant tensor:
#      x y z
#    x 1.912800 -0.041280 0.008560 
#    y -0.041280 1.999090 0.065380 
#    z 0.008560 0.065380 1.980450 
# 
# From -- ./inp_files/78669.got.cif
#   From: 2010.05.17/outbox.cif.g08.bks.cpg/sg2_40_cif.got.tgz:78669.got - 2010.06.03 11:33:40.
