data_PCOD9052734
_publ_section_title
;
Structure prediction by ZEFSAII (Michael W. Deem and Ramdas Pophale) SiO2 
 PCOD9052734
Probable space group: P -1
;
_chemical_formula_sum "Si O2"
_cell_formula_units_Z 15
_cell_length_a 8.868895
_cell_length_b 11.700049
_cell_length_c 12.496455
_cell_angle_alpha 56.181160
_cell_angle_beta 130.967342
_cell_angle_gamma 140.739330
_cell_volume 616.382726
_symmetry_space_group_name_H-M "P -1"
_symmetry_group_IT_number 2
_symmetry_cell_setting 'triclinic'
loop_
_space_group_symop_operation_xyz
x,y,z
-x,-y,-z
loop_
_atom_site_type_symbol
_atom_site_label
_atom_site_fract_x
_atom_site_fract_y
_atom_site_fract_z
Si Si1 0.584817 0.175036 0.760439
Si Si2 0.039204 0.848905 0.689908
Si Si3 0.276361 0.694939 0.002498
Si Si4 0.119744 0.924033 0.156082
Si Si5 0.571739 0.564404 0.121355
Si Si6 0.224021 0.578593 0.471447
Si Si7 0.500000 0.500000 0.500000
Si Si8 0.330657 0.181427 0.311076
O O1 0.597235 0.212543 0.872077
O O2 0.713745 0.087238 0.844038
O O3 0.769116 0.362988 0.679931
O O4 0.281977 0.040720 0.650140
O O5 0.782422 0.682903 0.591512
O O6 0.935538 0.897816 0.712352
O O7 0.192774 0.787610 0.844552
O O8 0.449492 0.655839 0.047821
O O9 0.000000 0.500000 0.000000
O O10 0.884457 0.722556 0.194662
O O11 0.290828 0.059024 0.261260
O O12 0.000000 0.000000 0.000000
O O13 0.450801 0.379979 0.221852
O O14 0.500000 0.500000 0.000000
O O15 0.332349 0.474664 0.545466
O O16 0.456916 0.774148 0.528943
O O17 0.000000 0.500000 0.500000
#
# Coordination Sequence:
#
# PCOD9052734 Si02
#       8
#     2   2   2   2   2   2   1   2
#     4  12  27  46  76 112 148 202 251 325 386 455
#     4  11  24  48  71 110 148 195 254 309 391 458
#     4  12  23  43  76 107 151 191 252 312 386 462
#     4  12  24  44  70 107 153 189 249 316 380 456
#     4  12  24  43  72 108 151 201 247 313 393 456
#     4  11  27  51  74 108 149 202 264 311 385 465
#     4  10  26  48  80 100 158 200 248 322 376 462
#     4  11  25  46  70 107 146 200 252 312 379 460
#
# _framework density 24.335531
#
# number of rings (size 3 to 8) (size 9 to 14) (size 15 to 20)
#    0.000    0.533    2.667    5.200    3.733    2.667 
#    7.200    0.000    0.000    0.000    0.000    0.000 
#    0.000    0.000    0.000    0.000    0.000    0.000 
#
# Total GULP energy -83597.006359 kJ/mol
# GULP energy per Si atom -5573.133757 kJ/mol
# Density = 2.428014 g / cm^3
# Si number density = 24.335531 Si / 1000 Ang^3
#
#
#
# Elastic Constant Matrix: (Units=GPa)
#
#
# Indices 1 2 3 4 5 6 
#
# 1 189.0576 69.1734 26.8017 17.6372 -20.7551 4.3585
# 2 69.1734 98.8240 39.3818 11.7775 -1.9365 8.4972
# 3 26.8017 39.3818 71.9395 10.8300 -23.0685 -6.8286
# 4 17.6372 11.7775 10.8300 46.4232 -3.7322 -14.4928
# 5 -20.7551 -1.9365 -23.0685 -3.7322 37.0013 13.9334
# 6 4.3585 8.4972 -6.8286 -14.4928 13.9334 57.5458
#
#
#
# Elastic Compliance Matrix: (Units=1/GPa)
#
#
# Indices 1 2 3 4 5 6 
#
# 1 0.008083 -0.006169 0.002490 -0.002032 0.006082 -0.001390
# 2 -0.006169 0.018865 -0.010794 -0.001182 -0.008642 -0.001804
# 3 0.002490 -0.010794 0.024336 -0.002679 0.015813 -0.000211
# 4 -0.002032 -0.001182 -0.002679 0.025209 -0.002997 0.007085
# 5 0.006082 -0.008642 0.015813 -0.002997 0.042706 -0.008403
# 6 -0.001390 -0.001804 -0.000211 0.007085 -0.008403 0.021543
#
#
# Mechanical properties :
#
#
# Convention : Reuss Voigt Hill
#
# Bulk Modulus (GPa) = 44.76600 70.05943 57.41272
# Shear Modulus (GPa) = 28.22734 43.15833 35.69284
#
# Velocity S-wave (km/s) = 3.40946 4.21583 3.83390
# Velocity P-wave (km/s) = 5.82533 7.24907 6.57585
#
# Compressibility (1/GPa) = 0.02233838
#
# Stress axis : x y z
#
# Youngs Moduli (GPa) = 123.71804 53.00762 41.09201
#
# Poissons Ratio (x) = 0.32702 -0.10232
# Poissons Ratio (y) = 0.76324 0.44353
# Poissons Ratio (z) = -0.30807 0.57214
#
# Static dielectric constant tensor:
#      x y z
#    x 1.909470 0.033900 0.036890 
#    y 0.033900 2.157430 -0.256160 
#    z 0.036890 -0.256160 2.281340 
# 
# From -- ./inp_files/392414.got.cif
#   From: 2010.05.17/outbox.cif.g08.bks.cpg/sg2_197_cif.got.tgz:392414.got - 2010.06.03 11:33:40.
