data_PCOD9052008
_publ_section_title
;
Structure prediction by ZEFSAII (Michael W. Deem and Ramdas Pophale) SiO2 
 PCOD9052008
Probable space group: P -1
;
_chemical_formula_sum "Si O2"
_cell_formula_units_Z 14
_cell_length_a 6.800473
_cell_length_b 12.039450
_cell_length_c 10.995444
_cell_angle_alpha 112.199759
_cell_angle_beta 136.310881
_cell_angle_gamma 78.647765
_cell_volume 571.621293
_symmetry_space_group_name_H-M "P -1"
_symmetry_group_IT_number 2
_symmetry_cell_setting 'triclinic'
loop_
_space_group_symop_operation_xyz
x,y,z
-x,-y,-z
loop_
_atom_site_type_symbol
_atom_site_label
_atom_site_fract_x
_atom_site_fract_y
_atom_site_fract_z
Si Si1 0.861563 0.476048 0.797702
Si Si2 0.669397 0.445612 0.322406
Si Si3 0.234383 0.678229 0.921368
Si Si4 0.089072 0.096747 0.188789
Si Si5 0.891465 0.986486 0.302651
Si Si6 0.377206 0.807551 0.677778
Si Si7 0.171288 0.264167 0.733803
O O1 0.523404 0.462909 0.663810
O O2 0.962890 0.596271 0.817826
O O3 0.002403 0.368856 0.754605
O O4 0.000000 0.500000 0.000000
O O5 0.625816 0.408382 0.147439
O O6 0.572992 0.315435 0.286481
O O7 0.000000 0.500000 0.500000
O O8 0.124276 0.798704 0.868711
O O9 0.498216 0.707028 0.144232
O O10 0.082703 0.032903 0.291357
O O11 0.406232 0.162512 0.324447
O O12 0.000000 0.000000 0.000000
O O13 0.620587 0.062795 0.202740
O O14 0.000000 0.000000 0.500000
O O15 0.824445 0.841823 0.208155
O O16 0.036918 0.779770 0.487365
#
# Coordination Sequence:
#
# PCOD9052008 Si02
#       7
#     2   2   2   2   2   2   2
#     4  12  27  46  71 108 149 194 254 311 380 453
#     4  12  27  46  77 107 146 200 251 315 380 448
#     4  12  26  48  71 109 150 196 255 313 379 453
#     4  12  27  45  81 113 150 202 260 316 380 451
#     4  10  25  49  74 110 154 195 250 314 382 452
#     4  11  25  49  72 111 149 196 255 313 380 454
#     4  11  26  45  74 104 152 196 247 305 382 449
#
# _framework density 24.491738000000002
#
# number of rings (size 3 to 8) (size 9 to 14) (size 15 to 20)
#    0.000    0.571    4.286    2.143    8.000    4.571 
#    2.571    0.000    0.000    0.000    0.000    0.000 
#    0.000    0.000    0.000    0.000    0.000    0.000 
#
# Total GULP energy -78146.620873 kJ/mol
# GULP energy per Si atom -5581.901491 kJ/mol
# Density = 2.443599 g / cm^3
# Si number density = 24.491738 Si / 1000 Ang^3
#
#
#
# Elastic Constant Matrix: (Units=GPa)
#
#
# Indices 1 2 3 4 5 6 
#
# 1 127.3397 46.3843 31.1666 -4.6366 21.4595 15.8796
# 2 46.3843 145.3618 3.3894 6.9076 0.4098 -3.0339
# 3 31.1666 3.3894 76.1260 1.1952 12.0162 -3.6865
# 4 -4.6366 6.9076 1.1952 20.3971 -2.8780 1.7022
# 5 21.4595 0.4098 12.0162 -2.8780 49.8319 -9.2882
# 6 15.8796 -3.0339 -3.6865 1.7022 -9.2882 45.3233
#
#
#
# Elastic Compliance Matrix: (Units=1/GPa)
#
#
# Indices 1 2 3 4 5 6 
#
# 1 0.012177 -0.004097 -0.004367 0.004207 -0.005049 -0.006089
# 2 -0.004097 0.008389 0.001227 -0.003825 0.001659 0.002580
# 3 -0.004367 0.001227 0.015274 -0.002733 -0.001476 0.002655
# 4 0.004207 -0.003825 -0.002733 0.051912 0.001195 -0.003657
# 5 -0.005049 0.001659 -0.001476 0.001195 0.023885 0.006610
# 6 -0.006089 0.002580 0.002655 -0.003657 0.006610 0.026078
#
#
# Mechanical properties :
#
#
# Convention : Reuss Voigt Hill
#
# Bulk Modulus (GPa) = 46.80268 56.74536 51.77402
# Shear Modulus (GPa) = 31.38510 40.96961 36.17735
#
# Velocity S-wave (km/s) = 3.58363 4.09442 3.84751
# Velocity P-wave (km/s) = 6.02281 6.75069 6.39711
#
# Compressibility (1/GPa) = 0.02136630
#
# Stress axis : x y z
#
# Youngs Moduli (GPa) = 82.11870 119.20390 65.47165
#
# Poissons Ratio (x) = 0.48835 0.28592
# Poissons Ratio (y) = 0.33642 -0.08032
# Poissons Ratio (z) = 0.35862 -0.14624
#
# Static dielectric constant tensor:
#      x y z
#    x 1.943300 0.001320 -0.005050 
#    y 0.001320 2.542330 0.460440 
#    z -0.005050 0.460440 2.419210 
# 
# From -- ./inp_files/47381.got.cif
#   From: 2010.05.17/outbox.cif.g08.bks.cpg/sg2_24_cif.got.tgz:47381.got - 2010.06.03 11:33:40.
