data_PCOD9052834
_publ_section_title
;
Structure prediction by ZEFSAII (Michael W. Deem and Ramdas Pophale) SiO2 
 PCOD9052834
Probable space group: P -1
;
_chemical_formula_sum "Si O2"
_cell_formula_units_Z 15
_cell_length_a 8.961455
_cell_length_b 20.376471
_cell_length_c 8.555669
_cell_angle_alpha 57.465910
_cell_angle_beta 32.184030
_cell_angle_gamma 47.156075
_cell_volume 607.279558
_symmetry_space_group_name_H-M "P -1"
_symmetry_group_IT_number 2
_symmetry_cell_setting 'triclinic'
loop_
_space_group_symop_operation_xyz
x,y,z
-x,-y,-z
loop_
_atom_site_type_symbol
_atom_site_label
_atom_site_fract_x
_atom_site_fract_y
_atom_site_fract_z
Si Si1 0.385187 0.839435 0.363644
Si Si2 0.983592 0.203619 0.010054
Si Si3 0.269187 0.292402 0.044391
Si Si4 0.752536 0.974708 0.170333
Si Si5 0.415253 0.350069 0.143706
Si Si6 0.530394 0.407153 0.529247
Si Si7 0.500000 0.000000 0.000000
Si Si8 0.678613 0.472486 0.714132
O O1 0.085715 0.838902 0.716396
O O2 0.484048 0.792147 0.168900
O O3 0.715163 0.781814 0.245250
O O4 0.358642 0.935817 0.266322
O O5 0.671332 0.292668 0.120502
O O6 0.066666 0.131391 0.893533
O O7 0.369354 0.286818 0.141971
O O8 0.892530 0.322853 0.328864
O O9 0.284958 0.377630 0.850037
O O10 0.500000 0.000000 0.500000
O O11 0.589214 0.013380 0.094398
O O12 0.000000 0.000000 0.000000
O O13 0.063735 0.417950 0.435659
O O14 0.558804 0.403712 0.851548
O O15 0.500000 0.500000 0.500000
O O16 0.441183 0.437474 0.391821
O O17 0.500000 0.500000 0.000000
#
# Coordination Sequence:
#
# PCOD9052834 Si02
#       8
#     2   2   2   2   2   2   1   2
#     4  11  26  47  74 105 140 191 234 301 373 425
#     4  11  26  47  70 105 147 179 233 305 355 438
#     4  12  25  43  71 101 134 193 233 294 363 423
#     4  11  25  47  77 110 144 198 240 302 381 445
#     4  12  25  46  66 103 141 177 240 292 346 433
#     4  12  23  45  66  95 140 176 241 292 343 420
#     4  10  26  52  76 112 154 186 260 312 368 472
#     4  12  27  42  68  98 132 190 231 291 355 411
#
# _framework density 24.700319
#
# number of rings (size 3 to 8) (size 9 to 14) (size 15 to 20)
#    0.000    0.533    2.667    4.800    7.467    4.800 
#    2.400    0.000    0.000    0.000    0.000    0.000 
#    0.000    0.000    0.000    0.000    0.000    0.000 
#
# Total GULP energy -83691.124800 kJ/mol
# GULP energy per Si atom -5579.408320 kJ/mol
# Density = 2.464410 g / cm^3
# Si number density = 24.700319 Si / 1000 Ang^3
#
#
#
# Elastic Constant Matrix: (Units=GPa)
#
#
# Indices 1 2 3 4 5 6 
#
# 1 117.6745 11.4739 24.1533 7.5864 7.6594 12.8808
# 2 11.4739 50.9225 5.7336 -0.5254 4.3944 18.9870
# 3 24.1533 5.7336 135.6389 11.7018 -11.6472 5.1194
# 4 7.5864 -0.5254 11.7018 38.0953 7.7340 12.9741
# 5 7.6594 4.3944 -11.6472 7.7340 39.0416 1.4697
# 6 12.8808 18.9870 5.1194 12.9741 1.4697 47.0589
#
#
#
# Elastic Compliance Matrix: (Units=1/GPa)
#
#
# Indices 1 2 3 4 5 6 
#
# 1 0.009300 -0.001065 -0.001695 -0.000318 -0.002081 -0.001779
# 2 -0.001065 0.024388 -0.001196 0.005302 -0.003538 -0.010769
# 3 -0.001695 -0.001196 0.008276 -0.003221 0.003543 0.000824
# 4 -0.000318 0.005302 -0.003221 0.032451 -0.007532 -0.010413
# 5 -0.002081 -0.003538 0.003543 -0.007532 0.028864 0.002786
# 6 -0.001779 -0.010769 0.000824 -0.010413 0.002786 0.028776
#
#
# Mechanical properties :
#
#
# Convention : Reuss Voigt Hill
#
# Bulk Modulus (GPa) = 29.36719 42.99531 36.18125
# Shear Modulus (GPa) = 33.04271 42.36416 37.70344
#
# Velocity S-wave (km/s) = 3.66149 4.14590 3.91120
# Velocity P-wave (km/s) = 5.45807 6.35315 5.92255
#
# Compressibility (1/GPa) = 0.03405160
#
# Stress axis : x y z
#
# Youngs Moduli (GPa) = 107.52154 41.00411 120.83175
#
# Poissons Ratio (x) = 0.04368 0.20483
# Poissons Ratio (y) = 0.11453 0.14451
# Poissons Ratio (z) = 0.18227 0.04904
#
# Static dielectric constant tensor:
#      x y z
#    x 1.973720 0.023170 0.187800 
#    y 0.023170 2.066550 -0.061280 
#    z 0.187800 -0.061280 1.774740 
# 
# From -- ./inp_files/223328.got.cif
#   From: 2010.05.17/outbox.cif.g08.bks.cpg/sg2_112_cif.got.tgz:223328.got - 2010.06.03 11:33:40.
