data_PCOD9052051
_publ_section_title
;
Structure prediction by ZEFSAII (Michael W. Deem and Ramdas Pophale) SiO2 
 PCOD9052051
Probable space group: P -1
;
_chemical_formula_sum "Si O2"
_cell_formula_units_Z 14
_cell_length_a 14.265713
_cell_length_b 9.096979
_cell_length_c 6.986627
_cell_angle_alpha 91.646904
_cell_angle_beta 89.849186
_cell_angle_gamma 139.207176
_cell_volume 591.864463
_symmetry_space_group_name_H-M "P -1"
_symmetry_group_IT_number 2
_symmetry_cell_setting 'triclinic'
loop_
_space_group_symop_operation_xyz
x,y,z
-x,-y,-z
loop_
_atom_site_type_symbol
_atom_site_label
_atom_site_fract_x
_atom_site_fract_y
_atom_site_fract_z
Si Si1 0.353024 0.115766 0.971323
Si Si2 0.544139 0.448757 0.320789
Si Si3 0.549397 0.879838 0.392513
Si Si4 0.671406 0.224602 0.863466
Si Si5 0.211950 0.344140 0.945982
Si Si6 0.111246 0.960372 0.155881
Si Si7 0.146102 0.727865 0.414673
O O1 0.428588 0.299131 0.144340
O O2 0.370779 0.965375 0.017499
O O3 0.185603 0.957604 0.981032
O O4 0.431089 0.224404 0.774307
O O5 0.527606 0.273750 0.425985
O O6 0.696819 0.631092 0.217643
O O7 0.500000 0.500000 0.500000
O O8 0.446991 0.877872 0.298517
O O9 0.714832 0.114265 0.443630
O O10 0.702670 0.409136 0.985651
O O11 0.813464 0.335660 0.758878
O O12 0.182637 0.205478 0.126580
O O13 0.056995 0.210835 0.867401
O O14 0.139180 0.886086 0.333663
O O15 0.000000 0.500000 0.500000
#
# Coordination Sequence:
#
# PCOD9052051 Si02
#       7
#     2   2   2   2   2   2   2
#     4  11  25  47  73 109 152 193 248 314 370 446
#     4  12  27  47  75 110 145 200 246 309 379 437
#     4  12  25  44  75 108 152 186 253 309 359 447
#     4  11  25  44  74 110 150 195 253 310 377 428
#     4  11  26  48  77 107 146 204 248 310 371 449
#     4  10  25  50  68 107 154 194 255 293 379 449
#     4  11  27  45  73 111 158 198 241 308 378 443
#
# _framework density 23.654064000000002
#
# number of rings (size 3 to 8) (size 9 to 14) (size 15 to 20)
#    0.000    0.857    4.286    1.714    8.000    2.286 
#    0.000    1.429    0.000    0.000    0.000    0.000 
#    0.000    0.000    0.000    0.000    0.000    0.000 
#
# Total GULP energy -78230.606268 kJ/mol
# GULP energy per Si atom -5587.900448 kJ/mol
# Density = 2.360023 g / cm^3
# Si number density = 23.654064 Si / 1000 Ang^3
#
#
#
# Elastic Constant Matrix: (Units=GPa)
#
#
# Indices 1 2 3 4 5 6 
#
# 1 153.0425 58.3113 48.9497 -2.0879 7.8425 16.1445
# 2 58.3113 126.3933 52.8830 -17.9438 -3.0930 7.6852
# 3 48.9497 52.8830 104.8719 -21.6225 -15.4914 11.4044
# 4 -2.0879 -17.9438 -21.6225 33.0706 1.6264 -15.3157
# 5 7.8425 -3.0930 -15.4914 1.6264 39.0641 1.4123
# 6 16.1445 7.6852 11.4044 -15.3157 1.4123 53.4333
#
#
#
# Elastic Compliance Matrix: (Units=1/GPa)
#
#
# Indices 1 2 3 4 5 6 
#
# 1 0.009481 -0.003329 -0.003964 -0.004960 -0.003429 -0.002871
# 2 -0.003329 0.011433 -0.003465 0.004355 -0.000030 0.001350
# 3 -0.003964 -0.003465 0.015679 0.008031 0.006387 0.000482
# 4 -0.004960 0.004355 0.008031 0.042669 0.002339 0.011327
# 5 -0.003429 -0.000030 0.006387 0.002339 0.028735 -0.000412
# 6 -0.002871 0.001350 0.000482 0.011327 -0.000412 0.022543
#
#
# Mechanical properties :
#
#
# Convention : Reuss Voigt Hill
#
# Bulk Modulus (GPa) = 66.31987 78.28840 72.30413
# Shear Modulus (GPa) = 31.83048 40.05786 35.94417
#
# Velocity S-wave (km/s) = 3.67231 4.11966 3.90240
# Velocity P-wave (km/s) = 6.78818 7.46980 7.13713
#
# Compressibility (1/GPa) = 0.01507844
#
# Stress axis : x y z
#
# Youngs Moduli (GPa) = 105.47109 87.46787 63.77800
#
# Poissons Ratio (x) = 0.29121 0.25279
# Poissons Ratio (y) = 0.35115 0.22096
# Poissons Ratio (z) = 0.41804 0.30304
#
# Static dielectric constant tensor:
#      x y z
#    x 1.958250 -0.071150 -0.004670 
#    y -0.071150 1.934510 0.001880 
#    z -0.004670 0.001880 1.916040 
# 
# From -- ./inp_files/297957.got.cif
#   From: 2010.05.17/outbox.cif.g08.bks.cpg/sg2_149_cif.got.tgz:297957.got - 2010.06.03 11:33:40.
