data_PCOD9052612
_publ_section_title
;
Structure prediction by ZEFSAII (Michael W. Deem and Ramdas Pophale) SiO2 
 PCOD9052612
Probable space group: P -1
;
_chemical_formula_sum "Si O2"
_cell_formula_units_Z 16
_cell_length_a 11.547166
_cell_length_b 11.323240
_cell_length_c 11.591769
_cell_angle_alpha 122.395794
_cell_angle_beta 38.815191
_cell_angle_gamma 106.670075
_cell_volume 777.361603
_symmetry_space_group_name_H-M "P -1"
_symmetry_group_IT_number 2
_symmetry_cell_setting 'triclinic'
loop_
_space_group_symop_operation_xyz
x,y,z
-x,-y,-z
loop_
_atom_site_type_symbol
_atom_site_label
_atom_site_fract_x
_atom_site_fract_y
_atom_site_fract_z
Si Si1 0.582532 0.312247 0.562410
Si Si2 0.886509 0.917624 0.815499
Si Si3 0.952838 0.401100 0.380709
Si Si4 0.480926 0.853301 0.677042
Si Si5 0.546980 0.286417 0.929332
Si Si6 0.268568 0.464676 0.040997
Si Si7 0.287311 0.952318 0.502101
Si Si8 0.638910 0.842329 0.791210
O O1 0.590097 0.268358 0.400655
O O2 0.373776 0.397760 0.808963
O O3 0.638730 0.163323 0.514578
O O4 0.732728 0.403129 0.532990
O O5 0.952382 0.767984 0.756188
O O6 0.835583 0.864821 0.701170
O O7 0.060155 0.993269 0.712575
O O8 0.702177 0.022338 0.072601
O O9 0.000000 0.500000 0.500000
O O10 0.056505 0.450692 0.217044
O O11 0.611535 0.801036 0.660091
O O12 0.606480 0.921246 0.525681
O O13 0.395657 0.372196 0.997773
O O14 0.653203 0.137511 0.709187
O O15 0.699994 0.377203 0.883963
O O16 0.435487 0.259358 0.114721
O O17 0.500000 0.000000 0.000000
#
# Coordination Sequence:
#
# PCOD9052612 Si02
#       8
#     2   2   2   2   2   2   2   2
#     4  10  23  34  54  85 113 145 185 224 279 338
#     4  10  20  34  58  84 108 145 187 232 277 315
#     4  11  20  35  60  88 108 135 186 243 282 316
#     4  11  22  38  51  78 121 154 179 219 274 341
#     4  10  17  35  57  85 106 139 185 234 278 316
#     4  10  19  34  59  79 113 139 180 242 276 311
#     4  10  19  33  57  83 106 140 186 232 279 319
#     4  10  19  36  57  78 116 149 182 228 268 330
#
# _framework density 20.582442
#
# number of rings (size 3 to 8) (size 9 to 14) (size 15 to 20)
#    0.000    1.750    3.750    4.125    0.000    3.500 
#    0.000    0.625    0.000    0.750    0.000    0.000 
#    0.000    0.000    0.000    0.000    0.000    0.000 
#
# Total GULP energy -89312.228148 kJ/mol
# GULP energy per Si atom -5582.014259 kJ/mol
# Density = 2.053560 g / cm^3
# Si number density = 20.582442 Si / 1000 Ang^3
#
#
#
# Elastic Constant Matrix: (Units=GPa)
#
#
# Indices 1 2 3 4 5 6 
#
# 1 54.8006 19.9961 24.8110 -4.9744 19.7172 20.2296
# 2 19.9961 67.6601 20.8633 -9.9117 1.1076 22.0530
# 3 24.8110 20.8633 70.1378 -11.8388 5.8442 19.5555
# 4 -4.9744 -9.9117 -11.8388 29.1035 9.9836 -8.1052
# 5 19.7172 1.1076 5.8442 9.9836 26.8575 0.9292
# 6 20.2296 22.0530 19.5555 -8.1052 0.9292 21.1469
#
#
#
# Elastic Compliance Matrix: (Units=1/GPa)
#
#
# Indices 1 2 3 4 5 6 
#
# 1 0.047102 0.001592 -0.001268 0.009337 -0.036443 -0.040366
# 2 0.001592 0.022497 -0.000049 0.001856 -0.001940 -0.024141
# 3 -0.001268 -0.000049 0.020300 0.005517 -0.005010 -0.015173
# 4 0.009337 0.001856 0.005517 0.049032 -0.026496 0.003988
# 5 -0.036443 -0.001940 -0.005010 -0.026496 0.074035 0.028110
# 6 -0.040366 -0.024141 -0.015173 0.003988 0.028110 0.125404
#
#
# Mechanical properties :
#
#
# Convention : Reuss Voigt Hill
#
# Bulk Modulus (GPa) = 11.05611 35.99326 23.52469
# Shear Modulus (GPa) = 13.58805 23.88347 18.73576
#
# Velocity S-wave (km/s) = 2.57218 3.41013 3.02036
# Velocity P-wave (km/s) = 3.76892 5.74723 4.85980
#
# Compressibility (1/GPa) = 0.09044776
#
# Stress axis : x y z
#
# Youngs Moduli (GPa) = 21.23030 44.45105 49.26070
#
# Poissons Ratio (x) = -0.07075 0.06249
# Poissons Ratio (y) = -0.03379 0.00242
# Poissons Ratio (z) = 0.02693 0.00218
#
# Static dielectric constant tensor:
#      x y z
#    x 1.755420 0.006020 -0.004330 
#    y 0.006020 1.747380 -0.001820 
#    z -0.004330 -0.001820 1.754010 
# 
# From -- ./inp_files/263420.got.cif
#   From: 2010.05.17/outbox.cif.g08.bks.cpg/sg2_132_cif.got.tgz:263420.got - 2010.06.03 11:33:40.
