data_PCOD9052114
_publ_section_title
;
Structure prediction by ZEFSAII (Michael W. Deem and Ramdas Pophale) SiO2 
 PCOD9052114
Probable space group: P -1
;
_chemical_formula_sum "Si O2"
_cell_formula_units_Z 12
_cell_length_a 13.883137
_cell_length_b 5.270167
_cell_length_c 7.440083
_cell_angle_alpha 114.003081
_cell_angle_beta 71.465256
_cell_angle_gamma 86.863783
_cell_volume 460.731669
_symmetry_space_group_name_H-M "P -1"
_symmetry_group_IT_number 2
_symmetry_cell_setting 'triclinic'
loop_
_space_group_symop_operation_xyz
x,y,z
-x,-y,-z
loop_
_atom_site_type_symbol
_atom_site_label
_atom_site_fract_x
_atom_site_fract_y
_atom_site_fract_z
Si Si1 0.643166 0.023369 0.392321
Si Si2 0.228128 0.199579 0.429160
Si Si3 0.476518 0.414171 0.789914
Si Si4 0.940431 0.306093 0.864056
Si Si5 0.732309 0.150882 0.045840
Si Si6 0.906644 0.237150 0.463976
O O1 0.567607 0.873232 0.277056
O O2 0.679066 0.838050 0.494823
O O3 0.581895 0.329203 0.587982
O O4 0.739521 0.031558 0.207993
O O5 0.163559 0.974710 0.479053
O O6 0.159261 0.512007 0.540972
O O7 0.261858 0.090650 0.178136
O O8 0.381922 0.651291 0.842555
O O9 0.500000 0.500000 0.000000
O O10 0.822131 0.319778 0.997436
O O11 0.000716 0.025186 0.250177
O O12 0.942519 0.365739 0.665318
O O13 0.000000 0.500000 0.000000
#
# Coordination Sequence:
#
# PCOD9052114 Si02
#       6
#     2   2   2   2   2   2
#     4  11  27  48  78 115 157 208 265 328 407 474
#     4  11  26  50  80 115 163 211 265 330 399 475
#     4  11  25  52  76 117 156 204 264 336 397 481
#     4  10  25  51  80 117 159 212 267 324 397 475
#     4  11  26  48  82 114 161 211 270 327 402 475
#     4  10  26  50  76 114 162 208 265 333 390 466
#
# _framework density 26.045532000000001
#
# number of rings (size 3 to 8) (size 9 to 14) (size 15 to 20)
#    0.000    1.333    1.667    0.500    9.333    6.667 
#    0.000    7.500    0.000    0.000    0.000    0.000 
#    0.000    0.000    0.000    0.000    0.000    0.000 
#
# Total GULP energy -67334.368673 kJ/mol
# GULP energy per Si atom -5611.197389 kJ/mol
# Density = 2.598625 g / cm^3
# Si number density = 26.045532 Si / 1000 Ang^3
#
#
#
# Elastic Constant Matrix: (Units=GPa)
#
#
# Indices 1 2 3 4 5 6 
#
# 1 106.7573 55.3900 67.1472 -1.3359 24.6899 -15.6639
# 2 55.3900 142.6866 57.4667 8.0072 4.0287 -29.9410
# 3 67.1472 57.4667 181.1212 5.1655 27.6260 -2.5128
# 4 -1.3359 8.0072 5.1655 24.9868 9.9250 -1.5864
# 5 24.6899 4.0287 27.6260 9.9250 52.3135 10.9620
# 6 -15.6639 -29.9410 -2.5128 -1.5864 10.9620 49.9051
#
#
#
# Elastic Compliance Matrix: (Units=1/GPa)
#
#
# Indices 1 2 3 4 5 6 
#
# 1 0.016236 -0.004034 -0.003716 0.006169 -0.007466 0.004325
# 2 -0.004034 0.010418 -0.001936 -0.003632 0.001901 0.004354
# 3 -0.003716 -0.001936 0.007777 -0.000585 -0.001765 -0.001567
# 4 0.006169 -0.003632 -0.000585 0.046637 -0.011976 0.003841
# 5 -0.007466 0.001901 -0.001765 -0.011976 0.027304 -0.007670
# 6 0.004325 0.004354 -0.001567 0.003841 -0.007670 0.025735
#
#
# Mechanical properties :
#
#
# Convention : Reuss Voigt Hill
#
# Bulk Modulus (GPa) = 66.40649 87.84146 77.12397
# Shear Modulus (GPa) = 31.54597 42.14517 36.84557
#
# Velocity S-wave (km/s) = 3.48398 4.02697 3.76528
# Velocity P-wave (km/s) = 6.46033 7.44455 6.96983
#
# Compressibility (1/GPa) = 0.01505877
#
# Stress axis : x y z
#
# Youngs Moduli (GPa) = 61.59167 95.99128 128.58014
#
# Poissons Ratio (x) = 0.38721 0.47786
# Poissons Ratio (y) = 0.24845 0.24891
# Poissons Ratio (z) = 0.22890 0.18582
#
# Static dielectric constant tensor:
#      x y z
#    x 2.135550 0.016600 -0.015050 
#    y 0.016600 2.051400 -0.021350 
#    z -0.015050 -0.021350 2.028780 
# 
# From -- ./inp_files/4487.got.cif
#   From: 2010.05.17/outbox.cif.g08.bks.cpg/sg2_3_cif.got.tgz:4487.got - 2010.06.03 11:33:40.
