data_PCOD9052673
_publ_section_title
;
Structure prediction by ZEFSAII (Michael W. Deem and Ramdas Pophale) SiO2 
 PCOD9052673
Probable space group: P -1
;
_chemical_formula_sum "Si O2"
_cell_formula_units_Z 15
_cell_length_a 25.335817
_cell_length_b 6.714748
_cell_length_c 14.097976
_cell_angle_alpha 128.120880
_cell_angle_beta 19.033298
_cell_angle_gamma 130.186011
_cell_volume 597.275390
_symmetry_space_group_name_H-M "P -1"
_symmetry_group_IT_number 2
_symmetry_cell_setting 'triclinic'
loop_
_space_group_symop_operation_xyz
x,y,z
-x,-y,-z
loop_
_atom_site_type_symbol
_atom_site_label
_atom_site_fract_x
_atom_site_fract_y
_atom_site_fract_z
Si Si1 0.739319 0.922236 0.562096
Si Si2 0.500000 0.000000 0.500000
Si Si3 0.305909 0.672032 0.563246
Si Si4 0.114546 0.255912 0.427851
Si Si5 0.697021 0.535316 0.020972
Si Si6 0.603393 0.922953 0.990766
Si Si7 0.075998 0.333405 0.146556
Si Si8 0.827862 0.012521 0.247549
O O1 0.737853 0.634661 0.443993
O O2 0.609279 0.892660 0.858911
O O3 0.717031 0.052723 0.537128
O O4 0.913497 0.093168 0.358180
O O5 0.361659 0.839146 0.611419
O O6 0.583704 0.740649 0.287353
O O7 0.160388 0.760981 0.780977
O O8 0.460446 0.758475 0.252485
O O9 0.228823 0.415301 0.196677
O O10 0.231419 0.166146 0.279360
O O11 0.991152 0.435545 0.719975
O O12 0.000000 0.000000 0.500000
O O13 0.845510 0.592038 0.862594
O O14 0.614513 0.228311 0.082533
O O15 0.213705 0.247111 0.822122
O O16 0.000000 0.000000 0.000000
#
# Coordination Sequence:
#
# PCOD9052673 Si02
#       8
#     2   1   2   2   2   2   2   2
#     4  11  27  48  74 110 151 196 251 314 367 454
#     4  12  28  52  76 108 154 196 254 312 372 460
#     4  12  28  50  75 113 149 205 254 304 387 443
#     4  12  24  43  73 115 148 199 250 306 379 444
#     4  12  25  50  75 112 147 199 250 314 383 438
#     4  12  27  47  76 109 157 198 252 312 373 460
#     4  11  23  49  77 109 156 191 257 318 373 447
#     4  10  26  48  72 109 148 202 246 314 372 442
#
# _framework density 25.114045000000001
#
# number of rings (size 3 to 8) (size 9 to 14) (size 15 to 20)
#    0.000    0.533    5.333    1.600    5.600    5.333 
#    0.000    0.000    0.000    0.000    0.000    0.000 
#    0.000    0.000    0.000    0.000    0.000    0.000 
#
# Total GULP energy -83680.255526 kJ/mol
# GULP energy per Si atom -5578.683702 kJ/mol
# Density = 2.505688 g / cm^3
# Si number density = 25.114045 Si / 1000 Ang^3
#
#
#
# Elastic Constant Matrix: (Units=GPa)
#
#
# Indices 1 2 3 4 5 6 
#
# 1 108.2410 26.9087 13.6381 5.2971 -6.2128 1.3326
# 2 26.9087 105.9858 9.9640 0.4309 0.2732 3.1767
# 3 13.6381 9.9640 70.3895 5.8897 2.3371 -9.9500
# 4 5.2971 0.4309 5.8897 42.2257 -7.1233 -3.5439
# 5 -6.2128 0.2732 2.3371 -7.1233 36.3036 13.9717
# 6 1.3326 3.1767 -9.9500 -3.5439 13.9717 32.3113
#
#
#
# Elastic Compliance Matrix: (Units=1/GPa)
#
#
# Indices 1 2 3 4 5 6 
#
# 1 0.010279 -0.002371 -0.001955 -0.000733 0.002513 -0.001960
# 2 -0.002371 0.010187 -0.001196 0.000276 0.000152 -0.001307
# 3 -0.001955 -0.001196 0.016043 -0.002151 -0.004399 0.006805
# 4 -0.000733 0.000276 -0.002151 0.024896 0.004917 -0.000055
# 5 0.002513 0.000152 -0.004399 0.004917 0.035488 -0.016279
# 6 -0.001960 -0.001307 0.006805 -0.000055 -0.016279 0.040287
#
#
# Mechanical properties :
#
#
# Convention : Reuss Voigt Hill
#
# Bulk Modulus (GPa) = 39.26853 42.84864 41.05858
# Shear Modulus (GPa) = 31.90593 37.77515 34.84054
#
# Velocity S-wave (km/s) = 3.56819 3.88254 3.72868
# Velocity P-wave (km/s) = 5.71367 6.09897 5.90946
#
# Compressibility (1/GPa) = 0.02546569
#
# Stress axis : x y z
#
# Youngs Moduli (GPa) = 97.28987 98.16269 62.33369
#
# Poissons Ratio (x) = 0.23270 0.12187
# Poissons Ratio (y) = 0.23063 0.07453
# Poissons Ratio (z) = 0.19021 0.11737
#
# Static dielectric constant tensor:
#      x y z
#    x 1.977840 -0.029210 0.012590 
#    y -0.029210 1.981540 0.032350 
#    z 0.012590 0.032350 2.126350 
# 
# From -- ./inp_files/543653.got.cif
#   From: 2010.05.17/outbox.cif.g08.bks.cpg/sg2_272_cif.got.tgz:543653.got - 2010.06.03 11:33:40.
