data_PCOD9052016
_publ_section_title
;
Structure prediction by ZEFSAII (Michael W. Deem and Ramdas Pophale) SiO2 
 PCOD9052016
Probable space group: P -1
;
_chemical_formula_sum "Si O2"
_cell_formula_units_Z 16
_cell_length_a 8.155227
_cell_length_b 13.879278
_cell_length_c 9.005820
_cell_angle_alpha 43.791085
_cell_angle_beta 59.541323
_cell_angle_gamma 68.499629
_cell_volume 608.073655
_symmetry_space_group_name_H-M "P -1"
_symmetry_group_IT_number 2
_symmetry_cell_setting 'triclinic'
loop_
_space_group_symop_operation_xyz
x,y,z
-x,-y,-z
loop_
_atom_site_type_symbol
_atom_site_label
_atom_site_fract_x
_atom_site_fract_y
_atom_site_fract_z
Si Si1 0.980297 0.668184 0.517508
Si Si2 0.744954 0.902498 0.452485
Si Si3 0.119815 0.435107 0.880680
Si Si4 0.743266 0.406226 0.968091
Si Si5 0.221065 0.991306 0.369376
Si Si6 0.587672 0.770399 0.125346
Si Si7 0.756748 0.192337 0.965402
Si Si8 0.474405 0.730541 0.546723
O O1 0.146963 0.570171 0.614023
O O2 0.430543 0.289574 0.633903
O O3 0.919401 0.794621 0.509430
O O4 0.193342 0.442633 0.287371
O O5 0.608083 0.816797 0.501711
O O6 0.793953 0.045247 0.187919
O O7 0.676062 0.944654 0.600588
O O8 0.304866 0.342542 0.902233
O O9 0.000000 0.500000 0.000000
O O10 0.950140 0.264011 0.740329
O O11 0.611695 0.401701 0.178897
O O12 0.951830 0.344347 0.983715
O O13 0.299517 0.837355 0.482891
O O14 0.283779 0.090705 0.096091
O O15 0.000000 0.000000 0.500000
O O16 0.385445 0.814642 0.100642
O O17 0.663992 0.300389 0.003151
#
# Coordination Sequence:
#
# PCOD9052016 Si02
#       8
#     2   2   2   2   2   2   2   2
#     4  10  27  45  78 107 156 202 260 306 385 457
#     4  12  26  48  78 111 157 201 258 312 391 448
#     4  10  25  52  74 109 152 200 258 305 388 466
#     4  10  25  49  76 105 154 206 253 305 390 460
#     4  12  26  47  79 110 157 204 251 317 389 456
#     4  12  28  45  81 117 152 196 258 329 378 447
#     4  12  25  48  78 114 155 198 265 317 382 451
#     4  12  26  48  76 118 155 195 262 321 381 458
#
# _framework density 26.312601999999998
#
# number of rings (size 3 to 8) (size 9 to 14) (size 15 to 20)
#    0.750    0.000    2.500    3.750    5.250    1.000 
#    2.250    0.000    0.000    0.000    0.000    0.000 
#    0.000    0.000    0.000    0.000    0.000    0.000 
#
# Total GULP energy -89569.859826 kJ/mol
# GULP energy per Si atom -5598.116239 kJ/mol
# Density = 2.625271 g / cm^3
# Si number density = 26.312602 Si / 1000 Ang^3
#
#
#
# Elastic Constant Matrix: (Units=GPa)
#
#
# Indices 1 2 3 4 5 6 
#
# 1 89.7318 12.6357 22.0834 4.3681 -6.4592 -0.7645
# 2 12.6357 110.0960 24.1491 -11.0222 -6.4642 2.5617
# 3 22.0834 24.1491 187.7905 2.5031 -37.6895 10.3380
# 4 4.3681 -11.0222 2.5031 47.6817 5.4286 9.0764
# 5 -6.4592 -6.4642 -37.6895 5.4286 29.3511 4.2310
# 6 -0.7645 2.5617 10.3380 9.0764 4.2310 36.2547
#
#
#
# Elastic Compliance Matrix: (Units=1/GPa)
#
#
# Indices 1 2 3 4 5 6 
#
# 1 0.011739 -0.001238 -0.001011 -0.001612 0.001182 0.000889
# 2 -0.001238 0.009752 -0.001039 0.002606 0.000217 -0.001097
# 3 -0.001011 -0.001039 0.007819 -0.001136 0.010244 -0.003088
# 4 -0.001612 0.002606 -0.001136 0.023314 -0.004807 -0.005170
# 5 0.001182 0.000217 0.010244 -0.004807 0.049500 -0.007485
# 6 0.000889 -0.001097 -0.003088 -0.005170 -0.007485 0.030727
#
#
# Mechanical properties :
#
#
# Convention : Reuss Voigt Hill
#
# Bulk Modulus (GPa) = 43.99113 56.15050 50.07081
# Shear Modulus (GPa) = 34.01223 44.57418 39.29320
#
# Velocity S-wave (km/s) = 3.59920 4.12032 3.86855
# Velocity P-wave (km/s) = 5.83329 6.63492 6.24698
#
# Compressibility (1/GPa) = 0.02273186
#
# Stress axis : x y z
#
# Youngs Moduli (GPa) = 85.18809 102.54052 127.89683
#
# Poissons Ratio (x) = 0.12696 0.12936
# Poissons Ratio (y) = 0.10547 0.13293
# Poissons Ratio (z) = 0.08617 0.10658
#
# Static dielectric constant tensor:
#      x y z
#    x 2.192620 -0.025750 0.026800 
#    y -0.025750 2.034680 0.051740 
#    z 0.026800 0.051740 2.065080 
# 
# From -- ./inp_files/406488.got.cif
#   From: 2010.05.17/outbox.cif.g08.bks.cpg/sg2_204_cif.got.tgz:406488.got - 2010.06.03 11:33:40.
