data_PCOD9052236
_publ_section_title
;
Structure prediction by ZEFSAII (Michael W. Deem and Ramdas Pophale) SiO2 
 PCOD9052236
Probable space group: P -1
;
_chemical_formula_sum "Si O2"
_cell_formula_units_Z 14
_cell_length_a 11.966124
_cell_length_b 8.871975
_cell_length_c 15.805472
_cell_angle_alpha 124.949592
_cell_angle_beta 29.532189
_cell_angle_gamma 138.672578
_cell_volume 529.197282
_symmetry_space_group_name_H-M "P -1"
_symmetry_group_IT_number 2
_symmetry_cell_setting 'triclinic'
loop_
_space_group_symop_operation_xyz
x,y,z
-x,-y,-z
loop_
_atom_site_type_symbol
_atom_site_label
_atom_site_fract_x
_atom_site_fract_y
_atom_site_fract_z
Si Si1 0.901956 0.135467 0.154139
Si Si2 0.861298 0.460972 0.744756
Si Si3 0.821030 0.739007 0.723982
Si Si4 0.640517 0.019103 0.003388
Si Si5 0.427290 0.128015 0.393855
Si Si6 0.594813 0.380893 0.196512
Si Si7 0.536348 0.732382 0.396229
O O1 0.713006 0.148878 0.214432
O O2 0.121135 0.390590 0.137097
O O3 0.689098 0.971463 0.319350
O O4 0.000000 0.000000 0.000000
O O5 0.757630 0.533541 0.758477
O O6 0.631575 0.184864 0.825935
O O7 0.191647 0.559053 0.545335
O O8 0.602706 0.675957 0.772899
O O9 0.825816 0.928149 0.838659
O O10 0.134930 0.867310 0.517484
O O11 0.767220 0.280494 0.032074
O O12 0.500000 0.000000 0.000000
O O13 0.411757 0.239500 0.356028
O O14 0.458285 0.254560 0.501946
O O15 0.710406 0.640291 0.223396
#
# Coordination Sequence:
#
# PCOD9052236 Si02
#       7
#     2   2   2   2   2   2   2
#     4  11  25  45  76 104 137 184 245 295 351 420
#     4  11  23  46  73 100 141 191 232 301 348 410
#     4  11  23  45  72  99 148 181 240 289 350 419
#     4  10  26  44  66 104 149 182 231 290 357 415
#     4  11  23  47  70 105 140 188 237 292 354 416
#     4  11  27  42  68 108 142 190 231 286 354 428
#     4  11  24  47  72 102 143 182 241 292 352 420
#
# _framework density 26.455162999999999
#
# number of rings (size 3 to 8) (size 9 to 14) (size 15 to 20)
#    0.000    1.143    2.857    2.143   12.000    1.714 
#    0.000    1.429    0.000    0.000    0.000    0.000 
#    0.000    0.000    0.000    0.000    0.000    0.000 
#
# Total GULP energy -78417.694935 kJ/mol
# GULP energy per Si atom -5601.263924 kJ/mol
# Density = 2.639495 g / cm^3
# Si number density = 26.455163 Si / 1000 Ang^3
#
#
#
# Elastic Constant Matrix: (Units=GPa)
#
#
# Indices 1 2 3 4 5 6 
#
# 1 169.8806 45.1573 36.9805 -4.4171 -3.5317 -30.4411
# 2 45.1573 110.3462 18.1122 23.2724 6.0260 -16.9865
# 3 36.9805 18.1122 102.8076 22.5866 -3.9805 -5.4586
# 4 -4.4171 23.2724 22.5866 47.7579 -2.5580 15.4022
# 5 -3.5317 6.0260 -3.9805 -2.5580 38.9140 2.7245
# 6 -30.4411 -16.9865 -5.4586 15.4022 2.7245 51.0280
#
#
#
# Elastic Compliance Matrix: (Units=1/GPa)
#
#
# Indices 1 2 3 4 5 6 
#
# 1 0.007807 -0.002980 -0.002706 0.002690 0.000894 0.002516
# 2 -0.002980 0.013071 0.000931 -0.009054 -0.003185 0.005576
# 3 -0.002706 0.000931 0.012236 -0.007174 0.000239 0.002157
# 4 0.002690 -0.009054 -0.007174 0.033208 0.003964 -0.012412
# 5 0.000894 -0.003185 0.000239 0.003964 0.026776 -0.003128
# 6 0.002516 0.005576 0.002157 -0.012412 -0.003128 0.027098
#
#
# Mechanical properties :
#
#
# Convention : Reuss Voigt Hill
#
# Bulk Modulus (GPa) = 42.36481 64.83715 53.60098
# Shear Modulus (GPa) = 36.34414 46.39225 41.36820
#
# Velocity S-wave (km/s) = 3.71050 4.19217 3.95867
# Velocity P-wave (km/s) = 5.86564 6.92776 6.41871
#
# Compressibility (1/GPa) = 0.02360450
#
# Stress axis : x y z
#
# Youngs Moduli (GPa) = 128.09003 76.50658 81.72505
#
# Poissons Ratio (x) = 0.22795 0.22116
# Poissons Ratio (y) = 0.38165 -0.07608
# Poissons Ratio (z) = 0.34663 -0.07122
#
# Static dielectric constant tensor:
#      x y z
#    x 2.027260 0.106040 0.038620 
#    y 0.106040 2.051690 0.054780 
#    z 0.038620 0.054780 2.080290 
# 
# From -- ./inp_files/566838.got.cif
#   From: 2010.05.17/outbox.cif.g08.bks.cpg/sg2_284_cif.got.tgz:566838.got - 2010.06.03 11:33:40.
