data_PCOD9052642
_publ_section_title
;
Structure prediction by ZEFSAII (Michael W. Deem and Ramdas Pophale) SiO2 
 PCOD9052642
Probable space group: P -1
;
_chemical_formula_sum "Si O2"
_cell_formula_units_Z 15
_cell_length_a 11.335440
_cell_length_b 7.851163
_cell_length_c 12.684886
_cell_angle_alpha 88.622077
_cell_angle_beta 147.383894
_cell_angle_gamma 105.850027
_cell_volume 537.175922
_symmetry_space_group_name_H-M "P -1"
_symmetry_group_IT_number 2
_symmetry_cell_setting 'triclinic'
loop_
_space_group_symop_operation_xyz
x,y,z
-x,-y,-z
loop_
_atom_site_type_symbol
_atom_site_label
_atom_site_fract_x
_atom_site_fract_y
_atom_site_fract_z
Si Si1 0.366527 0.664110 0.370411
Si Si2 0.940402 0.132358 0.832303
Si Si3 0.108154 0.259766 0.236970
Si Si4 0.504953 0.331407 0.282964
Si Si5 0.766411 0.173824 0.171310
Si Si6 0.262402 0.464981 0.752560
Si Si7 0.000000 0.000000 0.500000
Si Si8 0.768173 0.090866 0.460891
O O1 0.257436 0.810926 0.264145
O O2 0.168074 0.444158 0.207733
O O3 0.624239 0.701489 0.511056
O O4 0.418255 0.658410 0.536366
O O5 0.851412 0.108209 0.643242
O O6 0.943002 0.932065 0.860802
O O7 0.225638 0.287913 0.053331
O O8 0.886469 0.233081 0.145387
O O9 0.668595 0.493461 0.318859
O O10 0.561011 0.157692 0.292309
O O11 0.802105 0.370708 0.252836
O O12 0.927034 0.076905 0.337498
O O13 0.500000 0.000000 0.000000
O O14 0.035853 0.246089 0.601768
O O15 0.500000 0.500000 0.000000
O O16 0.713570 0.922793 0.341200
#
# Coordination Sequence:
#
# PCOD9052642 Si02
#       8
#     2   2   2   2   2   2   1   2
#     4  10  26  48  69  98 134 186 234 279 337 403
#     4  11  22  45  69  96 134 178 224 289 345 396
#     4  11  24  47  71  97 141 179 228 288 337 405
#     4  11  23  41  68  98 134 178 234 277 337 419
#     4  12  25  44  66 102 140 170 223 285 342 410
#     4  12  23  40  66  97 137 182 219 282 348 404
#     4  12  24  38  62  98 132 182 218 268 350 410
#     4  11  23  39  61  97 139 174 223 276 345 410
#
# _framework density 27.923815000000001
#
# number of rings (size 3 to 8) (size 9 to 14) (size 15 to 20)
#    0.000    0.800    4.000    4.000    1.867    0.533 
#    0.000    6.667    0.000    0.000    0.000    0.000 
#    0.000    0.000    0.000    0.000    0.000    0.000 
#
# Total GULP energy -83706.667317 kJ/mol
# GULP energy per Si atom -5580.444488 kJ/mol
# Density = 2.786026 g / cm^3
# Si number density = 27.923815 Si / 1000 Ang^3
#
#
#
# Elastic Constant Matrix: (Units=GPa)
#
#
# Indices 1 2 3 4 5 6 
#
# 1 134.0726 32.5751 28.3050 8.7398 22.9525 -8.3952
# 2 32.5751 127.2700 29.0769 13.2903 20.5113 -3.6052
# 3 28.3050 29.0769 121.2642 -3.5539 27.7197 9.1652
# 4 8.7398 13.2903 -3.5539 50.7058 3.2654 17.3188
# 5 22.9525 20.5113 27.7197 3.2654 48.5479 -10.3282
# 6 -8.3952 -3.6052 9.1652 17.3188 -10.3282 45.8977
#
#
#
# Elastic Compliance Matrix: (Units=1/GPa)
#
#
# Indices 1 2 3 4 5 6 
#
# 1 0.008690 -0.001305 -0.001405 -0.001772 -0.002224 0.001936
# 2 -0.001305 0.009185 -0.001662 -0.002661 -0.001837 0.001405
# 3 -0.001405 -0.001662 0.010916 0.003677 -0.006254 -0.005362
# 4 -0.001772 -0.002661 0.003677 0.025288 -0.004346 -0.011788
# 5 -0.002224 -0.001837 -0.006254 -0.004346 0.028133 0.008669
# 6 0.001936 0.001405 -0.005362 -0.011788 0.008669 0.029721
#
#
# Mechanical properties :
#
#
# Convention : Reuss Voigt Hill
#
# Bulk Modulus (GPa) = 49.88673 62.50228 56.19451
# Shear Modulus (GPa) = 39.25904 48.54026 43.89965
#
# Velocity S-wave (km/s) = 3.75365 4.17383 3.96930
# Velocity P-wave (km/s) = 6.05727 6.75718 6.41678
#
# Compressibility (1/GPa) = 0.02004541
#
# Stress axis : x y z
#
# Youngs Moduli (GPa) = 115.07733 108.87712 91.61113
#
# Poissons Ratio (x) = 0.14206 0.12876
# Poissons Ratio (y) = 0.15015 0.15227
# Poissons Ratio (z) = 0.16174 0.18097
#
# Static dielectric constant tensor:
#      x y z
#    x 1.868220 0.252780 -0.024230 
#    y 0.252780 2.045720 0.058890 
#    z -0.024230 0.058890 2.153760 
# 
# From -- ./inp_files/515581.got.cif
#   From: 2010.05.17/outbox.cif.g08.bks.cpg/sg2_258_cif.got.tgz:515581.got - 2010.06.03 11:33:40.
