data_PCOD9052775
_publ_section_title
;
Structure prediction by ZEFSAII (Michael W. Deem and Ramdas Pophale) SiO2 
 PCOD9052775
Probable space group: P -1
;
_chemical_formula_sum "Si O2"
_cell_formula_units_Z 16
_cell_length_a 8.561253
_cell_length_b 8.561253
_cell_length_c 15.047137
_cell_angle_alpha 64.121041
_cell_angle_beta 64.121045
_cell_angle_gamma 103.816715
_cell_volume 756.868203
_symmetry_space_group_name_H-M "P -1"
_symmetry_group_IT_number 2
_symmetry_cell_setting 'triclinic'
loop_
_space_group_symop_operation_xyz
x,y,z
-x,-y,-z
loop_
_atom_site_type_symbol
_atom_site_label
_atom_site_fract_x
_atom_site_fract_y
_atom_site_fract_z
Si Si1 0.352478 0.625828 0.207581
Si Si2 0.125828 0.852479 0.207580
Si Si3 0.321501 0.268625 0.583283
Si Si4 0.231374 0.178500 0.416717
Si Si5 0.462390 0.962389 0.622096
Si Si6 0.792607 0.292607 0.115252
Si Si7 0.794425 0.997736 0.047939
Si Si8 0.502264 0.705575 0.952061
O O1 0.196690 0.696690 0.259929
O O2 0.284250 0.392322 0.304330
O O3 0.579373 0.781635 0.152589
O O4 0.388251 0.677213 0.080992
O O5 0.892322 0.784250 0.304330
O O6 0.281635 0.079374 0.152588
O O7 0.177213 0.888251 0.080992
O O8 0.500000 0.500000 0.500000
O O9 0.272820 0.227179 0.500000
O O10 0.421254 0.136966 0.621061
O O11 0.363034 0.078746 0.378939
O O12 0.000000 0.000000 0.500000
O O13 0.500000 0.000000 0.500000
O O14 0.257854 0.757854 0.756584
O O15 0.618428 0.299492 0.103136
O O16 0.799493 0.118428 0.103136
O O17 0.000000 0.500000 0.000000
O O18 0.000000 0.000000 0.000000
O O19 0.500000 0.500000 0.000000
#
# Coordination Sequence:
#
# PCOD9052775 Si02
#       8
#     2   2   2   2   2   2   2   2
#     4  11  24  47  70 100 145 185 233 297 355 425
#     4  11  24  47  70 100 145 185 233 297 355 425
#     4  11  28  47  73 102 139 196 242 297 361 430
#     4  11  28  47  73 102 139 196 242 297 361 430
#     4  10  26  50  67 101 149 182 243 291 358 433
#     4  12  26  41  72 106 139 187 229 290 356 419
#     4  11  24  42  69 106 141 178 232 288 356 425
#     4  11  24  42  69 106 141 178 232 288 356 425
#
# _framework density 21.139744
#
# number of rings (size 3 to 8) (size 9 to 14) (size 15 to 20)
#    0.000    1.000    2.500    2.250   15.750    2.500 
#    0.000    0.000    0.000    0.000    0.000    0.000 
#    0.000    0.000    0.000    0.000    0.000    0.000 
#
# Total GULP energy -89246.064975 kJ/mol
# GULP energy per Si atom -5577.879061 kJ/mol
# Density = 2.109163 g / cm^3
# Si number density = 21.139744 Si / 1000 Ang^3
#
#
#
# Elastic Constant Matrix: (Units=GPa)
#
#
# Indices 1 2 3 4 5 6 
#
# 1 131.0861 89.7255 68.8222 -21.3977 -24.4325 -32.4770
# 2 89.7255 113.5196 68.5454 -26.0831 -15.4092 -17.3404
# 3 68.8222 68.5454 163.1384 -20.1058 -16.8710 -0.7869
# 4 -21.3977 -26.0831 -20.1058 35.7701 7.4576 5.3654
# 5 -24.4325 -15.4092 -16.8710 7.4576 33.1402 3.3598
# 6 -32.4770 -17.3404 -0.7869 5.3654 3.3598 57.8769
#
#
#
# Elastic Compliance Matrix: (Units=1/GPa)
#
#
# Indices 1 2 3 4 5 6 
#
# 1 0.021174 -0.013181 -0.002719 -0.001192 0.007599 0.007565
# 2 -0.013181 0.022279 -0.003164 0.007294 -0.002479 -0.001297
# 3 -0.002719 -0.003164 0.008848 0.001207 0.001013 -0.002524
# 4 -0.001192 0.007294 0.001207 0.034381 -0.004469 -0.001395
# 5 0.007599 -0.002479 0.001013 -0.004469 0.035957 0.001862
# 6 0.007565 -0.001297 -0.002524 -0.001395 0.001862 0.021121
#
#
# Mechanical properties :
#
#
# Convention : Reuss Voigt Hill
#
# Bulk Modulus (GPa) = 70.55921 95.77003 83.16462
# Shear Modulus (GPa) = 26.79347 37.40083 32.09715
#
# Velocity S-wave (km/s) = 3.56398 4.21077 3.90081
# Velocity P-wave (km/s) = 7.09830 8.30918 7.72750
#
# Compressibility (1/GPa) = 0.01417249
#
# Stress axis : x y z
#
# Youngs Moduli (GPa) = 47.22712 44.88498 113.02614
#
# Poissons Ratio (x) = 0.59164 0.30731
# Poissons Ratio (y) = 0.62251 0.35762
# Poissons Ratio (z) = 0.12841 0.14202
#
# Static dielectric constant tensor:
#      x y z
#    x 1.790760 -0.043640 0.026360 
#    y -0.043640 1.775370 0.031420 
#    z 0.026360 0.031420 1.769330 
# 
# From -- ./inp_files/494470.got.cif
#   From: 2010.05.17/outbox.cif.g08.bks.cpg/sg2_248_cif.got.tgz:494470.got - 2010.06.03 11:33:40.
