data_PCOD9052882
_publ_section_title
;
Structure prediction by ZEFSAII (Michael W. Deem and Ramdas Pophale) SiO2 
 PCOD9052882
Probable space group: P -1
;
_chemical_formula_sum "Si O2"
_cell_formula_units_Z 16
_cell_length_a 11.072951
_cell_length_b 8.715681
_cell_length_c 8.848296
_cell_angle_alpha 119.992937
_cell_angle_beta 102.954143
_cell_angle_gamma 86.176970
_cell_volume 719.715943
_symmetry_space_group_name_H-M "P -1"
_symmetry_group_IT_number 2
_symmetry_cell_setting 'triclinic'
loop_
_space_group_symop_operation_xyz
x,y,z
-x,-y,-z
loop_
_atom_site_type_symbol
_atom_site_label
_atom_site_fract_x
_atom_site_fract_y
_atom_site_fract_z
Si Si1 0.662830 0.979993 0.691387
Si Si2 0.023047 0.797513 0.390591
Si Si3 0.627797 0.576662 0.994717
Si Si4 0.617018 0.949111 0.311012
Si Si5 0.744341 0.296281 0.408186
Si Si6 0.847926 0.295661 0.932421
Si Si7 0.903039 0.478480 0.322470
Si Si8 0.619216 0.604107 0.656711
O O1 0.669013 0.976952 0.509098
O O2 0.654765 0.784877 0.666843
O O3 0.532104 0.066354 0.729640
O O4 0.774919 0.106485 0.845772
O O5 0.130323 0.777592 0.533388
O O6 0.072869 0.729646 0.210199
O O7 0.906316 0.673609 0.350520
O O8 0.000000 0.000000 0.500000
O O9 0.663835 0.767643 0.171312
O O10 0.500000 0.500000 0.000000
O O11 0.739394 0.439193 0.959902
O O12 0.597582 0.624038 0.836559
O O13 0.648402 0.128417 0.311723
O O14 0.773110 0.392268 0.305024
O O15 0.719529 0.457799 0.591539
O O16 0.933770 0.355068 0.128219
O O17 0.000000 0.500000 0.500000
O O18 0.500000 0.500000 0.500000
#
# Coordination Sequence:
#
# PCOD9052882 Si02
#       8
#     2   2   2   2   2   2   2   2
#     4  11  24  41  70 107 146 193 235 285 355 452
#     4  11  25  50  74 101 134 192 256 308 360 420
#     4  12  26  42  69 110 149 192 237 283 360 452
#     4  11  23  43  67 104 152 187 239 279 355 453
#     4  11  24  46  70 102 147 190 236 299 363 428
#     4  12  25  47  76 105 146 191 240 302 373 428
#     4  10  27  49  72 100 138 185 249 315 362 417
#     4  12  25  42  69 104 154 195 230 287 360 436
#
# _framework density 22.230993000000002
#
# number of rings (size 3 to 8) (size 9 to 14) (size 15 to 20)
#    0.000    0.750    5.000    1.125    8.750    0.500 
#    0.000    2.500    0.000    0.000    0.000    0.000 
#    0.000    0.000    0.000    0.000    0.000    0.000 
#
# Total GULP energy -89370.749484 kJ/mol
# GULP energy per Si atom -5585.671843 kJ/mol
# Density = 2.218039 g / cm^3
# Si number density = 22.230993 Si / 1000 Ang^3
#
#
#
# Elastic Constant Matrix: (Units=GPa)
#
#
# Indices 1 2 3 4 5 6 
#
# 1 52.9367 55.0109 32.1076 0.1808 -8.2747 6.2998
# 2 55.0109 157.5716 67.1952 30.5586 -8.1377 31.5182
# 3 32.1076 67.1952 121.2015 12.3386 -1.7912 16.2823
# 4 0.1808 30.5586 12.3386 35.5071 -2.4142 -5.6561
# 5 -8.2747 -8.1377 -1.7912 -2.4142 39.8058 -0.2627
# 6 6.2998 31.5182 16.2823 -5.6561 -0.2627 46.9002
#
#
#
# Elastic Compliance Matrix: (Units=1/GPa)
#
#
# Indices 1 2 3 4 5 6 
#
# 1 0.038272 -0.016739 -0.003840 0.017444 0.005482 0.009576
# 2 -0.016739 0.019005 -0.002800 -0.017208 -0.000841 -0.011631
# 3 -0.003840 -0.002800 0.011221 -0.001812 -0.000987 -0.001722
# 4 0.017444 -0.017208 -0.001812 0.046171 0.002929 0.015434
# 5 0.005482 -0.000841 -0.000987 0.002929 0.026227 0.000671
# 6 0.009576 -0.011631 -0.001722 0.015434 0.000671 0.030315
#
#
# Mechanical properties :
#
#
# Convention : Reuss Voigt Hill
#
# Bulk Modulus (GPa) = 45.99724 71.14857 58.57290
# Shear Modulus (GPa) = 22.20084 36.26904 29.23494
#
# Velocity S-wave (km/s) = 3.16356 4.04352 3.63030
# Velocity P-wave (km/s) = 5.83778 7.33987 6.63149
#
# Compressibility (1/GPa) = 0.02174044
#
# Stress axis : x y z
#
# Youngs Moduli (GPa) = 26.12848 52.61887 89.11545
#
# Poissons Ratio (x) = 0.88081 0.34216
# Poissons Ratio (y) = 0.43738 0.24952
# Poissons Ratio (z) = 0.10032 0.14733
#
# Static dielectric constant tensor:
#      x y z
#    x 1.823690 0.126450 0.049350 
#    y 0.126450 1.735400 -0.117720 
#    z 0.049350 -0.117720 1.772850 
# 
# From -- ./inp_files/242178.got.cif
#   From: 2010.05.17/outbox.cif.g08.bks.cpg/sg2_122_cif.got.tgz:242178.got - 2010.06.03 11:33:40.
