data_PCOD9052756
_publ_section_title
;
Structure prediction by ZEFSAII (Michael W. Deem and Ramdas Pophale) SiO2 
 PCOD9052756
Probable space group: P -1
;
_chemical_formula_sum "Si O2"
_cell_formula_units_Z 15
_cell_length_a 9.373514
_cell_length_b 9.026971
_cell_length_c 7.662624
_cell_angle_alpha 61.998715
_cell_angle_beta 78.628014
_cell_angle_gamma 99.202563
_cell_volume 536.821392
_symmetry_space_group_name_H-M "P -1"
_symmetry_group_IT_number 2
_symmetry_cell_setting 'triclinic'
loop_
_space_group_symop_operation_xyz
x,y,z
-x,-y,-z
loop_
_atom_site_type_symbol
_atom_site_label
_atom_site_fract_x
_atom_site_fract_y
_atom_site_fract_z
Si Si1 0.000000 0.000000 0.500000
Si Si2 0.107574 0.600235 0.265381
Si Si3 0.241786 0.823809 0.393606
Si Si4 0.899291 0.745758 0.030920
Si Si5 0.436318 0.892282 0.812423
Si Si6 0.834062 0.935300 0.288779
Si Si7 0.362128 0.584289 0.713532
Si Si8 0.413805 0.553323 0.157967
O O1 0.163435 0.134836 0.480091
O O2 0.898252 0.139334 0.496734
O O3 0.189454 0.792025 0.223694
O O4 0.234700 0.513675 0.227279
O O5 0.000000 0.500000 0.500000
O O6 0.018549 0.638997 0.100149
O O7 0.277389 0.644958 0.541574
O O8 0.399312 0.969467 0.312552
O O9 0.862911 0.825228 0.179549
O O10 0.747732 0.602439 0.090669
O O11 0.993888 0.913156 0.800005
O O12 0.389822 0.745969 0.751705
O O13 0.305239 0.990087 0.767817
O O14 0.459244 0.765982 0.035697
O O15 0.521280 0.548072 0.654987
O O16 0.500000 0.500000 0.000000
#
# Coordination Sequence:
#
# PCOD9052756 Si02
#       8
#     1   2   2   2   2   2   2   2
#     4  12  26  46  72 114 150 204 250 318 390 460
#     4  12  25  47  73 111 150 197 256 322 384 453
#     4  12  27  44  73 108 153 199 254 318 383 460
#     4  11  25  47  73 111 152 197 257 319 390 453
#     4  11  25  48  71 105 148 202 253 306 380 465
#     4  11  25  46  75 108 150 203 251 318 386 470
#     4  11  25  47  71 108 147 201 250 316 376 460
#     4  10  26  49  73 107 153 205 253 314 385 463
#
# _framework density 27.942253000000001
#
# number of rings (size 3 to 8) (size 9 to 14) (size 15 to 20)
#    0.000    0.800    5.333    0.400    3.733    4.800 
#    2.400    0.000    0.000    0.000    0.000    0.000 
#    0.000    0.000    0.000    0.000    0.000    0.000 
#
# Total GULP energy -83729.739732 kJ/mol
# GULP energy per Si atom -5581.982649 kJ/mol
# Density = 2.787866 g / cm^3
# Si number density = 27.942253 Si / 1000 Ang^3
#
#
#
# Elastic Constant Matrix: (Units=GPa)
#
#
# Indices 1 2 3 4 5 6 
#
# 1 229.5652 77.3929 18.1607 -11.0591 24.3325 -38.4123
# 2 77.3929 139.9554 21.3876 9.9199 -8.5482 -7.4056
# 3 18.1607 21.3876 53.0081 -14.3941 4.3341 -13.1386
# 4 -11.0591 9.9199 -14.3941 52.4545 -1.0110 3.6262
# 5 24.3325 -8.5482 4.3341 -1.0110 46.7503 -13.9665
# 6 -38.4123 -7.4056 -13.1386 3.6262 -13.9665 84.2807
#
#
#
# Elastic Compliance Matrix: (Units=1/GPa)
#
#
# Indices 1 2 3 4 5 6 
#
# 1 0.006430 -0.003921 0.000736 0.002091 -0.003479 0.002034
# 2 -0.003921 0.010482 -0.004457 -0.003904 0.004072 -0.000718
# 3 0.000736 -0.004457 0.023252 0.007135 -0.002341 0.002874
# 4 0.002091 -0.003904 0.007135 0.022134 -0.001846 0.000464
# 5 -0.003479 0.004072 -0.002341 -0.001846 0.024903 0.002614
# 6 0.002034 -0.000718 0.002874 0.000464 0.002614 0.013590
#
#
# Mechanical properties :
#
#
# Convention : Reuss Voigt Hill
#
# Bulk Modulus (GPa) = 40.19358 72.93455 56.56406
# Shear Modulus (GPa) = 40.20335 57.06960 48.63647
#
# Velocity S-wave (km/s) = 3.79727 4.52421 4.17658
# Velocity P-wave (km/s) = 5.80012 7.31094 6.59891
#
# Compressibility (1/GPa) = 0.02487960
#
# Stress axis : x y z
#
# Youngs Moduli (GPa) = 155.53249 95.40366 43.00649
#
# Poissons Ratio (x) = 0.37407 -0.03164
# Poissons Ratio (y) = 0.60983 0.19167
# Poissons Ratio (z) = -0.11442 0.42519
#
# Static dielectric constant tensor:
#      x y z
#    x 2.280370 0.165900 0.307600 
#    y 0.165900 2.320340 0.457650 
#    z 0.307600 0.457650 3.804110 
# 
# From -- ./inp_files/156704.got.cif
#   From: 2010.05.17/outbox.cif.g08.bks.cpg/sg2_79_cif.got.tgz:156704.got - 2010.06.03 11:33:40.
