data_PCOD9052207
_publ_section_title
;
Structure prediction by ZEFSAII (Michael W. Deem and Ramdas Pophale) SiO2 
 PCOD9052207
Probable space group: P -1
;
_chemical_formula_sum "Si O2"
_cell_formula_units_Z 16
_cell_length_a 13.759020
_cell_length_b 11.554261
_cell_length_c 9.275247
_cell_angle_alpha 52.183571
_cell_angle_beta 107.608110
_cell_angle_gamma 135.450625
_cell_volume 792.760935
_symmetry_space_group_name_H-M "P -1"
_symmetry_group_IT_number 2
_symmetry_cell_setting 'triclinic'
loop_
_space_group_symop_operation_xyz
x,y,z
-x,-y,-z
loop_
_atom_site_type_symbol
_atom_site_label
_atom_site_fract_x
_atom_site_fract_y
_atom_site_fract_z
Si Si1 0.071710 0.734053 0.520678
Si Si2 0.737666 0.902915 0.487314
Si Si3 0.306733 0.936852 0.929615
Si Si4 0.960394 0.298863 0.808689
Si Si5 0.373536 0.408192 0.121668
Si Si6 0.947700 0.902677 0.893976
Si Si7 0.372983 0.670579 0.129297
Si Si8 0.862711 0.753214 0.520291
O O1 0.049219 0.748606 0.330388
O O2 0.041245 0.533668 0.674473
O O3 0.967602 0.718696 0.594173
O O4 0.220863 0.940302 0.489866
O O5 0.605929 0.680737 0.664312
O O6 0.844538 0.870116 0.534534
O O7 0.726997 0.984198 0.275011
O O8 0.465419 0.136688 0.899089
O O9 0.195561 0.843347 0.081950
O O10 0.303773 0.762694 0.013908
O O11 0.041500 0.261529 0.969806
O O12 0.215631 0.221399 0.123834
O O13 0.371931 0.570542 0.061337
O O14 0.500000 0.500000 0.000000
O O15 0.070319 0.094100 0.701490
O O16 0.000000 0.000000 0.000000
O O17 0.288242 0.484326 0.350827
#
# Coordination Sequence:
#
# PCOD9052207 Si02
#       8
#     2   2   2   2   2   2   2   2
#     4  11  23  41  63  99 134 169 217 278 333 385
#     4  11  24  40  68  96 127 171 225 275 330 384
#     4  11  24  44  66  96 132 179 221 275 326 402
#     4  11  24  41  69  96 134 174 219 274 333 389
#     4  11  27  45  67  97 139 175 217 277 336 396
#     4  12  24  41  69 102 131 175 226 270 332 395
#     4  10  26  43  65  93 135 177 221 269 340 390
#     4  11  21  40  65  94 132 166 217 278 316 391
#
# _framework density 20.182628999999999
#
# number of rings (size 3 to 8) (size 9 to 14) (size 15 to 20)
#    0.000    1.000    5.000    0.375    7.000    3.500 
#    0.000    0.625    0.000    0.000    0.000    0.000 
#    0.000    0.000    0.000    0.000    0.000    0.000 
#
# Total GULP energy -89082.843505 kJ/mol
# GULP energy per Si atom -5567.677719 kJ/mol
# Density = 2.013669 g / cm^3
# Si number density = 20.182629 Si / 1000 Ang^3
#
#
#
# Elastic Constant Matrix: (Units=GPa)
#
#
# Indices 1 2 3 4 5 6 
#
# 1 93.5703 38.4842 56.1433 -10.8264 -7.5715 -5.3819
# 2 38.4842 80.2338 26.3418 -15.1553 -0.1140 -21.5037
# 3 56.1433 26.3418 124.4320 -23.8351 -3.4589 -2.5068
# 4 -10.8264 -15.1553 -23.8351 24.0037 -1.7533 1.9411
# 5 -7.5715 -0.1140 -3.4589 -1.7533 42.1847 -2.0680
# 6 -5.3819 -21.5037 -2.5068 1.9411 -2.0680 25.9659
#
#
#
# Elastic Compliance Matrix: (Units=1/GPa)
#
#
# Indices 1 2 3 4 5 6 
#
# 1 0.017618 -0.007550 -0.006989 -0.003363 0.002290 -0.002842
# 2 -0.007550 0.021943 0.001033 0.010185 -0.000006 0.015945
# 3 -0.006989 0.001033 0.012969 0.010403 0.000239 -0.000100
# 4 -0.003363 0.010185 0.010403 0.056731 0.002867 0.004729
# 5 0.002290 -0.000006 0.000239 0.002867 0.024364 0.002219
# 6 -0.002842 0.015945 -0.000100 0.004729 0.002219 0.050942
#
#
# Mechanical properties :
#
#
# Convention : Reuss Voigt Hill
#
# Bulk Modulus (GPa) = 39.18643 60.01942 49.60292
# Shear Modulus (GPa) = 22.71867 30.24864 26.48365
#
# Velocity S-wave (km/s) = 3.35872 3.87556 3.62636
# Velocity P-wave (km/s) = 5.87362 7.05899 6.49341
#
# Compressibility (1/GPa) = 0.02551904
#
# Stress axis : x y z
#
# Youngs Moduli (GPa) = 56.75883 45.57276 77.10963
#
# Poissons Ratio (x) = 0.34406 0.53891
# Poissons Ratio (y) = 0.42851 -0.07967
# Poissons Ratio (z) = 0.39668 -0.04708
#
# Static dielectric constant tensor:
#      x y z
#    x 1.761080 -0.001480 0.014710 
#    y -0.001480 1.744710 -0.008070 
#    z 0.014710 -0.008070 1.739370 
# 
# From -- ./inp_files/206341.got.cif
#   From: 2010.05.17/outbox.cif.g08.bks.cpg/sg2_104_cif.got.tgz:206341.got - 2010.06.03 11:33:40.
