data_PCOD9052674
_publ_section_title
;
Structure prediction by ZEFSAII (Michael W. Deem and Ramdas Pophale) SiO2 
 PCOD9052674
Probable space group: P -1
;
_chemical_formula_sum "Si O2"
_cell_formula_units_Z 16
_cell_length_a 13.699606
_cell_length_b 8.903919
_cell_length_c 7.970276
_cell_angle_alpha 96.965392
_cell_angle_beta 114.303805
_cell_angle_gamma 116.483367
_cell_volume 735.630153
_symmetry_space_group_name_H-M "P -1"
_symmetry_group_IT_number 2
_symmetry_cell_setting 'triclinic'
loop_
_space_group_symop_operation_xyz
x,y,z
-x,-y,-z
loop_
_atom_site_type_symbol
_atom_site_label
_atom_site_fract_x
_atom_site_fract_y
_atom_site_fract_z
Si Si1 0.852810 0.851953 0.337387
Si Si2 0.137053 0.093960 0.027490
Si Si3 0.422559 0.279597 0.949536
Si Si4 0.385676 0.409011 0.277193
Si Si5 0.157165 0.465168 0.614942
Si Si6 0.056340 0.602423 0.306767
Si Si7 0.362022 0.695604 0.078560
Si Si8 0.167292 0.775315 0.070656
O O1 0.721235 0.845437 0.243269
O O2 0.819044 0.690847 0.417377
O O3 0.859174 0.818678 0.137618
O O4 0.000000 0.000000 0.500000
O O5 0.248777 0.257652 0.235584
O O6 0.163682 0.936212 0.006218
O O7 0.000000 0.000000 0.000000
O O8 0.504655 0.210049 0.915054
O O9 0.500000 0.500000 0.000000
O O10 0.410155 0.293493 0.142276
O O11 0.500000 0.500000 0.500000
O O12 0.369635 0.558382 0.192418
O O13 0.153786 0.566592 0.464884
O O14 0.017669 0.366377 0.594012
O O15 0.260045 0.590606 0.843121
O O16 0.125799 0.752176 0.233331
O O17 0.945209 0.413948 0.117653
O O18 0.302387 0.794289 0.143450
#
# Coordination Sequence:
#
# PCOD9052674 Si02
#       8
#     2   2   2   2   2   2   2   2
#     4  11  21  35  60  91 124 153 204 256 319 363
#     4  11  23  39  61  95 130 156 199 269 316 365
#     4   9  18  38  59  85 119 158 208 256 295 366
#     4  10  22  40  62  90 121 168 215 249 315 379
#     4  10  17  35  57  86 119 160 208 250 301 370
#     4   9  20  32  57  86 125 163 203 247 311 381
#     4  10  20  39  63  85 119 166 212 258 305 379
#     4  10  21  37  57  90 130 161 206 252 324 369
#
# _framework density 21.750062
#
# number of rings (size 3 to 8) (size 9 to 14) (size 15 to 20)
#    0.000    2.000    3.750    1.500    3.500    3.000 
#    0.000    3.125    0.000    0.000    0.000    0.000 
#    0.000    0.000    0.000    0.000    0.000    0.000 
#
# Total GULP energy -89124.126877 kJ/mol
# GULP energy per Si atom -5570.257930 kJ/mol
# Density = 2.170056 g / cm^3
# Si number density = 21.750062 Si / 1000 Ang^3
#
#
#
# Elastic Constant Matrix: (Units=GPa)
#
#
# Indices 1 2 3 4 5 6 
#
# 1 125.0968 17.2102 32.1684 2.9993 26.0050 6.1145
# 2 17.2102 38.2561 13.6962 -7.7436 6.0789 2.8239
# 3 32.1684 13.6962 95.1957 -0.7406 31.3243 11.3502
# 4 2.9993 -7.7436 -0.7406 27.5664 6.3360 8.6151
# 5 26.0050 6.0789 31.3243 6.3360 35.3045 2.6085
# 6 6.1145 2.8239 11.3502 8.6151 2.6085 29.3958
#
#
#
# Elastic Compliance Matrix: (Units=1/GPa)
#
#
# Indices 1 2 3 4 5 6 
#
# 1 0.009929 -0.003257 -0.000877 -0.000436 -0.005840 -0.000768
# 2 -0.003257 0.031360 -0.001725 0.011312 -0.003153 -0.004705
# 3 -0.000877 -0.001725 0.016514 0.005291 -0.014192 -0.006320
# 4 -0.000436 0.011312 0.005291 0.047739 -0.013720 -0.015812
# 5 -0.005840 -0.003153 -0.014192 -0.013720 0.047722 0.006784
# 6 -0.000768 -0.004705 -0.006320 -0.015812 0.006784 0.041102
#
#
# Mechanical properties :
#
#
# Convention : Reuss Voigt Hill
#
# Bulk Modulus (GPa) = 21.69854 42.74425 32.22140
# Shear Modulus (GPa) = 22.57889 31.48493 27.03191
#
# Velocity S-wave (km/s) = 3.22546 3.80883 3.52922
# Velocity P-wave (km/s) = 4.88564 6.24805 5.60837
#
# Compressibility (1/GPa) = 0.04608604
#
# Stress axis : x y z
#
# Youngs Moduli (GPa) = 100.71153 31.88745 60.55609
#
# Poissons Ratio (x) = 0.10385 0.05311
# Poissons Ratio (y) = 0.32798 0.10446
# Poissons Ratio (z) = 0.08832 0.05501
#
# Static dielectric constant tensor:
#      x y z
#    x 1.868830 -0.004890 -0.010580 
#    y -0.004890 1.801960 0.023700 
#    z -0.010580 0.023700 1.809320 
# 
# From -- ./inp_files/295611.got.cif
#   From: 2010.05.17/outbox.cif.g08.bks.cpg/sg2_148_cif.got.tgz:295611.got - 2010.06.03 11:33:40.
