data_PCOD9052699
_publ_section_title
;
Structure prediction by ZEFSAII (Michael W. Deem and Ramdas Pophale) SiO2 
 PCOD9052699
Probable space group: P -1
;
_chemical_formula_sum "Si O2"
_cell_formula_units_Z 15
_cell_length_a 16.542048
_cell_length_b 25.274442
_cell_length_c 5.466858
_cell_angle_alpha 86.575319
_cell_angle_beta 81.963330
_cell_angle_gamma 160.939973
_cell_volume 594.876908
_symmetry_space_group_name_H-M "P -1"
_symmetry_group_IT_number 2
_symmetry_cell_setting 'triclinic'
loop_
_space_group_symop_operation_xyz
x,y,z
-x,-y,-z
loop_
_atom_site_type_symbol
_atom_site_label
_atom_site_fract_x
_atom_site_fract_y
_atom_site_fract_z
Si Si1 0.134339 0.184680 0.532629
Si Si2 0.755755 0.573515 0.678498
Si Si3 0.500000 0.500000 0.500000
Si Si4 0.022798 0.653180 0.855646
Si Si5 0.788867 0.318699 0.559417
Si Si6 0.229380 0.035038 0.759153
Si Si7 0.518447 0.690670 0.447336
Si Si8 0.434696 0.016440 0.138943
O O1 0.446815 0.413854 0.375214
O O2 0.230494 0.184098 0.531566
O O3 0.970746 0.090556 0.369496
O O4 0.935318 0.081139 0.879237
O O5 0.534200 0.483306 0.737993
O O6 0.924132 0.649914 0.813347
O O7 0.569377 0.405585 0.701067
O O8 0.066029 0.790360 0.352312
O O9 0.994365 0.588862 0.687655
O O10 0.382813 0.873975 0.713800
O O11 0.797204 0.498837 0.216532
O O12 0.515932 0.174922 0.557215
O O13 0.000000 0.500000 0.500000
O O14 0.604887 0.170415 0.883752
O O15 0.347929 0.169084 0.714823
O O16 0.500000 0.000000 0.000000
#
# Coordination Sequence:
#
# PCOD9052699 Si02
#       8
#     2   2   1   2   2   2   2   2
#     4  11  28  51  77 112 150 207 255 324 386 463
#     4  11  24  46  71 107 146 197 253 317 381 465
#     4  10  26  48  76 108 154 192 260 322 388 450
#     4  12  25  44  78 106 150 203 251 317 391 464
#     4  12  29  47  75 110 157 201 259 325 391 461
#     4  12  28  49  78 112 155 202 260 321 387 463
#     4  11  26  47  75 108 150 196 257 316 386 464
#     4  12  24  45  69 110 146 199 255 311 387 465
#
# _framework density 25.215301
#
# number of rings (size 3 to 8) (size 9 to 14) (size 15 to 20)
#    0.000    0.533    2.667    3.600   11.200    1.600 
#    2.400    0.000    0.000    0.000    0.000    0.000 
#    0.000    0.000    0.000    0.000    0.000    0.000 
#
# Total GULP energy -83617.576599 kJ/mol
# GULP energy per Si atom -5574.505107 kJ/mol
# Density = 2.515791 g / cm^3
# Si number density = 25.215301 Si / 1000 Ang^3
#
#
#
# Elastic Constant Matrix: (Units=GPa)
#
#
# Indices 1 2 3 4 5 6 
#
# 1 159.5439 26.9556 12.7401 0.7627 19.0702 6.4366
# 2 26.9556 112.3814 14.7322 7.5487 16.2856 13.0669
# 3 12.7401 14.7322 47.9889 -1.9703 -0.0739 3.7647
# 4 0.7627 7.5487 -1.9703 24.5252 3.7935 4.9033
# 5 19.0702 16.2856 -0.0739 3.7935 25.3050 1.6232
# 6 6.4366 13.0669 3.7647 4.9033 1.6232 43.5420
#
#
#
# Elastic Compliance Matrix: (Units=1/GPa)
#
#
# Indices 1 2 3 4 5 6 
#
# 1 0.007138 -0.000767 -0.001589 0.000773 -0.004968 -0.000589
# 2 -0.000767 0.010749 -0.003005 -0.002139 -0.005874 -0.002393
# 3 -0.001589 -0.003005 0.022386 0.002565 0.002889 -0.001195
# 4 0.000773 -0.002139 0.002565 0.043326 -0.005413 -0.004371
# 5 -0.004968 -0.005874 0.002889 -0.005413 0.047794 0.001075
# 6 -0.000589 -0.002393 -0.001195 -0.004371 0.001075 0.024327
#
#
# Mechanical properties :
#
#
# Convention : Reuss Voigt Hill
#
# Bulk Modulus (GPa) = 33.84079 47.64111 40.74095
# Shear Modulus (GPa) = 28.36158 36.37354 32.36756
#
# Velocity S-wave (km/s) = 3.35741 3.80217 3.58669
# Velocity P-wave (km/s) = 5.33661 6.18143 5.77449
#
# Compressibility (1/GPa) = 0.02955014
#
# Stress axis : x y z
#
# Youngs Moduli (GPa) = 140.08817 93.02779 44.67030
#
# Poissons Ratio (x) = 0.07137 0.07099
# Poissons Ratio (y) = 0.10748 0.13426
# Poissons Ratio (z) = 0.22263 0.27959
#
# Static dielectric constant tensor:
#      x y z
#    x 1.970960 -0.007830 -0.003070 
#    y -0.007830 2.130210 0.001210 
#    z -0.003070 0.001210 2.148910 
# 
# From -- ./inp_files/101086.got.cif
#   From: 2010.05.17/outbox.cif.g08.bks.cpg/sg2_51_cif.got.tgz:101086.got - 2010.06.03 11:33:40.
