data_PCOD9052573
_publ_section_title
;
Structure prediction by ZEFSAII (Michael W. Deem and Ramdas Pophale) SiO2 
 PCOD9052573
Probable space group: P -1
;
_chemical_formula_sum "Si O2"
_cell_formula_units_Z 14
_cell_length_a 7.917263
_cell_length_b 17.352234
_cell_length_c 12.564864
_cell_angle_alpha 25.792730
_cell_angle_beta 86.925861
_cell_angle_gamma 101.971305
_cell_volume 606.371626
_symmetry_space_group_name_H-M "P -1"
_symmetry_group_IT_number 2
_symmetry_cell_setting 'triclinic'
loop_
_space_group_symop_operation_xyz
x,y,z
-x,-y,-z
loop_
_atom_site_type_symbol
_atom_site_label
_atom_site_fract_x
_atom_site_fract_y
_atom_site_fract_z
Si Si1 0.631559 0.486858 0.760292
Si Si2 0.048014 0.885809 0.731622
Si Si3 0.542661 0.727092 0.745656
Si Si4 0.882744 0.175756 0.605170
Si Si5 0.512201 0.299135 0.769913
Si Si6 0.692884 0.417494 0.401418
Si Si7 0.822120 0.247491 0.299808
O O1 0.599025 0.348864 0.825929
O O2 0.517822 0.608957 0.595903
O O3 0.877323 0.666323 0.558392
O O4 0.504274 0.310094 0.079366
O O5 0.158322 0.803744 0.757294
O O6 0.232317 0.087653 0.538709
O O7 0.000000 0.000000 0.500000
O O8 0.862829 0.679805 0.056492
O O9 0.390910 0.781843 0.638958
O O10 0.500000 0.500000 0.000000
O O11 0.776586 0.302266 0.475190
O O12 0.870834 0.136080 0.527587
O O13 0.714221 0.928980 0.958303
O O14 0.500000 0.500000 0.500000
O O15 0.663366 0.329420 0.632181
O O16 0.000000 0.500000 0.000000
#
# Coordination Sequence:
#
# PCOD9052573 Si02
#       7
#     2   2   2   2   2   2   2
#     4  11  24  45  73  99 140 185 232 280 355 409
#     4  12  24  41  69  99 142 180 226 289 348 417
#     4  12  24  41  69 104 140 186 228 284 360 419
#     4  12  25  46  74  99 142 182 230 295 345 415
#     4  10  26  47  71 101 137 184 238 288 342 413
#     4  11  24  46  69 103 138 181 237 283 343 417
#     4  12  23  42  67 103 141 175 230 286 354 418
#
# _framework density 23.088151
#
# number of rings (size 3 to 8) (size 9 to 14) (size 15 to 20)
#    0.000    0.571    4.286    3.429    2.000    4.000 
#    0.000    4.286    0.000    0.000    0.000    0.000 
#    0.000    0.000    0.000    0.000    0.000    0.000 
#
# Total GULP energy -78175.660185 kJ/mol
# GULP energy per Si atom -5583.975727 kJ/mol
# Density = 2.303560 g / cm^3
# Si number density = 23.088151 Si / 1000 Ang^3
#
#
#
# Elastic Constant Matrix: (Units=GPa)
#
#
# Indices 1 2 3 4 5 6 
#
# 1 123.3709 26.0290 20.3643 -8.0114 -17.8465 13.4604
# 2 26.0290 95.5771 26.0915 15.0059 -18.9630 7.4034
# 3 20.3643 26.0915 156.0659 -11.5768 -26.4920 15.1459
# 4 -8.0114 15.0059 -11.5768 43.0992 -3.2451 -5.7507
# 5 -17.8465 -18.9630 -26.4920 -3.2451 30.9442 -7.1166
# 6 13.4604 7.4034 15.1459 -5.7507 -7.1166 32.6035
#
#
#
# Elastic Compliance Matrix: (Units=1/GPa)
#
#
# Indices 1 2 3 4 5 6 
#
# 1 0.009514 -0.002053 0.000214 0.002562 0.004175 -0.002198
# 2 -0.002053 0.013295 -0.001370 -0.005191 0.004931 -0.001375
# 3 0.000214 -0.001370 0.008016 0.002905 0.006068 -0.001664
# 4 0.002562 -0.005191 0.002905 0.027233 0.004697 0.004601
# 5 0.004175 0.004931 0.006068 0.004697 0.044559 0.004892
# 6 -0.002198 -0.001375 -0.001664 0.004601 0.004892 0.034543
#
#
# Mechanical properties :
#
#
# Convention : Reuss Voigt Hill
#
# Bulk Modulus (GPa) = 40.97117 57.77596 49.37356
# Shear Modulus (GPa) = 32.95697 41.49798 37.22748
#
# Velocity S-wave (km/s) = 3.78225 4.24414 4.01983
# Velocity P-wave (km/s) = 6.07107 7.00681 6.55566
#
# Compressibility (1/GPa) = 0.02440741
#
# Stress axis : x y z
#
# Youngs Moduli (GPa) = 105.11338 75.21396 124.75604
#
# Poissons Ratio (x) = 0.15440 -0.02668
# Poissons Ratio (y) = 0.21578 0.17086
# Poissons Ratio (z) = -0.02248 0.10301
#
# Static dielectric constant tensor:
#      x y z
#    x 1.893780 -0.023770 -0.014620 
#    y -0.023770 2.086180 0.052910 
#    z -0.014620 0.052910 1.891890 
# 
# From -- ./inp_files/401684.got.cif
#   From: 2010.05.17/outbox.cif.g08.bks.cpg/sg2_201_cif.got.tgz:401684.got - 2010.06.03 11:33:40.
