data_PCOD9052899
_publ_section_title
;
Structure prediction by ZEFSAII (Michael W. Deem and Ramdas Pophale) SiO2 
 PCOD9052899
Probable space group: P -1
;
_chemical_formula_sum "Si O2"
_cell_formula_units_Z 14
_cell_length_a 11.152995
_cell_length_b 13.051044
_cell_length_c 12.592061
_cell_angle_alpha 31.535183
_cell_angle_beta 146.465524
_cell_angle_gamma 135.540391
_cell_volume 529.553029
_symmetry_space_group_name_H-M "P -1"
_symmetry_group_IT_number 2
_symmetry_cell_setting 'triclinic'
loop_
_space_group_symop_operation_xyz
x,y,z
-x,-y,-z
loop_
_atom_site_type_symbol
_atom_site_label
_atom_site_fract_x
_atom_site_fract_y
_atom_site_fract_z
Si Si1 0.033151 0.977311 0.687738
Si Si2 0.017382 0.377253 0.876019
Si Si3 0.171043 0.641051 0.939405
Si Si4 0.790748 0.124548 0.695968
Si Si5 0.264233 0.413170 0.803709
Si Si6 0.393621 0.898537 0.647930
Si Si7 0.683225 0.681966 0.309231
O O1 0.077143 0.843243 0.737837
O O2 0.799140 0.082437 0.428205
O O3 0.021962 0.822437 0.914198
O O4 0.217317 0.139102 0.707688
O O5 0.162111 0.523914 0.924517
O O6 0.122420 0.369199 0.843322
O O7 0.788353 0.484593 0.604010
O O8 0.425747 0.658258 0.140621
O O9 0.000000 0.500000 0.000000
O O10 0.772197 0.360058 0.455939
O O11 0.717754 0.052245 0.589469
O O12 0.585159 0.054045 0.677022
O O13 0.000000 0.000000 0.000000
O O14 0.226374 0.303374 0.758739
O O15 0.492586 0.312213 0.091286
#
# Coordination Sequence:
#
# PCOD9052899 Si02
#       7
#     2   2   2   2   2   2   2
#     4  11  27  54  77 116 168 209 283 331 407 494
#     4  11  27  52  81 117 164 213 269 344 407 486
#     4  10  27  55  82 114 155 218 280 342 401 478
#     4  11  27  47  75 114 164 215 267 328 404 483
#     4  12  29  49  81 122 173 203 272 331 415 500
#     4  11  27  46  73 116 158 214 259 334 405 472
#     4  12  29  47  80 123 157 220 261 340 420 479
#
# _framework density 26.437390000000001
#
# number of rings (size 3 to 8) (size 9 to 14) (size 15 to 20)
#    0.000    0.857    0.000    3.857   18.000    3.429 
#    2.571    0.000    0.000    0.000    0.000    0.000 
#    0.000    0.000    0.000    0.000    0.000    0.000 
#
# Total GULP energy -78265.040256 kJ/mol
# GULP energy per Si atom -5590.360018 kJ/mol
# Density = 2.637722 g / cm^3
# Si number density = 26.437390 Si / 1000 Ang^3
#
#
#
# Elastic Constant Matrix: (Units=GPa)
#
#
# Indices 1 2 3 4 5 6 
#
# 1 121.7103 46.4837 32.7058 -9.7233 20.7133 11.9964
# 2 46.4837 118.5484 56.8295 -4.5251 24.9885 7.6126
# 3 32.7058 56.8295 217.6046 -8.0639 24.5594 26.0456
# 4 -9.7233 -4.5251 -8.0639 53.5868 11.3760 3.1970
# 5 20.7133 24.9885 24.5594 11.3760 47.7148 7.3461
# 6 11.9964 7.6126 26.0456 3.1970 7.3461 40.0786
#
#
#
# Elastic Compliance Matrix: (Units=1/GPa)
#
#
# Indices 1 2 3 4 5 6 
#
# 1 0.010356 -0.003169 -0.000044 0.002379 -0.003057 -0.002098
# 2 -0.003169 0.011508 -0.002158 0.000844 -0.003866 0.000806
# 3 -0.000044 -0.002158 0.005768 0.001209 -0.001627 -0.003124
# 4 0.002379 0.000844 0.001209 0.020906 -0.006760 -0.002087
# 5 -0.003057 -0.003866 -0.001627 -0.006760 0.027021 -0.001707
# 6 -0.002098 0.000806 -0.003124 -0.002087 -0.001707 0.027935
#
#
# Mechanical properties :
#
#
# Convention : Reuss Voigt Hill
#
# Bulk Modulus (GPa) = 59.21329 81.10014 70.15671
# Shear Modulus (GPa) = 41.71294 49.73233 45.72264
#
# Velocity S-wave (km/s) = 3.97646 4.34191 4.16320
# Velocity P-wave (km/s) = 6.59767 7.47524 7.05012
#
# Compressibility (1/GPa) = 0.01688810
#
# Stress axis : x y z
#
# Youngs Moduli (GPa) = 96.56505 86.89712 173.36903
#
# Poissons Ratio (x) = 0.27541 0.00771
# Poissons Ratio (y) = 0.30605 0.37413
# Poissons Ratio (z) = 0.00429 0.18752
#
# Static dielectric constant tensor:
#      x y z
#    x 2.141000 0.009170 -0.120640 
#    y 0.009170 2.165870 0.000690 
#    z -0.120640 0.000690 2.250510 
# 
# From -- ./inp_files/521354.got.cif
#   From: 2010.05.17/outbox.cif.g08.bks.cpg/sg2_261_cif.got.tgz:521354.got - 2010.06.03 11:33:40.
