data_PCOD9052589
_publ_section_title
;
Structure prediction by ZEFSAII (Michael W. Deem and Ramdas Pophale) SiO2 
 PCOD9052589
Probable space group: P -1
;
_chemical_formula_sum "Si O2"
_cell_formula_units_Z 15
_cell_length_a 15.114775
_cell_length_b 11.343633
_cell_length_c 6.664473
_cell_angle_alpha 56.482973
_cell_angle_beta 64.186786
_cell_angle_gamma 38.252895
_cell_volume 589.824096
_symmetry_space_group_name_H-M "P -1"
_symmetry_group_IT_number 2
_symmetry_cell_setting 'triclinic'
loop_
_space_group_symop_operation_xyz
x,y,z
-x,-y,-z
loop_
_atom_site_type_symbol
_atom_site_label
_atom_site_fract_x
_atom_site_fract_y
_atom_site_fract_z
Si Si1 0.130857 0.042925 0.471524
Si Si2 0.627296 0.771673 0.506928
Si Si3 0.000000 0.000000 0.000000
Si Si4 0.467334 0.731639 0.946058
Si Si5 0.721876 0.287437 0.698301
Si Si6 0.816494 0.816232 0.353045
Si Si7 0.042574 0.597115 0.987944
Si Si8 0.655381 0.640067 0.189807
O O1 0.168114 0.141600 0.477273
O O2 0.005669 0.224750 0.276784
O O3 0.087835 0.974043 0.746051
O O4 0.243371 0.861831 0.374724
O O5 0.774128 0.696161 0.488975
O O6 0.617348 0.786606 0.264823
O O7 0.500000 0.000000 0.500000
O O8 0.589642 0.657065 0.740547
O O9 0.149560 0.842879 0.143687
O O10 0.423731 0.617614 0.145663
O O11 0.525515 0.738211 0.086012
O O12 0.317617 0.957723 0.815464
O O13 0.703266 0.451639 0.442280
O O14 0.953583 0.701497 0.184572
O O15 0.211091 0.439170 0.990768
O O16 0.000000 0.500000 0.000000
#
# Coordination Sequence:
#
# PCOD9052589 Si02
#       8
#     2   2   1   2   2   2   2   2
#     4  12  26  46  79 109 154 198 254 311 387 452
#     4  10  26  47  72 111 146 204 250 306 378 449
#     4  12  24  46  76 110 152 196 258 304 378 454
#     4  11  26  48  73 109 151 201 248 305 388 447
#     4  12  27  49  76 112 147 204 252 319 375 458
#     4  11  25  48  78 110 148 203 252 309 383 455
#     4  12  26  48  75 116 153 198 258 320 376 445
#     4  12  28  47  75 113 154 194 259 316 379 452
#
# _framework density 25.431311999999998
#
# number of rings (size 3 to 8) (size 9 to 14) (size 15 to 20)
#    0.000    0.533    5.333    0.800    7.467    5.333 
#    0.000    0.000    0.000    0.000    0.000    0.000 
#    0.000    0.000    0.000    0.000    0.000    0.000 
#
# Total GULP energy -83732.805715 kJ/mol
# GULP energy per Si atom -5582.187048 kJ/mol
# Density = 2.537343 g / cm^3
# Si number density = 25.431312 Si / 1000 Ang^3
#
#
#
# Elastic Constant Matrix: (Units=GPa)
#
#
# Indices 1 2 3 4 5 6 
#
# 1 112.6172 20.7496 40.2131 9.8503 5.5745 -19.0513
# 2 20.7496 46.7942 29.2257 18.1281 16.4747 0.7411
# 3 40.2131 29.2257 162.3958 12.3596 -1.1635 -11.6057
# 4 9.8503 18.1281 12.3596 42.1824 -3.0378 -0.8983
# 5 5.5745 16.4747 -1.1635 -3.0378 58.2013 1.8691
# 6 -19.0513 0.7411 -11.6057 -0.8983 1.8691 33.5339
#
#
#
# Elastic Compliance Matrix: (Units=1/GPa)
#
#
# Indices 1 2 3 4 5 6 
#
# 1 0.011208 -0.003800 -0.001643 -0.000395 -0.000240 0.005886
# 2 -0.003800 0.034886 -0.004689 -0.013556 -0.010173 -0.004349
# 3 -0.001643 -0.004689 0.007514 0.000348 0.001599 0.001691
# 4 -0.000395 -0.013556 0.000348 0.029928 0.005422 0.000695
# 5 -0.000240 -0.010173 0.001599 0.005422 0.020411 -0.000351
# 6 0.005886 -0.004349 0.001691 0.000695 -0.000351 0.033884
#
#
# Mechanical properties :
#
#
# Convention : Reuss Voigt Hill
#
# Bulk Modulus (GPa) = 29.98924 55.79825 42.89374
# Shear Modulus (GPa) = 29.54917 42.22476 35.88696
#
# Velocity S-wave (km/s) = 3.41239 4.07915 3.76058
# Velocity P-wave (km/s) = 5.22913 6.64638 5.97989
#
# Compressibility (1/GPa) = 0.03334530
#
# Stress axis : x y z
#
# Youngs Moduli (GPa) = 89.21808 28.66497 133.07974
#
# Poissons Ratio (x) = 0.10892 0.21861
# Poissons Ratio (y) = 0.33900 0.62405
# Poissons Ratio (z) = 0.14656 0.13442
#
# Static dielectric constant tensor:
#      x y z
#    x 2.031670 0.080000 -0.062280 
#    y 0.080000 2.023470 -0.041920 
#    z -0.062280 -0.041920 1.951630 
# 
# From -- ./inp_files/94575.got.cif
#   From: 2010.05.17/outbox.cif.g08.bks.cpg/sg2_48_cif.got.tgz:94575.got - 2010.06.03 11:33:40.
