data_PCOD9052415
_publ_section_title
;
Structure prediction by ZEFSAII (Michael W. Deem and Ramdas Pophale) SiO2 
 PCOD9052415
Probable space group: P -1
;
_chemical_formula_sum "Si O2"
_cell_formula_units_Z 15
_cell_length_a 11.018969
_cell_length_b 11.394287
_cell_length_c 5.853131
_cell_angle_alpha 83.429532
_cell_angle_beta 57.458686
_cell_angle_gamma 73.347393
_cell_volume 592.806069
_symmetry_space_group_name_H-M "P -1"
_symmetry_group_IT_number 2
_symmetry_cell_setting 'triclinic'
loop_
_space_group_symop_operation_xyz
x,y,z
-x,-y,-z
loop_
_atom_site_type_symbol
_atom_site_label
_atom_site_fract_x
_atom_site_fract_y
_atom_site_fract_z
Si Si1 0.325471 0.404519 0.795216
Si Si2 0.589906 0.352805 0.222309
Si Si3 0.462757 0.808386 0.086114
Si Si4 0.930894 0.810457 0.302206
Si Si5 0.854698 0.253098 0.294498
Si Si6 0.000000 0.000000 0.500000
Si Si7 0.622120 0.961927 0.577674
Si Si8 0.964616 0.612771 0.679970
O O1 0.414299 0.391166 0.465837
O O2 0.357443 0.522768 0.861565
O O3 0.421040 0.284248 0.853242
O O4 0.153622 0.404223 0.004092
O O5 0.691007 0.277591 0.344720
O O6 0.614202 0.269859 0.988296
O O7 0.363440 0.925587 0.301236
O O8 0.560336 0.871738 0.815318
O O9 0.009224 0.908572 0.300370
O O10 0.777763 0.888699 0.329754
O O11 0.893938 0.731801 0.566434
O O12 0.041607 0.733700 0.026760
O O13 0.880335 0.362349 0.400510
O O14 0.927725 0.124593 0.373402
O O15 0.500000 0.000000 0.500000
O O16 0.000000 0.500000 0.500000
#
# Coordination Sequence:
#
# PCOD9052415 Si02
#       8
#     2   2   2   2   2   1   2   2
#     4  11  25  48  74 108 147 191 245 306 360 443
#     4  11  27  46  75 109 147 196 244 300 372 431
#     4  11  25  45  72 104 151 188 243 299 362 435
#     4  11  25  46  75 106 146 189 243 300 367 433
#     4  11  27  48  75 109 149 194 242 301 368 437
#     4  10  26  46  68 106 146 192 238 294 360 436
#     4  11  26  44  72 109 145 190 241 301 362 431
#     4  11  26  49  76 106 146 190 244 302 369 433
#
# _framework density 25.303383
#
# number of rings (size 3 to 8) (size 9 to 14) (size 15 to 20)
#    0.000    1.067    1.333    2.400    9.333    7.467 
#    0.000    0.000    0.000    0.000    0.000    0.000 
#    0.000    0.000    0.000    0.000    0.000    0.000 
#
# Total GULP energy -83663.014232 kJ/mol
# GULP energy per Si atom -5577.534282 kJ/mol
# Density = 2.524579 g / cm^3
# Si number density = 25.303383 Si / 1000 Ang^3
#
#
#
# Elastic Constant Matrix: (Units=GPa)
#
#
# Indices 1 2 3 4 5 6 
#
# 1 70.8715 -1.5950 29.3910 21.5089 -6.8314 5.5847
# 2 -1.5950 97.5268 7.1121 6.3713 -2.4366 22.6001
# 3 29.3910 7.1121 63.9418 3.9555 -27.9817 4.8280
# 4 21.5089 6.3713 3.9555 41.7857 3.9861 8.9193
# 5 -6.8314 -2.4366 -27.9817 3.9861 36.2306 8.9481
# 6 5.5847 22.6001 4.8280 8.9193 8.9481 51.1497
#
#
#
# Elastic Compliance Matrix: (Units=1/GPa)
#
#
# Indices 1 2 3 4 5 6 
#
# 1 0.021305 0.001647 -0.010755 -0.009953 -0.003145 0.000247
# 2 0.001647 0.011736 -0.000621 -0.001630 0.002132 -0.005395
# 3 -0.010755 -0.000621 0.031168 0.001713 0.023261 -0.005861
# 4 -0.009953 -0.001630 0.001713 0.030097 -0.003224 -0.003039
# 5 -0.003145 0.002132 0.023261 -0.003224 0.048101 -0.010647
# 6 0.000247 -0.005395 -0.005861 -0.003039 -0.010647 0.024853
#
#
# Mechanical properties :
#
#
# Convention : Reuss Voigt Hill
#
# Bulk Modulus (GPa) = 22.34627 33.57293 27.95960
# Shear Modulus (GPa) = 24.79715 38.99534 31.89625
#
# Velocity S-wave (km/s) = 3.13388 3.92996 3.55428
# Velocity P-wave (km/s) = 4.68460 5.82149 5.28371
#
# Compressibility (1/GPa) = 0.04475019
#
# Stress axis : x y z
#
# Youngs Moduli (GPa) = 46.93645 85.20892 32.08419
#
# Poissons Ratio (x) = -0.14036 0.34508
# Poissons Ratio (y) = -0.07731 0.01994
# Poissons Ratio (z) = 0.50482 0.05295
#
# Static dielectric constant tensor:
#      x y z
#    x 2.058990 -0.016880 0.010350 
#    y -0.016880 1.995990 -0.073360 
#    z 0.010350 -0.073360 2.043780 
# 
# From -- ./inp_files/66050.got.cif
#   From: 2010.05.17/outbox.cif.g08.bks.cpg/sg2_34_cif.got.tgz:66050.got - 2010.06.03 11:33:40.
