data_PCOD9052832
_publ_section_title
;
Structure prediction by ZEFSAII (Michael W. Deem and Ramdas Pophale) SiO2 
 PCOD9052832
Probable space group: P -1
;
_chemical_formula_sum "Si O2"
_cell_formula_units_Z 15
_cell_length_a 13.534873
_cell_length_b 9.326634
_cell_length_c 15.606683
_cell_angle_alpha 39.371082
_cell_angle_beta 28.078522
_cell_angle_gamma 38.362138
_cell_volume 552.803633
_symmetry_space_group_name_H-M "P -1"
_symmetry_group_IT_number 2
_symmetry_cell_setting 'triclinic'
loop_
_space_group_symop_operation_xyz
x,y,z
-x,-y,-z
loop_
_atom_site_type_symbol
_atom_site_label
_atom_site_fract_x
_atom_site_fract_y
_atom_site_fract_z
Si Si1 0.946201 0.000708 0.937715
Si Si2 0.551339 0.944905 0.685006
Si Si3 0.232022 0.602651 0.255629
Si Si4 0.789597 0.483391 0.118197
Si Si5 0.668292 0.714673 0.925549
Si Si6 0.500000 0.000000 0.500000
Si Si7 0.337270 0.795719 0.378523
Si Si8 0.904809 0.489396 0.409678
O O1 0.903159 0.207348 0.800964
O O2 0.155672 0.779758 0.843710
O O3 0.709515 0.954442 0.134802
O O4 0.000000 0.000000 0.000000
O O5 0.560172 0.956273 0.573039
O O6 0.690921 0.087518 0.559929
O O7 0.642647 0.658074 0.762696
O O8 0.564636 0.322651 0.896947
O O9 0.096524 0.585512 0.454292
O O10 0.133054 0.472314 0.194799
O O11 0.568264 0.573007 0.302290
O O12 0.739133 0.659565 0.994324
O O13 0.000000 0.500000 0.000000
O O14 0.644649 0.980845 0.792840
O O15 0.287869 0.254671 0.569377
O O16 0.162265 0.701907 0.509166
#
# Coordination Sequence:
#
# PCOD9052832 Si02
#       8
#     2   2   2   2   2   1   2   2
#     4  12  26  44  77 119 151 210 270 325 401 475
#     4  11  24  49  77 114 158 213 262 326 403 472
#     4  11  25  52  83 113 160 212 270 330 394 486
#     4  12  25  45  75 117 155 210 262 328 404 464
#     4  12  25  51  84 111 164 212 272 324 398 488
#     4  10  26  52  70 114 174 194 268 342 378 478
#     4  12  26  48  77 117 160 208 266 332 397 479
#     4  11  27  51  83 119 156 215 266 331 409 471
#
# _framework density 27.134408000000001
#
# number of rings (size 3 to 8) (size 9 to 14) (size 15 to 20)
#    0.000    0.533    4.000    2.800    5.600    0.533 
#    2.400    2.000    2.933    0.000    0.000    0.000 
#    0.000    0.000    0.000    0.000    0.000    0.000 
#
# Total GULP energy -83923.936840 kJ/mol
# GULP energy per Si atom -5594.929123 kJ/mol
# Density = 2.707265 g / cm^3
# Si number density = 27.134408 Si / 1000 Ang^3
#
#
#
# Elastic Constant Matrix: (Units=GPa)
#
#
# Indices 1 2 3 4 5 6 
#
# 1 171.9642 35.6819 7.1905 -12.7511 27.7798 -11.2781
# 2 35.6819 165.9856 17.6791 11.0465 24.6918 -15.6461
# 3 7.1905 17.6791 76.5177 11.6586 9.7036 -8.0990
# 4 -12.7511 11.0465 11.6586 38.1064 -7.8574 1.7189
# 5 27.7798 24.6918 9.7036 -7.8574 47.4000 10.3890
# 6 -11.2781 -15.6461 -8.0990 1.7189 10.3890 35.5671
#
#
#
# Elastic Compliance Matrix: (Units=1/GPa)
#
#
# Indices 1 2 3 4 5 6 
#
# 1 0.006937 -0.000697 0.000134 0.001487 -0.004155 0.003065
# 2 -0.000697 0.007671 0.000062 -0.003790 -0.005302 0.004899
# 3 0.000134 0.000062 0.015210 -0.005983 -0.005400 0.005399
# 4 0.001487 -0.003790 -0.005983 0.031847 0.009087 -0.006751
# 5 -0.004155 -0.005302 -0.005400 0.009087 0.032128 -0.014703
# 6 0.003065 0.004899 0.005399 -0.006751 -0.014703 0.037093
#
#
# Mechanical properties :
#
#
# Convention : Reuss Voigt Hill
#
# Bulk Modulus (GPa) = 34.70589 59.50782 47.10685
# Shear Modulus (GPa) = 35.33708 47.80911 41.57309
#
# Velocity S-wave (km/s) = 3.61265 4.20210 3.91847
# Velocity P-wave (km/s) = 5.49725 6.74699 6.15393
#
# Compressibility (1/GPa) = 0.02881355
#
# Stress axis : x y z
#
# Youngs Moduli (GPa) = 144.15938 130.36649 65.74629
#
# Poissons Ratio (x) = 0.09093 -0.00881
# Poissons Ratio (y) = 0.10055 -0.00405
# Poissons Ratio (z) = -0.01931 -0.00803
#
# Static dielectric constant tensor:
#      x y z
#    x 2.801400 0.064170 -0.272710 
#    y 0.064170 2.146010 -0.060260 
#    z -0.272710 -0.060260 2.224650 
# 
# From -- ./inp_files/515009.got.cif
#   From: 2010.05.17/outbox.cif.g08.bks.cpg/sg2_258_cif.got.tgz:515009.got - 2010.06.03 11:33:40.
