data_PCOD9052481
_publ_section_title
;
Structure prediction by ZEFSAII (Michael W. Deem and Ramdas Pophale) SiO2 
 PCOD9052481
Probable space group: P -1
;
_chemical_formula_sum "Si O2"
_cell_formula_units_Z 13
_cell_length_a 8.611758
_cell_length_b 14.905698
_cell_length_c 9.357722
_cell_angle_alpha 130.661806
_cell_angle_beta 57.090830
_cell_angle_gamma 139.572141
_cell_volume 588.160131
_symmetry_space_group_name_H-M "P -1"
_symmetry_group_IT_number 2
_symmetry_cell_setting 'triclinic'
loop_
_space_group_symop_operation_xyz
x,y,z
-x,-y,-z
loop_
_atom_site_type_symbol
_atom_site_label
_atom_site_fract_x
_atom_site_fract_y
_atom_site_fract_z
Si Si1 0.766293 0.416137 0.126280
Si Si2 0.000000 0.000000 0.000000
Si Si3 0.934019 0.583863 0.523563
Si Si4 0.837536 0.837536 0.490715
Si Si5 0.775345 0.094798 0.416590
Si Si6 0.509400 0.509400 0.175115
Si Si7 0.414252 0.094798 0.097136
O O1 0.828547 0.500000 0.335726
O O2 0.597236 0.427855 0.125770
O O3 0.626437 0.238446 0.045251
O O4 0.000000 0.500000 0.000000
O O5 0.832857 0.997663 0.203283
O O6 0.837531 0.002337 0.961523
O O7 0.741526 0.572145 0.704849
O O8 0.000000 0.500000 0.500000
O O9 0.149544 0.761553 0.566758
O O10 0.689041 0.689041 0.311266
O O11 0.642019 0.832544 0.674377
O O12 0.023069 0.832544 0.483851
O O13 0.000000 0.000000 0.500000
O O14 0.500000 0.000000 0.500000
O O15 0.500000 0.500000 0.000000
O O16 0.500000 0.000000 0.000000
#
# Coordination Sequence:
#
# PCOD9052481 Si02
#       7
#     2   1   2   2   2   2   2
#     4  12  27  49  77 110 150 202 258 318 395 471
#     4  10  26  46  72 112 152 196 262 302 398 478
#     4  12  27  49  77 110 150 202 258 318 395 471
#     4  11  26  47  75 115 152 204 261 325 401 470
#     4  11  27  48  78 110 157 201 254 330 402 470
#     4  12  26  50  80 110 157 211 263 325 390 473
#     4  11  27  48  78 110 157 201 254 330 402 470
#
# _framework density 22.102823999999998
#
# number of rings (size 3 to 8) (size 9 to 14) (size 15 to 20)
#    0.000    0.615    3.077    3.231   10.769    4.923 
#    0.000    0.000    0.000    0.000    0.000    0.000 
#    0.000    0.000    0.000    0.000    0.000    0.000 
#
# Total GULP energy -72454.656916 kJ/mol
# GULP energy per Si atom -5573.435147 kJ/mol
# Density = 2.205252 g / cm^3
# Si number density = 22.102824 Si / 1000 Ang^3
#
#
#
# Elastic Constant Matrix: (Units=GPa)
#
#
# Indices 1 2 3 4 5 6 
#
# 1 193.5458 79.7738 104.5319 -12.9716 -29.6316 -20.5968
# 2 79.7738 193.0576 60.1886 -25.7208 -26.6943 -18.6147
# 3 104.5319 60.1886 143.2216 -25.3262 4.8811 12.2645
# 4 -12.9716 -25.7208 -25.3262 40.1585 7.6106 -5.5456
# 5 -29.6316 -26.6943 4.8811 7.6106 52.9411 -5.2748
# 6 -20.5968 -18.6147 12.2645 -5.5456 -5.2748 40.2032
#
#
#
# Elastic Compliance Matrix: (Units=1/GPa)
#
#
# Indices 1 2 3 4 5 6 
#
# 1 0.015237 0.000262 -0.013420 -0.003798 0.011743 0.013039
# 2 0.000262 0.007755 -0.003627 0.002698 0.004582 0.005805
# 3 -0.013420 -0.003627 0.021431 0.007304 -0.013952 -0.015915
# 4 -0.003798 0.002698 0.007304 0.031204 -0.005864 0.000610
# 5 0.011743 0.004582 -0.013952 -0.005864 0.031467 0.015714
# 6 0.013039 0.005805 -0.015915 0.000610 0.015714 0.041242
#
#
# Mechanical properties :
#
#
# Convention : Reuss Voigt Hill
#
# Bulk Modulus (GPa) = 92.12550 113.20148 102.66349
# Shear Modulus (GPa) = 26.95086 45.68258 36.31672
#
# Velocity S-wave (km/s) = 3.49569 4.55116 4.05789
# Velocity P-wave (km/s) = 7.61998 8.88507 8.27673
#
# Compressibility (1/GPa) = 0.01085476
#
# Stress axis : x y z
#
# Youngs Moduli (GPa) = 65.62820 128.95533 46.66148
#
# Poissons Ratio (x) = -0.03385 0.62619
# Poissons Ratio (y) = -0.01723 0.16923
# Poissons Ratio (z) = 0.88072 0.46768
#
# Static dielectric constant tensor:
#      x y z
#    x 1.786840 0.026000 0.064440 
#    y 0.026000 1.799120 0.055050 
#    z 0.064440 0.055050 1.864820 
# 
# From -- ./inp_files/204013.got.cif
#   From: 2010.05.17/outbox.cif.g08.bks.cpg/sg2_103_cif.got.tgz:204013.got - 2010.06.03 11:33:40.
