data_PCOD9052034
_publ_section_title
;
Structure prediction by ZEFSAII (Michael W. Deem and Ramdas Pophale) SiO2 
 PCOD9052034
Probable space group: P -1
;
_chemical_formula_sum "Si O2"
_cell_formula_units_Z 15
_cell_length_a 7.354154
_cell_length_b 15.858840
_cell_length_c 7.256123
_cell_angle_alpha 47.338792
_cell_angle_beta 108.303227
_cell_angle_gamma 98.687844
_cell_volume 588.522897
_symmetry_space_group_name_H-M "P -1"
_symmetry_group_IT_number 2
_symmetry_cell_setting 'triclinic'
loop_
_space_group_symop_operation_xyz
x,y,z
-x,-y,-z
loop_
_atom_site_type_symbol
_atom_site_label
_atom_site_fract_x
_atom_site_fract_y
_atom_site_fract_z
Si Si1 0.933307 0.896106 0.018551
Si Si2 0.446870 0.122730 0.202577
Si Si3 0.000000 0.000000 0.500000
Si Si4 0.305035 0.176055 0.463630
Si Si5 0.068105 0.403184 0.015886
Si Si6 0.308448 0.748785 0.442184
Si Si7 0.686587 0.306851 0.035637
Si Si8 0.393494 0.501229 0.764828
O O1 0.710855 0.875509 0.009239
O O2 0.097756 0.795317 0.245100
O O3 0.930580 0.939332 0.745970
O O4 0.000000 0.000000 0.000000
O O5 0.355745 0.199297 0.228851
O O6 0.636445 0.184255 0.119435
O O7 0.500000 0.000000 0.500000
O O8 0.162567 0.075294 0.567930
O O9 0.520904 0.165077 0.634224
O O10 0.196555 0.297579 0.309601
O O11 0.188250 0.458625 0.812844
O O12 0.000000 0.500000 0.000000
O O13 0.883010 0.347227 0.964859
O O14 0.284571 0.717029 0.699122
O O15 0.374971 0.635451 0.514174
O O16 0.520183 0.410803 0.814358
O O17 0.500000 0.500000 0.000000
#
# Coordination Sequence:
#
# PCOD9052034 Si02
#       8
#     2   2   1   2   2   2   2   2
#     4  11  24  42  68  98 130 182 234 284 354 427
#     4  10  21  41  63  89 133 181 223 282 353 412
#     4  10  26  42  64  92 142 174 224 286 356 408
#     4  10  21  37  62  96 135 173 227 283 339 418
#     4  12  19  31  64  97 130 182 227 273 345 405
#     4  10  19  37  63  94 132 172 231 283 336 409
#     4  10  20  35  63  94 136 181 225 282 344 413
#     4  10  17  35  55  95 134 172 226 282 331 412
#
# _framework density 25.487539000000002
#
# number of rings (size 3 to 8) (size 9 to 14) (size 15 to 20)
#    0.000    1.600    6.667    1.600    5.600    0.533 
#    0.000    0.667    0.000    0.800    0.000    0.000 
#    0.000    0.000    0.000    0.000    0.000    0.000 
#
# Total GULP energy -83649.770453 kJ/mol
# GULP energy per Si atom -5576.651364 kJ/mol
# Density = 2.542953 g / cm^3
# Si number density = 25.487539 Si / 1000 Ang^3
#
#
#
# Elastic Constant Matrix: (Units=GPa)
#
#
# Indices 1 2 3 4 5 6 
#
# 1 105.4173 46.1867 21.4471 1.5809 10.6785 41.6240
# 2 46.1867 131.9863 42.3764 -8.1857 19.5439 42.6863
# 3 21.4471 42.3764 62.4440 0.5969 21.1191 0.9903
# 4 1.5809 -8.1857 0.5969 35.8848 -4.6845 2.0942
# 5 10.6785 19.5439 21.1191 -4.6845 40.3341 -3.9781
# 6 41.6240 42.6863 0.9903 2.0942 -3.9781 68.3826
#
#
#
# Elastic Compliance Matrix: (Units=1/GPa)
#
#
# Indices 1 2 3 4 5 6 
#
# 1 0.013959 -0.000964 -0.003190 -0.000632 -0.002418 -0.007970
# 2 -0.000964 0.013698 -0.007990 0.003434 -0.002599 -0.008105
# 3 -0.003190 -0.007990 0.025284 -0.003551 -0.008324 0.006188
# 4 -0.000632 0.003434 -0.003551 0.029338 0.003533 -0.002400
# 5 -0.002418 -0.002599 -0.008324 0.003533 0.031951 0.004965
# 6 -0.007970 -0.008105 0.006188 -0.002400 0.004965 0.024807
#
#
# Mechanical properties :
#
#
# Convention : Reuss Voigt Hill
#
# Bulk Modulus (GPa) = 34.90130 57.76309 46.33219
# Shear Modulus (GPa) = 28.92243 41.57613 35.24928
#
# Velocity S-wave (km/s) = 3.37229 4.04323 3.72291
# Velocity P-wave (km/s) = 5.37460 6.67154 6.05788
#
# Compressibility (1/GPa) = 0.02865223
#
# Stress axis : x y z
#
# Youngs Moduli (GPa) = 71.63935 73.00179 39.55142
#
# Poissons Ratio (x) = 0.07039 0.12616
# Poissons Ratio (y) = 0.06907 0.31602
# Poissons Ratio (z) = 0.22852 0.58330
#
# Static dielectric constant tensor:
#      x y z
#    x 2.055690 0.017380 0.050420 
#    y 0.017380 2.087580 0.005470 
#    z 0.050420 0.005470 1.938030 
# 
# From -- ./inp_files/214162.got.cif
#   From: 2010.05.17/outbox.cif.g08.bks.cpg/sg2_108_cif.got.tgz:214162.got - 2010.06.03 11:33:40.
