data_PCOD9052383
_publ_section_title
;
Structure prediction by ZEFSAII (Michael W. Deem and Ramdas Pophale) SiO2 
 PCOD9052383
Probable space group: P -1
;
_chemical_formula_sum "Si O2"
_cell_formula_units_Z 12
_cell_length_a 7.939837
_cell_length_b 14.704301
_cell_length_c 17.450164
_cell_angle_alpha 21.163934
_cell_angle_beta 46.072648
_cell_angle_gamma 56.938142
_cell_volume 487.805029
_symmetry_space_group_name_H-M "P -1"
_symmetry_group_IT_number 2
_symmetry_cell_setting 'triclinic'
loop_
_space_group_symop_operation_xyz
x,y,z
-x,-y,-z
loop_
_atom_site_type_symbol
_atom_site_label
_atom_site_fract_x
_atom_site_fract_y
_atom_site_fract_z
Si Si1 0.711774 0.738925 0.293543
Si Si2 0.084455 0.820823 0.740096
Si Si3 0.588615 0.495455 0.679565
Si Si4 0.882222 0.374450 0.822605
Si Si5 0.299657 0.976168 0.241674
Si Si6 0.576186 0.039916 0.322020
O O1 0.500000 0.500000 0.500000
O O2 0.739977 0.592958 0.477267
O O3 0.559916 0.932046 0.207793
O O4 0.962451 0.813245 0.104031
O O5 0.220884 0.893019 0.724429
O O6 0.307356 0.012413 0.463323
O O7 0.831651 0.885010 0.767349
O O8 0.000000 0.500000 0.000000
O O9 0.748165 0.452578 0.732395
O O10 0.513614 0.740705 0.539548
O O11 0.363521 0.193735 0.979914
O O12 0.096012 0.671397 0.540253
O O13 0.706405 0.257374 0.043619
#
# Coordination Sequence:
#
# PCOD9052383 Si02
#       6
#     2   2   2   2   2   2
#     4  10  26  45  72 111 148 190 241 294 360 432
#     4  11  24  49  78 103 145 189 242 309 358 426
#     4  12  24  46  73 106 149 192 240 292 364 430
#     4  11  26  47  72 108 150 191 241 296 355 439
#     4  11  25  45  73 109 141 194 239 296 363 422
#     4  11  26  46  75 108 143 188 250 295 363 428
#
# _framework density 24.599990999999999
#
# number of rings (size 3 to 8) (size 9 to 14) (size 15 to 20)
#    0.000    1.000    3.333    1.500    4.667    8.667 
#    0.000    4.167    0.000    0.000    0.000    0.000 
#    0.000    0.000    0.000    0.000    0.000    0.000 
#
# Total GULP energy -67037.895242 kJ/mol
# GULP energy per Si atom -5586.491270 kJ/mol
# Density = 2.454400 g / cm^3
# Si number density = 24.599991 Si / 1000 Ang^3
#
#
#
# Elastic Constant Matrix: (Units=GPa)
#
#
# Indices 1 2 3 4 5 6 
#
# 1 75.9861 48.2950 45.3993 28.1314 7.1559 -10.7457
# 2 48.2950 143.1332 63.2000 16.4454 4.3721 -24.0422
# 3 45.3993 63.2000 194.5323 33.4229 12.6727 -8.5655
# 4 28.1314 16.4454 33.4229 58.1117 -1.7899 -0.3947
# 5 7.1559 4.3721 12.6727 -1.7899 29.1374 14.9425
# 6 -10.7457 -24.0422 -8.5655 -0.3947 14.9425 45.2466
#
#
#
# Elastic Compliance Matrix: (Units=1/GPa)
#
#
# Indices 1 2 3 4 5 6 
#
# 1 0.021323 -0.004661 -0.001385 -0.008384 -0.006748 0.004481
# 2 -0.004661 0.010201 -0.001992 0.000490 -0.001818 0.004541
# 3 -0.001385 -0.001992 0.006815 -0.002770 -0.002929 0.000846
# 4 -0.008384 0.000490 -0.002770 0.022902 0.006803 -0.004302
# 5 -0.006748 -0.001818 -0.002929 0.006803 0.047570 -0.018773
# 6 0.004481 0.004541 0.000846 -0.004302 -0.018773 0.031900
#
#
# Mechanical properties :
#
#
# Convention : Reuss Voigt Hill
#
# Bulk Modulus (GPa) = 44.91766 80.82669 62.87218
# Shear Modulus (GPa) = 30.44923 43.61630 37.03276
#
# Velocity S-wave (km/s) = 3.52202 4.21529 3.88415
# Velocity P-wave (km/s) = 5.90240 7.52458 6.76231
#
# Compressibility (1/GPa) = 0.02226296
#
# Stress axis : x y z
#
# Youngs Moduli (GPa) = 46.89696 98.03129 146.73907
#
# Poissons Ratio (x) = 0.45696 0.20317
# Poissons Ratio (y) = 0.21860 0.29232
# Poissons Ratio (z) = 0.06493 0.19529
#
# Static dielectric constant tensor:
#      x y z
#    x 2.021900 0.033370 -0.171760 
#    y 0.033370 1.986920 -0.108320 
#    z -0.171760 -0.108320 2.246280 
# 
# From -- ./inp_files/132074.got.cif
#   From: 2010.05.17/outbox.cif.g08.bks.cpg/sg2_67_cif.got.tgz:132074.got - 2010.06.03 11:33:40.
