data_PCOD9052199
_publ_section_title
;
Structure prediction by ZEFSAII (Michael W. Deem and Ramdas Pophale) SiO2 
 PCOD9052199
Probable space group: P -1
;
_chemical_formula_sum "Si O2"
_cell_formula_units_Z 15
_cell_length_a 14.589655
_cell_length_b 14.044708
_cell_length_c 9.148127
_cell_angle_alpha 107.113924
_cell_angle_beta 130.108743
_cell_angle_gamma 32.995522
_cell_volume 629.929399
_symmetry_space_group_name_H-M "P -1"
_symmetry_group_IT_number 2
_symmetry_cell_setting 'triclinic'
loop_
_space_group_symop_operation_xyz
x,y,z
-x,-y,-z
loop_
_atom_site_type_symbol
_atom_site_label
_atom_site_fract_x
_atom_site_fract_y
_atom_site_fract_z
Si Si1 0.770944 0.012566 0.052197
Si Si2 0.975214 0.495161 0.142542
Si Si3 0.222545 0.159423 0.818257
Si Si4 0.634572 0.404113 0.438139
Si Si5 0.277360 0.850528 0.233867
Si Si6 0.500000 0.000000 0.500000
Si Si7 0.648119 0.571124 0.990247
Si Si8 0.803163 0.917016 0.546082
O O1 0.768292 0.898952 0.040799
O O2 0.056590 0.832412 0.323641
O O3 0.733334 0.058922 0.863932
O O4 0.533516 0.241845 0.992085
O O5 0.960621 0.610618 0.263750
O O6 0.742936 0.589155 0.986038
O O7 0.230694 0.254443 0.351016
O O8 0.000000 0.500000 0.000000
O O9 0.174847 0.116971 0.620244
O O10 0.500000 0.000000 0.000000
O O11 0.500000 0.500000 0.500000
O O12 0.516838 0.596465 0.344026
O O13 0.523465 0.392176 0.232620
O O14 0.267472 0.917970 0.405482
O O15 0.000000 0.000000 0.000000
O O16 0.589874 0.006157 0.447927
O O17 0.911279 0.324776 0.208868
#
# Coordination Sequence:
#
# PCOD9052199 Si02
#       8
#     2   2   2   2   2   1   2   2
#     4  12  29  48  79 114 158 205 262 323 395 460
#     4  11  26  48  76 109 155 198 255 319 387 461
#     4  12  28  51  78 116 158 204 261 324 396 466
#     4  12  27  48  81 113 152 207 264 322 393 463
#     4  12  27  52  78 112 158 203 263 323 388 468
#     4  10  26  42  76 110 148 200 254 308 390 448
#     4  11  26  50  75 112 157 201 264 325 390 468
#     4  11  27  48  78 112 156 204 259 319 393 462
#
# _framework density 23.812192
#
# number of rings (size 3 to 8) (size 9 to 14) (size 15 to 20)
#    0.000    0.533    4.000    1.200   13.067    3.733 
#    0.000    0.000    0.000    0.000    0.000    0.000 
#    0.000    0.000    0.000    0.000    0.000    0.000 
#
# Total GULP energy -83739.031666 kJ/mol
# GULP energy per Si atom -5582.602111 kJ/mol
# Density = 2.375799 g / cm^3
# Si number density = 23.812192 Si / 1000 Ang^3
#
#
#
# Elastic Constant Matrix: (Units=GPa)
#
#
# Indices 1 2 3 4 5 6 
#
# 1 99.0385 18.1108 19.6821 0.0624 -9.6556 5.0727
# 2 18.1108 145.6502 43.0763 -1.0959 4.1360 11.9824
# 3 19.6821 43.0763 61.6566 -0.4642 7.0824 10.2483
# 4 0.0624 -1.0959 -0.4642 41.4449 -0.8906 6.3595
# 5 -9.6556 4.1360 7.0824 -0.8906 31.4843 -9.6574
# 6 5.0727 11.9824 10.2483 6.3595 -9.6574 39.8364
#
#
#
# Elastic Compliance Matrix: (Units=1/GPa)
#
#
# Indices 1 2 3 4 5 6 
#
# 1 0.011391 -0.000434 -0.004022 -0.000107 0.004721 0.000876
# 2 -0.000434 0.008722 -0.005703 0.000351 -0.000368 -0.001246
# 3 -0.004022 -0.005703 0.023298 0.000831 -0.007451 -0.005705
# 4 -0.000107 0.000351 0.000831 0.024817 -0.000943 -0.004496
# 5 0.004721 -0.000368 -0.007451 -0.000943 0.038234 0.010846
# 6 0.000876 -0.001246 -0.005705 -0.004496 0.010846 0.030181
#
#
# Mechanical properties :
#
#
# Convention : Reuss Voigt Hill
#
# Bulk Modulus (GPa) = 43.30267 52.00929 47.65598
# Shear Modulus (GPa) = 30.36593 37.58487 33.97540
#
# Velocity S-wave (km/s) = 3.57490 3.97720 3.78141
# Velocity P-wave (km/s) = 5.93839 6.55589 6.25477
#
# Compressibility (1/GPa) = 0.02309327
#
# Stress axis : x y z
#
# Youngs Moduli (GPa) = 87.78751 114.65223 42.92285
#
# Poissons Ratio (x) = 0.04975 0.17263
# Poissons Ratio (y) = 0.03809 0.24479
# Poissons Ratio (z) = 0.35307 0.65386
#
# Static dielectric constant tensor:
#      x y z
#    x 1.950190 0.009090 -0.005920 
#    y 0.009090 1.813930 -0.013200 
#    z -0.005920 -0.013200 1.925960 
# 
# From -- ./inp_files/315710.got.cif
#   From: 2010.05.17/outbox.cif.g08.bks.cpg/sg2_158_cif.got.tgz:315710.got - 2010.06.03 11:33:40.
