data_PCOD9052166
_publ_section_title
;
Structure prediction by ZEFSAII (Michael W. Deem and Ramdas Pophale) SiO2 
 PCOD9052166
Probable space group: P -1
;
_chemical_formula_sum "Si O2"
_cell_formula_units_Z 11
_cell_length_a 14.182920
_cell_length_b 9.537322
_cell_length_c 7.557085
_cell_angle_alpha 74.765635
_cell_angle_beta 58.071955
_cell_angle_gamma 124.986333
_cell_volume 412.882795
_symmetry_space_group_name_H-M "P -1"
_symmetry_group_IT_number 2
_symmetry_cell_setting 'triclinic'
loop_
_space_group_symop_operation_xyz
x,y,z
-x,-y,-z
loop_
_atom_site_type_symbol
_atom_site_label
_atom_site_fract_x
_atom_site_fract_y
_atom_site_fract_z
Si Si1 0.707065 0.991110 0.187886
Si Si2 0.375260 0.384651 0.422569
Si Si3 0.861888 0.977789 0.567818
Si Si4 0.906948 0.556409 0.586778
Si Si5 0.000000 0.500000 0.000000
Si Si6 0.667550 0.346151 0.576381
O O1 0.575851 0.700579 0.480899
O O2 0.563635 0.921313 0.214270
O O3 0.916265 0.162545 0.813203
O O4 0.787291 0.183187 0.203697
O O5 0.203187 0.126327 0.533356
O O6 0.269713 0.412666 0.590531
O O7 0.614248 0.706267 0.992968
O O8 0.023398 0.301360 0.337672
O O9 0.000000 0.000000 0.500000
O O10 0.000000 0.500000 0.500000
O O11 0.676258 0.327337 0.787828
O O12 0.170344 0.586880 0.692131
#
# Coordination Sequence:
#
# PCOD9052166 Si02
#       6
#     2   2   2   2   1   2
#     4  11  25  48  73 103 139 185 239 296 351 418
#     4  11  25  45  76 105 138 184 240 293 351 415
#     4  11  24  47  68 107 143 185 233 291 351 417
#     4  11  26  45  70 102 144 191 232 286 356 420
#     4  10  26  42  66 104 140 182 226 288 354 410
#     4  11  23  47  70 104 138 185 236 295 348 416
#
# _framework density 26.641946999999998
#
# number of rings (size 3 to 8) (size 9 to 14) (size 15 to 20)
#    0.000    1.091    3.636    1.091    5.091    6.545 
#    3.273    0.000    0.000    0.000    0.000    0.000 
#    0.000    0.000    0.000    0.000    0.000    0.000 
#
# Total GULP energy -61293.175067 kJ/mol
# GULP energy per Si atom -5572.106824 kJ/mol
# Density = 2.658131 g / cm^3
# Si number density = 26.641947 Si / 1000 Ang^3
#
#
#
# Elastic Constant Matrix: (Units=GPa)
#
#
# Indices 1 2 3 4 5 6 
#
# 1 161.1344 49.6596 15.9276 -27.4426 -29.4506 9.9807
# 2 49.6596 216.3778 4.2812 -22.4590 -13.6905 14.7281
# 3 15.9276 4.2812 59.4231 6.0863 -15.7755 -5.7228
# 4 -27.4426 -22.4590 6.0863 32.2998 -1.8473 -12.7739
# 5 -29.4506 -13.6905 -15.7755 -1.8473 42.9644 -9.2681
# 6 9.9807 14.7281 -5.7228 -12.7739 -9.2681 52.5321
#
#
#
# Elastic Compliance Matrix: (Units=1/GPa)
#
#
# Indices 1 2 3 4 5 6 
#
# 1 0.009051 -0.000908 -0.001461 0.008253 0.006046 0.001449
# 2 -0.000908 0.005215 -0.000199 0.002764 0.000985 -0.000465
# 3 -0.001461 -0.000199 0.019615 -0.003611 0.006576 0.002752
# 4 0.008253 0.002764 -0.003611 0.044996 0.009269 0.009840
# 5 0.006046 0.000985 0.006576 0.009269 0.032101 0.007209
# 6 0.001449 -0.000465 0.002752 0.009840 0.007209 0.022856
#
#
# Mechanical properties :
#
#
# Convention : Reuss Voigt Hill
#
# Bulk Modulus (GPa) = 34.78885 64.07467 49.43176
# Shear Modulus (GPa) = 33.65835 50.03039 41.84437
#
# Velocity S-wave (km/s) = 3.55823 4.33815 3.96740
# Velocity P-wave (km/s) = 5.47427 7.01393 6.29138
#
# Compressibility (1/GPa) = 0.02874484
#
# Stress axis : x y z
#
# Youngs Moduli (GPa) = 110.48500 191.76375 50.98116
#
# Poissons Ratio (x) = 0.17409 0.07450
# Poissons Ratio (y) = 0.10030 0.01014
# Poissons Ratio (z) = 0.16145 0.03813
#
# Static dielectric constant tensor:
#      x y z
#    x 2.209180 0.033700 0.041890 
#    y 0.033700 2.011220 -0.106150 
#    z 0.041890 -0.106150 2.118840 
# 
# From -- ./inp_files/292279.got.cif
#   From: 2010.05.17/outbox.cif.g08.bks.cpg/sg2_147_cif.got.tgz:292279.got - 2010.06.03 11:33:40.
