data_PCOD9052516
_publ_section_title
;
Structure prediction by ZEFSAII (Michael W. Deem and Ramdas Pophale) SiO2 
 PCOD9052516
Probable space group: P -1
;
_chemical_formula_sum "Si O2"
_cell_formula_units_Z 15
_cell_length_a 12.075052
_cell_length_b 6.638152
_cell_length_c 8.483367
_cell_angle_alpha 93.028583
_cell_angle_beta 60.511556
_cell_angle_gamma 93.608951
_cell_volume 590.542665
_symmetry_space_group_name_H-M "P -1"
_symmetry_group_IT_number 2
_symmetry_cell_setting 'triclinic'
loop_
_space_group_symop_operation_xyz
x,y,z
-x,-y,-z
loop_
_atom_site_type_symbol
_atom_site_label
_atom_site_fract_x
_atom_site_fract_y
_atom_site_fract_z
Si Si1 0.500000 0.500000 0.500000
Si Si2 0.722325 0.037861 0.631033
Si Si3 0.099209 0.408210 0.804896
Si Si4 0.240367 0.281613 0.172348
Si Si5 0.863778 0.934429 0.023179
Si Si6 0.085685 0.653243 0.341383
Si Si7 0.500328 0.330193 0.854430
Si Si8 0.287476 0.779837 0.683862
O O1 0.517285 0.423952 0.672566
O O2 0.422618 0.694488 0.620441
O O3 0.729710 0.811879 0.683131
O O4 0.849839 0.160066 0.605168
O O5 0.604486 0.159402 0.789405
O O6 0.711243 0.061650 0.453037
O O7 0.195748 0.587322 0.687602
O O8 0.010811 0.302586 0.729974
O O9 0.178616 0.253045 0.842326
O O10 0.000000 0.500000 0.000000
O O11 0.200735 0.510764 0.204533
O O12 0.358680 0.236537 0.975616
O O13 0.127441 0.151181 0.161292
O O14 0.775119 0.120120 0.117378
O O15 0.000000 0.000000 0.000000
O O16 0.000000 0.500000 0.500000
O O17 0.500000 0.500000 0.000000
#
# Coordination Sequence:
#
# PCOD9052516 Si02
#       8
#     1   2   2   2   2   2   2   2
#     4  10  26  46  76 102 140 192 242 296 362 440
#     4  11  26  45  69 103 142 183 236 298 356 433
#     4  12  23  42  67  97 140 182 235 285 355 425
#     4  12  26  45  72 107 137 191 242 290 367 433
#     4  12  25  42  70 105 142 185 235 298 355 431
#     4  12  25  43  68 103 142 189 233 289 362 428
#     4  11  24  49  76 102 143 189 243 301 364 422
#     4  11  25  47  66 104 141 184 237 298 357 428
#
# _framework density 25.400366999999999
#
# number of rings (size 3 to 8) (size 9 to 14) (size 15 to 20)
#    0.000    0.533    5.333    2.000    3.733    0.533 
#    2.400    3.333    0.000    0.000    0.000    0.000 
#    0.000    0.000    0.000    0.000    0.000    0.000 
#
# Total GULP energy -83748.400909 kJ/mol
# GULP energy per Si atom -5583.226727 kJ/mol
# Density = 2.534255 g / cm^3
# Si number density = 25.400367 Si / 1000 Ang^3
#
#
#
# Elastic Constant Matrix: (Units=GPa)
#
#
# Indices 1 2 3 4 5 6 
#
# 1 44.1369 12.2666 5.2871 -16.5067 8.3783 -8.9157
# 2 12.2666 68.4604 10.8319 -4.3676 7.2096 -22.4059
# 3 5.2871 10.8319 52.0240 -8.8250 -7.0785 -17.6927
# 4 -16.5067 -4.3676 -8.8250 45.1908 -13.8037 7.3579
# 5 8.3783 7.2096 -7.0785 -13.8037 34.8031 -8.8476
# 6 -8.9157 -22.4059 -17.6927 7.3579 -8.8476 38.0136
#
#
#
# Elastic Compliance Matrix: (Units=1/GPa)
#
#
# Indices 1 2 3 4 5 6 
#
# 1 0.027751 -0.003447 -0.000085 0.008835 -0.001899 0.002285
# 2 -0.003447 0.018584 -0.000596 -0.001571 -0.001252 0.009881
# 3 -0.000085 -0.000596 0.026583 0.006433 0.011518 0.013437
# 4 0.008835 -0.001571 0.006433 0.029832 0.011611 0.001068
# 5 -0.001899 -0.001252 0.011518 0.011611 0.039208 0.011055
# 6 0.002285 0.009881 0.013437 0.001068 0.011055 0.041286
#
#
# Mechanical properties :
#
#
# Convention : Reuss Voigt Hill
#
# Bulk Modulus (GPa) = 15.46501 24.59918 20.03209
# Shear Modulus (GPa) = 23.46811 32.68389 28.07600
#
# Velocity S-wave (km/s) = 3.04292 3.59102 3.32827
# Velocity P-wave (km/s) = 4.29506 5.18647 4.76167
#
# Compressibility (1/GPa) = 0.06466211
#
# Stress axis : x y z
#
# Youngs Moduli (GPa) = 36.03442 53.80858 37.61855
#
# Poissons Ratio (x) = 0.18550 0.00320
# Poissons Ratio (y) = 0.12423 0.02241
# Poissons Ratio (z) = 0.00306 0.03205
#
# Static dielectric constant tensor:
#      x y z
#    x 2.143250 0.048600 -0.049580 
#    y 0.048600 2.055240 -0.043100 
#    z -0.049580 -0.043100 2.028220 
# 
# From -- ./inp_files/231547.got.cif
#   From: 2010.05.17/outbox.cif.g08.bks.cpg/sg2_116_cif.got.tgz:231547.got - 2010.06.03 11:33:40.
