data_PCOD9052329
_publ_section_title
;
Structure prediction by ZEFSAII (Michael W. Deem and Ramdas Pophale) SiO2 
 PCOD9052329
Probable space group: P -1
;
_chemical_formula_sum "Si O2"
_cell_formula_units_Z 15
_cell_length_a 26.538161
_cell_length_b 9.985492
_cell_length_c 9.451101
_cell_angle_alpha 137.755747
_cell_angle_beta 144.643954
_cell_angle_gamma 24.859772
_cell_volume 609.262089
_symmetry_space_group_name_H-M "P -1"
_symmetry_group_IT_number 2
_symmetry_cell_setting 'triclinic'
loop_
_space_group_symop_operation_xyz
x,y,z
-x,-y,-z
loop_
_atom_site_type_symbol
_atom_site_label
_atom_site_fract_x
_atom_site_fract_y
_atom_site_fract_z
Si Si1 0.956627 0.292300 0.069644
Si Si2 0.727133 0.792871 0.479176
Si Si3 0.180391 0.666809 0.454381
Si Si4 0.807650 0.082891 0.903931
Si Si5 0.429614 0.237798 0.269894
Si Si6 0.601062 0.464153 0.287717
Si Si7 0.750459 0.817378 0.221896
Si Si8 0.000000 0.000000 0.500000
O O1 0.889539 0.532717 0.229909
O O2 0.837337 0.451138 0.806754
O O3 0.081874 0.152721 0.154257
O O4 0.000000 0.000000 0.000000
O O5 0.834782 0.443615 0.523361
O O6 0.748316 0.770488 0.344947
O O7 0.747173 0.977741 0.730499
O O8 0.575597 0.981368 0.320971
O O9 0.315291 0.551021 0.644149
O O10 0.046685 0.030808 0.474275
O O11 0.683793 0.436917 0.829027
O O12 0.890670 0.040831 0.186119
O O13 0.453806 0.302003 0.526672
O O14 0.364464 0.136060 0.063858
O O15 0.706389 0.122572 0.336504
O O16 0.500000 0.500000 0.000000
#
# Coordination Sequence:
#
# PCOD9052329 Si02
#       8
#     2   2   2   2   2   2   2   1
#     4  11  24  48  78 103 158 198 254 320 375 458
#     4  12  28  45  80 116 151 206 255 318 391 463
#     4  11  26  48  71 113 153 197 255 323 379 453
#     4  11  24  48  76 111 150 204 252 318 388 452
#     4  12  25  51  75 111 163 193 259 321 378 462
#     4  12  28  46  77 114 154 207 256 312 385 465
#     4  12  26  47  79 114 148 210 256 309 395 448
#     4  10  26  44  76 102 156 190 250 326 374 444
#
# _framework density 24.619945999999999
#
# number of rings (size 3 to 8) (size 9 to 14) (size 15 to 20)
#    0.000    0.533    4.000    2.400    5.600    4.800 
#    0.000    0.000    0.000    0.000    0.000    0.000 
#    0.000    0.000    0.000    0.000    0.000    0.000 
#
# Total GULP energy -83839.035099 kJ/mol
# GULP energy per Si atom -5589.269007 kJ/mol
# Density = 2.456391 g / cm^3
# Si number density = 24.619946 Si / 1000 Ang^3
#
#
#
# Elastic Constant Matrix: (Units=GPa)
#
#
# Indices 1 2 3 4 5 6 
#
# 1 122.1172 28.2886 34.1530 -1.5807 -8.4303 -7.9309
# 2 28.2886 73.9534 15.7893 -4.4876 -2.6253 -6.1663
# 3 34.1530 15.7893 151.8886 -6.1572 -5.7626 -6.8780
# 4 -1.5807 -4.4876 -6.1572 28.9239 -9.6594 2.3185
# 5 -8.4303 -2.6253 -5.7626 -9.6594 53.4536 2.4221
# 6 -7.9309 -6.1663 -6.8780 2.3185 2.4221 40.2060
#
#
#
# Elastic Compliance Matrix: (Units=1/GPa)
#
#
# Indices 1 2 3 4 5 6 
#
# 1 0.009548 -0.003160 -0.001731 -0.000050 0.001108 0.001039
# 2 -0.003160 0.015142 -0.000696 0.002074 0.000480 0.001431
# 3 -0.001731 -0.000696 0.007163 0.001507 0.000708 0.000647
# 4 -0.000050 0.002074 0.001507 0.037773 0.007175 -0.002045
# 5 0.001108 0.000480 0.000708 0.007175 0.020335 -0.001225
# 6 0.001039 0.001431 0.000647 -0.002045 -0.001225 0.025599
#
#
# Mechanical properties :
#
#
# Convention : Reuss Voigt Hill
#
# Bulk Modulus (GPa) = 48.36231 56.04677 52.20454
# Shear Modulus (GPa) = 37.41747 42.49857 39.95802
#
# Velocity S-wave (km/s) = 3.90269 4.15924 4.03301
# Velocity P-wave (km/s) = 6.32410 6.77347 6.55264
#
# Compressibility (1/GPa) = 0.02067726
#
# Stress axis : x y z
#
# Youngs Moduli (GPa) = 104.72972 66.04293 139.61119
#
# Poissons Ratio (x) = 0.20869 0.24174
# Poissons Ratio (y) = 0.33093 0.09723
# Poissons Ratio (z) = 0.18134 0.04599
#
# Static dielectric constant tensor:
#      x y z
#    x 1.953670 -0.070830 -0.057110 
#    y -0.070830 2.240440 0.002360 
#    z -0.057110 0.002360 2.011410 
# 
# From -- ./inp_files/352453.got.cif
#   From: 2010.05.17/outbox.cif.g08.bks.cpg/sg2_177_cif.got.tgz:352453.got - 2010.06.03 11:33:40.
