data_PCOD9052590
_publ_section_title
;
Structure prediction by ZEFSAII (Michael W. Deem and Ramdas Pophale) SiO2 
 PCOD9052590
Probable space group: P -1
;
_chemical_formula_sum "Si O2"
_cell_formula_units_Z 12
_cell_length_a 5.404465
_cell_length_b 24.505606
_cell_length_c 23.862344
_cell_angle_alpha 11.410221
_cell_angle_beta 51.074278
_cell_angle_gamma 50.611319
_cell_volume 482.794455
_symmetry_space_group_name_H-M "P -1"
_symmetry_group_IT_number 2
_symmetry_cell_setting 'triclinic'
loop_
_space_group_symop_operation_xyz
x,y,z
-x,-y,-z
loop_
_atom_site_type_symbol
_atom_site_label
_atom_site_fract_x
_atom_site_fract_y
_atom_site_fract_z
Si Si1 0.222667 0.692325 0.536297
Si Si2 0.508715 0.853843 0.901274
Si Si3 0.198946 0.002395 0.114350
Si Si4 0.564486 0.049506 0.308281
Si Si5 0.811174 0.268004 0.730893
Si Si6 0.370408 0.546595 0.908489
O O1 0.302461 0.801894 0.353707
O O2 0.878673 0.852725 0.440813
O O3 0.457480 0.829390 0.406776
O O4 0.277346 0.365488 0.869067
O O5 0.599134 0.829728 0.847559
O O6 0.140589 0.825771 0.994658
O O7 0.168908 0.798255 0.271423
O O8 0.446422 0.222333 0.844275
O O9 0.392545 0.848793 0.575004
O O10 0.594928 0.319500 0.068808
O O11 0.000000 0.500000 0.500000
O O12 0.000000 0.000000 0.000000
O O13 0.500000 0.500000 0.000000
O O14 0.000000 0.500000 0.000000
#
# Coordination Sequence:
#
# PCOD9052590 Si02
#       6
#     2   2   2   2   2   2
#     4  11  25  45  76 105 146 193 249 314 377 446
#     4  11  25  45  76 105 146 193 249 314 377 446
#     4  10  26  47  72 112 144 192 256 310 386 462
#     4  11  26  47  74 111 148 198 252 310 372 453
#     4  11  26  47  73 104 149 195 244 311 385 460
#     4  12  28  48  78 114 158 205 256 315 386 462
#
# _framework density 24.8553
#
# number of rings (size 3 to 8) (size 9 to 14) (size 15 to 20)
#    0.000    1.000    0.000    4.000    7.000   14.667 
#    0.000    2.500    0.000    0.000    0.000    0.000 
#    0.000    0.000    0.000    0.000    0.000    0.000 
#
# Total GULP energy -67157.383129 kJ/mol
# GULP energy per Si atom -5596.448594 kJ/mol
# Density = 2.479873 g / cm^3
# Si number density = 24.855300 Si / 1000 Ang^3
#
#
#
# Elastic Constant Matrix: (Units=GPa)
#
#
# Indices 1 2 3 4 5 6 
#
# 1 111.8533 54.0030 27.0792 0.8252 -4.1537 24.1877
# 2 54.0030 122.8690 38.7167 13.1406 0.5165 46.0465
# 3 27.0792 38.7167 150.3750 -14.4073 2.6397 22.3760
# 4 0.8252 13.1406 -14.4073 17.3440 8.5535 10.2649
# 5 -4.1537 0.5165 2.6397 8.5535 48.3851 -7.2333
# 6 24.1877 46.0465 22.3760 10.2649 -7.2333 52.4325
#
#
#
# Elastic Compliance Matrix: (Units=1/GPa)
#
#
# Indices 1 2 3 4 5 6 
#
# 1 0.011682 -0.004797 -0.000219 0.003940 0.000094 -0.001841
# 2 -0.004797 0.015063 -0.002564 -0.008279 -0.000215 -0.008330
# 3 -0.000219 -0.002564 0.009638 0.015015 -0.003956 -0.005246
# 4 0.003940 -0.008279 0.015015 0.101013 -0.021798 -0.023738
# 5 0.000094 -0.000215 -0.003956 -0.021798 0.026200 0.009715
# 6 -0.001841 -0.008330 -0.005246 -0.023738 0.009715 0.035463
#
#
# Mechanical properties :
#
#
# Convention : Reuss Voigt Hill
#
# Bulk Modulus (GPa) = 47.11893 69.41058 58.26475
# Shear Modulus (GPa) = 22.59431 41.31888 31.95659
#
# Velocity S-wave (km/s) = 3.01829 4.08165 3.58956
# Velocity P-wave (km/s) = 5.58079 7.08517 6.37749
#
# Compressibility (1/GPa) = 0.02122289
#
# Stress axis : x y z
#
# Youngs Moduli (GPa) = 85.60217 66.38592 103.75403
#
# Poissons Ratio (x) = 0.31848 0.02269
# Poissons Ratio (y) = 0.41067 0.26606
# Poissons Ratio (z) = 0.01872 0.17023
#
# Static dielectric constant tensor:
#      x y z
#    x 1.952790 -0.049590 -0.026510 
#    y -0.049590 2.011280 0.024370 
#    z -0.026510 0.024370 1.909030 
# 
# From -- ./inp_files/605232.got.cif
#   From: 2010.05.17/outbox.cif.g08.bks.cpg/sg2_303_cif.got.tgz:605232.got - 2010.06.03 11:33:40.
