data_PCOD9052984
_publ_section_title
;
Structure prediction by ZEFSAII (Michael W. Deem and Ramdas Pophale) SiO2 
 PCOD9052984
Probable space group: P -1
;
_chemical_formula_sum "Si O2"
_cell_formula_units_Z 14
_cell_length_a 14.986018
_cell_length_b 12.987617
_cell_length_c 9.189104
_cell_angle_alpha 47.432255
_cell_angle_beta 117.766309
_cell_angle_gamma 151.693627
_cell_volume 579.915587
_symmetry_space_group_name_H-M "P -1"
_symmetry_group_IT_number 2
_symmetry_cell_setting 'triclinic'
loop_
_space_group_symop_operation_xyz
x,y,z
-x,-y,-z
loop_
_atom_site_type_symbol
_atom_site_label
_atom_site_fract_x
_atom_site_fract_y
_atom_site_fract_z
Si Si1 0.761864 0.215520 0.051300
Si Si2 0.455392 0.186957 0.243975
Si Si3 0.699644 0.899448 0.506053
Si Si4 0.208856 0.959563 0.017675
Si Si5 0.207963 0.601244 0.609034
Si Si6 0.804863 0.814926 0.434786
Si Si7 0.812620 0.526527 0.614398
O O1 0.661730 0.007180 0.302853
O O2 0.738294 0.095798 0.004170
O O3 0.716378 0.317378 0.870444
O O4 0.000000 0.500000 0.000000
O O5 0.423042 0.248745 0.297242
O O6 0.670997 0.371591 0.235352
O O7 0.394142 0.193477 0.045898
O O8 0.306555 0.871882 0.449355
O O9 0.669161 0.739227 0.518883
O O10 0.941516 0.182748 0.456545
O O11 0.018402 0.679740 0.235361
O O12 0.151094 0.023538 0.815920
O O13 0.223464 0.578673 0.472593
O O14 0.735097 0.589376 0.520785
O O15 0.000000 0.000000 0.500000
#
# Coordination Sequence:
#
# PCOD9052984 Si02
#       7
#     2   2   2   2   2   2   2
#     4   9  17  30  63  87 111 155 197 237 293 346
#     4  11  22  37  61  92 122 150 200 246 291 350
#     4   9  18  36  59  85 119 155 193 245 291 347
#     4  11  20  39  65  85 118 159 193 242 299 347
#     4  11  22  35  61  95 119 151 199 247 293 346
#     4   9  21  37  64  88 114 160 201 236 296 356
#     4  10  17  35  58  88 118 151 199 242 289 349
#
# _framework density 24.141444
#
# number of rings (size 3 to 8) (size 9 to 14) (size 15 to 20)
#    0.000    2.000    2.857    3.000    0.000    0.571 
#    0.000    2.143   25.143    0.000    0.000    0.000 
#    0.000    0.000    0.000    0.000    0.000    0.000 
#
# Total GULP energy -78349.395202 kJ/mol
# GULP energy per Si atom -5596.385372 kJ/mol
# Density = 2.408650 g / cm^3
# Si number density = 24.141444 Si / 1000 Ang^3
#
#
#
# Elastic Constant Matrix: (Units=GPa)
#
#
# Indices 1 2 3 4 5 6 
#
# 1 97.3420 15.4103 24.3055 4.9358 4.9413 -13.5216
# 2 15.4103 57.5175 13.5414 16.5801 -14.5435 -1.0001
# 3 24.3055 13.5414 74.2987 24.7970 10.0875 -3.8685
# 4 4.9358 16.5801 24.7970 39.6412 -5.9132 1.4853
# 5 4.9413 -14.5435 10.0875 -5.9132 33.3078 6.7262
# 6 -13.5216 -1.0001 -3.8685 1.4853 6.7262 53.7752
#
#
#
# Elastic Compliance Matrix: (Units=1/GPa)
#
#
# Indices 1 2 3 4 5 6 
#
# 1 0.012142 -0.003540 -0.003313 0.001526 -0.002687 0.003043
# 2 -0.003540 0.023406 -0.002684 -0.005980 0.010868 -0.001842
# 3 -0.003313 -0.002684 0.020813 -0.013019 -0.009738 0.002192
# 4 0.001526 -0.005980 -0.013019 0.037010 0.008224 -0.002715
# 5 -0.002687 0.010868 -0.009738 0.008224 0.040892 -0.006516
# 6 0.003043 -0.001842 0.002192 -0.002715 -0.006516 0.020375
#
#
# Mechanical properties :
#
#
# Convention : Reuss Voigt Hill
#
# Bulk Modulus (GPa) = 26.81759 37.29696 32.05728
# Shear Modulus (GPa) = 26.86133 37.07157 31.96645
#
# Velocity S-wave (km/s) = 3.33928 3.92292 3.64281
# Velocity P-wave (km/s) = 5.09906 6.00017 5.56787
#
# Compressibility (1/GPa) = 0.03728896
#
# Stress axis : x y z
#
# Youngs Moduli (GPa) = 82.35604 42.72395 48.04576
#
# Poissons Ratio (x) = 0.15123 0.15918
# Poissons Ratio (y) = 0.29152 0.12894
# Poissons Ratio (z) = 0.27286 0.11465
#
# Static dielectric constant tensor:
#      x y z
#    x 1.865430 0.025580 0.029990 
#    y 0.025580 1.969930 0.020240 
#    z 0.029990 0.020240 1.903600 
# 
# From -- ./inp_files/255962.got.cif
#   From: 2010.05.17/outbox.cif.g08.bks.cpg/sg2_128_cif.got.tgz:255962.got - 2010.06.03 11:33:40.
