data_PCOD9052506
_publ_section_title
;
Structure prediction by ZEFSAII (Michael W. Deem and Ramdas Pophale) SiO2 
 PCOD9052506
Probable space group: P -1
;
_chemical_formula_sum "Si O2"
_cell_formula_units_Z 9
_cell_length_a 8.295872
_cell_length_b 8.483564
_cell_length_c 8.326964
_cell_angle_alpha 109.079367
_cell_angle_beta 126.511883
_cell_angle_gamma 54.739069
_cell_volume 384.479231
_symmetry_space_group_name_H-M "P -1"
_symmetry_group_IT_number 2
_symmetry_cell_setting 'triclinic'
loop_
_space_group_symop_operation_xyz
x,y,z
-x,-y,-z
loop_
_atom_site_type_symbol
_atom_site_label
_atom_site_fract_x
_atom_site_fract_y
_atom_site_fract_z
Si Si1 0.110286 0.461772 0.728551
Si Si2 0.482874 0.812743 0.952390
Si Si3 0.657538 0.595008 0.658861
Si Si4 0.978232 0.128203 0.182492
Si Si5 0.500000 0.000000 0.500000
O O1 0.119097 0.650003 0.848505
O O2 0.000000 0.500000 0.500000
O O3 0.926624 0.444009 0.726795
O O4 0.372124 0.282709 0.830097
O O5 0.616457 0.663180 0.840727
O O6 0.218710 0.866562 0.819873
O O7 0.500000 0.000000 0.000000
O O8 0.500000 0.500000 0.500000
O O9 0.593249 0.787128 0.580681
O O10 0.231181 0.049552 0.378000
O O11 0.000000 0.000000 0.000000
#
# Coordination Sequence:
#
# PCOD9052506 Si02
#       5
#     2   2   2   2   1
#     4  11  26  47  74 107 149 198 249 306 381 448
#     4  12  27  45  74 113 149 193 253 312 375 448
#     4  11  26  46  75 106 151 196 254 308 375 452
#     4  11  26  46  77 104 152 193 250 308 378 445
#     4  10  26  46  74 108 150 192 248 306 384 428
#
# _framework density 23.408290000000001
#
# number of rings (size 3 to 8) (size 9 to 14) (size 15 to 20)
#    0.000    0.889    0.000    5.333   18.667    0.889 
#    0.000    0.000    0.000    0.000    0.000    0.000 
#    0.000    0.000    0.000    0.000    0.000    0.000 
#
# Total GULP energy -50142.841127 kJ/mol
# GULP energy per Si atom -5571.426792 kJ/mol
# Density = 2.335501 g / cm^3
# Si number density = 23.408290 Si / 1000 Ang^3
#
#
#
# Elastic Constant Matrix: (Units=GPa)
#
#
# Indices 1 2 3 4 5 6 
#
# 1 149.0617 5.7681 52.0626 -2.5260 49.2971 -16.2405
# 2 5.7681 81.9669 37.4576 -13.1119 16.2705 13.8982
# 3 52.0626 37.4576 104.0167 -7.1009 23.8751 -2.0417
# 4 -2.5260 -13.1119 -7.1009 53.7940 -10.6165 8.8397
# 5 49.2971 16.2705 23.8751 -10.6165 61.6079 2.2008
# 6 -16.2405 13.8982 -2.0417 8.8397 2.2008 40.3672
#
#
#
# Elastic Compliance Matrix: (Units=1/GPa)
#
#
# Indices 1 2 3 4 5 6 
#
# 1 0.011477 0.001805 -0.004507 -0.002049 -0.008434 0.004676
# 2 0.001805 0.017178 -0.006341 0.003941 -0.002622 -0.006229
# 3 -0.004507 -0.006341 0.014235 -0.000123 -0.000297 0.001133
# 4 -0.002049 0.003941 -0.000123 0.021523 0.004611 -0.007152
# 5 -0.008434 -0.002622 -0.000297 0.004611 0.024756 -0.004865
# 6 0.004676 -0.006229 0.001133 -0.007152 -0.004865 0.030687
#
#
# Mechanical properties :
#
#
# Convention : Reuss Voigt Hill
#
# Bulk Modulus (GPa) = 40.31425 58.40243 49.35834
# Shear Modulus (GPa) = 34.19773 47.13761 40.66767
#
# Velocity S-wave (km/s) = 3.82635 4.49231 4.17264
# Velocity P-wave (km/s) = 6.06472 7.20496 6.65929
#
# Compressibility (1/GPa) = 0.02480512
#
# Stress axis : x y z
#
# Youngs Moduli (GPa) = 87.13206 58.21507 70.24880
#
# Poissons Ratio (x) = -0.10510 0.31660
# Poissons Ratio (y) = -0.15731 0.44544
# Poissons Ratio (z) = 0.39269 0.36913
#
# Static dielectric constant tensor:
#      x y z
#    x 1.979350 -0.042100 -0.228240 
#    y -0.042100 1.903030 -0.006270 
#    z -0.228240 -0.006270 2.207930 
# 
# From -- ./inp_files/33246.got.cif
#   From: 2010.05.17/outbox.cif.g08.bks.cpg/sg2_17_cif.got.tgz:33246.got - 2010.06.03 11:33:40.
