data_PCOD9052489
_publ_section_title
;
Structure prediction by ZEFSAII (Michael W. Deem and Ramdas Pophale) SiO2 
 PCOD9052489
Probable space group: P -1
;
_chemical_formula_sum "Si O2"
_cell_formula_units_Z 14
_cell_length_a 5.265268
_cell_length_b 11.655151
_cell_length_c 11.856630
_cell_angle_alpha 62.878751
_cell_angle_beta 73.705496
_cell_angle_gamma 67.701917
_cell_volume 594.042504
_symmetry_space_group_name_H-M "P -1"
_symmetry_group_IT_number 2
_symmetry_cell_setting 'triclinic'
loop_
_space_group_symop_operation_xyz
x,y,z
-x,-y,-z
loop_
_atom_site_type_symbol
_atom_site_label
_atom_site_fract_x
_atom_site_fract_y
_atom_site_fract_z
Si Si1 0.321564 0.454979 0.945667
Si Si2 0.012940 0.736198 0.281905
Si Si3 0.033773 0.300242 0.458830
Si Si4 0.519413 0.545548 0.648318
Si Si5 0.338009 0.842483 0.031133
Si Si6 0.745242 0.947644 0.585232
Si Si7 0.517669 0.932712 0.204507
O O1 0.382824 0.529549 0.792549
O O2 0.429196 0.292962 0.978375
O O3 0.500000 0.500000 0.000000
O O4 0.000000 0.500000 0.000000
O O5 0.232251 0.592424 0.332175
O O6 0.091582 0.786252 0.128067
O O7 0.014960 0.788075 0.388157
O O8 0.685796 0.779817 0.285303
O O9 0.299623 0.350669 0.429147
O O10 0.128285 0.212010 0.375264
O O11 0.745187 0.414291 0.419185
O O12 0.382093 0.909484 0.115166
O O13 0.305429 0.962066 0.892809
O O14 0.500000 0.000000 0.500000
O O15 0.653369 0.996490 0.699520
O O16 0.000000 0.000000 0.500000
#
# Coordination Sequence:
#
# PCOD9052489 Si02
#       7
#     2   2   2   2   2   2   2
#     4  11  26  48  74 104 147 192 242 304 363 432
#     4  11  24  44  73  99 151 181 250 291 370 427
#     4  12  25  46  71 110 143 192 240 299 363 432
#     4  11  27  43  73 106 143 189 244 296 369 428
#     4  10  26  46  73 105 142 194 245 304 363 439
#     4  12  26  48  73 105 148 194 241 301 363 429
#     4  11  25  46  73 107 144 194 247 299 369 436
#
# _framework density 23.567340000000002
#
# number of rings (size 3 to 8) (size 9 to 14) (size 15 to 20)
#    0.000    0.857    1.429    3.857   14.000    0.000 
#    0.000    0.000    0.000    0.000    0.000    0.000 
#    0.000    0.000    0.000    0.000    0.000    0.000 
#
# Total GULP energy -78006.205479 kJ/mol
# GULP energy per Si atom -5571.871820 kJ/mol
# Density = 2.351370 g / cm^3
# Si number density = 23.567340 Si / 1000 Ang^3
#
#
#
# Elastic Constant Matrix: (Units=GPa)
#
#
# Indices 1 2 3 4 5 6 
#
# 1 99.8803 20.8113 46.0296 8.5008 -13.9147 -14.0665
# 2 20.8113 115.1467 37.5275 30.8357 -25.6102 -27.9954
# 3 46.0296 37.5275 125.2245 23.9520 -5.0425 -10.6382
# 4 8.5008 30.8357 23.9520 37.4523 -1.0309 2.0290
# 5 -13.9147 -25.6102 -5.0425 -1.0309 25.4462 0.0525
# 6 -14.0665 -27.9954 -10.6382 2.0290 0.0525 33.4649
#
#
#
# Elastic Compliance Matrix: (Units=1/GPa)
#
#
# Indices 1 2 3 4 5 6 
#
# 1 0.014407 0.004860 -0.004679 -0.004440 0.011644 0.008885
# 2 0.004860 0.027050 -0.002299 -0.022489 0.028463 0.025259
# 3 -0.004679 -0.002299 0.011074 -0.004199 -0.002848 -0.000111
# 4 -0.004440 -0.022489 -0.004199 0.049607 -0.023832 -0.024984
# 5 0.011644 0.028463 -0.002848 -0.023832 0.072723 0.029131
# 6 0.008885 0.025259 -0.000111 -0.024984 0.029131 0.056182
#
#
# Mechanical properties :
#
#
# Convention : Reuss Voigt Hill
#
# Bulk Modulus (GPa) = 20.70662 60.99869 40.85266
# Shear Modulus (GPa) = 19.89047 34.99823 27.44435
#
# Velocity S-wave (km/s) = 2.90829 3.85779 3.41619
# Velocity P-wave (km/s) = 4.48138 6.76626 5.73869
#
# Compressibility (1/GPa) = 0.04829373
#
# Stress axis : x y z
#
# Youngs Moduli (GPa) = 69.40994 36.96897 90.30335
#
# Poissons Ratio (x) = -0.17968 0.42256
# Poissons Ratio (y) = -0.33734 0.20764
# Poissons Ratio (z) = 0.32479 0.08500
#
# Static dielectric constant tensor:
#      x y z
#    x 1.932710 0.030510 -0.041790 
#    y 0.030510 1.966730 -0.047850 
#    z -0.041790 -0.047850 2.078350 
# 
# From -- ./inp_files/363801.got.cif
#   From: 2010.05.17/outbox.cif.g08.bks.cpg/sg2_182_cif.got.tgz:363801.got - 2010.06.03 11:33:40.
