data_PCOD9052124
_publ_section_title
;
Structure prediction by ZEFSAII (Michael W. Deem and Ramdas Pophale) SiO2 
 PCOD9052124
Probable space group: P -1
;
_chemical_formula_sum "Si O2"
_cell_formula_units_Z 16
_cell_length_a 11.710684
_cell_length_b 5.172510
_cell_length_c 19.249013
_cell_angle_alpha 65.944570
_cell_angle_beta 135.612518
_cell_angle_gamma 125.357974
_cell_volume 665.139570
_symmetry_space_group_name_H-M "P -1"
_symmetry_group_IT_number 2
_symmetry_cell_setting 'triclinic'
loop_
_space_group_symop_operation_xyz
x,y,z
-x,-y,-z
loop_
_atom_site_type_symbol
_atom_site_label
_atom_site_fract_x
_atom_site_fract_y
_atom_site_fract_z
Si Si1 0.824171 0.557058 0.406937
Si Si2 0.491682 0.901923 0.767099
Si Si3 0.699499 0.206690 0.529546
Si Si4 0.979463 0.186434 0.171699
Si Si5 0.055618 0.147118 0.362466
Si Si6 0.106595 0.370491 0.990285
Si Si7 0.698726 0.601481 0.797823
Si Si8 0.365179 0.265917 0.021248
O O1 0.708998 0.345334 0.315795
O O2 0.702217 0.407734 0.439135
O O3 0.000000 0.500000 0.500000
O O4 0.911002 0.925620 0.381881
O O5 0.616859 0.791577 0.786401
O O6 0.546377 0.269428 0.739061
O O7 0.531448 0.868362 0.868529
O O8 0.835209 0.487138 0.608329
O O9 0.500000 0.000000 0.500000
O O10 0.795444 0.986572 0.572378
O O11 0.951916 0.114246 0.248139
O O12 0.164888 0.185874 0.225576
O O13 0.005675 0.533794 0.124029
O O14 0.810016 0.980742 0.070534
O O15 0.290674 0.448632 0.019808
O O16 0.176234 0.496510 0.084265
O O17 0.000000 0.000000 0.000000
O O18 0.500000 0.500000 0.000000
#
# Coordination Sequence:
#
# PCOD9052124 Si02
#       8
#     2   2   2   2   2   2   2   2
#     4  10  25  52  77 103 147 191 241 308 379 440
#     4  11  25  44  70 105 137 188 243 290 359 431
#     4  11  26  48  76 107 143 185 249 310 363 431
#     4  12  24  41  71 104 151 188 243 294 362 428
#     4  11  27  45  74 109 142 195 238 297 380 437
#     4  11  22  43  68  96 146 201 239 288 355 421
#     4  11  24  40  68 103 142 186 240 293 348 419
#     4  11  24  42  65 102 148 189 237 288 354 432
#
# _framework density 24.055101000000001
#
# number of rings (size 3 to 8) (size 9 to 14) (size 15 to 20)
#    0.000    1.000    2.500    3.375    5.250    4.500 
#    2.250    0.000    0.000    0.000    0.000    0.000 
#    0.000    0.000    0.000    0.000    0.000    0.000 
#
# Total GULP energy -89450.473269 kJ/mol
# GULP energy per Si atom -5590.654579 kJ/mol
# Density = 2.400035 g / cm^3
# Si number density = 24.055101 Si / 1000 Ang^3
#
#
#
# Elastic Constant Matrix: (Units=GPa)
#
#
# Indices 1 2 3 4 5 6 
#
# 1 75.8575 38.7568 9.6682 -15.7483 -12.5837 29.2965
# 2 38.7568 110.4572 21.3122 13.8883 -2.5801 24.0757
# 3 9.6682 21.3122 98.3694 3.4589 -9.5470 16.3693
# 4 -15.7483 13.8883 3.4589 48.2970 6.4917 -1.5526
# 5 -12.5837 -2.5801 -9.5470 6.4917 32.9355 -5.9808
# 6 29.2965 24.0757 16.3693 -1.5526 -5.9808 49.7653
#
#
#
# Elastic Compliance Matrix: (Units=1/GPa)
#
#
# Indices 1 2 3 4 5 6 
#
# 1 0.022995 -0.007139 0.001077 0.008477 0.005132 -0.009556
# 2 -0.007139 0.012998 -0.001736 -0.005812 -0.001406 -0.001864
# 3 0.001077 -0.001736 0.011274 -0.000470 0.003064 -0.003149
# 4 0.008477 -0.005812 -0.000470 0.025481 -0.002657 -0.001548
# 5 0.005132 -0.001406 0.003064 -0.002657 0.033738 0.000622
# 6 -0.009556 -0.001864 -0.003149 -0.001548 0.000622 0.027684
#
#
# Mechanical properties :
#
#
# Convention : Reuss Voigt Hill
#
# Bulk Modulus (GPa) = 31.57613 47.12872 39.35242
# Shear Modulus (GPa) = 31.18710 40.52936 35.85823
#
# Velocity S-wave (km/s) = 3.60458 4.10915 3.86511
# Velocity P-wave (km/s) = 5.52079 6.49215 6.02607
#
# Compressibility (1/GPa) = 0.03166949
#
# Stress axis : x y z
#
# Youngs Moduli (GPa) = 43.48865 76.93774 88.69987
#
# Poissons Ratio (x) = 0.54927 -0.09552
# Poissons Ratio (y) = 0.31047 0.15399
# Poissons Ratio (z) = -0.04683 0.13357
#
# Static dielectric constant tensor:
#      x y z
#    x 1.971400 -0.123190 0.090020 
#    y -0.123190 1.958410 0.057120 
#    z 0.090020 0.057120 1.853040 
# 
# From -- ./inp_files/564432.got.cif
#   From: 2010.05.17/outbox.cif.g08.bks.cpg/sg2_283_cif.got.tgz:564432.got - 2010.06.03 11:33:40.
