data_PCOD9052746
_publ_section_title
;
Structure prediction by ZEFSAII (Michael W. Deem and Ramdas Pophale) SiO2 
 PCOD9052746
Probable space group: P -1
;
_chemical_formula_sum "Si O2"
_cell_formula_units_Z 14
_cell_length_a 4.880710
_cell_length_b 15.164025
_cell_length_c 9.419233
_cell_angle_alpha 109.379341
_cell_angle_beta 57.957795
_cell_angle_gamma 98.026285
_cell_volume 556.867549
_symmetry_space_group_name_H-M "P -1"
_symmetry_group_IT_number 2
_symmetry_cell_setting 'triclinic'
loop_
_space_group_symop_operation_xyz
x,y,z
-x,-y,-z
loop_
_atom_site_type_symbol
_atom_site_label
_atom_site_fract_x
_atom_site_fract_y
_atom_site_fract_z
Si Si1 0.421926 0.763947 0.611447
Si Si2 0.792974 0.502883 0.813579
Si Si3 0.868046 0.284063 0.626667
Si Si4 0.372828 0.099890 0.151409
Si Si5 0.559001 0.424224 0.317134
Si Si6 0.852543 0.975357 0.323564
Si Si7 0.477499 0.850795 0.160327
O O1 0.184977 0.745287 0.537444
O O2 0.423521 0.857764 0.754932
O O3 0.416227 0.677637 0.676134
O O4 0.781705 0.755480 0.440948
O O5 0.868321 0.395383 0.692966
O O6 0.700971 0.559997 0.726591
O O7 0.096747 0.549051 0.825818
O O8 0.500000 0.500000 0.000000
O O9 0.597539 0.240000 0.776464
O O10 0.028497 0.069919 0.288833
O O11 0.409524 0.166941 0.041633
O O12 0.500000 0.000000 0.000000
O O13 0.500000 0.500000 0.500000
O O14 0.860539 0.085074 0.707433
O O15 0.500000 0.000000 0.500000
O O16 0.757576 0.910387 0.183651
#
# Coordination Sequence:
#
# PCOD9052746 Si02
#       7
#     2   2   2   2   2   2   2
#     4  12  26  45  75 102 143 192 244 294 352 435
#     4  12  26  46  72 108 151 185 233 300 361 425
#     4  12  25  46  69 108 144 188 241 289 358 438
#     4  10  26  49  70 104 142 185 241 300 358 418
#     4  12  23  47  75 106 142 190 242 291 357 432
#     4  11  23  45  73 102 137 185 238 295 360 429
#     4  11  25  43  70 102 140 183 234 300 357 420
#
# _framework density 25.140628
#
# number of rings (size 3 to 8) (size 9 to 14) (size 15 to 20)
#    0.000    0.571    2.857    4.286    2.000    8.000 
#    5.143    0.000    0.000    0.000    0.000    0.000 
#    0.000    0.000    0.000    0.000    0.000    0.000 
#
# Total GULP energy -78442.629350 kJ/mol
# GULP energy per Si atom -5603.044954 kJ/mol
# Density = 2.508341 g / cm^3
# Si number density = 25.140628 Si / 1000 Ang^3
#
#
#
# Elastic Constant Matrix: (Units=GPa)
#
#
# Indices 1 2 3 4 5 6 
#
# 1 92.8652 18.0208 -2.4529 7.1339 9.5270 9.8883
# 2 18.0208 151.8150 18.9930 -14.4121 2.9625 12.4034
# 3 -2.4529 18.9930 61.6181 -12.9044 -9.5334 14.3970
# 4 7.1339 -14.4121 -12.9044 47.1375 3.1538 4.0592
# 5 9.5270 2.9625 -9.5334 3.1538 39.4621 -6.8740
# 6 9.8883 12.4034 14.3970 4.0592 -6.8740 35.5189
#
#
#
# Elastic Compliance Matrix: (Units=1/GPa)
#
#
# Indices 1 2 3 4 5 6 
#
# 1 0.011859 -0.001302 0.000962 -0.001409 -0.003059 -0.003668
# 2 -0.001302 0.007340 -0.001534 0.002276 -0.001148 -0.002061
# 3 0.000962 -0.001534 0.020187 0.005401 0.002941 -0.007963
# 4 -0.001409 0.002276 0.005401 0.024184 -0.001440 -0.005634
# 5 -0.003059 -0.001148 0.002941 -0.001440 0.027973 0.005639
# 6 -0.003668 -0.002061 -0.007963 -0.005634 0.005639 0.034857
#
#
# Mechanical properties :
#
#
# Convention : Reuss Voigt Hill
#
# Bulk Modulus (GPa) = 28.06030 41.71336 34.88683
# Shear Modulus (GPa) = 35.20432 42.53951 38.87191
#
# Velocity S-wave (km/s) = 3.74611 4.11793 3.93641
# Velocity P-wave (km/s) = 5.46779 6.26401 5.87939
#
# Compressibility (1/GPa) = 0.03563753
#
# Stress axis : x y z
#
# Youngs Moduli (GPa) = 84.32362 136.23384 49.53786
#
# Poissons Ratio (x) = 0.17744 -0.04766
# Poissons Ratio (y) = 0.10983 0.07598
# Poissons Ratio (z) = -0.08113 0.20896
#
# Static dielectric constant tensor:
#      x y z
#    x 2.012390 -0.045200 -0.064250 
#    y -0.045200 1.979040 -0.022590 
#    z -0.064250 -0.022590 2.023850 
# 
# From -- ./inp_files/139317.got.cif
#   From: 2010.05.17/outbox.cif.g08.bks.cpg/sg2_70_cif.got.tgz:139317.got - 2010.06.03 11:33:40.
