data_PCOD9052028
_publ_section_title
;
Structure prediction by ZEFSAII (Michael W. Deem and Ramdas Pophale) SiO2 
 PCOD9052028
Probable space group: P -1
;
_chemical_formula_sum "Si O2"
_cell_formula_units_Z 12
_cell_length_a 19.521023
_cell_length_b 8.399671
_cell_length_c 4.825855
_cell_angle_alpha 91.488617
_cell_angle_beta 107.772543
_cell_angle_gamma 141.402949
_cell_volume 420.903448
_symmetry_space_group_name_H-M "P -1"
_symmetry_group_IT_number 2
_symmetry_cell_setting 'triclinic'
loop_
_space_group_symop_operation_xyz
x,y,z
-x,-y,-z
loop_
_atom_site_type_symbol
_atom_site_label
_atom_site_fract_x
_atom_site_fract_y
_atom_site_fract_z
Si Si1 0.033734 0.414161 0.233454
Si Si2 0.176717 0.160989 0.712612
Si Si3 0.713527 0.047966 0.094363
Si Si4 0.403579 0.689705 0.766133
Si Si5 0.786661 0.480544 0.903443
Si Si6 0.669995 0.752719 0.505749
O O1 0.106651 0.420444 0.130022
O O2 0.000000 0.500000 0.000000
O O3 0.918704 0.120455 0.242938
O O4 0.859940 0.334504 0.400691
O O5 0.140109 0.272037 0.774670
O O6 0.330979 0.485894 0.940721
O O7 0.203842 0.112293 0.456757
O O8 0.695433 0.880318 0.833324
O O9 0.697154 0.190120 0.941810
O O10 0.643702 0.850786 0.270729
O O11 0.298710 0.584715 0.434710
O O12 0.436207 0.582288 0.649192
O O13 0.500000 0.000000 0.000000
#
# Coordination Sequence:
#
# PCOD9052028 Si02
#       6
#     2   2   2   2   2   2
#     4  12  28  48  81 118 168 213 255 321 404 481
#     4  10  26  46  78 116 156 207 269 316 395 476
#     4  12  25  49  75 116 164 205 260 324 391 483
#     4  10  26  52  80 112 155 208 269 334 392 463
#     4  12  25  48  79 117 164 200 271 324 397 465
#     4  10  25  49  77 113 157 208 263 321 398 471
#
# _framework density 28.510103000000001
#
# number of rings (size 3 to 8) (size 9 to 14) (size 15 to 20)
#    1.000    0.000    1.667    3.500    2.333    8.000 
#    0.000    1.667    0.000    0.000    0.000    0.000 
#    0.000    0.000    0.000    0.000    0.000    0.000 
#
# Total GULP energy -67058.662910 kJ/mol
# GULP energy per Si atom -5588.221909 kJ/mol
# Density = 2.844521 g / cm^3
# Si number density = 28.510103 Si / 1000 Ang^3
#
#
#
# Elastic Constant Matrix: (Units=GPa)
#
#
# Indices 1 2 3 4 5 6 
#
# 1 130.6760 26.1142 51.5529 8.6489 -27.9621 -15.2031
# 2 26.1142 226.9441 40.2964 24.7122 -2.6902 -26.4214
# 3 51.5529 40.2964 130.6044 -6.9226 -16.3528 0.1799
# 4 8.6489 24.7122 -6.9226 46.5187 -18.4139 -4.0785
# 5 -27.9621 -2.6902 -16.3528 -18.4139 62.3396 -6.5676
# 6 -15.2031 -26.4214 0.1799 -4.0785 -6.5676 49.4283
#
#
#
# Elastic Compliance Matrix: (Units=1/GPa)
#
#
# Indices 1 2 3 4 5 6 
#
# 1 0.010400 -0.000009 -0.003648 -0.000598 0.003918 0.003678
# 2 -0.000009 0.005398 -0.001969 -0.003343 -0.001014 0.002479
# 3 -0.003648 -0.001969 0.010149 0.003844 0.001903 -0.001642
# 4 -0.000598 -0.003343 0.003844 0.027611 0.008907 0.001477
# 5 0.003918 -0.001014 0.001903 0.008907 0.021330 0.004225
# 6 0.003678 0.002479 -0.001642 0.001477 0.004225 0.023377
#
#
# Mechanical properties :
#
#
# Convention : Reuss Voigt Hill
#
# Bulk Modulus (GPa) = 68.06209 80.46127 74.26168
# Shear Modulus (GPa) = 43.70023 56.34138 50.02081
#
# Velocity S-wave (km/s) = 3.91934 4.45026 4.19321
# Velocity P-wave (km/s) = 6.66382 7.39525 7.03904
#
# Compressibility (1/GPa) = 0.01469247
#
# Stress axis : x y z
#
# Youngs Moduli (GPa) = 96.15769 185.26386 98.53389
#
# Poissons Ratio (x) = 0.00167 0.35949
# Poissons Ratio (y) = 0.00087 0.19405
# Poissons Ratio (z) = 0.35082 0.36486
#
# Static dielectric constant tensor:
#      x y z
#    x 2.422320 0.021700 0.040220 
#    y 0.021700 2.224260 0.054990 
#    z 0.040220 0.054990 2.299650 
# 
# From -- ./inp_files/87569.got.cif
#   From: 2010.05.17/outbox.cif.g08.bks.cpg/sg2_44_cif.got.tgz:87569.got - 2010.06.03 11:33:40.
