data_PCOD9052129
_publ_section_title
;
Structure prediction by ZEFSAII (Michael W. Deem and Ramdas Pophale) SiO2 
 PCOD9052129
Probable space group: P -1
;
_chemical_formula_sum "Si O2"
_cell_formula_units_Z 12
_cell_length_a 9.160743
_cell_length_b 12.813961
_cell_length_c 9.735560
_cell_angle_alpha 145.669871
_cell_angle_beta 52.389354
_cell_angle_gamma 138.065380
_cell_volume 430.683956
_symmetry_space_group_name_H-M "P -1"
_symmetry_group_IT_number 2
_symmetry_cell_setting 'triclinic'
loop_
_space_group_symop_operation_xyz
x,y,z
-x,-y,-z
loop_
_atom_site_type_symbol
_atom_site_label
_atom_site_fract_x
_atom_site_fract_y
_atom_site_fract_z
Si Si1 0.328188 0.701566 0.579145
Si Si2 0.615973 0.357572 0.826236
Si Si3 0.054830 0.461003 0.733010
Si Si4 0.256172 0.085887 0.949625
Si Si5 0.026109 0.193078 0.791308
Si Si6 0.712042 0.784916 0.650317
O O1 0.360034 0.619197 0.325976
O O2 0.130235 0.533751 0.610605
O O3 0.303774 0.901309 0.766531
O O4 0.736591 0.604124 0.086669
O O5 0.388339 0.194384 0.851540
O O6 0.794264 0.296260 0.700639
O O7 0.180836 0.352943 0.599301
O O8 0.097075 0.677244 0.023507
O O9 0.365582 0.270030 0.207882
O O10 0.000000 0.000000 0.000000
O O11 0.464677 0.227913 0.364931
O O12 0.902618 0.040396 0.826031
O O13 0.000000 0.000000 0.500000
#
# Coordination Sequence:
#
# PCOD9052129 Si02
#       6
#     2   2   2   2   2   2
#     4  12  25  54  84 129 178 225 290 365 432 507
#     4  10  26  53  88 123 174 227 295 354 427 519
#     4  10  25  52  88 122 174 227 288 347 438 506
#     4  12  27  51  86 130 177 232 292 355 437 520
#     4  10  26  52  84 122 175 222 292 346 430 510
#     4  12  27  51  84 127 173 230 284 360 433 514
#
# _framework density 27.862658
#
# number of rings (size 3 to 8) (size 9 to 14) (size 15 to 20)
#    1.000    0.000    1.667    3.000    0.000    7.333 
#    0.000    5.000    0.000    1.000    0.000    0.000 
#    0.000    0.000    0.000    0.000    0.000    0.000 
#
# Total GULP energy -67203.660991 kJ/mol
# GULP energy per Si atom -5600.305083 kJ/mol
# Density = 2.779924 g / cm^3
# Si number density = 27.862658 Si / 1000 Ang^3
#
#
#
# Elastic Constant Matrix: (Units=GPa)
#
#
# Indices 1 2 3 4 5 6 
#
# 1 193.5568 75.7143 88.8050 -12.9450 -19.4458 -6.4956
# 2 75.7143 168.1567 69.3049 -9.2618 -19.3491 6.0206
# 3 88.8050 69.3049 209.1781 13.5457 -2.9896 -5.0483
# 4 -12.9450 -9.2618 13.5457 65.1304 -14.2800 -7.7696
# 5 -19.4458 -19.3491 -2.9896 -14.2800 68.0350 -10.5923
# 6 -6.4956 6.0206 -5.0483 -7.7696 -10.5923 54.2836
#
#
#
# Elastic Compliance Matrix: (Units=1/GPa)
#
#
# Indices 1 2 3 4 5 6 
#
# 1 0.007620 -0.001995 -0.002661 0.002485 0.002277 0.001686
# 2 -0.001995 0.007923 -0.001862 0.001420 0.001784 -0.000739
# 3 -0.002661 -0.001862 0.006666 -0.002540 -0.001555 -0.000159
# 4 0.002485 0.001420 -0.002540 0.018180 0.005371 0.003554
# 5 0.002277 0.001784 -0.001555 0.005371 0.017558 0.004125
# 6 0.001686 -0.000739 -0.000159 0.003554 0.004125 0.020004
#
#
# Mechanical properties :
#
#
# Convention : Reuss Voigt Hill
#
# Bulk Modulus (GPa) = 109.04717 115.39331 112.22024
# Shear Modulus (GPa) = 53.16636 59.96097 56.56367
#
# Velocity S-wave (km/s) = 4.37299 4.64402 4.51054
# Velocity P-wave (km/s) = 8.04486 8.38217 8.21525
#
# Compressibility (1/GPa) = 0.00917034
#
# Stress axis : x y z
#
# Youngs Moduli (GPa) = 131.24117 126.21907 150.01772
#
# Poissons Ratio (x) = 0.25185 0.39926
# Poissons Ratio (y) = 0.26187 0.27936
# Poissons Ratio (z) = 0.34928 0.23504
#
# Static dielectric constant tensor:
#      x y z
#    x 2.174240 -0.011080 0.012710 
#    y -0.011080 2.242530 -0.118870 
#    z 0.012710 -0.118870 2.287080 
# 
# From -- ./inp_files/454158.got.cif
#   From: 2010.05.17/outbox.cif.g08.bks.cpg/sg2_228_cif.got.tgz:454158.got - 2010.06.03 11:33:40.
