data_PCOD9052458
_publ_section_title
;
Structure prediction by ZEFSAII (Michael W. Deem and Ramdas Pophale) SiO2 
 PCOD9052458
Probable space group: P -1
;
_chemical_formula_sum "Si O2"
_cell_formula_units_Z 16
_cell_length_a 16.623868
_cell_length_b 7.535879
_cell_length_c 11.912280
_cell_angle_alpha 78.810556
_cell_angle_beta 140.418282
_cell_angle_gamma 127.041555
_cell_volume 642.994444
_symmetry_space_group_name_H-M "P -1"
_symmetry_group_IT_number 2
_symmetry_cell_setting 'triclinic'
loop_
_space_group_symop_operation_xyz
x,y,z
-x,-y,-z
loop_
_atom_site_type_symbol
_atom_site_label
_atom_site_fract_x
_atom_site_fract_y
_atom_site_fract_z
Si Si1 0.562549 0.843950 0.970829
Si Si2 0.908027 0.217934 0.157274
Si Si3 0.860034 0.593178 0.028884
Si Si4 0.365170 0.022926 0.711915
Si Si5 0.864057 0.184107 0.871437
Si Si6 0.475136 0.279748 0.561358
Si Si7 0.014326 0.229488 0.623061
Si Si8 0.797162 0.640072 0.415232
O O1 0.417831 0.559282 0.795592
O O2 0.477038 0.949918 0.825376
O O3 0.563818 0.842609 0.106256
O O4 0.765109 0.011343 0.124271
O O5 0.880656 0.402909 0.100632
O O6 0.116102 0.389816 0.389564
O O7 0.853662 0.084761 0.994357
O O8 0.032150 0.825434 0.109380
O O9 0.867954 0.685507 0.149383
O O10 0.681054 0.427560 0.782706
O O11 0.398621 0.183914 0.619365
O O12 0.143496 0.786467 0.518698
O O13 0.660285 0.986956 0.626070
O O14 0.000000 0.500000 0.000000
O O15 0.500000 0.500000 0.500000
O O16 0.143100 0.389482 0.634870
O O17 0.897132 0.931910 0.504090
#
# Coordination Sequence:
#
# PCOD9052458 Si02
#       8
#     2   2   2   2   2   2   2   2
#     4  11  24  44  76 107 139 184 238 306 348 426
#     4  11  24  44  71 108 136 184 239 297 355 424
#     4  11  24  47  75  97 143 187 243 296 349 430
#     4  11  23  46  74 108 138 186 247 287 361 429
#     4  10  26  46  71 103 140 191 242 298 347 426
#     4  12  27  45  71 108 143 191 238 297 359 426
#     4  11  24  45  69 104 148 186 229 291 370 437
#     4  11  26  42  68 107 146 185 225 297 369 428
#
# _framework density 24.883573999999999
#
# number of rings (size 3 to 8) (size 9 to 14) (size 15 to 20)
#    0.000    1.000    3.750    1.500    5.250    7.000 
#    0.000    0.000    0.000    0.000    0.000    0.000 
#    0.000    0.000    0.000    0.000    0.000    0.000 
#
# Total GULP energy -89443.542560 kJ/mol
# GULP energy per Si atom -5590.221410 kJ/mol
# Density = 2.482694 g / cm^3
# Si number density = 24.883574 Si / 1000 Ang^3
#
#
#
# Elastic Constant Matrix: (Units=GPa)
#
#
# Indices 1 2 3 4 5 6 
#
# 1 65.9498 15.0333 20.0255 -6.8323 -21.7979 19.5753
# 2 15.0333 93.2615 29.6805 -15.1818 -15.7535 -3.8071
# 3 20.0255 29.6805 194.8470 -3.9629 -24.0059 -2.9835
# 4 -6.8323 -15.1818 -3.9629 36.4875 5.9430 0.4862
# 5 -21.7979 -15.7535 -24.0059 5.9430 42.7766 -12.9899
# 6 19.5753 -3.8071 -2.9835 0.4862 -12.9899 29.3085
#
#
#
# Elastic Compliance Matrix: (Units=1/GPa)
#
#
# Indices 1 2 3 4 5 6 
#
# 1 0.021899 -0.002337 -0.001386 0.002279 0.005333 -0.012745
# 2 -0.002337 0.012969 -0.001106 0.004150 0.003835 0.004764
# 3 -0.001386 -0.001106 0.005854 -0.000625 0.003097 0.002761
# 4 0.002279 0.004150 -0.000625 0.029960 -0.002649 -0.002717
# 5 0.005333 0.003835 0.003097 -0.002649 0.033270 0.012041
# 6 -0.012745 0.004764 0.002761 -0.002717 0.012041 0.048914
#
#
# Mechanical properties :
#
#
# Convention : Reuss Voigt Hill
#
# Bulk Modulus (GPa) = 32.19175 53.72633 42.95904
# Shear Modulus (GPa) = 28.92211 41.00245 34.96228
#
# Velocity S-wave (km/s) = 3.41295 4.06368 3.75245
# Velocity P-wave (km/s) = 5.33816 6.60726 6.00633
#
# Compressibility (1/GPa) = 0.03106386
#
# Stress axis : x y z
#
# Youngs Moduli (GPa) = 45.66498 77.10706 170.81571
#
# Poissons Ratio (x) = 0.18021 0.23681
# Poissons Ratio (y) = 0.10673 0.18884
# Poissons Ratio (z) = 0.06331 0.08524
#
# Static dielectric constant tensor:
#      x y z
#    x 2.037760 -0.004000 -0.009680 
#    y -0.004000 2.071240 0.004620 
#    z -0.009680 0.004620 1.962290 
# 
# From -- ./inp_files/462162.got.cif
#   From: 2010.05.17/outbox.cif.g08.bks.cpg/sg2_232_cif.got.tgz:462162.got - 2010.06.03 11:33:40.
