data_PCOD9052553
_publ_section_title
;
Structure prediction by ZEFSAII (Michael W. Deem and Ramdas Pophale) SiO2 
 PCOD9052553
Probable space group: P -1
;
_chemical_formula_sum "Si O2"
_cell_formula_units_Z 12
_cell_length_a 5.087426
_cell_length_b 9.400962
_cell_length_c 9.891859
_cell_angle_alpha 94.253506
_cell_angle_beta 89.527639
_cell_angle_gamma 101.382905
_cell_volume 462.501898
_symmetry_space_group_name_H-M "P -1"
_symmetry_group_IT_number 2
_symmetry_cell_setting 'triclinic'
loop_
_space_group_symop_operation_xyz
x,y,z
-x,-y,-z
loop_
_atom_site_type_symbol
_atom_site_label
_atom_site_fract_x
_atom_site_fract_y
_atom_site_fract_z
Si Si1 0.270323 0.584427 0.703256
Si Si2 0.649329 0.882494 0.423007
Si Si3 0.013118 0.850786 0.668849
Si Si4 0.705840 0.414014 0.696139
Si Si5 0.179862 0.156687 0.034961
Si Si6 0.262587 0.677444 0.014848
O O1 0.535630 0.530966 0.655643
O O2 0.214968 0.738244 0.662491
O O3 0.012062 0.463219 0.655265
O O4 0.269517 0.597172 0.867002
O O5 0.843078 0.836869 0.531963
O O6 0.443008 0.745232 0.359008
O O7 0.500000 0.000000 0.500000
O O8 0.830248 0.981092 0.316331
O O9 0.833526 0.818524 0.801504
O O10 0.703744 0.412126 0.859009
O O11 0.483991 0.187891 0.986377
O O12 0.015929 0.267405 0.974011
O O13 0.000000 0.000000 0.000000
#
# Coordination Sequence:
#
# PCOD9052553 Si02
#       6
#     2   2   2   2   2   2
#     4  11  25  45  73 105 141 180 230 291 346 413
#     4  11  28  46  73  95 143 188 234 292 340 413
#     4  10  26  47  68 101 140 182 234 289 350 403
#     4  12  26  45  73 106 140 186 232 279 350 418
#     4  11  23  39  72 103 140 182 227 285 346 416
#     4  11  23  42  69 105 143 177 223 288 350 412
#
# _framework density 25.945837999999998
#
# number of rings (size 3 to 8) (size 9 to 14) (size 15 to 20)
#    0.000    1.000    0.000    5.500   14.000    1.333 
#    0.000    0.000    0.000    0.000    0.000    0.000 
#    0.000    0.000    0.000    0.000    0.000    0.000 
#
# Total GULP energy -67374.466312 kJ/mol
# GULP energy per Si atom -5614.538859 kJ/mol
# Density = 2.588678 g / cm^3
# Si number density = 25.945838 Si / 1000 Ang^3
#
#
#
# Elastic Constant Matrix: (Units=GPa)
#
#
# Indices 1 2 3 4 5 6 
#
# 1 60.8535 16.3253 37.8570 -2.0959 20.5913 9.4837
# 2 16.3253 132.1186 53.1608 3.6613 26.0687 12.7659
# 3 37.8570 53.1608 120.7473 -18.7419 20.3595 -5.8314
# 4 -2.0959 3.6613 -18.7419 51.3682 9.1252 13.9211
# 5 20.5913 26.0687 20.3595 9.1252 32.7990 0.3927
# 6 9.4837 12.7659 -5.8314 13.9211 0.3927 59.0011
#
#
#
# Elastic Compliance Matrix: (Units=1/GPa)
#
#
# Indices 1 2 3 4 5 6 
#
# 1 0.026037 0.003032 -0.006805 0.002705 -0.015212 -0.006051
# 2 0.003032 0.010870 -0.004629 -0.000118 -0.007599 -0.003219
# 3 -0.006805 -0.004629 0.013606 0.004707 -0.001832 0.002342
# 4 0.002705 -0.000118 0.004707 0.024880 -0.011380 -0.005739
# 5 -0.015212 -0.007599 -0.001832 -0.011380 0.050306 0.006258
# 6 -0.006051 -0.003219 0.002342 -0.005739 0.006258 0.020162
#
#
# Mechanical properties :
#
#
# Convention : Reuss Voigt Hill
#
# Bulk Modulus (GPa) = 29.66616 58.71175 44.18895
# Shear Modulus (GPa) = 28.75181 42.39207 35.57194
#
# Velocity S-wave (km/s) = 3.33250 4.04650 3.70673
# Velocity P-wave (km/s) = 5.12504 6.67157 5.94878
#
# Compressibility (1/GPa) = 0.03370844
#
# Stress axis : x y z
#
# Youngs Moduli (GPa) = 38.40762 91.99241 73.49684
#
# Poissons Ratio (x) = -0.27894 0.50018
# Poissons Ratio (y) = -0.11646 0.34022
# Poissons Ratio (z) = 0.26138 0.42584
#
# Static dielectric constant tensor:
#      x y z
#    x 2.009660 0.047060 -0.018760 
#    y 0.047060 2.014190 0.007670 
#    z -0.018760 0.007670 2.020590 
# 
# From -- ./inp_files/360211.got.cif
#   From: 2010.05.17/outbox.cif.g08.bks.cpg/sg2_181_cif.got.tgz:360211.got - 2010.06.03 11:33:40.
