data_PCOD9052891
_publ_section_title
;
Structure prediction by ZEFSAII (Michael W. Deem and Ramdas Pophale) SiO2 
 PCOD9052891
Probable space group: P -1
;
_chemical_formula_sum "Si O2"
_cell_formula_units_Z 16
_cell_length_a 12.535770
_cell_length_b 11.184904
_cell_length_c 16.176309
_cell_angle_alpha 118.850266
_cell_angle_beta 154.878726
_cell_angle_gamma 78.860356
_cell_volume 637.041377
_symmetry_space_group_name_H-M "P -1"
_symmetry_group_IT_number 2
_symmetry_cell_setting 'triclinic'
loop_
_space_group_symop_operation_xyz
x,y,z
-x,-y,-z
loop_
_atom_site_type_symbol
_atom_site_label
_atom_site_fract_x
_atom_site_fract_y
_atom_site_fract_z
Si Si1 0.699161 0.437098 0.154093
Si Si2 0.165880 0.754120 0.700023
Si Si3 0.189921 0.198260 0.168608
Si Si4 0.766673 0.729363 0.596984
Si Si5 0.067453 0.567005 0.284997
Si Si6 0.766960 0.643342 0.975343
Si Si7 0.251702 0.040466 0.944946
Si Si8 0.182268 0.704271 0.133528
O O1 0.634700 0.262522 0.094407
O O2 0.854327 0.560616 0.385448
O O3 0.922439 0.483131 0.245146
O O4 0.500000 0.500000 0.000000
O O5 0.061544 0.869929 0.691323
O O6 0.383129 0.844150 0.798630
O O7 0.293800 0.317124 0.364437
O O8 0.531477 0.293017 0.390684
O O9 0.902279 0.173394 0.910182
O O10 0.000000 0.000000 0.000000
O O11 0.548038 0.782996 0.435390
O O12 0.601465 0.547075 0.367962
O O13 0.140567 0.916948 0.906924
O O14 0.916015 0.654944 0.172602
O O15 0.936233 0.418357 0.072247
O O16 0.809333 0.820141 0.052812
O O17 0.977474 0.630273 0.051136
#
# Coordination Sequence:
#
# PCOD9052891 Si02
#       8
#     2   2   2   2   2   2   2   2
#     4  11  26  49  81 106 141 195 249 306 367 425
#     4  10  27  51  70 109 144 184 255 310 362 424
#     4  12  26  40  66 110 149 187 240 296 355 447
#     4  11  25  45  71 105 151 191 238 295 365 438
#     4  11  24  45  73 109 141 194 247 294 365 436
#     4  11  23  46  76 102 149 198 230 294 369 433
#     4  11  26  45  78 106 142 194 242 303 367 431
#     4  11  24  44  70 102 150 192 239 287 359 440
#
# _framework density 25.116109999999999
#
# number of rings (size 3 to 8) (size 9 to 14) (size 15 to 20)
#    0.000    1.000    2.500    2.625   14.000    1.000 
#    0.000    5.625    0.000    0.000    0.000    0.000 
#    0.000    0.000    0.000    0.000    0.000    0.000 
#
# Total GULP energy -89183.858777 kJ/mol
# GULP energy per Si atom -5573.991174 kJ/mol
# Density = 2.505894 g / cm^3
# Si number density = 25.116110 Si / 1000 Ang^3
#
#
#
# Elastic Constant Matrix: (Units=GPa)
#
#
# Indices 1 2 3 4 5 6 
#
# 1 147.8319 31.7905 13.4112 3.8454 6.6878 1.0777
# 2 31.7905 154.7151 56.4451 -11.9677 3.1409 -0.8165
# 3 13.4112 56.4451 43.0644 -8.0928 -10.9120 -3.6622
# 4 3.8454 -11.9677 -8.0928 49.5557 2.7220 -11.8763
# 5 6.6878 3.1409 -10.9120 2.7220 33.2785 7.2915
# 6 1.0777 -0.8165 -3.6622 -11.8763 7.2915 42.0625
#
#
#
# Elastic Compliance Matrix: (Units=1/GPa)
#
#
# Indices 1 2 3 4 5 6 
#
# 1 0.007226 -0.000887 -0.001767 -0.001047 -0.001787 -0.000342
# 2 -0.000887 0.014254 -0.020275 0.000654 -0.007888 0.000086
# 3 -0.001767 -0.020275 0.056310 0.003866 0.019937 0.002190
# 4 -0.001047 0.000654 0.003866 0.022884 -0.002031 0.007190
# 5 -0.001787 -0.007888 0.019937 -0.002031 0.039111 -0.005725
# 6 -0.000342 0.000086 0.002190 0.007190 -0.005725 0.026998
#
#
# Mechanical properties :
#
#
# Convention : Reuss Voigt Hill
#
# Bulk Modulus (GPa) = 31.31529 60.98944 46.15236
# Shear Modulus (GPa) = 22.39298 41.24366 31.81832
#
# Velocity S-wave (km/s) = 2.98917 4.05670 3.56314
# Velocity P-wave (km/s) = 4.94053 6.80281 5.94504
#
# Compressibility (1/GPa) = 0.03193329
#
# Stress axis : x y z
#
# Youngs Moduli (GPa) = 138.38924 70.15673 17.75868
#
# Poissons Ratio (x) = 0.06221 0.03138
# Poissons Ratio (y) = 0.12271 0.36006
# Poissons Ratio (z) = 0.24452 1.42242
#
# Static dielectric constant tensor:
#      x y z
#    x 2.167780 0.016130 0.023520 
#    y 0.016130 2.196870 0.049060 
#    z 0.023520 0.049060 2.027230 
# 
# From -- ./inp_files/519880.got.cif
#   From: 2010.05.17/outbox.cif.g08.bks.cpg/sg2_260_cif.got.tgz:519880.got - 2010.06.03 11:33:40.
