data_PCOD9052618
_publ_section_title
;
Structure prediction by ZEFSAII (Michael W. Deem and Ramdas Pophale) SiO2 
 PCOD9052618
Probable space group: P -1
;
_chemical_formula_sum "Si O2"
_cell_formula_units_Z 14
_cell_length_a 9.743459
_cell_length_b 5.248400
_cell_length_c 13.119673
_cell_angle_alpha 120.745637
_cell_angle_beta 101.158160
_cell_angle_gamma 78.083446
_cell_volume 561.088061
_symmetry_space_group_name_H-M "P -1"
_symmetry_group_IT_number 2
_symmetry_cell_setting 'triclinic'
loop_
_space_group_symop_operation_xyz
x,y,z
-x,-y,-z
loop_
_atom_site_type_symbol
_atom_site_label
_atom_site_fract_x
_atom_site_fract_y
_atom_site_fract_z
Si Si1 0.409293 0.178180 0.135494
Si Si2 0.946642 0.671578 0.426968
Si Si3 0.950740 0.193557 0.889498
Si Si4 0.182889 0.590744 0.297103
Si Si5 0.648754 0.982484 0.458495
Si Si6 0.790421 0.151069 0.066205
Si Si7 0.582802 0.703713 0.195934
O O1 0.291848 0.307458 0.226515
O O2 0.494503 0.457854 0.184215
O O3 0.492953 0.876655 0.130190
O O4 0.328909 0.070010 0.003509
O O5 0.000000 0.500000 0.500000
O O6 0.038201 0.526680 0.315934
O O7 0.776725 0.704855 0.417685
O O8 0.000000 0.000000 0.500000
O O9 0.864587 0.241435 0.781763
O O10 0.862187 0.112158 0.957670
O O11 0.095769 0.970785 0.858574
O O12 0.000000 0.500000 0.000000
O O13 0.270488 0.770071 0.425145
O O14 0.500000 0.000000 0.500000
O O15 0.608607 0.970458 0.331679
O O16 0.723470 0.492386 0.140157
#
# Coordination Sequence:
#
# PCOD9052618 Si02
#       7
#     2   2   2   2   2   2   2
#     4  12  26  47  77 111 155 206 255 328 392 465
#     4  10  26  47  76 109 151 204 257 318 381 465
#     4  11  25  48  79 113 151 209 261 332 386 473
#     4  11  25  49  82 114 160 206 265 325 402 466
#     4  11  26  49  77 115 157 204 261 323 396 469
#     4  11  27  46  77 113 156 202 272 321 398 460
#     4  12  29  46  76 113 158 207 256 324 392 480
#
# _framework density 24.951519999999999
#
# number of rings (size 3 to 8) (size 9 to 14) (size 15 to 20)
#    0.000    0.857    2.857    1.714    6.000    6.286 
#    0.000    0.000    0.000    0.000    0.000    0.000 
#    0.000    0.000    0.000    0.000    0.000    0.000 
#
# Total GULP energy -78256.019785 kJ/mol
# GULP energy per Si atom -5589.715699 kJ/mol
# Density = 2.489473 g / cm^3
# Si number density = 24.951520 Si / 1000 Ang^3
#
#
#
# Elastic Constant Matrix: (Units=GPa)
#
#
# Indices 1 2 3 4 5 6 
#
# 1 148.6549 55.7218 29.8383 -0.1836 -13.0339 -32.7000
# 2 55.7218 116.3198 10.6213 8.1196 -1.2686 -14.6669
# 3 29.8383 10.6213 108.5355 26.4847 17.9221 -1.1094
# 4 -0.1836 8.1196 26.4847 25.1598 4.8001 -5.2064
# 5 -13.0339 -1.2686 17.9221 4.8001 57.1308 15.0015
# 6 -32.7000 -14.6669 -1.1094 -5.2064 15.0015 47.9431
#
#
#
# Elastic Compliance Matrix: (Units=1/GPa)
#
#
# Indices 1 2 3 4 5 6 
#
# 1 0.010817 -0.004478 -0.004495 0.007247 0.001539 0.006210
# 2 -0.004478 0.010949 0.001518 -0.004991 -0.000850 0.000055
# 3 -0.004495 0.001518 0.014751 -0.015978 -0.003516 -0.002895
# 4 0.007247 -0.004991 -0.015978 0.060513 -0.001149 0.009977
# 5 0.001539 -0.000850 -0.003516 -0.001149 0.020573 -0.005854
# 6 0.006210 0.000055 -0.002895 0.009977 -0.005854 0.027958
#
#
# Mechanical properties :
#
#
# Convention : Reuss Voigt Hill
#
# Bulk Modulus (GPa) = 46.27630 62.87479 54.57555
# Shear Modulus (GPa) = 29.81992 44.53532 37.17762
#
# Velocity S-wave (km/s) = 3.46079 4.22936 3.86423
# Velocity P-wave (km/s) = 5.87845 7.00739 6.46760
#
# Compressibility (1/GPa) = 0.02160933
#
# Stress axis : x y z
#
# Youngs Moduli (GPa) = 92.44333 91.32965 67.79296
#
# Poissons Ratio (x) = 0.40894 0.30471
# Poissons Ratio (y) = 0.41393 -0.10293
# Poissons Ratio (z) = 0.41551 -0.13866
#
# Static dielectric constant tensor:
#      x y z
#    x 2.102370 -0.005390 0.050900 
#    y -0.005390 2.067150 0.113300 
#    z 0.050900 0.113300 2.056290 
# 
# From -- ./inp_files/488761.got.cif
#   From: 2010.05.17/outbox.cif.g08.bks.cpg/sg2_245_cif.got.tgz:488761.got - 2010.06.03 11:33:40.
