data_PCOD9052156
_publ_section_title
;
Structure prediction by ZEFSAII (Michael W. Deem and Ramdas Pophale) SiO2 
 PCOD9052156
Probable space group: P -1
;
_chemical_formula_sum "Si O2"
_cell_formula_units_Z 16
_cell_length_a 11.660255
_cell_length_b 8.586632
_cell_length_c 14.052495
_cell_angle_alpha 128.285441
_cell_angle_beta 143.818027
_cell_angle_gamma 54.853699
_cell_volume 643.241556
_symmetry_space_group_name_H-M "P -1"
_symmetry_group_IT_number 2
_symmetry_cell_setting 'triclinic'
loop_
_space_group_symop_operation_xyz
x,y,z
-x,-y,-z
loop_
_atom_site_type_symbol
_atom_site_label
_atom_site_fract_x
_atom_site_fract_y
_atom_site_fract_z
Si Si1 0.393733 0.608269 0.378744
Si Si2 0.828524 0.557609 0.330579
Si Si3 0.950521 0.062362 0.756489
Si Si4 0.759427 0.597378 0.084522
Si Si5 0.643848 0.155329 0.055367
Si Si6 0.566256 0.187270 0.800530
Si Si7 0.269579 0.184443 0.355777
Si Si8 0.082000 0.369797 0.106368
O O1 0.500000 0.500000 0.500000
O O2 0.237186 0.809171 0.373041
O O3 0.567567 0.675097 0.457774
O O4 0.260997 0.443720 0.197755
O O5 0.862855 0.605960 0.260848
O O6 0.665957 0.740181 0.325355
O O7 0.000000 0.500000 0.500000
O O8 0.711920 0.371216 0.176259
O O9 0.876947 0.870355 0.683641
O O10 0.988612 0.206741 0.924384
O O11 0.164356 0.983573 0.824373
O O12 0.574972 0.780495 0.023176
O O13 0.928356 0.567797 0.107669
O O14 0.673150 0.384531 0.939013
O O15 0.621931 0.090963 0.906029
O O16 0.623543 0.027015 0.695782
O O17 0.152032 0.281693 0.222282
#
# Coordination Sequence:
#
# PCOD9052156 Si02
#       8
#     2   2   2   2   2   2   2   2
#     4  10  26  42  53  88 136 167 187 255 322 364
#     4   9  18  30  51  85 130 159 186 244 322 352
#     4  12  21  38  69  94 112 162 220 250 292 368
#     4   9  18  36  57  87 124 157 197 251 308 352
#     4   9  19  33  55  92 117 151 201 258 294 348
#     4   9  16  32  53  85 122 150 191 258 297 337
#     4  11  20  36  62  96 121 150 208 261 298 347
#     4  11  21  40  65  89 125 164 203 246 311 369
#
# _framework density 24.874015
#
# number of rings (size 3 to 8) (size 9 to 14) (size 15 to 20)
#    0.000    2.000    2.500    4.125    1.750    0.000 
#    4.500    0.625    0.000    3.000    6.500    0.000 
#    0.000    0.000    0.000    0.000    0.000    0.000 
#
# Total GULP energy -89390.308361 kJ/mol
# GULP energy per Si atom -5586.894273 kJ/mol
# Density = 2.481740 g / cm^3
# Si number density = 24.874015 Si / 1000 Ang^3
#
#
#
# Elastic Constant Matrix: (Units=GPa)
#
#
# Indices 1 2 3 4 5 6 
#
# 1 82.8039 22.8515 58.3004 2.3146 23.6303 -5.8576
# 2 22.8515 126.4672 24.5315 -37.8002 3.2237 -3.7240
# 3 58.3004 24.5315 117.3342 -12.6409 7.6897 7.4728
# 4 2.3146 -37.8002 -12.6409 55.1588 4.0180 -0.1684
# 5 23.6303 3.2237 7.6897 4.0180 36.1676 4.6555
# 6 -5.8576 -3.7240 7.4728 -0.1684 4.6555 43.9531
#
#
#
# Elastic Compliance Matrix: (Units=1/GPa)
#
#
# Indices 1 2 3 4 5 6 
#
# 1 0.026770 -0.003364 -0.012634 -0.005223 -0.014823 0.006981
# 2 -0.003364 0.010729 0.000191 0.007516 0.000312 0.000424
# 3 -0.012634 0.000191 0.015124 0.003732 0.005222 -0.004778
# 4 -0.005223 0.007516 0.003732 0.024404 -0.000694 -0.000527
# 5 -0.014823 0.000312 0.005222 -0.000694 0.037145 -0.006774
# 6 0.006981 0.000424 -0.004778 -0.000527 -0.006774 0.025246
#
#
# Mechanical properties :
#
#
# Convention : Reuss Voigt Hill
#
# Bulk Modulus (GPa) = 47.59884 59.77467 53.68676
# Shear Modulus (GPa) = 28.08425 41.78403 34.93414
#
# Velocity S-wave (km/s) = 3.36379 4.10302 3.75166
# Velocity P-wave (km/s) = 5.85357 6.82125 6.35585
#
# Compressibility (1/GPa) = 0.02100891
#
# Stress axis : x y z
#
# Youngs Moduli (GPa) = 37.35467 93.20411 66.11825
#
# Poissons Ratio (x) = 0.31356 0.83534
# Poissons Ratio (y) = 0.12567 -0.01261
# Poissons Ratio (z) = 0.47194 -0.01778
#
# Static dielectric constant tensor:
#      x y z
#    x 1.972250 0.018110 0.044170 
#    y 0.018110 2.037620 -0.057490 
#    z 0.044170 -0.057490 1.994420 
# 
# From -- ./inp_files/572945.got.cif
#   From: 2010.05.17/outbox.cif.g08.bks.cpg/sg2_287_cif.got.tgz:572945.got - 2010.06.03 11:33:40.
