data_PCOD9052182
_publ_section_title
;
Structure prediction by ZEFSAII (Michael W. Deem and Ramdas Pophale) SiO2 
 PCOD9052182
Probable space group: P -1
;
_chemical_formula_sum "Si O2"
_cell_formula_units_Z 15
_cell_length_a 14.656014
_cell_length_b 14.366883
_cell_length_c 11.921089
_cell_angle_alpha 52.806059
_cell_angle_beta 52.224702
_cell_angle_gamma 19.911251
_cell_volume 671.879536
_symmetry_space_group_name_H-M "P -1"
_symmetry_group_IT_number 2
_symmetry_cell_setting 'triclinic'
loop_
_space_group_symop_operation_xyz
x,y,z
-x,-y,-z
loop_
_atom_site_type_symbol
_atom_site_label
_atom_site_fract_x
_atom_site_fract_y
_atom_site_fract_z
Si Si1 0.951277 0.736136 0.565736
Si Si2 0.119985 0.646613 0.751436
Si Si3 0.054352 0.394629 0.655808
Si Si4 0.442455 0.921827 0.053965
Si Si5 0.506047 0.821995 0.817570
Si Si6 0.500000 0.500000 0.500000
Si Si7 0.510519 0.315039 0.408481
Si Si8 0.711571 0.212267 0.093380
O O1 0.996223 0.732429 0.661415
O O2 0.199453 0.566358 0.433307
O O3 0.988426 0.563888 0.662227
O O4 0.671577 0.047162 0.507639
O O5 0.367365 0.337666 0.827386
O O6 0.246306 0.659838 0.635792
O O7 0.864945 0.846379 0.875830
O O8 0.814550 0.522677 0.763910
O O9 0.000000 0.500000 0.500000
O O10 0.347240 0.071449 0.691058
O O11 0.512616 0.847232 0.924846
O O12 0.500000 0.000000 0.000000
O O13 0.341764 0.857519 0.883740
O O14 0.504224 0.400071 0.463797
O O15 0.655312 0.240489 0.247085
O O16 0.500000 0.500000 0.000000
O O17 0.000000 0.000000 0.000000
#
# Coordination Sequence:
#
# PCOD9052182 Si02
#       8
#     2   2   2   2   2   1   2   2
#     4  11  22  42  67 100 133 177 217 292 347 406
#     4  11  24  42  67  97 138 178 235 285 355 408
#     4  12  23  42  71  98 136 172 227 284 348 414
#     4  12  25  43  68  99 143 184 230 287 350 430
#     4  12  26  43  68 103 134 184 234 276 355 421
#     4  10  26  42  72 100 134 184 240 304 354 404
#     4  11  24  43  67  99 138 172 239 283 350 410
#     4  12  27  46  68  96 138 186 231 282 344 415
#
# _framework density 22.325430000000001
#
# number of rings (size 3 to 8) (size 9 to 14) (size 15 to 20)
#    0.000    0.533    0.000    8.800    3.733    4.800 
#    0.000    0.000    0.000    0.000    0.000    0.000 
#    0.000    0.000    0.000    0.000    0.000    0.000 
#
# Total GULP energy -83644.696165 kJ/mol
# GULP energy per Si atom -5576.313078 kJ/mol
# Density = 2.227462 g / cm^3
# Si number density = 22.325430 Si / 1000 Ang^3
#
#
#
# Elastic Constant Matrix: (Units=GPa)
#
#
# Indices 1 2 3 4 5 6 
#
# 1 82.2157 12.8738 27.3422 13.5017 -9.2596 3.3534
# 2 12.8738 94.0877 13.2914 4.6552 -8.4574 -8.0953
# 3 27.3422 13.2914 79.4121 9.5875 3.4460 -2.5427
# 4 13.5017 4.6552 9.5875 51.7877 -7.9566 -10.7829
# 5 -9.2596 -8.4574 3.4460 -7.9566 34.5018 10.7405
# 6 3.3534 -8.0953 -2.5427 -10.7829 10.7405 23.2062
#
#
#
# Elastic Compliance Matrix: (Units=1/GPa)
#
#
# Indices 1 2 3 4 5 6 
#
# 1 0.015725 -0.001361 -0.005248 -0.003714 0.005989 -0.007819
# 2 -0.001361 0.011445 -0.001474 0.000587 0.001617 0.003552
# 3 -0.005248 -0.001474 0.015115 -0.001293 -0.004653 0.003453
# 4 -0.003714 0.000587 -0.001293 0.022873 0.001234 0.010657
# 5 0.005989 0.001617 -0.004653 0.001234 0.037166 -0.017439
# 6 -0.007819 0.003552 0.003453 0.010657 -0.017439 0.058862
#
#
# Mechanical properties :
#
#
# Convention : Reuss Voigt Hill
#
# Bulk Modulus (GPa) = 38.28834 40.30336 39.29585
# Shear Modulus (GPa) = 26.87327 35.37967 31.12647
#
# Velocity S-wave (km/s) = 3.47321 3.98518 3.73797
# Velocity P-wave (km/s) = 5.76815 6.26637 6.02242
#
# Compressibility (1/GPa) = 0.02611761
#
# Stress axis : x y z
#
# Youngs Moduli (GPa) = 63.59325 87.37610 66.15981
#
# Poissons Ratio (x) = 0.11891 0.34723
# Poissons Ratio (y) = 0.08655 0.09754
# Poissons Ratio (z) = 0.33376 0.12882
#
# Static dielectric constant tensor:
#      x y z
#    x 1.418870 -0.287230 -0.110500 
#    y -0.287230 1.589600 -0.035110 
#    z -0.110500 -0.035110 1.816750 
# 
# From -- ./inp_files/454623.got.cif
#   From: 2010.05.17/outbox.cif.g08.bks.cpg/sg2_228_cif.got.tgz:454623.got - 2010.06.03 11:33:40.
