data_PCOD9052192
_publ_section_title
;
Structure prediction by ZEFSAII (Michael W. Deem and Ramdas Pophale) SiO2 
 PCOD9052192
Probable space group: P -1
;
_chemical_formula_sum "Si O2"
_cell_formula_units_Z 15
_cell_length_a 9.024558
_cell_length_b 9.620388
_cell_length_c 14.233033
_cell_angle_alpha 130.006257
_cell_angle_beta 70.900315
_cell_angle_gamma 135.067611
_cell_volume 649.549011
_symmetry_space_group_name_H-M "P -1"
_symmetry_group_IT_number 2
_symmetry_cell_setting 'triclinic'
loop_
_space_group_symop_operation_xyz
x,y,z
-x,-y,-z
loop_
_atom_site_type_symbol
_atom_site_label
_atom_site_fract_x
_atom_site_fract_y
_atom_site_fract_z
Si Si1 0.608152 0.640382 0.940048
Si Si2 0.856793 0.783563 0.198692
Si Si3 0.908523 0.779982 0.782052
Si Si4 0.867882 0.035493 0.481481
Si Si5 0.576301 0.433538 0.544023
Si Si6 0.511335 0.961326 0.089793
Si Si7 0.843494 0.396351 0.343323
Si Si8 0.000000 0.500000 0.000000
O O1 0.396987 0.443929 0.833830
O O2 0.801754 0.694781 0.870436
O O3 0.500000 0.500000 0.000000
O O4 0.648042 0.885877 0.039312
O O5 0.907033 0.986400 0.348221
O O6 0.959438 0.666502 0.132682
O O7 0.937240 0.925811 0.143240
O O8 0.715864 0.645709 0.687011
O O9 0.043042 0.704417 0.705575
O O10 0.625172 0.820581 0.473479
O O11 0.000000 0.000000 0.500000
O O12 0.970408 0.313417 0.596454
O O13 0.500000 0.500000 0.500000
O O14 0.725784 0.393296 0.454473
O O15 0.264459 0.725625 0.068155
O O16 0.651692 0.218939 0.229714
O O17 0.500000 0.000000 0.000000
#
# Coordination Sequence:
#
# PCOD9052192 Si02
#       8
#     2   2   2   2   2   2   2   1
#     4  11  26  48  73 106 152 208 259 314 388 467
#     4  11  24  46  75 107 147 201 258 316 389 451
#     4  12  26  50  77 110 162 200 258 324 390 462
#     4  12  26  44  75 111 155 197 255 318 389 458
#     4  12  26  47  78 113 155 206 257 319 385 468
#     4  11  27  46  75 110 153 198 261 319 385 459
#     4  12  29  45  77 117 155 200 258 316 403 458
#     4  10  26  42  74 108 144 194 258 312 374 454
#
# _framework density 23.092946000000001
#
# number of rings (size 3 to 8) (size 9 to 14) (size 15 to 20)
#    0.000    0.533    4.000    2.000    9.333    6.933 
#    0.000    0.000    0.000    0.000    0.000    0.000 
#    0.000    0.000    0.000    0.000    0.000    0.000 
#
# Total GULP energy -83562.782807 kJ/mol
# GULP energy per Si atom -5570.852187 kJ/mol
# Density = 2.304039 g / cm^3
# Si number density = 23.092946 Si / 1000 Ang^3
#
#
#
# Elastic Constant Matrix: (Units=GPa)
#
#
# Indices 1 2 3 4 5 6 
#
# 1 87.5520 29.7943 26.0075 -9.8868 -15.8513 19.1243
# 2 29.7943 122.7963 46.6621 -4.2604 -6.6025 26.9471
# 3 26.0075 46.6621 113.4351 5.9689 4.5849 3.2196
# 4 -9.8868 -4.2604 5.9689 50.5329 12.0578 5.2127
# 5 -15.8513 -6.6025 4.5849 12.0578 42.7384 -4.7934
# 6 19.1243 26.9471 3.2196 5.2127 -4.7934 42.7132
#
#
#
# Elastic Compliance Matrix: (Units=1/GPa)
#
#
# Indices 1 2 3 4 5 6 
#
# 1 0.015053 -0.000787 -0.003287 0.002831 0.004359 -0.005852
# 2 -0.000787 0.011664 -0.004553 0.001904 0.000697 -0.006817
# 3 -0.003287 -0.004553 0.011547 -0.002243 -0.002135 0.003508
# 4 0.002831 0.001904 -0.002243 0.022652 -0.005443 -0.005675
# 5 0.004359 0.000697 -0.002135 -0.005443 0.027052 0.001470
# 6 -0.005852 -0.006817 0.003508 -0.005675 0.001470 0.030926
#
#
# Mechanical properties :
#
#
# Convention : Reuss Voigt Hill
#
# Bulk Modulus (GPa) = 47.59219 58.74568 53.16894
# Shear Modulus (GPa) = 34.92845 41.95156 38.44000
#
# Velocity S-wave (km/s) = 3.89333 4.26683 4.08435
# Velocity P-wave (km/s) = 6.39252 7.05468 6.73175
#
# Compressibility (1/GPa) = 0.02101185
#
# Stress axis : x y z
#
# Youngs Moduli (GPa) = 66.43236 85.73410 86.60536
#
# Poissons Ratio (x) = 0.06744 0.28464
# Poissons Ratio (y) = 0.05226 0.39428
# Poissons Ratio (z) = 0.21834 0.39031
#
# Static dielectric constant tensor:
#      x y z
#    x 1.891540 0.067790 -0.109700 
#    y 0.067790 2.343960 -0.928720 
#    z -0.109700 -0.928720 3.432760 
# 
# From -- ./inp_files/493843.got.cif
#   From: 2010.05.17/outbox.cif.g08.bks.cpg/sg2_247_cif.got.tgz:493843.got - 2010.06.03 11:33:40.
