data_PCOD9052293
_publ_section_title
;
Structure prediction by ZEFSAII (Michael W. Deem and Ramdas Pophale) SiO2 
 PCOD9052293
Probable space group: P -1
;
_chemical_formula_sum "Si O2"
_cell_formula_units_Z 13
_cell_length_a 8.741163
_cell_length_b 11.645047
_cell_length_c 8.437634
_cell_angle_alpha 61.007839
_cell_angle_beta 126.329879
_cell_angle_gamma 88.537246
_cell_volume 542.377250
_symmetry_space_group_name_H-M "P -1"
_symmetry_group_IT_number 2
_symmetry_cell_setting 'triclinic'
loop_
_space_group_symop_operation_xyz
x,y,z
-x,-y,-z
loop_
_atom_site_type_symbol
_atom_site_label
_atom_site_fract_x
_atom_site_fract_y
_atom_site_fract_z
Si Si1 0.110073 0.556829 0.397816
Si Si2 0.500000 0.500000 0.500000
Si Si3 0.412881 0.897674 0.429364
Si Si4 0.804977 0.255512 0.090476
Si Si5 0.163414 0.760043 0.528300
Si Si6 0.714508 0.999428 0.073580
Si Si7 0.864328 0.664846 0.869706
O O1 0.311768 0.451507 0.488984
O O2 0.218126 0.645657 0.496571
O O3 0.000000 0.500000 0.500000
O O4 0.923132 0.655500 0.097764
O O5 0.675141 0.378312 0.801305
O O6 0.243086 0.877887 0.447831
O O7 0.313530 0.957026 0.157936
O O8 0.613501 0.737664 0.644507
O O9 0.500000 0.000000 0.500000
O O10 0.746271 0.305383 0.202109
O O11 0.044354 0.233117 0.226583
O O12 0.769751 0.114329 0.127044
O O13 0.909965 0.841524 0.323562
O O14 0.500000 0.000000 0.000000
O O15 0.000000 0.500000 0.000000
#
# Coordination Sequence:
#
# PCOD9052293 Si02
#       7
#     2   1   2   2   2   2   2
#     4  11  26  45  71 103 150 186 251 297 367 438
#     4  10  26  44  72 100 146 194 236 300 366 436
#     4  12  25  44  72 104 144 189 245 305 368 437
#     4  11  25  46  71 102 149 183 249 294 375 434
#     4  12  26  45  72 108 142 191 247 304 367 445
#     4  12  26  45  75 103 145 191 243 301 371 439
#     4  11  25  44  70 103 143 193 240 298 370 438
#
# _framework density 23.968556
#
# number of rings (size 3 to 8) (size 9 to 14) (size 15 to 20)
#    0.000    0.615    0.000    7.385   12.923    0.615 
#    0.000    0.000    0.000    0.000    0.000    0.000 
#    0.000    0.000    0.000    0.000    0.000    0.000 
#
# Total GULP energy -72554.619660 kJ/mol
# GULP energy per Si atom -5581.124589 kJ/mol
# Density = 2.391400 g / cm^3
# Si number density = 23.968556 Si / 1000 Ang^3
#
#
#
# Elastic Constant Matrix: (Units=GPa)
#
#
# Indices 1 2 3 4 5 6 
#
# 1 118.3464 -5.1669 13.7228 1.3283 -3.5932 33.3182
# 2 -5.1669 106.1816 -6.3194 10.5901 -3.9178 -2.0295
# 3 13.7228 -6.3194 76.0784 12.8669 -7.3471 -19.1318
# 4 1.3283 10.5901 12.8669 29.9847 -8.8142 -3.7433
# 5 -3.5932 -3.9178 -7.3471 -8.8142 56.5236 3.1839
# 6 33.3182 -2.0295 -19.1318 -3.7433 3.1839 43.2930
#
#
#
# Elastic Compliance Matrix: (Units=1/GPa)
#
#
# Indices 1 2 3 4 5 6 
#
# 1 0.012426 0.000055 -0.005219 0.000436 0.000853 -0.011892
# 2 0.000055 0.009957 0.001739 -0.004093 0.000235 0.000822
# 3 -0.005219 0.001739 0.018314 -0.006655 0.000479 0.011580
# 4 0.000436 -0.004093 -0.006655 0.039043 0.004993 -0.000460
# 5 0.000853 0.000235 0.000479 0.004993 0.018681 -0.001376
# 6 -0.011892 0.000822 0.011580 -0.000460 -0.001376 0.037468
#
#
# Mechanical properties :
#
#
# Convention : Reuss Voigt Hill
#
# Bulk Modulus (GPa) = 29.54484 33.89771 31.72127
# Shear Modulus (GPa) = 32.46311 45.85159 39.15735
#
# Velocity S-wave (km/s) = 3.68422 4.37852 4.04629
# Velocity P-wave (km/s) = 5.51826 6.30358 5.92395
#
# Compressibility (1/GPa) = 0.03384686
#
# Stress axis : x y z
#
# Youngs Moduli (GPa) = 80.47487 100.43572 54.60264
#
# Poissons Ratio (x) = -0.00551 0.28495
# Poissons Ratio (y) = -0.00441 -0.09494
# Poissons Ratio (z) = 0.41997 -0.17464
#
# Static dielectric constant tensor:
#      x y z
#    x 1.941130 -0.038230 -0.010090 
#    y -0.038230 2.045320 0.048210 
#    z -0.010090 0.048210 1.858040 
# 
# From -- ./inp_files/156419.got.cif
#   From: 2010.05.17/outbox.cif.g08.bks.cpg/sg2_79_cif.got.tgz:156419.got - 2010.06.03 11:33:40.
