data_PCOD9052102
_publ_section_title
;
Structure prediction by ZEFSAII (Michael W. Deem and Ramdas Pophale) SiO2 
 PCOD9052102
Probable space group: P -1
;
_chemical_formula_sum "Si O2"
_cell_formula_units_Z 16
_cell_length_a 12.073336
_cell_length_b 9.383289
_cell_length_c 8.694760
_cell_angle_alpha 47.350605
_cell_angle_beta 118.655360
_cell_angle_gamma 96.432802
_cell_volume 600.184210
_symmetry_space_group_name_H-M "P -1"
_symmetry_group_IT_number 2
_symmetry_cell_setting 'triclinic'
loop_
_space_group_symop_operation_xyz
x,y,z
-x,-y,-z
loop_
_atom_site_type_symbol
_atom_site_label
_atom_site_fract_x
_atom_site_fract_y
_atom_site_fract_z
Si Si1 0.417060 0.624530 0.497439
Si Si2 0.582623 0.217636 0.305114
Si Si3 0.232763 0.381328 0.468862
Si Si4 0.205297 0.179200 0.151865
Si Si5 0.828762 0.360256 0.274816
Si Si6 0.050090 0.757943 0.886394
Si Si7 0.089994 0.150792 0.766992
Si Si8 0.509505 0.955453 0.217068
O O1 0.500000 0.500000 0.500000
O O2 0.478171 0.629631 0.704524
O O3 0.300153 0.527003 0.499535
O O4 0.397679 0.854869 0.259469
O O5 0.702814 0.287613 0.270751
O O6 0.656250 0.994528 0.592828
O O7 0.501099 0.158152 0.158071
O O8 0.175633 0.254796 0.642735
O O9 0.345328 0.225180 0.548041
O O10 0.120263 0.539553 0.174769
O O11 0.105694 0.181619 0.224217
O O12 0.217090 0.399496 0.965804
O O13 0.130291 0.137587 0.980833
O O14 0.911663 0.254928 0.256306
O O15 0.935336 0.292389 0.533834
O O16 0.102356 0.927970 0.873976
O O17 0.500000 0.000000 0.000000
#
# Coordination Sequence:
#
# PCOD9052102 Si02
#       8
#     2   2   2   2   2   2   2   2
#     4  10  25  51  75 101 140 192 253 318 370 427
#     4  12  26  48  76 107 151 195 246 313 379 436
#     4  11  25  45  76 102 150 198 245 304 377 433
#     4  12  26  42  70 111 156 199 237 289 366 452
#     4  12  26  42  70 112 156 195 243 287 360 459
#     4  12  25  42  70 105 158 200 235 291 361 448
#     4  12  25  42  70 108 154 198 241 287 357 454
#     4  11  27  50  76 106 138 195 262 321 372 429
#
# _framework density 26.658483
#
# number of rings (size 3 to 8) (size 9 to 14) (size 15 to 20)
#    0.000    0.500    2.500    4.875    8.750    0.000 
#    2.250    2.500    0.000    0.000    0.000    0.000 
#    0.000    0.000    0.000    0.000    0.000    0.000 
#
# Total GULP energy -89802.181254 kJ/mol
# GULP energy per Si atom -5612.636328 kJ/mol
# Density = 2.659781 g / cm^3
# Si number density = 26.658483 Si / 1000 Ang^3
#
#
#
# Elastic Constant Matrix: (Units=GPa)
#
#
# Indices 1 2 3 4 5 6 
#
# 1 118.0194 58.7273 20.8318 -4.1744 -19.7034 2.6599
# 2 58.7273 205.3518 30.0354 7.6210 -19.9001 6.7786
# 3 20.8318 30.0354 92.2242 -6.1381 -2.6394 -2.3026
# 4 -4.1744 7.6210 -6.1381 46.2035 1.1682 -8.5508
# 5 -19.7034 -19.9001 -2.6394 1.1682 43.8044 -7.5320
# 6 2.6599 6.7786 -2.3026 -8.5508 -7.5320 55.4088
#
#
#
# Elastic Compliance Matrix: (Units=1/GPa)
#
#
# Indices 1 2 3 4 5 6 
#
# 1 0.010612 -0.002544 -0.001377 0.001182 0.003574 0.000413
# 2 -0.002544 0.006034 -0.001474 -0.001592 0.001425 -0.000729
# 3 -0.001377 -0.001474 0.011769 0.001872 -0.000464 0.000961
# 4 0.001182 -0.001592 0.001872 0.022957 -0.000046 0.003752
# 5 0.003574 0.001425 -0.000464 -0.000046 0.025591 0.003106
# 6 0.000413 -0.000729 0.000961 0.003752 0.003106 0.019158
#
#
# Mechanical properties :
#
#
# Convention : Reuss Voigt Hill
#
# Bulk Modulus (GPa) = 56.73935 70.53163 63.63549
# Shear Modulus (GPa) = 44.33134 49.48339 46.90737
#
# Velocity S-wave (km/s) = 4.08233 4.31303 4.19927
# Velocity P-wave (km/s) = 6.59929 7.16365 6.88725
#
# Compressibility (1/GPa) = 0.01762445
#
# Stress axis : x y z
#
# Youngs Moduli (GPa) = 94.23736 165.72231 84.96555
#
# Poissons Ratio (x) = 0.42168 0.11700
# Poissons Ratio (y) = 0.23978 0.12523
# Poissons Ratio (z) = 0.12977 0.24425
#
# Static dielectric constant tensor:
#      x y z
#    x 2.090780 -0.030860 0.068270 
#    y -0.030860 2.120510 0.003090 
#    z 0.068270 0.003090 2.112390 
# 
# From -- ./inp_files/294194.got.cif
#   From: 2010.05.17/outbox.cif.g08.bks.cpg/sg2_148_cif.got.tgz:294194.got - 2010.06.03 11:33:40.
