data_PCOD9052360
_publ_section_title
;
Structure prediction by ZEFSAII (Michael W. Deem and Ramdas Pophale) SiO2 
 PCOD9052360
Probable space group: P -1
;
_chemical_formula_sum "Si O2"
_cell_formula_units_Z 14
_cell_length_a 17.185208
_cell_length_b 11.334401
_cell_length_c 5.364126
_cell_angle_alpha 74.657415
_cell_angle_beta 89.370335
_cell_angle_gamma 140.219630
_cell_volume 604.573037
_symmetry_space_group_name_H-M "P -1"
_symmetry_group_IT_number 2
_symmetry_cell_setting 'triclinic'
loop_
_space_group_symop_operation_xyz
x,y,z
-x,-y,-z
loop_
_atom_site_type_symbol
_atom_site_label
_atom_site_fract_x
_atom_site_fract_y
_atom_site_fract_z
Si Si1 0.412125 0.554930 0.359411
Si Si2 0.303983 0.534395 0.870822
Si Si3 0.135778 0.748126 0.865419
Si Si4 0.740611 0.870161 0.609807
Si Si5 0.663224 0.959866 0.939846
Si Si6 0.646639 0.144673 0.482244
Si Si7 0.079290 0.096609 0.193096
O O1 0.357464 0.517664 0.654205
O O2 0.347897 0.342996 0.409364
O O3 0.376522 0.598475 0.096338
O O4 0.565968 0.777887 0.244540
O O5 0.291381 0.646714 0.669991
O O6 0.160364 0.320824 0.067237
O O7 0.255737 0.819064 0.702280
O O8 0.155368 0.908459 0.653397
O O9 0.188049 0.840569 0.089895
O O10 0.000000 0.500000 0.000000
O O11 0.821613 0.891114 0.792734
O O12 0.650510 0.849340 0.776001
O O13 0.631712 0.056062 0.792861
O O14 0.500000 0.000000 0.500000
O O15 0.000000 0.000000 0.500000
O O16 0.000000 0.000000 0.000000
#
# Coordination Sequence:
#
# PCOD9052360 Si02
#       7
#     2   2   2   2   2   2   2
#     4  11  24  45  74 111 146 187 248 313 384 433
#     4  11  25  42  72 109 145 187 246 316 367 438
#     4  11  28  46  71 106 149 205 250 307 381 454
#     4  10  26  45  69 107 145 190 251 311 378 457
#     4  11  25  44  76 104 151 202 242 317 380 448
#     4  11  24  46  72 107 147 193 260 308 373 447
#     4  11  25  44  70 101 138 192 245 299 369 443
#
# _framework density 23.156839000000002
#
# number of rings (size 3 to 8) (size 9 to 14) (size 15 to 20)
#    0.000    1.143    1.429    3.000   12.000    5.143 
#    0.000    0.000    0.000    0.000    0.000    0.000 
#    0.000    0.000    0.000    0.000    0.000    0.000 
#
# Total GULP energy -77968.462000 kJ/mol
# GULP energy per Si atom -5569.175857 kJ/mol
# Density = 2.310413 g / cm^3
# Si number density = 23.156839 Si / 1000 Ang^3
#
#
#
# Elastic Constant Matrix: (Units=GPa)
#
#
# Indices 1 2 3 4 5 6 
#
# 1 70.2382 35.0379 32.1425 -14.4742 24.4164 -2.7236
# 2 35.0379 122.0482 54.8013 -30.8212 16.2035 3.4015
# 3 32.1425 54.8013 149.1959 -27.0069 11.7375 -3.4054
# 4 -14.4742 -30.8212 -27.0069 56.5478 -3.4846 8.6984
# 5 24.4164 16.2035 11.7375 -3.4846 50.6872 -3.3119
# 6 -2.7236 3.4015 -3.4054 8.6984 -3.3119 30.4138
#
#
#
# Elastic Compliance Matrix: (Units=1/GPa)
#
#
# Indices 1 2 3 4 5 6 
#
# 1 0.020000 -0.003308 -0.002147 0.001715 -0.007925 0.000567
# 2 -0.003308 0.011868 -0.002751 0.004748 -0.001462 -0.003449
# 3 -0.002147 -0.002751 0.008532 0.001952 0.000106 0.000524
# 4 0.001715 0.004748 0.001952 0.022586 -0.001688 -0.006802
# 5 -0.007925 -0.001462 0.000106 -0.001688 0.024041 0.002566
# 6 0.000567 -0.003449 0.000524 -0.006802 0.002566 0.035600
#
#
# Mechanical properties :
#
#
# Convention : Reuss Voigt Hill
#
# Bulk Modulus (GPa) = 41.68574 65.04951 53.36762
# Shear Modulus (GPa) = 34.00565 42.16314 38.08439
#
# Velocity S-wave (km/s) = 3.83625 4.27167 4.05980
# Velocity P-wave (km/s) = 6.13702 7.24440 6.71358
#
# Compressibility (1/GPa) = 0.02398902
#
# Stress axis : x y z
#
# Youngs Moduli (GPa) = 49.99939 84.26294 117.20032
#
# Poissons Ratio (x) = 0.27877 0.25160
# Poissons Ratio (y) = 0.16542 0.32236
# Poissons Ratio (z) = 0.10734 0.23177
#
# Static dielectric constant tensor:
#      x y z
#    x 2.007170 0.104970 0.024050 
#    y 0.104970 2.002440 0.136540 
#    z 0.024050 0.136540 1.889790 
# 
# From -- ./inp_files/108963.got.cif
#   From: 2010.05.17/outbox.cif.g08.bks.cpg/sg2_55_cif.got.tgz:108963.got - 2010.06.03 11:33:40.
