data_PCOD9052328
_publ_section_title
;
Structure prediction by ZEFSAII (Michael W. Deem and Ramdas Pophale) SiO2 
 PCOD9052328
Probable space group: P -1
;
_chemical_formula_sum "Si O2"
_cell_formula_units_Z 15
_cell_length_a 12.038138
_cell_length_b 11.839095
_cell_length_c 5.606382
_cell_angle_alpha 82.453334
_cell_angle_beta 76.545493
_cell_angle_gamma 52.168643
_cell_volume 613.698245
_symmetry_space_group_name_H-M "P -1"
_symmetry_group_IT_number 2
_symmetry_cell_setting 'triclinic'
loop_
_space_group_symop_operation_xyz
x,y,z
-x,-y,-z
loop_
_atom_site_type_symbol
_atom_site_label
_atom_site_fract_x
_atom_site_fract_y
_atom_site_fract_z
Si Si1 0.989774 0.220741 0.421708
Si Si2 0.500000 0.500000 0.000000
Si Si3 0.586210 0.715311 0.907761
Si Si4 0.305293 0.696259 0.411327
Si Si5 0.202549 0.123209 0.714392
Si Si6 0.432752 0.851547 0.450356
Si Si7 0.133822 0.343081 0.044396
Si Si8 0.132840 0.958524 0.104685
O O1 0.040879 0.209322 0.669041
O O2 0.822925 0.304065 0.427230
O O3 0.066166 0.059259 0.341343
O O4 0.062620 0.280457 0.234095
O O5 0.565402 0.592124 0.964633
O O6 0.563386 0.452603 0.711453
O O7 0.527802 0.793699 0.658816
O O8 0.506142 0.808957 0.164185
O O9 0.749918 0.656750 0.867357
O O10 0.346951 0.781587 0.518253
O O11 0.234216 0.794383 0.177042
O O12 0.212011 0.236821 0.809319
O O13 0.320534 0.023615 0.484299
O O14 0.218253 0.007416 0.918325
O O15 0.000000 0.500000 0.000000
O O16 0.000000 0.000000 0.000000
#
# Coordination Sequence:
#
# PCOD9052328 Si02
#       8
#     2   1   2   2   2   2   2   2
#     4  11  24  41  73 110 140 196 248 305 380 436
#     4  10  26  44  76 102 148 196 250 296 384 446
#     4  11  28  51  75 109 148 201 251 313 372 449
#     4  11  22  44  73 113 149 193 246 312 372 447
#     4  11  23  43  72 110 143 196 246 303 382 437
#     4  11  25  47  78 109 150 191 252 315 376 439
#     4  11  30  49  71 105 148 197 252 308 369 453
#     4  11  20  37  68 109 151 182 241 313 371 426
#
# _framework density 24.441980999999998
#
# number of rings (size 3 to 8) (size 9 to 14) (size 15 to 20)
#    0.000    1.067    2.667    2.800    5.600    5.867 
#    0.000    0.000    0.000    0.000    0.000    0.000 
#    0.000    0.000    0.000    0.000    0.000    0.000 
#
# Total GULP energy -83679.248083 kJ/mol
# GULP energy per Si atom -5578.616539 kJ/mol
# Density = 2.438635 g / cm^3
# Si number density = 24.441981 Si / 1000 Ang^3
#
#
#
# Elastic Constant Matrix: (Units=GPa)
#
#
# Indices 1 2 3 4 5 6 
#
# 1 145.8674 43.4431 53.5452 -0.1472 17.3273 -16.8293
# 2 43.4431 63.3915 44.2086 3.9285 11.3127 11.0649
# 3 53.5452 44.2086 105.1599 4.9246 11.7561 -2.0498
# 4 -0.1472 3.9285 4.9246 31.2204 1.8356 10.2474
# 5 17.3273 11.3127 11.7561 1.8356 48.6247 -7.4861
# 6 -16.8293 11.0649 -2.0498 10.2474 -7.4861 26.8644
#
#
#
# Elastic Compliance Matrix: (Units=1/GPa)
#
#
# Indices 1 2 3 4 5 6 
#
# 1 0.011306 -0.008203 -0.002002 -0.002297 0.000180 0.011235
# 2 -0.008203 0.032990 -0.009703 0.005326 -0.006182 -0.023221
# 3 -0.002002 -0.009703 0.014806 -0.002784 0.000267 0.005008
# 4 -0.002297 0.005326 -0.002784 0.038508 -0.004237 -0.019715
# 5 0.000180 -0.006182 0.000267 -0.004237 0.023714 0.010904
# 6 0.011235 -0.023221 0.005008 -0.019715 0.010904 0.064767
#
#
# Mechanical properties :
#
#
# Convention : Reuss Voigt Hill
#
# Bulk Modulus (GPa) = 51.85053 66.31252 59.08152
# Shear Modulus (GPa) = 21.52071 32.89003 27.20537
#
# Velocity S-wave (km/s) = 2.97051 3.67227 3.33987
# Velocity P-wave (km/s) = 5.74674 6.72088 6.25281
#
# Compressibility (1/GPa) = 0.01928621
#
# Stress axis : x y z
#
# Youngs Moduli (GPa) = 88.44945 30.31255 67.54119
#
# Poissons Ratio (x) = 0.24865 0.13521
# Poissons Ratio (y) = 0.72553 0.65534
# Poissons Ratio (z) = 0.17707 0.29412
#
# Static dielectric constant tensor:
#      x y z
#    x 1.963410 -0.026550 -0.031970 
#    y -0.026550 1.996290 0.000430 
#    z -0.031970 0.000430 2.023250 
# 
# From -- ./inp_files/70422.got.cif
#   From: 2010.05.17/outbox.cif.g08.bks.cpg/sg2_36_cif.got.tgz:70422.got - 2010.06.03 11:33:40.
