data_PCOD9052457
_publ_section_title
;
Structure prediction by ZEFSAII (Michael W. Deem and Ramdas Pophale) SiO2 
 PCOD9052457
Probable space group: P -1
;
_chemical_formula_sum "Si O2"
_cell_formula_units_Z 16
_cell_length_a 16.807918
_cell_length_b 5.998560
_cell_length_c 10.917486
_cell_angle_alpha 103.661427
_cell_angle_beta 39.580363
_cell_angle_gamma 106.767054
_cell_volume 671.355251
_symmetry_space_group_name_H-M "P -1"
_symmetry_group_IT_number 2
_symmetry_cell_setting 'triclinic'
loop_
_space_group_symop_operation_xyz
x,y,z
-x,-y,-z
loop_
_atom_site_type_symbol
_atom_site_label
_atom_site_fract_x
_atom_site_fract_y
_atom_site_fract_z
Si Si1 0.111925 0.687210 0.126690
Si Si2 0.309392 0.054757 0.806919
Si Si3 0.049752 0.213614 0.060400
Si Si4 0.491953 0.787882 0.888378
Si Si5 0.204041 0.636305 0.259656
Si Si6 0.895803 0.980807 0.422617
Si Si7 0.281728 0.454162 0.386150
Si Si8 0.572609 0.099302 0.603591
O O1 0.061239 0.490025 0.061040
O O2 0.123024 0.558526 0.226139
O O3 0.020559 0.871500 0.287383
O O4 0.241796 0.837170 0.941185
O O5 0.437076 0.177327 0.741358
O O6 0.364487 0.975028 0.604078
O O7 0.192325 0.185058 0.929647
O O8 0.942441 0.160793 0.284508
O O9 0.000000 0.000000 0.000000
O O10 0.586159 0.628124 0.807201
O O11 0.537411 0.890578 0.715329
O O12 0.347297 0.669923 0.047291
O O13 0.500000 0.000000 0.000000
O O14 0.202288 0.475184 0.359725
O O15 0.166520 0.880144 0.381778
O O16 0.796963 0.754332 0.469454
O O17 0.325812 0.700015 0.429458
#
# Coordination Sequence:
#
# PCOD9052457 Si02
#       8
#     2   2   2   2   2   2   2   2
#     4  11  26  47  74 103 141 190 232 294 356 409
#     4  10  26  46  71 103 139 183 238 291 347 417
#     4  11  28  46  73 101 141 186 241 290 346 421
#     4  12  24  42  66 105 144 183 230 286 344 424
#     4  12  25  45  71 106 146 182 239 286 354 421
#     4  11  26  46  69 107 141 188 234 293 342 428
#     4  12  26  40  75 102 145 188 227 286 361 412
#     4  11  25  45  70 103 142 184 235 289 348 421
#
# _framework density 23.83239
#
# number of rings (size 3 to 8) (size 9 to 14) (size 15 to 20)
#    0.000    0.750    3.750    1.500    8.750    5.000 
#    0.000    2.500    0.000    0.000    0.000    0.000 
#    0.000    0.000    0.000    0.000    0.000    0.000 
#
# Total GULP energy -89427.840914 kJ/mol
# GULP energy per Si atom -5589.240057 kJ/mol
# Density = 2.377815 g / cm^3
# Si number density = 23.832390 Si / 1000 Ang^3
#
#
#
# Elastic Constant Matrix: (Units=GPa)
#
#
# Indices 1 2 3 4 5 6 
#
# 1 84.0512 6.5106 38.7128 11.4670 -5.8084 -4.6850
# 2 6.5106 54.7613 31.3576 6.4400 -7.3650 7.0801
# 3 38.7128 31.3576 131.4102 -4.6439 -17.7501 -2.6496
# 4 11.4670 6.4400 -4.6439 41.3543 2.3368 -12.4306
# 5 -5.8084 -7.3650 -17.7501 2.3368 30.3214 1.2198
# 6 -4.6850 7.0801 -2.6496 -12.4306 1.2198 27.2960
#
#
#
# Elastic Compliance Matrix: (Units=1/GPa)
#
#
# Indices 1 2 3 4 5 6 
#
# 1 0.014720 0.001880 -0.004870 -0.005226 0.000862 -0.000852
# 2 0.001880 0.024609 -0.006450 -0.008507 0.003649 -0.010724
# 3 -0.004870 -0.006450 0.011312 0.004581 0.003614 0.003860
# 4 -0.005226 -0.008507 0.004581 0.032728 -0.003585 0.016819
# 5 0.000862 0.003649 0.003614 -0.003585 0.036573 -0.003714
# 6 -0.000852 -0.010724 0.003860 0.016819 -0.003714 0.047471
#
#
# Mechanical properties :
#
#
# Convention : Reuss Voigt Hill
#
# Bulk Modulus (GPa) = 31.48721 47.04275 39.26498
# Shear Modulus (GPa) = 25.39623 32.70379 29.05001
#
# Velocity S-wave (km/s) = 3.26792 3.70840 3.49510
# Velocity P-wave (km/s) = 5.24211 6.17399 5.72703
#
# Compressibility (1/GPa) = 0.03175892
#
# Stress axis : x y z
#
# Youngs Moduli (GPa) = 67.93357 40.63598 88.40534
#
# Poissons Ratio (x) = -0.07638 0.43057
# Poissons Ratio (y) = -0.12769 0.57021
# Poissons Ratio (z) = 0.33087 0.26210
#
# Static dielectric constant tensor:
#      x y z
#    x 1.964670 -0.015320 -0.015050 
#    y -0.015320 2.008210 0.009940 
#    z -0.015050 0.009940 1.878460 
# 
# From -- ./inp_files/459211.got.cif
#   From: 2010.05.17/outbox.cif.g08.bks.cpg/sg2_230_cif.got.tgz:459211.got - 2010.06.03 11:33:40.
