data_PCOD9052395
_publ_section_title
;
Structure prediction by ZEFSAII (Michael W. Deem and Ramdas Pophale) SiO2 
 PCOD9052395
Probable space group: P -1
;
_chemical_formula_sum "Si O2"
_cell_formula_units_Z 14
_cell_length_a 7.281788
_cell_length_b 13.754753
_cell_length_c 17.424064
_cell_angle_alpha 23.132742
_cell_angle_beta 121.684998
_cell_angle_gamma 122.920375
_cell_volume 573.805082
_symmetry_space_group_name_H-M "P -1"
_symmetry_group_IT_number 2
_symmetry_cell_setting 'triclinic'
loop_
_space_group_symop_operation_xyz
x,y,z
-x,-y,-z
loop_
_atom_site_type_symbol
_atom_site_label
_atom_site_fract_x
_atom_site_fract_y
_atom_site_fract_z
Si Si1 0.318845 0.936419 0.166662
Si Si2 0.653986 0.186666 0.296020
Si Si3 0.305157 0.677003 0.086052
Si Si4 0.020253 0.877090 0.456798
Si Si5 0.267078 0.407188 0.112594
Si Si6 0.983234 0.668504 0.161096
Si Si7 0.487081 0.269434 0.502622
O O1 0.164141 0.800318 0.165394
O O2 0.346224 0.755952 0.374616
O O3 0.560068 0.052223 0.103808
O O4 0.211178 0.172829 0.999272
O O5 0.848340 0.111460 0.442221
O O6 0.504277 0.327018 0.214893
O O7 0.503163 0.939199 0.408425
O O8 0.734530 0.372853 0.108732
O O9 0.241971 0.512693 0.115116
O O10 0.101849 0.677121 0.098016
O O11 0.479553 0.540514 0.269666
O O12 0.077235 0.623899 0.615547
O O13 0.761404 0.818723 0.455984
O O14 0.098011 0.153136 0.239469
#
# Coordination Sequence:
#
# PCOD9052395 Si02
#       7
#     2   2   2   2   2   2   2
#     4  11  24  52  68  98 135 180 227 284 331 391
#     4  11  23  41  63 106 136 181 219 274 331 417
#     4  11  23  45  70 103 133 181 219 283 333 400
#     4  11  24  42  65 103 138 173 219 281 334 401
#     4  11  24  40  70  99 142 176 221 273 345 394
#     4  10  26  45  75  96 135 178 231 278 332 402
#     4  11  25  41  68  99 138 174 227 272 334 403
#
# _framework density 24.398527000000001
#
# number of rings (size 3 to 8) (size 9 to 14) (size 15 to 20)
#    0.000    1.143    2.857    2.143    6.000    5.143 
#    0.000    4.286    0.000    0.000    0.000    0.000 
#    0.000    0.000    0.000    0.000    0.000    0.000 
#
# Total GULP energy -78475.943794 kJ/mol
# GULP energy per Si atom -5605.424557 kJ/mol
# Density = 2.434300 g / cm^3
# Si number density = 24.398527 Si / 1000 Ang^3
#
#
#
# Elastic Constant Matrix: (Units=GPa)
#
#
# Indices 1 2 3 4 5 6 
#
# 1 83.7854 23.8068 22.1729 7.5433 6.6836 -12.7186
# 2 23.8068 69.9007 9.5501 4.3141 -5.8756 -17.7289
# 3 22.1729 9.5501 103.6836 6.3250 -5.9930 -14.1946
# 4 7.5433 4.3141 6.3250 35.4335 9.8664 1.4138
# 5 6.6836 -5.8756 -5.9930 9.8664 28.1708 -2.3661
# 6 -12.7186 -17.7289 -14.1946 1.4138 -2.3661 28.2367
#
#
#
# Elastic Compliance Matrix: (Units=1/GPa)
#
#
# Indices 1 2 3 4 5 6 
#
# 1 0.014650 -0.004383 -0.002623 -0.000974 -0.004422 0.002206
# 2 -0.004383 0.019572 0.001504 -0.004422 0.007996 0.011962
# 3 -0.002623 0.001504 0.011391 -0.003300 0.005025 0.006075
# 4 -0.000974 -0.004422 -0.003300 0.033722 -0.013852 -0.007723
# 5 -0.004422 0.007996 0.005025 -0.013852 0.044976 0.010017
# 6 0.002206 0.011962 0.006075 -0.007723 0.010017 0.048199
#
#
# Mechanical properties :
#
#
# Convention : Reuss Voigt Hill
#
# Bulk Modulus (GPa) = 28.89487 40.93658 34.91573
# Shear Modulus (GPa) = 25.63424 31.82420 28.72922
#
# Velocity S-wave (km/s) = 3.24489 3.61550 3.43519
# Velocity P-wave (km/s) = 5.08995 5.85182 5.48413
#
# Compressibility (1/GPa) = 0.03460822
#
# Stress axis : x y z
#
# Youngs Moduli (GPa) = 68.25822 51.09273 87.79132
#
# Poissons Ratio (x) = 0.22395 0.23031
# Poissons Ratio (y) = 0.29919 -0.13205
# Poissons Ratio (z) = 0.17907 -0.07685
#
# Static dielectric constant tensor:
#      x y z
#    x 1.959740 -0.014270 0.011980 
#    y -0.014270 1.899430 -0.011240 
#    z 0.011980 -0.011240 1.930760 
# 
# From -- ./inp_files/498726.got.cif
#   From: 2010.05.17/outbox.cif.g08.bks.cpg/sg2_250_cif.got.tgz:498726.got - 2010.06.03 11:33:40.
