data_PCOD9052133
_publ_section_title
;
Structure prediction by ZEFSAII (Michael W. Deem and Ramdas Pophale) SiO2 
 PCOD9052133
Probable space group: P -1
;
_chemical_formula_sum "Si O2"
_cell_formula_units_Z 16
_cell_length_a 11.785305
_cell_length_b 7.691822
_cell_length_c 14.743243
_cell_angle_alpha 62.696144
_cell_angle_beta 29.174477
_cell_angle_gamma 70.440980
_cell_volume 572.204369
_symmetry_space_group_name_H-M "P -1"
_symmetry_group_IT_number 2
_symmetry_cell_setting 'triclinic'
loop_
_space_group_symop_operation_xyz
x,y,z
-x,-y,-z
loop_
_atom_site_type_symbol
_atom_site_label
_atom_site_fract_x
_atom_site_fract_y
_atom_site_fract_z
Si Si1 0.507281 0.740706 0.873522
Si Si2 0.216679 0.184734 0.694340
Si Si3 0.749111 0.657947 0.068112
Si Si4 0.717432 0.376328 0.491194
Si Si5 0.247419 0.034218 0.507538
Si Si6 0.135037 0.525619 0.303247
Si Si7 0.253242 0.076599 0.168990
Si Si8 0.157935 0.785162 0.901154
O O1 0.542886 0.862731 0.727581
O O2 0.613309 0.540477 0.828036
O O3 0.707605 0.842145 0.777422
O O4 0.260541 0.708195 0.106893
O O5 0.747330 0.201573 0.442684
O O6 0.322502 0.415119 0.574783
O O7 0.224910 0.139880 0.593146
O O8 0.977342 0.181708 0.919597
O O9 0.508933 0.695018 0.273199
O O10 0.746840 0.423370 0.113582
O O11 0.765544 0.765929 0.934850
O O12 0.959730 0.745343 0.968202
O O13 0.942660 0.420354 0.390239
O O14 0.687282 0.007025 0.285366
O O15 0.996953 0.062459 0.628404
O O16 0.000000 0.500000 0.500000
O O17 0.500000 0.000000 0.000000
#
# Coordination Sequence:
#
# PCOD9052133 Si02
#       8
#     2   2   2   2   2   2   2   2
#     4  11  26  44  75 113 165 224 270 327 410 494
#     4  11  26  51  80 116 156 216 273 356 412 492
#     4  11  25  50  85 121 159 221 275 351 418 502
#     4  12  27  47  78 113 168 208 275 343 420 495
#     4  12  26  51  75 121 171 217 279 340 414 512
#     4  11  25  47  73 115 164 216 276 337 401 496
#     4  12  25  43  79 118 168 216 270 337 416 501
#     4  10  25  53  84 114 161 213 288 346 423 495
#
# _framework density 27.962036000000001
#
# number of rings (size 3 to 8) (size 9 to 14) (size 15 to 20)
#    0.000    0.750    2.500    3.375    7.000    3.000 
#    4.500    0.000    0.000    0.000    0.000    0.000 
#    0.000    0.000    0.000    0.000    0.000    0.000 
#
# Total GULP energy -89611.672338 kJ/mol
# GULP energy per Si atom -5600.729521 kJ/mol
# Density = 2.789839 g / cm^3
# Si number density = 27.962036 Si / 1000 Ang^3
#
#
#
# Elastic Constant Matrix: (Units=GPa)
#
#
# Indices 1 2 3 4 5 6 
#
# 1 173.1090 76.3698 56.8823 -11.3333 19.2338 7.0168
# 2 76.3698 182.8809 61.3472 2.7114 9.5905 3.4454
# 3 56.8823 61.3472 186.4772 21.7957 30.6965 20.3343
# 4 -11.3333 2.7114 21.7957 49.4295 1.4740 0.2582
# 5 19.2338 9.5905 30.6965 1.4740 55.3442 -3.1282
# 6 7.0168 3.4454 20.3343 0.2582 -3.1282 44.7408
#
#
#
# Elastic Compliance Matrix: (Units=1/GPa)
#
#
# Indices 1 2 3 4 5 6 
#
# 1 0.007830 -0.002716 -0.001507 0.002656 -0.001511 -0.000455
# 2 -0.002716 0.007116 -0.001664 -0.000303 0.000680 0.000683
# 3 -0.001507 -0.001664 0.007742 -0.003544 -0.003579 -0.003384
# 4 0.002656 -0.000303 -0.003544 0.022396 0.000562 0.001127
# 5 -0.001511 0.000680 -0.003579 0.000562 0.020630 0.003250
# 6 -0.000455 0.000683 -0.003384 0.001127 0.003250 0.024128
#
#
# Mechanical properties :
#
#
# Convention : Reuss Voigt Hill
#
# Bulk Modulus (GPa) = 91.61672 103.51839 97.56756
# Shear Modulus (GPa) = 47.50366 53.09410 50.29888
#
# Velocity S-wave (km/s) = 4.12620 4.36224 4.24586
# Velocity P-wave (km/s) = 7.45228 7.90402 7.68147
#
# Compressibility (1/GPa) = 0.01091504
#
# Stress axis : x y z
#
# Youngs Moduli (GPa) = 127.70792 140.52440 129.16619
#
# Poissons Ratio (x) = 0.38165 0.19468
# Poissons Ratio (y) = 0.34684 0.21489
# Poissons Ratio (z) = 0.19248 0.23379
#
# Static dielectric constant tensor:
#      x y z
#    x 2.240440 -0.147810 -0.070460 
#    y -0.147810 2.466520 0.005260 
#    z -0.070460 0.005260 2.152990 
# 
# From -- ./inp_files/515498.got.cif
#   From: 2010.05.17/outbox.cif.g08.bks.cpg/sg2_258_cif.got.tgz:515498.got - 2010.06.03 11:33:40.
