data_PCOD9052951
_publ_section_title
;
Structure prediction by ZEFSAII (Michael W. Deem and Ramdas Pophale) SiO2 
 PCOD9052951
Probable space group: P -1
;
_chemical_formula_sum "Si O2"
_cell_formula_units_Z 12
_cell_length_a 13.202490
_cell_length_b 7.163158
_cell_length_c 6.794536
_cell_angle_alpha 77.713002
_cell_angle_beta 52.181591
_cell_angle_gamma 60.162392
_cell_volume 436.305035
_symmetry_space_group_name_H-M "P -1"
_symmetry_group_IT_number 2
_symmetry_cell_setting 'triclinic'
loop_
_space_group_symop_operation_xyz
x,y,z
-x,-y,-z
loop_
_atom_site_type_symbol
_atom_site_label
_atom_site_fract_x
_atom_site_fract_y
_atom_site_fract_z
Si Si1 0.155787 0.989273 0.346365
Si Si2 0.486532 0.784585 0.472735
Si Si3 0.324147 0.598945 0.437082
Si Si4 0.229391 0.200045 0.566743
Si Si5 0.047111 0.742331 0.988320
Si Si6 0.761463 0.653323 0.894225
O O1 0.288288 0.741648 0.249274
O O2 0.174270 0.063135 0.525344
O O3 0.182235 0.170189 0.162741
O O4 0.000000 0.000000 0.500000
O O5 0.383852 0.695337 0.517284
O O6 0.555408 0.650112 0.619979
O O7 0.626799 0.960129 0.450305
O O8 0.610624 0.730652 0.171054
O O9 0.166769 0.640629 0.694934
O O10 0.251045 0.335496 0.332320
O O11 0.093622 0.293226 0.852002
O O12 0.132039 0.590711 0.108625
O O13 0.000000 0.000000 0.000000
#
# Coordination Sequence:
#
# PCOD9052951 Si02
#       6
#     2   2   2   2   2   2
#     4   9  18  32  45  67  96 127 157 183 217 274
#     4   9  15  29  43  74  96 113 148 195 239 270
#     4   9  18  27  49  70  96 118 151 188 237 273
#     4   9  18  28  50  72  96 117 150 191 238 273
#     4  11  16  30  44  74  99 116 146 193 242 274
#     4   9  19  27  47  73  96 117 152 189 237 270
#
# _framework density 27.503693999999999
#
# number of rings (size 3 to 8) (size 9 to 14) (size 15 to 20)
#    1.000    1.667    3.333    1.000    0.000    0.000 
#    0.000    3.333    0.000    0.000    0.000   63.000 
#    0.000    0.000    0.000    0.000    0.000    0.000 
#
# Total GULP energy -66943.638986 kJ/mol
# GULP energy per Si atom -5578.636582 kJ/mol
# Density = 2.744109 g / cm^3
# Si number density = 27.503694 Si / 1000 Ang^3
#
#
#
# Elastic Constant Matrix: (Units=GPa)
#
#
# Indices 1 2 3 4 5 6 
#
# 1 136.0179 69.5995 56.9600 -11.5789 9.2327 -42.0557
# 2 69.5995 165.3857 52.3623 -29.7204 -2.8380 -42.9888
# 3 56.9600 52.3623 162.5842 -4.9733 -10.4263 -34.0393
# 4 -11.5789 -29.7204 -4.9733 46.8192 -7.4169 -7.0400
# 5 9.2327 -2.8380 -10.4263 -7.4169 51.5080 -12.9180
# 6 -42.0557 -42.9888 -34.0393 -7.0400 -12.9180 75.0979
#
#
#
# Elastic Compliance Matrix: (Units=1/GPa)
#
#
# Indices 1 2 3 4 5 6 
#
# 1 0.011007 -0.002942 -0.002317 0.000826 -0.001678 0.003218
# 2 -0.002942 0.010109 -0.000770 0.006857 0.003164 0.004977
# 3 -0.002317 -0.000770 0.007886 0.000545 0.002635 0.002340
# 4 0.000826 0.006857 0.000545 0.028271 0.006519 0.008407
# 5 -0.001678 0.003164 0.002635 0.006519 0.023026 0.006638
# 6 0.003218 0.004977 0.002340 0.008407 0.006638 0.020958
#
#
# Mechanical properties :
#
#
# Convention : Reuss Voigt Hill
#
# Bulk Modulus (GPa) = 59.02244 91.31460 75.16852
# Shear Modulus (GPa) = 42.02963 53.68944 47.85953
#
# Velocity S-wave (km/s) = 3.91339 4.42303 4.17599
# Velocity P-wave (km/s) = 6.47502 7.70436 7.11629
#
# Compressibility (1/GPa) = 0.01694271
#
# Stress axis : x y z
#
# Youngs Moduli (GPa) = 90.84912 98.92494 126.80519
#
# Poissons Ratio (x) = 0.29106 0.29383
# Poissons Ratio (y) = 0.26730 0.09767
# Poissons Ratio (z) = 0.21052 0.07619
#
# Static dielectric constant tensor:
#      x y z
#    x 2.177100 0.097590 -0.005430 
#    y 0.097590 2.417000 0.014270 
#    z -0.005430 0.014270 2.147190 
# 
# From -- ./inp_files/230618.got.cif
#   From: 2010.05.17/outbox.cif.g08.bks.cpg/sg2_116_cif.got.tgz:230618.got - 2010.06.03 11:33:40.
