data_PCOD9052739
_publ_section_title
;
Structure prediction by ZEFSAII (Michael W. Deem and Ramdas Pophale) SiO2 
 PCOD9052739
Probable space group: P -1
;
_chemical_formula_sum "Si O2"
_cell_formula_units_Z 16
_cell_length_a 11.153711
_cell_length_b 12.113076
_cell_length_c 12.504754
_cell_angle_alpha 145.198682
_cell_angle_beta 76.372570
_cell_angle_gamma 78.108025
_cell_volume 650.009481
_symmetry_space_group_name_H-M "P -1"
_symmetry_group_IT_number 2
_symmetry_cell_setting 'triclinic'
loop_
_space_group_symop_operation_xyz
x,y,z
-x,-y,-z
loop_
_atom_site_type_symbol
_atom_site_label
_atom_site_fract_x
_atom_site_fract_y
_atom_site_fract_z
Si Si1 0.505336 0.788181 0.730050
Si Si2 0.793290 0.169014 0.188785
Si Si3 0.848292 0.934266 0.206718
Si Si4 0.662290 0.216827 0.865595
Si Si5 0.033120 0.618761 0.325717
Si Si6 0.134664 0.626184 0.071364
Si Si7 0.615967 0.686703 0.869941
Si Si8 0.347639 0.019529 0.530878
O O1 0.656391 0.472444 0.403347
O O2 0.308483 0.916284 0.890171
O O3 0.588664 0.729011 0.782491
O O4 0.480467 0.000561 0.829311
O O5 0.782540 0.157611 0.310412
O O6 0.000000 0.000000 0.000000
O O7 0.689981 0.032712 0.389450
O O8 0.982513 0.864637 0.211683
O O9 0.939195 0.644562 0.900327
O O10 0.713552 0.383215 0.976201
O O11 0.632953 0.154435 0.705788
O O12 0.494695 0.355811 0.084009
O O13 0.836536 0.907943 0.628707
O O14 0.073559 0.671239 0.242795
O O15 0.184380 0.521553 0.296901
O O16 0.186265 0.351327 0.805361
O O17 0.500000 0.000000 0.500000
#
# Coordination Sequence:
#
# PCOD9052739 Si02
#       8
#     2   2   2   2   2   2   2   2
#     4  10  26  49  65 101 141 170 240 303 338 412
#     4  11  26  45  76 102 129 186 240 289 355 412
#     4  11  22  44  67 101 140 178 230 289 347 413
#     4  12  25  42  71 103 138 188 232 276 345 431
#     4  11  22  44  68  97 141 187 222 281 349 418
#     4  11  24  42  64 103 143 174 236 276 340 426
#     4  11  26  45  69  99 139 184 228 292 352 405
#     4  11  24  42  68 101 145 187 223 283 352 417
#
# _framework density 24.615027000000001
#
# number of rings (size 3 to 8) (size 9 to 14) (size 15 to 20)
#    0.000    1.000    3.750    2.625    5.250    3.000 
#    0.000    2.500    0.000    0.000    0.000    0.000 
#    0.000    0.000    0.000    0.000    0.000    0.000 
#
# Total GULP energy -89486.197574 kJ/mol
# GULP energy per Si atom -5592.887348 kJ/mol
# Density = 2.455900 g / cm^3
# Si number density = 24.615027 Si / 1000 Ang^3
#
#
#
# Elastic Constant Matrix: (Units=GPa)
#
#
# Indices 1 2 3 4 5 6 
#
# 1 152.7691 28.1029 20.1770 4.1331 -18.1353 -9.0106
# 2 28.1029 81.4212 6.6046 19.5765 -0.1332 -17.8479
# 3 20.1770 6.6046 60.1425 21.7771 -3.0870 7.9067
# 4 4.1331 19.5765 21.7771 39.7607 1.2451 2.0498
# 5 -18.1353 -0.1332 -3.0870 1.2451 46.2995 8.1387
# 6 -9.0106 -17.8479 7.9067 2.0498 8.1387 57.3384
#
#
#
# Elastic Compliance Matrix: (Units=1/GPa)
#
#
# Indices 1 2 3 4 5 6 
#
# 1 0.007748 -0.002885 -0.002949 0.002131 0.002726 0.000263
# 2 -0.002885 0.016358 0.001646 -0.008861 -0.001606 0.004956
# 3 -0.002949 0.001646 0.022457 -0.012698 0.001174 -0.002760
# 4 0.002131 -0.008861 -0.012698 0.036365 -0.000686 -0.001875
# 5 0.002726 -0.001606 0.001174 -0.000686 0.023378 -0.003527
# 6 0.000263 0.004956 -0.002760 -0.001875 -0.003527 0.019973
#
#
# Mechanical properties :
#
#
# Convention : Reuss Voigt Hill
#
# Bulk Modulus (GPa) = 26.18712 44.90021 35.54367
# Shear Modulus (GPa) = 33.92517 44.64294 39.28405
#
# Velocity S-wave (km/s) = 3.71648 4.26331 3.99925
# Velocity P-wave (km/s) = 5.39241 6.52035 5.98302
#
# Compressibility (1/GPa) = 0.03818671
#
# Stress axis : x y z
#
# Youngs Moduli (GPa) = 129.07360 61.13032 44.53036
#
# Poissons Ratio (x) = 0.17638 0.13131
# Poissons Ratio (y) = 0.37241 -0.07330
# Poissons Ratio (z) = 0.38060 -0.10062
#
# Static dielectric constant tensor:
#      x y z
#    x 2.022620 -0.031690 0.061430 
#    y -0.031690 1.894520 0.051440 
#    z 0.061430 0.051440 2.173020 
# 
# From -- ./inp_files/429076.got.cif
#   From: 2010.05.17/outbox.cif.g08.bks.cpg/sg2_215_cif.got.tgz:429076.got - 2010.06.03 11:33:40.
