data_PCOD9052323
_publ_section_title
;
Structure prediction by ZEFSAII (Michael W. Deem and Ramdas Pophale) SiO2 
 PCOD9052323
Probable space group: P -1
;
_chemical_formula_sum "Si O2"
_cell_formula_units_Z 15
_cell_length_a 15.052861
_cell_length_b 25.765871
_cell_length_c 5.551730
_cell_angle_alpha 72.450838
_cell_angle_beta 80.378932
_cell_angle_gamma 19.515157
_cell_volume 637.817514
_symmetry_space_group_name_H-M "P -1"
_symmetry_group_IT_number 2
_symmetry_cell_setting 'triclinic'
loop_
_space_group_symop_operation_xyz
x,y,z
-x,-y,-z
loop_
_atom_site_type_symbol
_atom_site_label
_atom_site_fract_x
_atom_site_fract_y
_atom_site_fract_z
Si Si1 0.672574 0.270057 0.960756
Si Si2 0.723306 0.909565 0.891774
Si Si3 0.403694 0.177589 0.396120
Si Si4 0.733395 0.399274 0.187444
Si Si5 0.000000 0.000000 0.500000
Si Si6 0.765476 0.571860 0.131411
Si Si7 0.909006 0.889548 0.234060
Si Si8 0.584279 0.724210 0.491432
O O1 0.447019 0.448521 0.830896
O O2 0.497633 0.318905 0.874891
O O3 0.922118 0.152686 0.850873
O O4 0.812851 0.164133 0.285846
O O5 0.840244 0.890350 0.038441
O O6 0.012418 0.719424 0.918061
O O7 0.500000 0.000000 0.000000
O O8 0.533625 0.044758 0.579805
O O9 0.452614 0.190260 0.579909
O O10 0.067319 0.368959 0.244974
O O11 0.613572 0.076739 0.231346
O O12 0.892097 0.263517 0.473265
O O13 0.500000 0.500000 0.000000
O O14 0.283499 0.865419 0.440276
O O15 0.753117 0.612216 0.329909
O O16 0.724806 0.627875 0.822102
#
# Coordination Sequence:
#
# PCOD9052323 Si02
#       8
#     2   2   2   2   1   2   2   2
#     4  11  25  47  76 107 152 190 256 308 377 451
#     4  11  27  44  73 105 146 190 248 310 383 447
#     4  11  27  45  73 103 150 191 245 311 377 450
#     4  11  25  46  72 110 142 197 248 308 377 448
#     4  10  26  44  74 110 144 192 246 310 372 436
#     4  11  28  46  76 110 147 203 248 311 368 459
#     4  11  26  45  74 109 143 199 243 311 385 444
#     4  11  26  47  73 108 151 196 255 302 381 446
#
# _framework density 23.517700000000001
#
# number of rings (size 3 to 8) (size 9 to 14) (size 15 to 20)
#    0.000    1.067    1.333    2.000   13.067    4.267 
#    0.000    0.000    0.000    0.000    0.000    0.000 
#    0.000    0.000    0.000    0.000    0.000    0.000 
#
# Total GULP energy -83595.529087 kJ/mol
# GULP energy per Si atom -5573.035272 kJ/mol
# Density = 2.346417 g / cm^3
# Si number density = 23.517700 Si / 1000 Ang^3
#
#
#
# Elastic Constant Matrix: (Units=GPa)
#
#
# Indices 1 2 3 4 5 6 
#
# 1 61.8495 2.1949 15.0802 16.8933 -10.3708 -27.0171
# 2 2.1949 122.3265 29.0663 4.4413 7.3937 -28.7431
# 3 15.0802 29.0663 93.7641 -9.0202 -3.1827 -5.8388
# 4 16.8933 4.4413 -9.0202 29.6772 1.2417 0.2925
# 5 -10.3708 7.3937 -3.1827 1.2417 28.1494 9.7978
# 6 -27.0171 -28.7431 -5.8388 0.2925 9.7978 51.4511
#
#
#
# Elastic Compliance Matrix: (Units=1/GPa)
#
#
# Indices 1 2 3 4 5 6 
#
# 1 0.033462 0.006603 -0.008275 -0.022905 0.003803 0.019727
# 2 0.006603 0.012326 -0.005055 -0.007044 -0.004802 0.010733
# 3 -0.008275 -0.005055 0.014187 0.009774 0.001506 -0.005901
# 4 -0.022905 -0.007044 0.009774 0.051014 -0.002637 -0.014641
# 5 0.003803 -0.004802 0.001506 -0.002637 0.041391 -0.008382
# 6 0.019727 0.010733 -0.005901 -0.014641 -0.008382 0.036800
#
#
# Mechanical properties :
#
#
# Convention : Reuss Voigt Hill
#
# Bulk Modulus (GPa) = 21.49578 41.18032 31.33805
# Shear Modulus (GPa) = 22.92107 37.29546 30.10826
#
# Velocity S-wave (km/s) = 3.12529 3.98659 3.58192
# Velocity P-wave (km/s) = 4.70992 6.22406 5.51916
#
# Compressibility (1/GPa) = 0.04652075
#
# Stress axis : x y z
#
# Youngs Moduli (GPa) = 29.88448 81.13242 70.48812
#
# Poissons Ratio (x) = -0.53569 0.58326
# Poissons Ratio (y) = -0.19732 0.35632
# Poissons Ratio (z) = 0.24728 0.41013
#
# Static dielectric constant tensor:
#      x y z
#    x 1.908740 0.003410 -0.015300 
#    y 0.003410 2.086370 -0.122120 
#    z -0.015300 -0.122120 2.066290 
# 
# From -- ./inp_files/101035.got.cif
#   From: 2010.05.17/outbox.cif.g08.bks.cpg/sg2_51_cif.got.tgz:101035.got - 2010.06.03 11:33:40.
