data_PCOD9052223
_publ_section_title
;
Structure prediction by ZEFSAII (Michael W. Deem and Ramdas Pophale) SiO2 
 PCOD9052223
Probable space group: P -1
;
_chemical_formula_sum "Si O2"
_cell_formula_units_Z 16
_cell_length_a 9.043828
_cell_length_b 15.581801
_cell_length_c 18.909513
_cell_angle_alpha 151.432067
_cell_angle_beta 143.979943
_cell_angle_gamma 36.374112
_cell_volume 705.470934
_symmetry_space_group_name_H-M "P -1"
_symmetry_group_IT_number 2
_symmetry_cell_setting 'triclinic'
loop_
_space_group_symop_operation_xyz
x,y,z
-x,-y,-z
loop_
_atom_site_type_symbol
_atom_site_label
_atom_site_fract_x
_atom_site_fract_y
_atom_site_fract_z
Si Si1 0.432795 0.543175 0.278661
Si Si2 0.334126 0.163700 0.606470
Si Si3 0.936301 0.512954 0.364995
Si Si4 0.371397 0.710429 0.070273
Si Si5 0.557760 0.397692 0.372228
Si Si6 0.548595 0.798564 0.049355
Si Si7 0.012678 0.945546 0.383942
Si Si8 0.793430 0.828758 0.880511
O O1 0.738754 0.500267 0.341216
O O2 0.409185 0.526499 0.341677
O O3 0.261164 0.749389 0.332828
O O4 0.338540 0.382702 0.088888
O O5 0.248692 0.366683 0.682375
O O6 0.507124 0.162358 0.741777
O O7 0.500000 0.000000 0.500000
O O8 0.071937 0.113992 0.488117
O O9 0.133893 0.629863 0.544248
O O10 0.110021 0.310523 0.251651
O O11 0.458171 0.727529 0.035725
O O12 0.500000 0.500000 0.000000
O O13 0.050944 0.780212 0.995340
O O14 0.500000 0.500000 0.500000
O O15 0.443351 0.224919 0.211443
O O16 0.757915 0.901973 0.225544
O O17 0.308327 0.955893 0.030018
O O18 0.000000 0.000000 0.500000
#
# Coordination Sequence:
#
# PCOD9052223 Si02
#       8
#     2   2   2   2   2   2   2   2
#     4  12  26  47  74 110 147 194 246 312 363 439
#     4  12  25  45  71 112 143 191 248 302 359 437
#     4  11  23  46  72 111 147 189 245 301 369 433
#     4  12  25  45  76 106 152 198 238 302 368 436
#     4  10  26  43  74 104 149 187 240 300 371 433
#     4  12  27  48  76 110 148 194 249 304 367 441
#     4  12  28  46  76 107 148 196 250 301 373 434
#     4  11  25  47  78 105 149 195 242 294 377 438
#
# _framework density 22.679886
#
# number of rings (size 3 to 8) (size 9 to 14) (size 15 to 20)
#    0.000    0.500    5.000    1.875    8.750    2.500 
#    0.000    0.000    0.000    0.000    0.000    0.000 
#    0.000    0.000    0.000    0.000    0.000    0.000 
#
# Total GULP energy -89541.623468 kJ/mol
# GULP energy per Si atom -5596.351467 kJ/mol
# Density = 2.262827 g / cm^3
# Si number density = 22.679886 Si / 1000 Ang^3
#
#
#
# Elastic Constant Matrix: (Units=GPa)
#
#
# Indices 1 2 3 4 5 6 
#
# 1 78.5233 13.6025 31.2855 -0.6126 16.3384 18.7150
# 2 13.6025 91.3770 30.2525 -1.4972 -2.1639 18.1470
# 3 31.2855 30.2525 116.6749 -15.9157 15.3701 -0.6173
# 4 -0.6126 -1.4972 -15.9157 41.7052 -6.7928 2.0097
# 5 16.3384 -2.1639 15.3701 -6.7928 38.7393 -0.9645
# 6 18.7150 18.1470 -0.6173 2.0097 -0.9645 41.3365
#
#
#
# Elastic Compliance Matrix: (Units=1/GPa)
#
#
# Indices 1 2 3 4 5 6 
#
# 1 0.017648 0.000239 -0.004282 -0.001994 -0.006285 -0.008209
# 2 0.000239 0.013427 -0.003891 -0.000389 0.001975 -0.005996
# 3 -0.004282 -0.003891 0.011544 0.003662 -0.002260 0.003588
# 4 -0.001994 -0.000389 0.003662 0.025973 0.003920 -0.000043
# 5 -0.006285 0.001975 -0.002260 0.003920 0.030220 0.002459
# 6 -0.008209 -0.005996 0.003588 -0.000043 0.002459 0.030654
#
#
# Mechanical properties :
#
#
# Convention : Reuss Voigt Hill
#
# Bulk Modulus (GPa) = 37.37888 48.53957 42.95922
# Shear Modulus (GPa) = 32.41495 38.45186 35.43340
#
# Velocity S-wave (km/s) = 3.78463 4.12201 3.95692
# Velocity P-wave (km/s) = 5.96781 6.64102 6.31339
#
# Compressibility (1/GPa) = 0.02675308
#
# Stress axis : x y z
#
# Youngs Moduli (GPa) = 56.66289 74.47474 86.62519
#
# Poissons Ratio (x) = -0.01781 0.37091
# Poissons Ratio (y) = -0.01355 0.33703
# Poissons Ratio (z) = 0.24262 0.28975
#
# Static dielectric constant tensor:
#      x y z
#    x 1.851150 -0.014810 0.017200 
#    y -0.014810 1.818900 -0.018970 
#    z 0.017200 -0.018970 1.865280 
# 
# From -- ./inp_files/561444.got.cif
#   From: 2010.05.17/outbox.cif.g08.bks.cpg/sg2_281_cif.got.tgz:561444.got - 2010.06.03 11:33:40.
