data_PCOD9052086
_publ_section_title
;
Structure prediction by ZEFSAII (Michael W. Deem and Ramdas Pophale) SiO2 
 PCOD9052086
Probable space group: P -1
;
_chemical_formula_sum "Si O2"
_cell_formula_units_Z 14
_cell_length_a 8.401143
_cell_length_b 5.289173
_cell_length_c 16.282848
_cell_angle_alpha 63.013322
_cell_angle_beta 57.347184
_cell_angle_gamma 66.989968
_cell_volume 532.462492
_symmetry_space_group_name_H-M "P -1"
_symmetry_group_IT_number 2
_symmetry_cell_setting 'triclinic'
loop_
_space_group_symop_operation_xyz
x,y,z
-x,-y,-z
loop_
_atom_site_type_symbol
_atom_site_label
_atom_site_fract_x
_atom_site_fract_y
_atom_site_fract_z
Si Si1 0.396995 0.230656 0.930066
Si Si2 0.892539 0.307694 0.452645
Si Si3 0.578906 0.146843 0.188709
Si Si4 0.369804 0.693791 0.334097
Si Si5 0.014547 0.087828 0.077725
Si Si6 0.345919 0.831308 0.607706
Si Si7 0.062436 0.785737 0.271709
O O1 0.491050 0.515881 0.861917
O O2 0.401813 0.060619 0.867161
O O3 0.500000 0.000000 0.000000
O O4 0.169607 0.296969 0.009252
O O5 0.778313 0.430583 0.547518
O O6 0.731734 0.319335 0.426599
O O7 0.047213 0.462032 0.344916
O O8 0.000000 0.000000 0.500000
O O9 0.457828 0.963666 0.305368
O O10 0.793364 0.162051 0.155299
O O11 0.548491 0.420691 0.322510
O O12 0.236489 0.833566 0.274491
O O13 0.092976 0.841377 0.159633
O O14 0.000000 0.000000 0.000000
O O15 0.500000 0.000000 0.500000
O O16 0.146813 0.030575 0.667515
#
# Coordination Sequence:
#
# PCOD9052086 Si02
#       7
#     2   2   2   2   2   2   2
#     4  11  24  48  74 109 147 198 260 327 398 474
#     4  12  25  47  73 115 161 205 259 318 392 483
#     4  11  26  46  74 109 147 202 255 325 401 467
#     4  12  26  47  74 115 157 207 262 323 396 484
#     4  10  25  50  78 109 151 200 265 333 400 469
#     4  12  26  45  77 109 158 211 257 323 392 478
#     4  12  26  50  75 111 157 208 262 324 401 472
#
# _framework density 26.292935
#
# number of rings (size 3 to 8) (size 9 to 14) (size 15 to 20)
#    0.000    0.571    2.857    4.286    4.000    2.286 
#    7.714    0.000    0.000    0.000    0.000    0.000 
#    0.000    0.000    0.000    0.000    0.000    0.000 
#
# Total GULP energy -78251.322120 kJ/mol
# GULP energy per Si atom -5589.380151 kJ/mol
# Density = 2.623309 g / cm^3
# Si number density = 26.292935 Si / 1000 Ang^3
#
#
#
# Elastic Constant Matrix: (Units=GPa)
#
#
# Indices 1 2 3 4 5 6 
#
# 1 130.0325 37.2441 57.8503 -15.0626 -17.1030 -24.2880
# 2 37.2441 113.6538 39.8324 -25.0636 1.5416 -23.6079
# 3 57.8503 39.8324 165.3891 -27.6791 2.7267 2.1763
# 4 -15.0626 -25.0636 -27.6791 55.3485 6.3883 -7.0376
# 5 -17.1030 1.5416 2.7267 6.3883 68.3896 -8.0625
# 6 -24.2880 -23.6079 2.1763 -7.0376 -8.0625 50.7501
#
#
#
# Elastic Compliance Matrix: (Units=1/GPa)
#
#
# Indices 1 2 3 4 5 6 
#
# 1 0.011291 -0.001016 -0.003654 0.001112 0.003573 0.005809
# 2 -0.001016 0.012105 -0.001782 0.005090 -0.000237 0.005889
# 3 -0.003654 -0.001782 0.008175 0.002118 -0.001741 -0.002911
# 4 0.001112 0.005090 0.002118 0.022619 -0.001359 0.005730
# 5 0.003573 -0.000237 -0.001741 -0.001359 0.016196 0.004059
# 6 0.005809 0.005889 -0.002911 0.005730 0.004059 0.026789
#
#
# Mechanical properties :
#
#
# Convention : Reuss Voigt Hill
#
# Bulk Modulus (GPa) = 53.56875 75.43654 64.50265
# Shear Modulus (GPa) = 42.99200 53.17422 48.08311
#
# Velocity S-wave (km/s) = 4.04804 4.50196 4.28102
# Velocity P-wave (km/s) = 6.50130 7.46838 7.00156
#
# Compressibility (1/GPa) = 0.01866760
#
# Stress axis : x y z
#
# Youngs Moduli (GPa) = 88.56700 82.60971 122.32432
#
# Poissons Ratio (x) = 0.08393 0.44697
# Poissons Ratio (y) = 0.08998 0.21795
# Poissons Ratio (z) = 0.32362 0.14719
#
# Static dielectric constant tensor:
#      x y z
#    x 2.095890 -0.048850 -0.082950 
#    y -0.048850 2.206170 0.083460 
#    z -0.082950 0.083460 2.237190 
# 
# From -- ./inp_files/553135.got.cif
#   From: 2010.05.17/outbox.cif.g08.bks.cpg/sg2_277_cif.got.tgz:553135.got - 2010.06.03 11:33:40.
