data_PCOD9052113
_publ_section_title
;
Structure prediction by ZEFSAII (Michael W. Deem and Ramdas Pophale) SiO2 
 PCOD9052113
Probable space group: P -1
;
_chemical_formula_sum "Si O2"
_cell_formula_units_Z 16
_cell_length_a 20.312481
_cell_length_b 9.622826
_cell_length_c 6.002234
_cell_angle_alpha 106.831100
_cell_angle_beta 59.185050
_cell_angle_gamma 135.092468
_cell_volume 706.111117
_symmetry_space_group_name_H-M "P -1"
_symmetry_group_IT_number 2
_symmetry_cell_setting 'triclinic'
loop_
_space_group_symop_operation_xyz
x,y,z
-x,-y,-z
loop_
_atom_site_type_symbol
_atom_site_label
_atom_site_fract_x
_atom_site_fract_y
_atom_site_fract_z
Si Si1 0.760466 0.514601 0.918613
Si Si2 0.411912 0.639457 0.547336
Si Si3 0.587686 0.166744 0.750468
Si Si4 0.123422 0.628730 0.351083
Si Si5 0.114792 0.718751 0.910546
Si Si6 0.778113 0.872574 0.016529
Si Si7 0.378033 0.107550 0.455444
Si Si8 0.378962 0.317079 0.196446
O O1 0.678777 0.383518 0.796957
O O2 0.847099 0.503061 0.748556
O O3 0.682262 0.389075 0.202827
O O4 0.795332 0.726333 0.975304
O O5 0.461263 0.801039 0.344334
O O6 0.501219 0.712595 0.600446
O O7 0.366243 0.429874 0.446323
O O8 0.638932 0.081663 0.547697
O O9 0.500000 0.000000 0.000000
O O10 0.156788 0.739521 0.590147
O O11 0.000000 0.500000 0.500000
O O12 0.161693 0.727778 0.078945
O O13 0.118293 0.897372 0.023463
O O14 0.000000 0.500000 0.000000
O O15 0.695314 0.872164 0.285586
O O16 0.717305 0.787738 0.849566
O O17 0.371527 0.146498 0.229418
O O18 0.500000 0.500000 0.000000
#
# Coordination Sequence:
#
# PCOD9052113 Si02
#       8
#     2   2   2   2   2   2   2   2
#     4  12  26  43  67 103 144 188 245 307 363 448
#     4  12  24  41  62  98 147 198 250 300 353 427
#     4  12  26  40  61  97 143 194 253 293 355 421
#     4  10  25  51  80 108 143 185 240 313 385 446
#     4  10  25  51  80 110 141 183 244 310 383 450
#     4  12  26  42  70 102 141 195 239 301 368 440
#     4  12  25  39  63  95 142 196 249 285 356 426
#     4  12  23  40  63  97 147 199 245 292 352 435
#
# _framework density 22.659320999999998
#
# number of rings (size 3 to 8) (size 9 to 14) (size 15 to 20)
#    0.000    0.500    5.000    3.000    7.000    0.000 
#    0.000    5.000    0.000    0.000    0.000    0.000 
#    0.000    0.000    0.000    0.000    0.000    0.000 
#
# Total GULP energy -89149.398969 kJ/mol
# GULP energy per Si atom -5571.837436 kJ/mol
# Density = 2.260775 g / cm^3
# Si number density = 22.659321 Si / 1000 Ang^3
#
#
#
# Elastic Constant Matrix: (Units=GPa)
#
#
# Indices 1 2 3 4 5 6 
#
# 1 89.0989 26.5501 30.3754 3.1047 -3.9237 -12.6629
# 2 26.5501 144.2564 25.4028 24.7476 -0.1800 -15.6881
# 3 30.3754 25.4028 86.4432 13.9598 7.7069 -11.6308
# 4 3.1047 24.7476 13.9598 38.3005 -8.7714 2.5951
# 5 -3.9237 -0.1800 7.7069 -8.7714 40.5513 -1.3773
# 6 -12.6629 -15.6881 -11.6308 2.5951 -1.3773 45.2624
#
#
#
# Elastic Compliance Matrix: (Units=1/GPa)
#
#
# Indices 1 2 3 4 5 6 
#
# 1 0.013671 -0.001883 -0.004603 0.002284 0.002749 0.001942
# 2 -0.001883 0.008626 -0.000495 -0.005692 -0.001192 0.002626
# 3 -0.004603 -0.000495 0.015056 -0.006007 -0.004520 0.002617
# 4 0.002284 -0.005692 -0.006007 0.034059 0.008549 -0.004570
# 5 0.002749 -0.001192 -0.004520 0.008549 0.027614 -0.000455
# 6 0.001942 0.002626 0.002617 -0.004570 -0.000455 0.024467
#
#
# Mechanical properties :
#
#
# Convention : Reuss Voigt Hill
#
# Bulk Modulus (GPa) = 42.74894 53.82831 48.28862
# Shear Modulus (GPa) = 34.42260 40.65418 37.53839
#
# Velocity S-wave (km/s) = 3.90184 4.24033 4.07460
# Velocity P-wave (km/s) = 6.26147 6.91238 6.59496
#
# Compressibility (1/GPa) = 0.02339239
#
# Stress axis : x y z
#
# Youngs Moduli (GPa) = 73.14534 115.92483 66.41694
#
# Poissons Ratio (x) = 0.21826 0.30575
# Poissons Ratio (y) = 0.13772 0.03285
# Poissons Ratio (z) = 0.33672 0.05734
#
# Static dielectric constant tensor:
#      x y z
#    x 1.852830 0.074620 0.022930 
#    y 0.074620 1.919050 -0.031970 
#    z 0.022930 -0.031970 2.034830 
# 
# From -- ./inp_files/116225.got.cif
#   From: 2010.05.17/outbox.cif.g08.bks.cpg/sg2_59_cif.got.tgz:116225.got - 2010.06.03 11:33:40.
