data_PCOD9052350
_publ_section_title
;
Structure prediction by ZEFSAII (Michael W. Deem and Ramdas Pophale) SiO2 
 PCOD9052350
Probable space group: P -1
;
_chemical_formula_sum "Si O2"
_cell_formula_units_Z 12
_cell_length_a 5.186434
_cell_length_b 15.507651
_cell_length_c 8.924685
_cell_angle_alpha 49.560313
_cell_angle_beta 76.206559
_cell_angle_gamma 72.700828
_cell_volume 520.577424
_symmetry_space_group_name_H-M "P -1"
_symmetry_group_IT_number 2
_symmetry_cell_setting 'triclinic'
loop_
_space_group_symop_operation_xyz
x,y,z
-x,-y,-z
loop_
_atom_site_type_symbol
_atom_site_label
_atom_site_fract_x
_atom_site_fract_y
_atom_site_fract_z
Si Si1 0.764027 0.443665 0.437524
Si Si2 0.420795 0.156315 0.975411
Si Si3 0.996836 0.400741 0.991119
Si Si4 0.155897 0.693345 0.140650
Si Si5 0.074148 0.767387 0.565391
Si Si6 0.458396 0.104617 0.673270
O O1 0.500000 0.500000 0.500000
O O2 0.839761 0.550118 0.218119
O O3 0.935379 0.377198 0.626318
O O4 0.766907 0.342019 0.430390
O O5 0.620028 0.238454 0.909453
O O6 0.460505 0.134125 0.816905
O O7 0.109861 0.215752 0.973143
O O8 0.491954 0.033488 0.186462
O O9 0.947768 0.712956 0.786473
O O10 0.748068 0.381993 0.937695
O O11 0.000000 0.500000 0.000000
O O12 0.294999 0.843851 0.488681
O O13 0.828876 0.837684 0.422617
#
# Coordination Sequence:
#
# PCOD9052350 Si02
#       6
#     2   2   2   2   2   2
#     4  11  23  43  72 101 134 181 237 282 328 404
#     4  11  23  41  73 105 132 173 236 288 336 398
#     4  10  26  45  67 100 145 185 223 281 349 409
#     4  12  23  44  70 103 135 178 233 286 330 405
#     4  11  24  45  69 102 143 181 222 279 358 405
#     4  11  22  44  71 103 138 179 224 287 349 404
#
# _framework density 23.051326
#
# number of rings (size 3 to 8) (size 9 to 14) (size 15 to 20)
#    0.000    1.000    3.333    2.500    0.000    8.000 
#    0.000   13.333    0.000    0.000    0.000    0.000 
#    0.000    0.000    0.000    0.000    0.000    0.000 
#
# Total GULP energy -66979.722494 kJ/mol
# GULP energy per Si atom -5581.643541 kJ/mol
# Density = 2.299886 g / cm^3
# Si number density = 23.051326 Si / 1000 Ang^3
#
#
#
# Elastic Constant Matrix: (Units=GPa)
#
#
# Indices 1 2 3 4 5 6 
#
# 1 110.1073 35.2684 28.3704 -15.4861 -3.7494 -0.2956
# 2 35.2684 93.6964 49.0591 0.5438 0.8532 12.8473
# 3 28.3704 49.0591 138.4164 -12.7622 -19.0226 -9.9144
# 4 -15.4861 0.5438 -12.7622 43.7210 4.6550 7.2247
# 5 -3.7494 0.8532 -19.0226 4.6550 24.5111 -6.0950
# 6 -0.2956 12.8473 -9.9144 7.2247 -6.0950 29.8992
#
#
#
# Elastic Compliance Matrix: (Units=1/GPa)
#
#
# Indices 1 2 3 4 5 6 
#
# 1 0.011047 -0.004317 -0.000115 0.003559 0.001412 0.001354
# 2 -0.004317 0.018307 -0.008018 -0.000924 -0.010447 -0.012474
# 3 -0.000115 -0.008018 0.012569 0.000771 0.012342 0.009942
# 4 0.003559 -0.000924 0.000771 0.026059 -0.005445 -0.006719
# 5 0.001412 -0.010447 0.012342 -0.005445 0.057362 0.021604
# 6 0.001354 -0.012474 0.009942 -0.006719 0.021604 0.048143
#
#
# Mechanical properties :
#
#
# Convention : Reuss Voigt Hill
#
# Bulk Modulus (GPa) = 58.74470 63.06842 60.90656
# Shear Modulus (GPa) = 24.50242 34.92775 29.71508
#
# Velocity S-wave (km/s) = 3.26383 3.89680 3.59428
# Velocity P-wave (km/s) = 6.30421 6.90407 6.61095
#
# Compressibility (1/GPa) = 0.01702281
#
# Stress axis : x y z
#
# Youngs Moduli (GPa) = 90.52477 54.62457 79.55887
#
# Poissons Ratio (x) = 0.23582 0.00915
# Poissons Ratio (y) = 0.39080 0.63790
# Poissons Ratio (z) = 0.01041 0.43798
#
# Static dielectric constant tensor:
#      x y z
#    x 1.976610 -0.079490 0.098500 
#    y -0.079490 2.058340 -0.089760 
#    z 0.098500 -0.089760 2.000650 
# 
# From -- ./inp_files/132040.got.cif
#   From: 2010.05.17/outbox.cif.g08.bks.cpg/sg2_67_cif.got.tgz:132040.got - 2010.06.03 11:33:40.
