data_PCOD9052231
_publ_section_title
;
Structure prediction by ZEFSAII (Michael W. Deem and Ramdas Pophale) SiO2 
 PCOD9052231
Probable space group: P -1
;
_chemical_formula_sum "Si O2"
_cell_formula_units_Z 16
_cell_length_a 23.802110
_cell_length_b 8.165355
_cell_length_c 4.925862
_cell_angle_alpha 55.864753
_cell_angle_beta 86.849374
_cell_angle_gamma 56.547350
_cell_volume 614.663547
_symmetry_space_group_name_H-M "P -1"
_symmetry_group_IT_number 2
_symmetry_cell_setting 'triclinic'
loop_
_space_group_symop_operation_xyz
x,y,z
-x,-y,-z
loop_
_atom_site_type_symbol
_atom_site_label
_atom_site_fract_x
_atom_site_fract_y
_atom_site_fract_z
Si Si1 0.372699 0.769818 0.689616
Si Si2 0.628496 0.621150 0.190797
Si Si3 0.428636 0.049230 0.580383
Si Si4 0.765216 0.444307 0.578325
Si Si5 0.885351 0.608033 0.471737
Si Si6 0.019664 0.278444 0.405157
Si Si7 0.862807 0.294719 0.173739
Si Si8 0.277812 0.031974 0.955036
O O1 0.426241 0.822632 0.724367
O O2 0.328532 0.806128 0.936464
O O3 0.406614 0.509388 0.763032
O O4 0.312532 0.969116 0.300467
O O5 0.584227 0.849256 0.205311
O O6 0.708721 0.418531 0.483306
O O7 0.633495 0.724668 0.810448
O O8 0.500000 0.000000 0.500000
O O9 0.821956 0.382041 0.388353
O O10 0.720819 0.744714 0.362906
O O11 0.809025 0.301682 0.969212
O O12 0.924795 0.727853 0.409008
O O13 0.806941 0.831220 0.161594
O O14 0.946043 0.373961 0.481593
O O15 0.874407 0.482585 0.847244
O O16 0.064612 0.994275 0.549040
O O17 0.000000 0.500000 0.000000
#
# Coordination Sequence:
#
# PCOD9052231 Si02
#       8
#     2   2   2   2   2   2   2   2
#     4  12  25  44  74 108 145 191 237 305 353 429
#     4  12  26  44  73 110 147 188 245 293 361 430
#     4  12  26  49  74 107 155 195 235 293 353 435
#     4  11  23  44  71 103 138 182 239 304 364 434
#     4  10  26  44  65  97 136 190 236 307 363 447
#     4  11  27  44  65  97 140 185 247 300 374 446
#     4  11  26  43  71  97 135 187 240 300 374 428
#     4  11  23  44  72  99 141 184 242 294 372 410
#
# _framework density 26.0305
#
# number of rings (size 3 to 8) (size 9 to 14) (size 15 to 20)
#    0.000    0.750    2.500    3.750   12.250    1.500 
#    0.000    0.000    0.000    0.000    0.000    0.000 
#    0.000    0.000    0.000    0.000    0.000    0.000 
#
# Total GULP energy -89595.459225 kJ/mol
# GULP energy per Si atom -5599.716202 kJ/mol
# Density = 2.597125 g / cm^3
# Si number density = 26.030500 Si / 1000 Ang^3
#
#
#
# Elastic Constant Matrix: (Units=GPa)
#
#
# Indices 1 2 3 4 5 6 
#
# 1 186.0379 42.4754 14.5344 7.6665 4.9525 13.9425
# 2 42.4754 101.9897 8.6293 18.7844 0.0340 31.5549
# 3 14.5344 8.6293 84.1311 15.1637 8.5988 1.1520
# 4 7.6665 18.7844 15.1637 40.9163 2.0081 -6.0395
# 5 4.9525 0.0340 8.5988 2.0081 31.2099 1.3129
# 6 13.9425 31.5549 1.1520 -6.0395 1.3129 41.0607
#
#
#
# Elastic Compliance Matrix: (Units=1/GPa)
#
#
# Indices 1 2 3 4 5 6 
#
# 1 0.006013 -0.002490 -0.000765 0.000332 -0.000761 -0.000033
# 2 -0.002490 0.016690 0.000454 -0.009415 0.001422 -0.013424
# 3 -0.000765 0.000454 0.013204 -0.004964 -0.003152 -0.001089
# 4 0.000332 -0.009415 -0.004964 0.032383 -0.001266 0.012066
# 5 -0.000761 0.001422 -0.003152 -0.001266 0.033194 -0.001994
# 6 -0.000033 -0.013424 -0.001089 0.012066 -0.001994 0.036551
#
#
# Mechanical properties :
#
#
# Convention : Reuss Voigt Hill
#
# Bulk Modulus (GPa) = 32.99886 55.93741 44.46814
# Shear Modulus (GPa) = 32.52268 43.07202 37.79735
#
# Velocity S-wave (km/s) = 3.53853 4.07218 3.81470
# Velocity P-wave (km/s) = 5.42213 6.60652 6.04341
#
# Compressibility (1/GPa) = 0.03030407
#
# Stress axis : x y z
#
# Youngs Moduli (GPa) = 166.31835 59.91433 75.73669
#
# Poissons Ratio (x) = 0.14918 0.05794
# Poissons Ratio (y) = 0.41412 -0.03436
# Poissons Ratio (z) = 0.12724 -0.02718
#
# Static dielectric constant tensor:
#      x y z
#    x 2.113170 0.057800 0.021990 
#    y 0.057800 2.072010 -0.064710 
#    z 0.021990 -0.064710 2.057040 
# 
# From -- ./inp_files/122341.got.cif
#   From: 2010.05.17/outbox.cif.g08.bks.cpg/sg2_62_cif.got.tgz:122341.got - 2010.06.03 11:33:40.
