data_PCOD9052385
_publ_section_title
;
Structure prediction by ZEFSAII (Michael W. Deem and Ramdas Pophale) SiO2 
 PCOD9052385
Probable space group: P -1
;
_chemical_formula_sum "Si O2"
_cell_formula_units_Z 16
_cell_length_a 22.297717
_cell_length_b 16.769005
_cell_length_c 5.852022
_cell_angle_alpha 69.827109
_cell_angle_beta 100.224228
_cell_angle_gamma 159.112491
_cell_volume 660.309414
_symmetry_space_group_name_H-M "P -1"
_symmetry_group_IT_number 2
_symmetry_cell_setting 'triclinic'
loop_
_space_group_symop_operation_xyz
x,y,z
-x,-y,-z
loop_
_atom_site_type_symbol
_atom_site_label
_atom_site_fract_x
_atom_site_fract_y
_atom_site_fract_z
Si Si1 0.526065 0.627828 0.983077
Si Si2 0.723296 0.963015 0.404645
Si Si3 0.794137 0.739474 0.512654
Si Si4 0.524240 0.244567 0.839595
Si Si5 0.407709 0.944496 0.741524
Si Si6 0.287696 0.617397 0.824752
Si Si7 0.860866 0.009978 0.124286
Si Si8 0.912771 0.364726 0.327221
O O1 0.548115 0.716809 0.693154
O O2 0.500000 0.500000 0.000000
O O3 0.362204 0.439463 0.228278
O O4 0.726840 0.882308 0.987141
O O5 0.646263 0.917556 0.184079
O O6 0.804555 0.981296 0.354008
O O7 0.865239 0.203775 0.415199
O O8 0.707098 0.534595 0.573058
O O9 0.812858 0.846627 0.257213
O O10 0.000000 0.000000 0.500000
O O11 0.445777 0.052829 0.877411
O O12 0.600033 0.315641 0.067124
O O13 0.305307 0.719456 0.914508
O O14 0.274101 0.825729 0.612275
O O15 0.607573 0.204501 0.496785
O O16 0.077607 0.313679 0.935844
O O17 0.000000 0.500000 0.500000
O O18 0.000000 0.500000 0.000000
#
# Coordination Sequence:
#
# PCOD9052385 Si02
#       8
#     2   2   2   2   2   2   2   2
#     4  12  26  47  74 104 149 196 252 313 385 468
#     4  11  26  43  76 103 142 200 245 317 378 463
#     4  12  25  45  72 107 150 190 247 315 387 464
#     4  11  24  45  72 100 143 188 244 307 385 453
#     4  10  26  45  73 104 146 198 244 314 389 462
#     4  11  25  47  71 104 146 192 248 316 386 470
#     4  12  25  47  73 107 146 198 251 314 388 465
#     4  11  27  46  75 115 152 199 260 323 389 468
#
# _framework density 24.231065000000001
#
# number of rings (size 3 to 8) (size 9 to 14) (size 15 to 20)
#    0.000    0.750    3.750    2.250   10.500    2.000 
#    2.250    1.875    0.000    0.000    0.000    0.000 
#    0.000    0.000    0.000    0.000    0.000    0.000 
#
# Total GULP energy -89278.723673 kJ/mol
# GULP energy per Si atom -5579.920230 kJ/mol
# Density = 2.417591 g / cm^3
# Si number density = 24.231065 Si / 1000 Ang^3
#
#
#
# Elastic Constant Matrix: (Units=GPa)
#
#
# Indices 1 2 3 4 5 6 
#
# 1 51.8946 12.7449 6.0454 5.1136 5.5283 -8.5631
# 2 12.7449 135.8176 33.1503 0.9968 -7.4588 1.8495
# 3 6.0454 33.1503 85.0014 -19.2361 2.4384 4.8046
# 4 5.1136 0.9968 -19.2361 37.0238 1.2182 7.1457
# 5 5.5283 -7.4588 2.4384 1.2182 29.7089 -9.0093
# 6 -8.5631 1.8495 4.8046 7.1457 -9.0093 52.1489
#
#
#
# Elastic Compliance Matrix: (Units=1/GPa)
#
#
# Indices 1 2 3 4 5 6 
#
# 1 0.021321 -0.001677 -0.002046 -0.004619 -0.002852 0.003889
# 2 -0.001677 0.008645 -0.003882 -0.002238 0.003079 0.000614
# 3 -0.002046 -0.003882 0.015849 0.009413 -0.003350 -0.003527
# 4 -0.004619 -0.002238 0.009413 0.034060 -0.003963 -0.006898
# 5 -0.002852 0.003079 -0.003350 -0.003963 0.037446 0.006744
# 6 0.003889 0.000614 -0.003527 -0.006898 0.006744 0.022228
#
#
# Mechanical properties :
#
#
# Convention : Reuss Voigt Hill
#
# Bulk Modulus (GPa) = 32.67310 41.84388 37.25849
# Shear Modulus (GPa) = 30.31041 38.49454 34.40247
#
# Velocity S-wave (km/s) = 3.54063 3.99010 3.77207
# Velocity P-wave (km/s) = 5.49800 6.20758 5.86353
#
# Compressibility (1/GPa) = 0.03060622
#
# Stress axis : x y z
#
# Youngs Moduli (GPa) = 46.90271 115.67700 63.09376
#
# Poissons Ratio (x) = 0.19400 0.12907
# Poissons Ratio (y) = 0.07866 0.24490
# Poissons Ratio (z) = 0.09595 0.44901
#
# Static dielectric constant tensor:
#      x y z
#    x 1.992450 -0.071440 -0.010140 
#    y -0.071440 1.962870 0.024230 
#    z -0.010140 0.024230 1.999820 
# 
# From -- ./inp_files/124686.got.cif
#   From: 2010.05.17/outbox.cif.g08.bks.cpg/sg2_63_cif.got.tgz:124686.got - 2010.06.03 11:33:40.
