data_PCOD9052122
_publ_section_title
;
Structure prediction by ZEFSAII (Michael W. Deem and Ramdas Pophale) SiO2 
 PCOD9052122
Probable space group: P -1
;
_chemical_formula_sum "Si O2"
_cell_formula_units_Z 16
_cell_length_a 9.087685
_cell_length_b 17.571710
_cell_length_c 6.680494
_cell_angle_alpha 49.277844
_cell_angle_beta 71.810080
_cell_angle_gamma 56.753365
_cell_volume 674.414911
_symmetry_space_group_name_H-M "P -1"
_symmetry_group_IT_number 2
_symmetry_cell_setting 'triclinic'
loop_
_space_group_symop_operation_xyz
x,y,z
-x,-y,-z
loop_
_atom_site_type_symbol
_atom_site_label
_atom_site_fract_x
_atom_site_fract_y
_atom_site_fract_z
Si Si1 0.317740 0.502505 0.052644
Si Si2 0.940209 0.310160 0.843184
Si Si3 0.519229 0.256155 0.551818
Si Si4 0.720923 0.747667 0.005735
Si Si5 0.505693 0.094314 0.524796
Si Si6 0.766035 0.975549 0.264097
Si Si7 0.149881 0.817915 0.229406
Si Si8 0.879585 0.492532 0.237755
O O1 0.181684 0.600967 0.087902
O O2 0.366358 0.375220 0.324715
O O3 0.500000 0.500000 0.000000
O O4 0.265684 0.517511 0.816867
O O5 0.858642 0.242550 0.870005
O O6 0.967420 0.387490 0.530189
O O7 0.126042 0.230700 0.005478
O O8 0.434028 0.219757 0.828855
O O9 0.574205 0.158026 0.533228
O O10 0.688683 0.262077 0.556500
O O11 0.803392 0.611562 0.178664
O O12 0.636181 0.808951 0.729908
O O13 0.384808 0.042593 0.757195
O O14 0.669861 0.008169 0.466224
O O15 0.958679 0.866010 0.335100
O O16 0.807177 0.078149 0.011547
O O17 0.000000 0.500000 0.000000
#
# Coordination Sequence:
#
# PCOD9052122 Si02
#       8
#     2   2   2   2   2   2   2   2
#     4  12  27  41  67 106 146 189 227 278 351 425
#     4  12  27  45  70 105 149 188 227 287 349 417
#     4  12  25  44  74 105 141 183 229 290 352 417
#     4  12  24  44  72 105 142 183 232 289 342 417
#     4  11  25  48  77 103 134 182 244 292 347 412
#     4  10  25  52  70 102 136 181 243 296 349 415
#     4  11  26  48  71 102 146 182 230 293 362 408
#     4  12  24  44  70 103 144 186 236 276 342 425
#
# _framework density 23.724269
#
# number of rings (size 3 to 8) (size 9 to 14) (size 15 to 20)
#    0.000    0.500    5.000    2.625    5.250    3.000 
#    9.000    0.000    0.000    0.000    0.000    0.000 
#    0.000    0.000    0.000    0.000    0.000    0.000 
#
# Total GULP energy -89494.390860 kJ/mol
# GULP energy per Si atom -5593.399429 kJ/mol
# Density = 2.367027 g / cm^3
# Si number density = 23.724269 Si / 1000 Ang^3
#
#
#
# Elastic Constant Matrix: (Units=GPa)
#
#
# Indices 1 2 3 4 5 6 
#
# 1 139.9194 43.8372 22.6258 14.4465 17.9509 3.9383
# 2 43.8372 98.4555 6.0077 6.9923 14.6978 2.8053
# 3 22.6258 6.0077 69.3143 -10.5180 5.8933 2.6422
# 4 14.4465 6.9923 -10.5180 33.7782 5.1790 -2.3819
# 5 17.9509 14.6978 5.8933 5.1790 42.9970 9.9979
# 6 3.9383 2.8053 2.6422 -2.3819 9.9979 51.5117
#
#
#
# Elastic Compliance Matrix: (Units=1/GPa)
#
#
# Indices 1 2 3 4 5 6 
#
# 1 0.009394 -0.003428 -0.003226 -0.004056 -0.001771 -0.000210
# 2 -0.003428 0.012109 0.000210 -0.000556 -0.002691 0.000088
# 3 -0.003226 0.000210 0.016649 0.006806 -0.001839 0.000053
# 4 -0.004056 -0.000556 0.006806 0.034306 -0.003716 0.002299
# 5 -0.001771 -0.002691 -0.001839 -0.003716 0.026777 -0.004993
# 6 -0.000210 0.000088 0.000053 0.002299 -0.004993 0.020497
#
#
# Mechanical properties :
#
#
# Convention : Reuss Voigt Hill
#
# Bulk Modulus (GPa) = 39.58053 50.29231 44.93642
# Shear Modulus (GPa) = 35.45049 41.33861 38.39455
#
# Velocity S-wave (km/s) = 3.86977 4.17881 4.02726
# Velocity P-wave (km/s) = 6.05695 6.67293 6.37239
#
# Compressibility (1/GPa) = 0.02526495
#
# Stress axis : x y z
#
# Youngs Moduli (GPa) = 106.44539 82.58440 60.06308
#
# Poissons Ratio (x) = 0.28307 0.19379
# Poissons Ratio (y) = 0.36485 -0.01263
# Poissons Ratio (z) = 0.34344 -0.01737
#
# Static dielectric constant tensor:
#      x y z
#    x 1.886260 -0.045330 -0.031570 
#    y -0.045330 1.844870 -0.104820 
#    z -0.031570 -0.104820 1.940040 
# 
# From -- ./inp_files/46671.got.cif
#   From: 2010.05.17/outbox.cif.g08.bks.cpg/sg2_24_cif.got.tgz:46671.got - 2010.06.03 11:33:40.
