data_PCOD9052261
_publ_section_title
;
Structure prediction by ZEFSAII (Michael W. Deem and Ramdas Pophale) SiO2 
 PCOD9052261
Probable space group: P -1
;
_chemical_formula_sum "Si O2"
_cell_formula_units_Z 12
_cell_length_a 17.526540
_cell_length_b 4.936780
_cell_length_c 5.486829
_cell_angle_alpha 88.832257
_cell_angle_beta 76.246766
_cell_angle_gamma 81.699870
_cell_volume 456.256303
_symmetry_space_group_name_H-M "P -1"
_symmetry_group_IT_number 2
_symmetry_cell_setting 'triclinic'
loop_
_space_group_symop_operation_xyz
x,y,z
-x,-y,-z
loop_
_atom_site_type_symbol
_atom_site_label
_atom_site_fract_x
_atom_site_fract_y
_atom_site_fract_z
Si Si1 0.048647 0.434410 0.715660
Si Si2 0.276078 0.215329 0.594673
Si Si3 0.759909 0.871997 0.890012
Si Si4 0.595440 0.259453 0.010621
Si Si5 0.154887 0.882646 0.543007
Si Si6 0.438143 0.214705 0.292952
O O1 0.119392 0.614246 0.630345
O O2 0.000000 0.500000 0.500000
O O3 0.089729 0.122358 0.690629
O O4 0.000000 0.500000 0.000000
O O5 0.254705 0.308906 0.332684
O O6 0.368479 0.245928 0.544286
O O7 0.241349 0.921232 0.589205
O O8 0.233142 0.311481 0.873799
O O9 0.831469 0.031244 0.750411
O O10 0.682407 0.097456 0.993479
O O11 0.529365 0.248064 0.271495
O O12 0.588856 0.561696 0.902558
O O13 0.565605 0.080730 0.815917
#
# Coordination Sequence:
#
# PCOD9052261 Si02
#       6
#     2   2   2   2   2   2
#     4  12  28  46  74  96 131 164 209 256 326 392
#     4   9  21  38  65  93 131 169 213 262 315 368
#     4   9  21  38  65  93 131 169 213 262 315 368
#     4   9  18  35  58  88 127 171 218 262 308 364
#     4  10  26  44  69 100 130 166 210 262 317 386
#     4   9  18  35  58  88 127 171 218 262 308 364
#
# _framework density 26.301009000000001
#
# number of rings (size 3 to 8) (size 9 to 14) (size 15 to 20)
#    1.000    1.333    0.000    1.000    7.000    0.667 
#    0.000   13.333    0.000   18.000    0.000    0.000 
#    0.000    0.000    0.000    0.000    0.000    0.000 
#
# Total GULP energy -66957.452340 kJ/mol
# GULP energy per Si atom -5579.787695 kJ/mol
# Density = 2.624115 g / cm^3
# Si number density = 26.301009 Si / 1000 Ang^3
#
#
#
# Elastic Constant Matrix: (Units=GPa)
#
#
# Indices 1 2 3 4 5 6 
#
# 1 117.4454 34.4644 68.1360 -10.1187 -21.6581 -10.8584
# 2 34.4644 87.4920 22.1304 0.0550 4.4624 -17.0544
# 3 68.1360 22.1304 217.3724 -2.4684 -14.4387 -1.4744
# 4 -10.1187 0.0550 -2.4684 20.7955 -2.7782 -9.6898
# 5 -21.6581 4.4624 -14.4387 -2.7782 46.5771 -2.7487
# 6 -10.8584 -17.0544 -1.4744 -9.6898 -2.7487 38.3154
#
#
#
# Elastic Compliance Matrix: (Units=1/GPa)
#
#
# Indices 1 2 3 4 5 6 
#
# 1 0.014322 -0.004133 -0.003466 0.009848 0.006868 0.005069
# 2 -0.004133 0.014251 -0.000332 -0.000232 -0.003116 0.004877
# 3 -0.003466 -0.000332 0.005694 -0.001624 0.000010 -0.001321
# 4 0.009848 -0.000232 -0.001624 0.062811 0.008975 0.019153
# 5 0.006868 -0.003116 0.000010 0.008975 0.025776 0.004678
# 6 0.005069 0.004877 -0.001321 0.019153 0.004678 0.034835
#
#
# Mechanical properties :
#
#
# Convention : Reuss Voigt Hill
#
# Bulk Modulus (GPa) = 54.33367 74.64126 64.48746
# Shear Modulus (GPa) = 27.82619 40.97619 34.40119
#
# Velocity S-wave (km/s) = 3.25620 3.95140 3.62052
# Velocity P-wave (km/s) = 5.90258 7.01849 6.48458
#
# Compressibility (1/GPa) = 0.01840479
#
# Stress axis : x y z
#
# Youngs Moduli (GPa) = 69.82323 70.16810 175.62595
#
# Poissons Ratio (x) = 0.29003 0.60873
# Poissons Ratio (y) = 0.28860 0.05828
# Poissons Ratio (z) = 0.24201 0.02329
#
# Static dielectric constant tensor:
#      x y z
#    x 2.188260 -0.050730 0.054680 
#    y -0.050730 2.039990 0.004350 
#    z 0.054680 0.004350 2.142840 
# 
# From -- ./inp_files/113962.got.cif
#   From: 2010.05.17/outbox.cif.g08.bks.cpg/sg2_57_cif.got.tgz:113962.got - 2010.06.03 11:33:40.
