data_PCOD9052892
_publ_section_title
;
Structure prediction by ZEFSAII (Michael W. Deem and Ramdas Pophale) SiO2 
 PCOD9052892
Probable space group: P -1
;
_chemical_formula_sum "Si O2"
_cell_formula_units_Z 12
_cell_length_a 11.601631
_cell_length_b 6.892205
_cell_length_c 6.708637
_cell_angle_alpha 62.093920
_cell_angle_beta 72.058143
_cell_angle_gamma 98.888653
_cell_volume 421.575432
_symmetry_space_group_name_H-M "P -1"
_symmetry_group_IT_number 2
_symmetry_cell_setting 'triclinic'
loop_
_space_group_symop_operation_xyz
x,y,z
-x,-y,-z
loop_
_atom_site_type_symbol
_atom_site_label
_atom_site_fract_x
_atom_site_fract_y
_atom_site_fract_z
Si Si1 0.044810 0.808330 0.451754
Si Si2 0.272520 0.766502 0.105023
Si Si3 0.790582 0.181639 0.303055
Si Si4 0.459493 0.123215 0.207972
Si Si5 0.792548 0.674577 0.403070
Si Si6 0.594004 0.533958 0.244511
O O1 0.175024 0.865956 0.222198
O O2 0.934143 0.692738 0.402507
O O3 0.089319 0.696556 0.674729
O O4 0.000000 0.000000 0.500000
O O5 0.290382 0.545474 0.311655
O O6 0.211882 0.682243 0.961597
O O7 0.418688 0.938670 0.907154
O O8 0.660814 0.097582 0.547081
O O9 0.787270 0.926446 0.345791
O O10 0.526428 0.294030 0.273062
O O11 0.408270 0.275887 0.011128
O O12 0.735946 0.611928 0.240378
O O13 0.500000 0.500000 0.500000
#
# Coordination Sequence:
#
# PCOD9052892 Si02
#       6
#     2   2   2   2   2   2
#     4  10  27  51  73 109 146 195 250 302 372 430
#     4  12  26  47  75 112 145 196 247 302 366 440
#     4  11  26  47  72 111 151 193 238 304 368 436
#     4  11  24  43  72 114 148 192 244 297 373 436
#     4  11  24  50  75 103 148 194 247 298 363 437
#     4  11  21  44  75 107 149 197 240 302 366 430
#
# _framework density 28.464656999999999
#
# number of rings (size 3 to 8) (size 9 to 14) (size 15 to 20)
#    0.000    1.000    3.333    2.000    4.667    4.000 
#    6.000    0.000    0.000    0.000    0.000    0.000 
#    0.000    0.000    0.000    0.000    0.000    0.000 
#
# Total GULP energy -67172.309034 kJ/mol
# GULP energy per Si atom -5597.692420 kJ/mol
# Density = 2.839987 g / cm^3
# Si number density = 28.464657 Si / 1000 Ang^3
#
#
#
# Elastic Constant Matrix: (Units=GPa)
#
#
# Indices 1 2 3 4 5 6 
#
# 1 205.3574 39.3498 80.6809 40.9351 50.8440 42.0435
# 2 39.3498 152.0901 37.7333 44.5411 14.6941 23.4790
# 3 80.6809 37.7333 153.9788 22.8419 47.8460 2.9251
# 4 40.9351 44.5411 22.8419 48.8432 -2.0109 14.6948
# 5 50.8440 14.6941 47.8460 -2.0109 76.6175 17.3071
# 6 42.0435 23.4790 2.9251 14.6948 17.3071 53.4166
#
#
#
# Elastic Compliance Matrix: (Units=1/GPa)
#
#
# Indices 1 2 3 4 5 6 
#
# 1 0.008664 0.001177 -0.002851 -0.005780 -0.003327 -0.004512
# 2 0.001177 0.009561 -0.001134 -0.008589 -0.001641 -0.002172
# 3 -0.002851 -0.001134 0.010350 -0.003093 -0.005523 0.004816
# 4 -0.005780 -0.008589 -0.003093 0.036353 0.009396 -0.004551
# 5 -0.003327 -0.001641 -0.005523 0.009396 0.020534 -0.005595
# 6 -0.004512 -0.002172 0.004816 -0.004551 -0.005595 0.026028
#
#
# Mechanical properties :
#
#
# Convention : Reuss Voigt Hill
#
# Bulk Modulus (GPa) = 43.55886 91.88379 67.72132
# Shear Modulus (GPa) = 40.07717 59.35295 49.71506
#
# Velocity S-wave (km/s) = 3.75635 4.57129 4.18371
# Velocity P-wave (km/s) = 5.84377 7.75966 6.86884
#
# Compressibility (1/GPa) = 0.02295744
#
# Stress axis : x y z
#
# Youngs Moduli (GPa) = 115.41997 104.58928 96.62278
#
# Poissons Ratio (x) = -0.12306 0.27547
# Poissons Ratio (y) = -0.13580 0.10960
# Poissons Ratio (z) = 0.32906 0.11863
#
# Static dielectric constant tensor:
#      x y z
#    x 2.295780 -0.020620 -0.039570 
#    y -0.020620 2.331990 0.032790 
#    z -0.039570 0.032790 2.210400 
# 
# From -- ./inp_files/41367.got.cif
#   From: 2010.05.17/outbox.cif.g08.bks.cpg/sg2_21_cif.got.tgz:41367.got - 2010.06.03 11:33:40.
