data_PCOD9052896
_publ_section_title
;
Structure prediction by ZEFSAII (Michael W. Deem and Ramdas Pophale) SiO2 
 PCOD9052896
Probable space group: P -1
;
_chemical_formula_sum "Si O2"
_cell_formula_units_Z 14
_cell_length_a 10.932282
_cell_length_b 15.419705
_cell_length_c 6.513434
_cell_angle_alpha 118.892739
_cell_angle_beta 80.951352
_cell_angle_gamma 142.593914
_cell_volume 528.339699
_symmetry_space_group_name_H-M "P -1"
_symmetry_group_IT_number 2
_symmetry_cell_setting 'triclinic'
loop_
_space_group_symop_operation_xyz
x,y,z
-x,-y,-z
loop_
_atom_site_type_symbol
_atom_site_label
_atom_site_fract_x
_atom_site_fract_y
_atom_site_fract_z
Si Si1 0.151794 0.128343 0.907941
Si Si2 0.750644 0.169998 0.541659
Si Si3 0.165355 0.698093 0.761656
Si Si4 0.437725 0.226968 0.609603
Si Si5 0.438772 0.573989 0.587991
Si Si6 0.799784 0.437697 0.103975
Si Si7 0.894910 0.140582 0.812619
O O1 0.216099 0.113177 0.663338
O O2 0.076103 0.185998 0.911435
O O3 0.383700 0.267787 0.117914
O O4 0.000000 0.000000 0.000000
O O5 0.723803 0.174846 0.314969
O O6 0.869028 0.151731 0.590110
O O7 0.500000 0.000000 0.500000
O O8 0.933064 0.375944 0.791101
O O9 0.295371 0.717014 0.913241
O O10 0.000000 0.500000 0.500000
O O11 0.071272 0.730650 0.944229
O O12 0.513779 0.358168 0.575240
O O13 0.342766 0.070912 0.327952
O O14 0.644570 0.345801 0.840179
O O15 0.500000 0.500000 0.500000
O O16 0.223661 0.481447 0.639613
#
# Coordination Sequence:
#
# PCOD9052896 Si02
#       7
#     2   2   2   2   2   2   2
#     4  11  26  47  77 120 163 207 269 334 405 482
#     4  11  29  50  80 112 155 214 277 331 413 475
#     4  10  27  51  78 113 161 211 269 335 406 479
#     4  11  27  48  79 121 164 213 273 332 415 490
#     4  11  27  45  81 115 163 219 268 327 414 481
#     4  10  27  51  78 115 165 207 275 343 400 494
#     4  12  28  46  82 117 161 209 271 337 403 480
#
# _framework density 26.498103
#
# number of rings (size 3 to 8) (size 9 to 14) (size 15 to 20)
#    0.000    1.143    1.429    0.429   14.000    4.000 
#    0.000    0.000    0.000    0.000    0.000    0.000 
#    0.000    0.000    0.000    0.000    0.000    0.000 
#
# Total GULP energy -78078.864958 kJ/mol
# GULP energy per Si atom -5577.061783 kJ/mol
# Density = 2.643779 g / cm^3
# Si number density = 26.498103 Si / 1000 Ang^3
#
#
#
# Elastic Constant Matrix: (Units=GPa)
#
#
# Indices 1 2 3 4 5 6 
#
# 1 192.0229 84.2345 57.8593 -27.8499 16.9340 -41.9075
# 2 84.2345 182.9129 55.8836 -34.6804 10.5996 -29.1508
# 3 57.8593 55.8836 103.2743 -10.7283 14.2574 -8.5383
# 4 -27.8499 -34.6804 -10.7283 50.9887 -16.9792 15.7393
# 5 16.9340 10.5996 14.2574 -16.9792 44.9981 -8.7834
# 6 -41.9075 -29.1508 -8.5383 15.7393 -8.7834 62.6364
#
#
#
# Elastic Compliance Matrix: (Units=1/GPa)
#
#
# Indices 1 2 3 4 5 6 
#
# 1 0.007942 -0.001945 -0.002913 0.001114 -0.000472 0.003665
# 2 -0.001945 0.008152 -0.003012 0.003950 0.001510 0.001301
# 3 -0.002913 -0.003012 0.013102 -0.001443 -0.003212 -0.001653
# 4 0.001114 0.003950 -0.001443 0.026362 0.008459 -0.003052
# 5 -0.000472 0.001510 -0.003212 0.008459 0.026557 0.001548
# 6 0.003665 0.001301 -0.001653 -0.003052 0.001548 0.019782
#
#
# Mechanical properties :
#
#
# Convention : Reuss Voigt Hill
#
# Bulk Modulus (GPa) = 74.31992 97.12944 85.72468
# Shear Modulus (GPa) = 40.94312 50.40682 45.67497
#
# Velocity S-wave (km/s) = 3.93508 4.36625 4.15626
# Velocity P-wave (km/s) = 6.98245 7.88376 7.44675
#
# Compressibility (1/GPa) = 0.01345534
#
# Stress axis : x y z
#
# Youngs Moduli (GPa) = 125.92010 122.67488 76.32461
#
# Poissons Ratio (x) = 0.23855 0.22234
# Poissons Ratio (y) = 0.24486 0.22990
# Poissons Ratio (z) = 0.36682 0.36952
#
# Static dielectric constant tensor:
#      x y z
#    x 2.429660 0.149080 -0.347180 
#    y 0.149080 2.133910 -0.100340 
#    z -0.347180 -0.100340 2.391710 
# 
# From -- ./inp_files/76684.got.cif
#   From: 2010.05.17/outbox.cif.g08.bks.cpg/sg2_39_cif.got.tgz:76684.got - 2010.06.03 11:33:40.
