data_PCOD9052219
_publ_section_title
;
Structure prediction by ZEFSAII (Michael W. Deem and Ramdas Pophale) SiO2 
 PCOD9052219
Probable space group: P -1
;
_chemical_formula_sum "Si O2"
_cell_formula_units_Z 14
_cell_length_a 9.260065
_cell_length_b 21.687187
_cell_length_c 9.186484
_cell_angle_alpha 34.139466
_cell_angle_beta 45.350963
_cell_angle_gamma 33.360027
_cell_volume 568.949710
_symmetry_space_group_name_H-M "P -1"
_symmetry_group_IT_number 2
_symmetry_cell_setting 'triclinic'
loop_
_space_group_symop_operation_xyz
x,y,z
-x,-y,-z
loop_
_atom_site_type_symbol
_atom_site_label
_atom_site_fract_x
_atom_site_fract_y
_atom_site_fract_z
Si Si1 0.835447 0.652346 0.233116
Si Si2 0.479475 0.043899 0.624102
Si Si3 0.715381 0.096100 0.095592
Si Si4 0.265017 0.665225 0.802773
Si Si5 0.518222 0.790356 0.464819
Si Si6 0.843550 0.284928 0.565260
Si Si7 0.055925 0.529929 0.745711
O O1 0.608112 0.762283 0.289719
O O2 0.799553 0.604353 0.199049
O O3 0.000000 0.500000 0.500000
O O4 0.014602 0.694279 0.991991
O O5 0.669811 0.049637 0.372115
O O6 0.535367 0.075732 0.680614
O O7 0.166921 0.171111 0.560059
O O8 0.483197 0.912837 0.840296
O O9 0.709018 0.229442 0.851626
O O10 0.000000 0.000000 0.000000
O O11 0.302149 0.769529 0.650862
O O12 0.241224 0.683020 0.608206
O O13 0.500000 0.500000 0.000000
O O14 0.771169 0.654928 0.634963
O O15 0.790067 0.411859 0.447476
O O16 0.000000 0.500000 0.000000
#
# Coordination Sequence:
#
# PCOD9052219 Si02
#       7
#     2   2   2   2   2   2   2
#     4  10  20  35  55  76 123 165 197 239 291 347
#     4   9  20  40  65  87 119 151 195 262 307 360
#     4   9  19  40  67  93 112 143 204 259 314 355
#     4  12  21  37  54  84 128 164 202 241 285 351
#     4  10  22  36  56  84 117 164 195 237 311 356
#     4  10  21  35  60  90 121 157 207 246 294 353
#     4  10  17  35  56  81 118 161 201 247 283 340
#
# _framework density 24.606745
#
# number of rings (size 3 to 8) (size 9 to 14) (size 15 to 20)
#    0.000    2.000    4.286    0.000    0.000    5.714 
#    0.000    1.429    0.000    8.571    0.000    0.000 
#    0.000    0.000    0.000    0.000    0.000    0.000 
#
# Total GULP energy -78165.811317 kJ/mol
# GULP energy per Si atom -5583.272237 kJ/mol
# Density = 2.455074 g / cm^3
# Si number density = 24.606745 Si / 1000 Ang^3
#
#
#
# Elastic Constant Matrix: (Units=GPa)
#
#
# Indices 1 2 3 4 5 6 
#
# 1 136.8466 45.0614 74.6818 -7.4369 -38.8983 37.3094
# 2 45.0614 86.5210 41.8135 9.0946 -30.7560 36.7228
# 3 74.6818 41.8135 184.6940 18.7206 -49.0168 33.9795
# 4 -7.4369 9.0946 18.7206 36.0352 7.5277 -13.5186
# 5 -38.8983 -30.7560 -49.0168 7.5277 71.3649 -10.4436
# 6 37.3094 36.7228 33.9795 -13.5186 -10.4436 67.4319
#
#
#
# Elastic Compliance Matrix: (Units=1/GPa)
#
#
# Indices 1 2 3 4 5 6 
#
# 1 0.011524 -0.003424 -0.003553 0.004123 0.001691 -0.001633
# 2 -0.003424 0.022493 0.002669 -0.014660 0.009275 -0.013202
# 3 -0.003553 0.002669 0.009938 -0.009952 0.006281 -0.005517
# 4 0.004123 -0.014660 -0.009952 0.047022 -0.013218 0.018097
# 5 0.001691 0.009275 0.006281 -0.013218 0.023444 -0.008171
# 6 -0.001633 -0.013202 -0.005517 0.018097 -0.008171 0.028066
#
#
# Mechanical properties :
#
#
# Convention : Reuss Voigt Hill
#
# Bulk Modulus (GPa) = 28.29852 81.24168 54.77010
# Shear Modulus (GPa) = 30.69698 51.40005 41.04852
#
# Velocity S-wave (km/s) = 3.53583 4.57536 4.08877
# Velocity P-wave (km/s) = 5.30987 7.81023 6.67811
#
# Compressibility (1/GPa) = 0.03533754
#
# Stress axis : x y z
#
# Youngs Moduli (GPa) = 86.77624 44.45841 100.62640
#
# Poissons Ratio (x) = 0.15222 0.35755
# Poissons Ratio (y) = 0.29711 -0.26852
# Poissons Ratio (z) = 0.30834 -0.11864
#
# Static dielectric constant tensor:
#      x y z
#    x 1.987220 -0.060360 0.017680 
#    y -0.060360 2.105840 -0.117330 
#    z 0.017680 -0.117330 1.993620 
# 
# From -- ./inp_files/220194.got.cif
#   From: 2010.05.17/outbox.cif.g08.bks.cpg/sg2_111_cif.got.tgz:220194.got - 2010.06.03 11:33:40.
