data_PCOD9052914
_publ_section_title
;
Structure prediction by ZEFSAII (Michael W. Deem and Ramdas Pophale) SiO2 
 PCOD9052914
Probable space group: P -1
;
_chemical_formula_sum "Si O2"
_cell_formula_units_Z 16
_cell_length_a 11.832569
_cell_length_b 12.434098
_cell_length_c 8.981920
_cell_angle_alpha 60.860235
_cell_angle_beta 48.854853
_cell_angle_gamma 86.582566
_cell_volume 797.950660
_symmetry_space_group_name_H-M "P -1"
_symmetry_group_IT_number 2
_symmetry_cell_setting 'triclinic'
loop_
_space_group_symop_operation_xyz
x,y,z
-x,-y,-z
loop_
_atom_site_type_symbol
_atom_site_label
_atom_site_fract_x
_atom_site_fract_y
_atom_site_fract_z
Si Si1 0.351778 0.023670 0.196210
Si Si2 0.196606 0.453605 0.136596
Si Si3 0.096888 0.696477 0.155881
Si Si4 0.555131 0.315185 0.755995
Si Si5 0.472659 0.657370 0.571193
Si Si6 0.714432 0.591712 0.595781
Si Si7 0.636441 0.103712 0.417017
Si Si8 0.855028 0.232321 0.587682
O O1 0.338339 0.974351 0.410024
O O2 0.194064 0.920742 0.315988
O O3 0.407409 0.182576 0.031697
O O4 0.500000 0.000000 0.000000
O O5 0.144054 0.568862 0.175098
O O6 0.278895 0.405229 0.233194
O O7 0.032110 0.332257 0.311339
O O8 0.321541 0.526855 0.849507
O O9 0.143416 0.750665 0.246812
O O10 0.902364 0.644844 0.344836
O O11 0.200196 0.812147 0.873865
O O12 0.503555 0.353969 0.616443
O O13 0.617211 0.438905 0.730689
O O14 0.714608 0.279120 0.618443
O O15 0.623054 0.671924 0.537526
O O16 0.429263 0.786027 0.544307
O O17 0.500000 0.000000 0.500000
#
# Coordination Sequence:
#
# PCOD9052914 Si02
#       8
#     2   2   2   2   2   2   2   2
#     4  10  20  34  57  85 111 149 190 235 278 331
#     4  10  20  36  59  86 112 149 192 240 275 327
#     4  10  20  35  63  86 109 150 194 238 276 328
#     4  11  20  36  58  84 116 153 184 231 288 342
#     4  11  24  35  57  90 116 149 186 235 291 338
#     4  11  21  40  58  85 120 149 186 232 293 338
#     4  11  22  37  60  89 112 147 198 238 274 334
#     4  10  17  35  58  83 111 146 194 233 277 330
#
# _framework density 20.051366000000002
#
# number of rings (size 3 to 8) (size 9 to 14) (size 15 to 20)
#    0.000    1.500    5.000    3.000    1.750    1.500 
#    0.000    0.625    0.000    1.500    0.000    0.000 
#    0.000    0.000    0.000    0.000    0.000    0.000 
#
# Total GULP energy -89397.512635 kJ/mol
# GULP energy per Si atom -5587.344540 kJ/mol
# Density = 2.000573 g / cm^3
# Si number density = 20.051366 Si / 1000 Ang^3
#
#
#
# Elastic Constant Matrix: (Units=GPa)
#
#
# Indices 1 2 3 4 5 6 
#
# 1 94.6441 26.4004 69.6617 -15.6468 7.4118 6.2568
# 2 26.4004 52.9381 41.0080 -18.9035 -10.1852 18.9173
# 3 69.6617 41.0080 144.8903 -22.6403 6.4284 10.5584
# 4 -15.6468 -18.9035 -22.6403 25.1235 4.6065 -11.0959
# 5 7.4118 -10.1852 6.4284 4.6065 24.6534 -9.9481
# 6 6.2568 18.9173 10.5584 -11.0959 -9.9481 26.9809
#
#
#
# Elastic Compliance Matrix: (Units=1/GPa)
#
#
# Indices 1 2 3 4 5 6 
#
# 1 0.017376 -0.003523 -0.006619 0.003388 -0.005414 0.000428
# 2 -0.003523 0.036554 -0.006256 0.011718 0.010012 -0.013854
# 3 -0.006619 -0.006256 0.012540 0.003671 -0.004149 0.000994
# 4 0.003388 0.011718 0.003671 0.060476 -0.003067 0.013301
# 5 -0.005414 0.010012 -0.004149 -0.003067 0.053807 0.014437
# 6 0.000428 -0.013854 0.000994 0.013301 0.014437 0.057082
#
#
# Mechanical properties :
#
#
# Convention : Reuss Voigt Hill
#
# Bulk Modulus (GPa) = 29.69532 62.95698 46.32615
# Shear Modulus (GPa) = 17.73962 25.71171 21.72567
#
# Velocity S-wave (km/s) = 2.97763 3.58480 3.29523
# Velocity P-wave (km/s) = 5.16367 6.97140 6.13449
#
# Compressibility (1/GPa) = 0.03367534
#
# Stress axis : x y z
#
# Youngs Moduli (GPa) = 57.55046 27.35656 79.74632
#
# Poissons Ratio (x) = 0.09638 0.52781
# Poissons Ratio (y) = 0.20276 0.49886
# Poissons Ratio (z) = 0.38090 0.17113
#
# Static dielectric constant tensor:
#      x y z
#    x 1.704300 -0.009960 -0.001790 
#    y -0.009960 1.734030 0.000570 
#    z -0.001790 0.000570 1.703370 
# 
# From -- ./inp_files/224097.got.cif
#   From: 2010.05.17/outbox.cif.g08.bks.cpg/sg2_113_cif.got.tgz:224097.got - 2010.06.03 11:33:40.
