data_PCOD9052120
_publ_section_title
;
Structure prediction by ZEFSAII (Michael W. Deem and Ramdas Pophale) SiO2 
 PCOD9052120
Probable space group: P -1
;
_chemical_formula_sum "Si O2"
_cell_formula_units_Z 16
_cell_length_a 5.485759
_cell_length_b 17.421179
_cell_length_c 18.877722
_cell_angle_alpha 154.984869
_cell_angle_beta 106.636408
_cell_angle_gamma 85.053184
_cell_volume 660.784559
_symmetry_space_group_name_H-M "P -1"
_symmetry_group_IT_number 2
_symmetry_cell_setting 'triclinic'
loop_
_space_group_symop_operation_xyz
x,y,z
-x,-y,-z
loop_
_atom_site_type_symbol
_atom_site_label
_atom_site_fract_x
_atom_site_fract_y
_atom_site_fract_z
Si Si1 0.766568 0.434296 0.864893
Si Si2 0.626099 0.951886 0.860127
Si Si3 0.830528 0.895314 0.592863
Si Si4 0.598001 0.368605 0.546216
Si Si5 0.633368 0.793898 0.123759
Si Si6 0.930801 0.570221 0.251276
Si Si7 0.495722 0.105917 0.661366
Si Si8 0.715287 0.822863 0.917617
O O1 0.874817 0.349227 0.735679
O O2 0.517680 0.307526 0.791747
O O3 0.735155 0.619928 0.984529
O O4 0.000000 0.500000 0.000000
O O5 0.697936 0.341045 0.028214
O O6 0.446424 0.758754 0.635436
O O7 0.667143 0.874875 0.876511
O O8 0.943854 0.075096 0.958468
O O9 0.642673 0.780472 0.546770
O O10 0.796587 0.721020 0.388357
O O11 0.716632 0.046469 0.674299
O O12 0.153420 0.022544 0.750419
O O13 0.881188 0.419416 0.656653
O O14 0.591758 0.582893 0.714668
O O15 0.700631 0.899277 0.294593
O O16 0.459412 0.089353 0.974797
O O17 0.500000 0.000000 0.500000
#
# Coordination Sequence:
#
# PCOD9052120 Si02
#       8
#     2   2   2   2   2   2   2   2
#     4  12  24  45  71  97 129 190 252 319 389 449
#     4  10  25  51  86 126 161 209 266 321 385 463
#     4  12  28  46  66 105 147 186 247 309 383 469
#     4  12  28  50  76 115 159 209 252 316 393 471
#     4  12  25  47  71  98 141 191 248 325 385 467
#     4  12  28  47  69 105 146 190 255 310 394 469
#     4  12  25  43  70  97 132 184 250 316 386 456
#     4  10  25  51  86 125 164 208 265 321 384 467
#
# _framework density 24.213639000000001
#
# number of rings (size 3 to 8) (size 9 to 14) (size 15 to 20)
#    0.000    0.500    2.500    4.500    5.250    5.000 
#    2.250    3.750    0.000    0.000    0.000    0.000 
#    0.000    0.000    0.000    0.000    0.000    0.000 
#
# Total GULP energy -89266.880903 kJ/mol
# GULP energy per Si atom -5579.180056 kJ/mol
# Density = 2.415853 g / cm^3
# Si number density = 24.213639 Si / 1000 Ang^3
#
#
#
# Elastic Constant Matrix: (Units=GPa)
#
#
# Indices 1 2 3 4 5 6 
#
# 1 100.4461 30.1414 46.1098 4.4462 -6.5646 9.6855
# 2 30.1414 78.1631 48.3934 -4.4045 4.0258 -1.4862
# 3 46.1098 48.3934 146.5687 1.3559 -2.1797 -1.2980
# 4 4.4462 -4.4045 1.3559 39.1831 8.2745 -5.3332
# 5 -6.5646 4.0258 -2.1797 8.2745 53.3837 7.6229
# 6 9.6855 -1.4862 -1.2980 -5.3332 7.6229 8.5139
#
#
#
# Elastic Compliance Matrix: (Units=1/GPa)
#
#
# Indices 1 2 3 4 5 6 
#
# 1 0.018143 -0.006434 -0.003681 -0.009606 0.009290 -0.036659
# 2 -0.006434 0.019008 -0.004234 0.007102 -0.006376 0.020149
# 3 -0.003681 -0.004234 0.009415 0.000549 -0.000666 0.005824
# 4 -0.009606 0.007102 0.000549 0.036977 -0.014313 0.048229
# 5 0.009290 -0.006376 -0.000666 -0.014313 0.029249 -0.046936
# 6 -0.036659 0.020149 0.005824 0.048229 -0.046936 0.235799
#
#
# Mechanical properties :
#
#
# Convention : Reuss Voigt Hill
#
# Bulk Modulus (GPa) = 55.96487 63.82967 59.89727
# Shear Modulus (GPa) = 13.04644 33.58503 23.31574
#
# Velocity S-wave (km/s) = 2.32374 3.72832 3.10646
# Velocity P-wave (km/s) = 5.51024 6.70464 6.13657
#
# Compressibility (1/GPa) = 0.01786835
#
# Stress axis : x y z
#
# Youngs Moduli (GPa) = 55.11686 52.60956 106.21029
#
# Poissons Ratio (x) = 0.33850 0.39096
# Poissons Ratio (y) = 0.35463 0.44968
# Poissons Ratio (z) = 0.20289 0.22274
#
# Static dielectric constant tensor:
#      x y z
#    x 1.946840 -0.047830 0.013100 
#    y -0.047830 1.885010 0.022960 
#    z 0.013100 0.022960 1.950360 
# 
# From -- ./inp_files/550214.got.cif
#   From: 2010.05.17/outbox.cif.g08.bks.cpg/sg2_276_cif.got.tgz:550214.got - 2010.06.03 11:33:40.
