data_PCOD9052059
_publ_section_title
;
Structure prediction by ZEFSAII (Michael W. Deem and Ramdas Pophale) SiO2 
 PCOD9052059
Probable space group: P -1
;
_chemical_formula_sum "Si O2"
_cell_formula_units_Z 12
_cell_length_a 15.057678
_cell_length_b 13.002620
_cell_length_c 9.290379
_cell_angle_alpha 151.070037
_cell_angle_beta 144.958403
_cell_angle_gamma 28.195753
_cell_volume 406.711135
_symmetry_space_group_name_H-M "P -1"
_symmetry_group_IT_number 2
_symmetry_cell_setting 'triclinic'
loop_
_space_group_symop_operation_xyz
x,y,z
-x,-y,-z
loop_
_atom_site_type_symbol
_atom_site_label
_atom_site_fract_x
_atom_site_fract_y
_atom_site_fract_z
Si Si1 0.809877 0.021288 0.467997
Si Si2 0.730252 0.571887 0.290354
Si Si3 0.772992 0.794203 0.888679
Si Si4 0.175109 0.612884 0.264623
Si Si5 0.166870 0.081201 0.291805
Si Si6 0.644295 0.320576 0.190362
O O1 0.802776 0.986383 0.583224
O O2 0.028091 0.832961 0.460723
O O3 0.758327 0.292063 0.661873
O O4 0.724336 0.886887 0.103284
O O5 0.700637 0.668516 0.535616
O O6 0.720502 0.800352 0.465960
O O7 0.566572 0.553069 0.994413
O O8 0.946364 0.312049 0.243843
O O9 0.702869 0.068294 0.057284
O O10 0.010493 0.590772 0.952698
O O11 0.350953 0.482430 0.451985
O O12 0.229077 0.832299 0.971096
#
# Coordination Sequence:
#
# PCOD9052059 Si02
#       6
#     2   2   2   2   2   2
#     4   8  15  31  54  79  95 140 180 206 251 316
#     4  10  21  34  51  80 110 135 167 215 261 306
#     4   8  15  33  54  73 101 143 167 204 267 302
#     4   8  16  34  57  76  99 142 175 208 267 302
#     4  10  20  32  53  83 102 136 177 209 254 315
#     4  10  17  35  56  74 105 139 167 219 260 296
#
# _framework density 29.504968000000002
#
# number of rings (size 3 to 8) (size 9 to 14) (size 15 to 20)
#    1.000    2.000    1.667    2.000    0.000    1.333 
#    0.000    8.333    0.000   18.000    0.000    0.000 
#    0.000    0.000    0.000    0.000    0.000    0.000 
#
# Total GULP energy -67080.725412 kJ/mol
# GULP energy per Si atom -5590.060451 kJ/mol
# Density = 2.943781 g / cm^3
# Si number density = 29.504968 Si / 1000 Ang^3
#
#
#
# Elastic Constant Matrix: (Units=GPa)
#
#
# Indices 1 2 3 4 5 6 
#
# 1 163.6822 38.9824 57.9669 -11.2991 -54.0772 18.0988
# 2 38.9824 93.2397 66.4601 1.9323 0.9955 3.5717
# 3 57.9669 66.4601 219.9103 -13.5647 -38.0372 13.1151
# 4 -11.2991 1.9323 -13.5647 49.1404 7.0600 -4.9419
# 5 -54.0772 0.9955 -38.0372 7.0600 56.6914 -3.1633
# 6 18.0988 3.5717 13.1151 -4.9419 -3.1633 39.7803
#
#
#
# Elastic Compliance Matrix: (Units=1/GPa)
#
#
# Indices 1 2 3 4 5 6 
#
# 1 0.011203 -0.005271 0.000838 0.001043 0.010994 -0.003896
# 2 -0.005271 0.016859 -0.005421 -0.001958 -0.008620 0.001743
# 3 0.000838 -0.005421 0.007079 0.001424 0.005377 -0.001624
# 4 0.001043 -0.001958 0.001424 0.021326 -0.000568 0.001836
# 5 0.010994 -0.008620 0.005377 -0.000568 0.031758 -0.003546
# 6 -0.003896 0.001743 -0.001624 0.001836 -0.003546 0.027236
#
#
# Mechanical properties :
#
#
# Convention : Reuss Voigt Hill
#
# Bulk Modulus (GPa) = 64.79601 89.29456 77.04529
# Shear Modulus (GPa) = 35.63428 50.01726 42.82577
#
# Velocity S-wave (km/s) = 3.47902 4.12177 3.81396
# Velocity P-wave (km/s) = 6.17631 7.27887 6.75014
#
# Compressibility (1/GPa) = 0.01543305
#
# Stress axis : x y z
#
# Youngs Moduli (GPa) = 89.26245 59.31567 141.25311
#
# Poissons Ratio (x) = 0.31266 -0.11841
# Poissons Ratio (y) = 0.47051 0.76579
# Poissons Ratio (z) = -0.07483 0.32157
#
# Static dielectric constant tensor:
#      x y z
#    x 2.334490 0.063500 0.087730 
#    y 0.063500 2.468800 -0.027530 
#    z 0.087730 -0.027530 2.464130 
# 
# From -- ./inp_files/311984.got.cif
#   From: 2010.05.17/outbox.cif.g08.bks.cpg/sg2_156_cif.got.tgz:311984.got - 2010.06.03 11:33:40.
