data_PCOD9052283
_publ_section_title
;
Structure prediction by ZEFSAII (Michael W. Deem and Ramdas Pophale) SiO2 
 PCOD9052283
Probable space group: P -1
;
_chemical_formula_sum "Si O2"
_cell_formula_units_Z 15
_cell_length_a 9.696940
_cell_length_b 23.107071
_cell_length_c 9.246493
_cell_angle_alpha 140.123299
_cell_angle_beta 50.652649
_cell_angle_gamma 152.356062
_cell_volume 608.965816
_symmetry_space_group_name_H-M "P -1"
_symmetry_group_IT_number 2
_symmetry_cell_setting 'triclinic'
loop_
_space_group_symop_operation_xyz
x,y,z
-x,-y,-z
loop_
_atom_site_type_symbol
_atom_site_label
_atom_site_fract_x
_atom_site_fract_y
_atom_site_fract_z
Si Si1 0.837458 0.607870 0.516430
Si Si2 0.115170 0.218776 0.592329
Si Si3 0.141205 0.652310 0.658129
Si Si4 0.755152 0.892056 0.225065
Si Si5 0.668322 0.197954 0.871577
Si Si6 0.032151 0.870139 0.772740
Si Si7 0.518669 0.316416 0.732457
Si Si8 0.000000 0.500000 0.000000
O O1 0.500000 0.500000 0.500000
O O2 0.906756 0.616064 0.653814
O O3 0.039355 0.776285 0.661935
O O4 0.909075 0.549630 0.261658
O O5 0.376075 0.332567 0.753863
O O6 0.916479 0.226431 0.720785
O O7 0.211833 0.230941 0.389110
O O8 0.907019 0.049662 0.458878
O O9 0.400330 0.733171 0.524943
O O10 0.000000 0.500000 0.500000
O O11 0.250579 0.733967 0.893769
O O12 0.419782 0.768524 0.136542
O O13 0.709643 0.814660 0.248019
O O14 0.945490 0.913191 0.023459
O O15 0.345940 0.019298 0.772838
O O16 0.799489 0.460301 0.918017
#
# Coordination Sequence:
#
# PCOD9052283 Si02
#       8
#     2   2   2   2   2   2   2   1
#     4  11  27  46  74 106 141 191 249 295 366 430
#     4  11  25  42  72 109 144 186 238 303 358 437
#     4  11  28  48  72 101 144 191 237 300 361 443
#     4  11  23  44  74 101 148 188 234 298 366 430
#     4  11  26  44  73 108 144 190 240 299 368 426
#     4  11  24  46  76 105 147 187 244 297 365 434
#     4  11  25  45  70 102 136 191 242 291 363 426
#     4  10  26  44  70  96 146 186 232 294 362 420
#
# _framework density 24.631924000000001
#
# number of rings (size 3 to 8) (size 9 to 14) (size 15 to 20)
#    0.000    1.067    0.000    6.000   18.667    0.533 
#    0.000    1.333    0.000    0.000    0.000    0.000 
#    0.000    0.000    0.000    0.000    0.000    0.000 
#
# Total GULP energy -83829.748939 kJ/mol
# GULP energy per Si atom -5588.649929 kJ/mol
# Density = 2.457586 g / cm^3
# Si number density = 24.631924 Si / 1000 Ang^3
#
#
#
# Elastic Constant Matrix: (Units=GPa)
#
#
# Indices 1 2 3 4 5 6 
#
# 1 182.0726 15.6955 47.9879 6.4919 32.0422 10.9754
# 2 15.6955 31.1054 3.5326 -10.3693 5.1433 7.5210
# 3 47.9879 3.5326 124.7851 -1.5244 21.3104 10.2054
# 4 6.4919 -10.3693 -1.5244 39.3557 3.0120 3.0831
# 5 32.0422 5.1433 21.3104 3.0120 56.9552 -2.3565
# 6 10.9754 7.5210 10.2054 3.0831 -2.3565 40.2983
#
#
#
# Elastic Compliance Matrix: (Units=1/GPa)
#
#
# Indices 1 2 3 4 5 6 
#
# 1 0.006907 -0.003200 -0.002050 -0.001788 -0.002768 -0.000790
# 2 -0.003200 0.040127 0.001477 0.012049 -0.003349 -0.008109
# 3 -0.002050 0.001477 0.009432 0.001484 -0.002686 -0.002376
# 4 -0.001788 0.012049 0.001484 0.029474 -0.002384 -0.004532
# 5 -0.002768 -0.003349 -0.002686 -0.002384 0.020691 0.003451
# 6 -0.000790 -0.008109 -0.002376 -0.004532 0.003451 0.027694
#
#
# Mechanical properties :
#
#
# Convention : Reuss Voigt Hill
#
# Bulk Modulus (GPa) = 20.44197 52.48832 36.46514
# Shear Modulus (GPa) = 31.61028 45.37165 38.49097
#
# Velocity S-wave (km/s) = 3.58621 4.29649 3.95732
# Velocity P-wave (km/s) = 5.04627 6.78000 5.97634
#
# Compressibility (1/GPa) = 0.04891897
#
# Stress axis : x y z
#
# Youngs Moduli (GPa) = 144.78137 24.92106 106.02741
#
# Poissons Ratio (x) = 0.07974 0.21737
# Poissons Ratio (y) = 0.46327 -0.15659
# Poissons Ratio (z) = 0.29682 -0.03680
#
# Static dielectric constant tensor:
#      x y z
#    x 1.909720 0.160530 0.085020 
#    y 0.160530 1.823180 -0.049550 
#    z 0.085020 -0.049550 1.961780 
# 
# From -- ./inp_files/226618.got.cif
#   From: 2010.05.17/outbox.cif.g08.bks.cpg/sg2_114_cif.got.tgz:226618.got - 2010.06.03 11:33:40.
