data_PCOD9052982
_publ_section_title
;
Structure prediction by ZEFSAII (Michael W. Deem and Ramdas Pophale) SiO2 
 PCOD9052982
Probable space group: P -1
;
_chemical_formula_sum "Si O2"
_cell_formula_units_Z 16
_cell_length_a 14.160255
_cell_length_b 8.033799
_cell_length_c 18.887868
_cell_angle_alpha 113.799259
_cell_angle_beta 22.694080
_cell_angle_gamma 100.689828
_cell_volume 643.596215
_symmetry_space_group_name_H-M "P -1"
_symmetry_group_IT_number 2
_symmetry_cell_setting 'triclinic'
loop_
_space_group_symop_operation_xyz
x,y,z
-x,-y,-z
loop_
_atom_site_type_symbol
_atom_site_label
_atom_site_fract_x
_atom_site_fract_y
_atom_site_fract_z
Si Si1 0.900594 0.607659 0.204420
Si Si2 0.625172 0.278071 0.500448
Si Si3 0.320854 0.386366 0.105562
Si Si4 0.460659 0.260879 0.835950
Si Si5 0.661825 0.600651 0.753886
Si Si6 0.493576 0.009116 0.359444
Si Si7 0.972060 0.104115 0.940534
Si Si8 0.348673 0.348918 0.385011
O O1 0.672231 0.580441 0.313099
O O2 0.005357 0.730101 0.100780
O O3 0.723806 0.753437 0.419024
O O4 0.170756 0.399862 0.014353
O O5 0.573433 0.129398 0.562170
O O6 0.691471 0.423854 0.527048
O O7 0.870918 0.122394 0.248480
O O8 0.416522 0.272648 0.096341
O O9 0.984368 0.578580 0.368264
O O10 0.500000 0.500000 0.000000
O O11 0.396337 0.243595 0.959063
O O12 0.601917 0.406462 0.762731
O O13 0.606843 0.040090 0.654137
O O14 0.543954 0.718698 0.781607
O O15 0.000000 0.500000 0.500000
O O16 0.821258 0.927541 0.142528
O O17 0.638372 0.187347 0.200881
#
# Coordination Sequence:
#
# PCOD9052982 Si02
#       8
#     2   2   2   2   2   2   2   2
#     4   9  17  29  50  82 112 133 163 203 248 307
#     4   9  17  29  50  84 111 128 165 212 244 297
#     4   9  22  36  52  75 102 132 176 222 260 296
#     4  11  17  33  55  72 101 145 167 197 264 314
#     4   9  18  32  54  75  92 126 176 224 255 284
#     4   9  17  29  50  82 112 133 163 203 248 307
#     4   9  17  29  50  84 111 128 165 212 244 297
#     4  11  17  33  59  76  97 139 173 206 257 306
#
# _framework density 24.860306999999999
#
# number of rings (size 3 to 8) (size 9 to 14) (size 15 to 20)
#    0.000    2.500    2.500    2.250    0.000    2.000 
#    0.000    3.750    0.000   33.000    0.000    0.000 
#    0.000    0.000    0.000    0.000    0.000    0.000 
#
# Total GULP energy -89400.667611 kJ/mol
# GULP energy per Si atom -5587.541726 kJ/mol
# Density = 2.480372 g / cm^3
# Si number density = 24.860307 Si / 1000 Ang^3
#
#
#
# Elastic Constant Matrix: (Units=GPa)
#
#
# Indices 1 2 3 4 5 6 
#
# 1 184.5663 15.2360 30.1514 4.5714 19.6582 15.6708
# 2 15.2360 33.4106 20.1841 -7.1405 -15.2448 11.3581
# 3 30.1514 20.1841 99.1074 -18.0525 -11.9791 22.6576
# 4 4.5714 -7.1405 -18.0525 29.4727 8.6489 -2.6700
# 5 19.6582 -15.2448 -11.9791 8.6489 44.1729 0.3633
# 6 15.6708 11.3581 22.6576 -2.6700 0.3633 12.7521
#
#
#
# Elastic Compliance Matrix: (Units=1/GPa)
#
#
# Indices 1 2 3 4 5 6 
#
# 1 0.006683 -0.003596 -0.001596 -0.001855 -0.004265 -0.002440
# 2 -0.003596 0.060119 0.006705 0.006932 0.023305 -0.060253
# 3 -0.001596 0.006705 0.020600 0.008847 0.007199 -0.038964
# 4 -0.001855 0.006932 0.008847 0.041004 -0.002321 -0.010963
# 5 -0.004265 0.023305 0.007199 -0.002321 0.035231 -0.029797
# 6 -0.002440 -0.060253 -0.038964 -0.010963 -0.029797 0.202868
#
#
# Mechanical properties :
#
#
# Convention : Reuss Voigt Hill
#
# Bulk Modulus (GPa) = 11.05878 49.80304 30.43091
# Shear Modulus (GPa) = 12.70255 34.04706 23.37481
#
# Velocity S-wave (km/s) = 2.26289 3.70474 3.06967
# Velocity P-wave (km/s) = 3.35940 6.19490 4.98309
#
# Compressibility (1/GPa) = 0.09042592
#
# Stress axis : x y z
#
# Youngs Moduli (GPa) = 149.62993 16.63380 48.54445
#
# Poissons Ratio (x) = 0.05982 0.07749
# Poissons Ratio (y) = 0.53809 -0.32548
# Poissons Ratio (z) = 0.23886 -0.11153
#
# Static dielectric constant tensor:
#      x y z
#    x 2.082590 -0.147060 0.070330 
#    y -0.147060 2.092980 -0.017920 
#    z 0.070330 -0.017920 1.972340 
# 
# From -- ./inp_files/270109.got.cif
#   From: 2010.05.17/outbox.cif.g08.bks.cpg/sg2_136_cif.got.tgz:270109.got - 2010.06.03 11:33:40.
