data_PCOD9052747
_publ_section_title
;
Structure prediction by ZEFSAII (Michael W. Deem and Ramdas Pophale) SiO2 
 PCOD9052747
Probable space group: P -1
;
_chemical_formula_sum "Si O2"
_cell_formula_units_Z 16
_cell_length_a 12.249574
_cell_length_b 15.859059
_cell_length_c 10.917464
_cell_angle_alpha 64.780949
_cell_angle_beta 102.278621
_cell_angle_gamma 46.219433
_cell_volume 872.193264
_symmetry_space_group_name_H-M "P -1"
_symmetry_group_IT_number 2
_symmetry_cell_setting 'triclinic'
loop_
_space_group_symop_operation_xyz
x,y,z
-x,-y,-z
loop_
_atom_site_type_symbol
_atom_site_label
_atom_site_fract_x
_atom_site_fract_y
_atom_site_fract_z
Si Si1 0.166205 0.769367 0.464706
Si Si2 0.736267 0.974701 0.120006
Si Si3 0.251757 0.627144 0.840074
Si Si4 0.644925 0.317879 0.808250
Si Si5 0.924872 0.949186 0.771095
Si Si6 0.541091 0.223777 0.684842
Si Si7 0.393073 0.359271 0.902022
Si Si8 0.048317 0.573344 0.464271
O O1 0.431591 0.549852 0.613929
O O2 0.331193 0.896109 0.336408
O O3 0.977629 0.855025 0.280758
O O4 0.112195 0.918041 0.366334
O O5 0.152130 0.736462 0.617951
O O6 0.816856 0.808561 0.244427
O O7 0.542798 0.153212 0.064300
O O8 0.064256 0.788037 0.802031
O O9 0.500000 0.500000 0.000000
O O10 0.312488 0.472867 0.933049
O O11 0.640216 0.252386 0.732718
O O12 0.569517 0.303430 0.910579
O O13 0.896229 0.176909 0.990911
O O14 0.624816 0.090051 0.893399
O O15 0.254260 0.441282 0.493522
O O16 0.172943 0.509530 0.662380
O O17 0.000000 0.500000 0.500000
#
# Coordination Sequence:
#
# PCOD9052747 Si02
#       8
#     2   2   2   2   2   2   2   2
#     4  11  18  31  53  74 105 155 181 202 254 300
#     4  10  17  35  58  75 106 133 174 221 271 308
#     4  11  19  35  48  74 116 143 187 212 231 309
#     4   9  17  31  44  71 104 138 173 209 241 303
#     4  12  21  31  49  76 115 151 171 207 254 306
#     4  10  22  33  49  81 110 135 177 216 263 322
#     4   9  18  32  52  79 100 134 179 217 251 301
#     4  10  20  38  59  79 101 128 176 234 272 313
#
# _framework density 18.344556000000001
#
# number of rings (size 3 to 8) (size 9 to 14) (size 15 to 20)
#    0.000    2.000    8.750    0.750    0.000    3.500 
#    0.000    0.000    0.000    0.750    0.000    1.750 
#    0.000    0.000    0.000    0.000    0.000    0.000 
#
# Total GULP energy -89218.475185 kJ/mol
# GULP energy per Si atom -5576.154699 kJ/mol
# Density = 1.830280 g / cm^3
# Si number density = 18.344556 Si / 1000 Ang^3
#
#
#
# Elastic Constant Matrix: (Units=GPa)
#
#
# Indices 1 2 3 4 5 6 
#
# 1 30.1250 34.4205 6.0926 -7.7776 -10.2306 10.9744
# 2 34.4205 143.0437 25.6171 -40.8747 -9.9722 -1.1491
# 3 6.0926 25.6171 67.0557 -29.2890 -15.3685 5.9657
# 4 -7.7776 -40.8747 -29.2890 33.2324 9.4417 -5.0755
# 5 -10.2306 -9.9722 -15.3685 9.4417 19.2346 -8.6956
# 6 10.9744 -1.1491 5.9657 -5.0755 -8.6956 19.2531
#
#
#
# Elastic Compliance Matrix: (Units=1/GPa)
#
#
# Indices 1 2 3 4 5 6 
#
# 1 0.077742 -0.024546 0.000486 -0.024221 0.021677 -0.042524
# 2 -0.024546 0.019263 0.002993 0.024676 -0.004301 0.018776
# 3 0.000486 0.002993 0.027127 0.024550 0.013213 0.003936
# 4 -0.024221 0.024676 0.024550 0.083055 -0.009897 0.025097
# 5 0.021677 -0.004301 0.013213 -0.009897 0.085411 0.019259
# 6 -0.042524 0.018776 0.003936 0.025097 0.019259 0.091394
#
#
# Mechanical properties :
#
#
# Convention : Reuss Voigt Hill
#
# Bulk Modulus (GPa) = 12.19541 41.38719 26.79130
# Shear Modulus (GPa) = 11.02635 25.95030 18.48832
#
# Velocity S-wave (km/s) = 2.45433 3.76520 3.17809
# Velocity P-wave (km/s) = 3.83328 6.44301 5.30125
#
# Compressibility (1/GPa) = 0.08199807
#
# Stress axis : x y z
#
# Youngs Moduli (GPa) = 12.86307 51.91170 36.86426
#
# Poissons Ratio (x) = 1.27420 -0.01790
# Poissons Ratio (y) = 0.31573 -0.11034
# Poissons Ratio (z) = -0.00625 -0.15537
#
# Static dielectric constant tensor:
#      x y z
#    x 1.632990 0.003740 -0.000610 
#    y 0.003740 1.685860 -0.022470 
#    z -0.000610 -0.022470 1.689520 
# 
# From -- ./inp_files/432719.got.cif
#   From: 2010.05.17/outbox.cif.g08.bks.cpg/sg2_217_cif.got.tgz:432719.got - 2010.06.03 11:33:40.
