data_PCOD9052495
_publ_section_title
;
Structure prediction by ZEFSAII (Michael W. Deem and Ramdas Pophale) SiO2 
 PCOD9052495
Probable space group: P -1
;
_chemical_formula_sum "Si O2"
_cell_formula_units_Z 15
_cell_length_a 6.789419
_cell_length_b 5.067168
_cell_length_c 20.300988
_cell_angle_alpha 85.775988
_cell_angle_beta 124.836300
_cell_angle_gamma 76.015924
_cell_volume 536.253673
_symmetry_space_group_name_H-M "P -1"
_symmetry_group_IT_number 2
_symmetry_cell_setting 'triclinic'
loop_
_space_group_symop_operation_xyz
x,y,z
-x,-y,-z
loop_
_atom_site_type_symbol
_atom_site_label
_atom_site_fract_x
_atom_site_fract_y
_atom_site_fract_z
Si Si1 0.229965 0.207316 0.047986
Si Si2 0.322664 0.586817 0.872690
Si Si3 0.589419 0.251742 0.802781
Si Si4 0.340602 0.238504 0.515869
Si Si5 0.293753 0.034054 0.643986
Si Si6 0.165953 0.438298 0.244046
Si Si7 0.133591 0.715295 0.364610
Si Si8 0.500000 0.000000 0.000000
O O1 0.511779 0.223334 0.074029
O O2 0.223608 0.010903 0.989589
O O3 0.300630 0.044668 0.132402
O O4 0.000000 0.500000 0.000000
O O5 0.452063 0.474393 0.829455
O O6 0.020692 0.734750 0.803977
O O7 0.350312 0.316237 0.926905
O O8 0.796699 0.362973 0.808775
O O9 0.401060 0.223236 0.709602
O O10 0.166536 0.490873 0.433678
O O11 0.578617 0.301046 0.593387
O O12 0.500000 0.000000 0.500000
O O13 0.204654 0.149155 0.551977
O O14 0.546703 0.767849 0.684090
O O15 0.064557 0.003819 0.645452
O O16 0.046144 0.622769 0.281786
#
# Coordination Sequence:
#
# PCOD9052495 Si02
#       8
#     2   2   2   2   2   2   2   1
#     4  11  27  50  74 108 148 193 243 298 372 444
#     4  11  26  48  74 110 144 190 249 302 369 442
#     4  11  26  47  72 108 145 194 242 306 367 438
#     4  11  24  46  71 107 147 197 243 304 363 436
#     4  12  25  44  75 105 144 199 241 303 370 434
#     4  12  26  46  74 106 148 192 247 308 368 434
#     4  11  25  47  70 106 148 191 249 298 366 439
#     4  10  26  46  74 104 144 188 234 302 364 434
#
# _framework density 27.971836
#
# number of rings (size 3 to 8) (size 9 to 14) (size 15 to 20)
#    0.000    0.800    4.000    1.600    5.600    6.933 
#    0.000    0.000    0.000    0.000    0.000    0.000 
#    0.000    0.000    0.000    0.000    0.000    0.000 
#
# Total GULP energy -83921.341577 kJ/mol
# GULP energy per Si atom -5594.756105 kJ/mol
# Density = 2.790817 g / cm^3
# Si number density = 27.971836 Si / 1000 Ang^3
#
#
#
# Elastic Constant Matrix: (Units=GPa)
#
#
# Indices 1 2 3 4 5 6 
#
# 1 169.2830 34.5091 60.4878 0.9608 -21.0191 -17.6164
# 2 34.5091 88.7711 14.4073 3.4715 -5.8907 -8.3043
# 3 60.4878 14.4073 88.8867 5.8833 -18.6143 13.6965
# 4 0.9608 3.4715 5.8833 52.3449 -2.9631 -0.9042
# 5 -21.0191 -5.8907 -18.6143 -2.9631 55.4837 12.6312
# 6 -17.6164 -8.3043 13.6965 -0.9042 12.6312 56.6644
#
#
#
# Elastic Compliance Matrix: (Units=1/GPa)
#
#
# Indices 1 2 3 4 5 6 
#
# 1 0.009098 -0.002123 -0.006491 0.000783 0.000160 0.004063
# 2 -0.002123 0.012356 -0.000735 -0.000679 -0.000079 0.001335
# 3 -0.006491 -0.000735 0.018184 -0.001713 0.005228 -0.007714
# 4 0.000783 -0.000679 -0.001713 0.019369 0.000513 0.000753
# 5 0.000160 -0.000079 0.005228 0.000513 0.021210 -0.005945
# 6 0.004063 0.001335 -0.007714 0.000753 -0.005945 0.022308
#
#
# Mechanical properties :
#
#
# Convention : Reuss Voigt Hill
#
# Bulk Modulus (GPa) = 47.76072 62.86102 55.31087
# Shear Modulus (GPa) = 39.00029 48.73436 43.86733
#
# Velocity S-wave (km/s) = 3.73804 4.17857 3.96443
# Velocity P-wave (km/s) = 5.97848 6.76775 6.38532
#
# Compressibility (1/GPa) = 0.02093771
#
# Stress axis : x y z
#
# Youngs Moduli (GPa) = 109.91676 80.93352 54.99448
#
# Poissons Ratio (x) = 0.17183 0.35699
# Poissons Ratio (y) = 0.23336 0.04044
# Poissons Ratio (z) = 0.71350 0.05952
#
# Static dielectric constant tensor:
#      x y z
#    x 2.250340 0.011360 0.124830 
#    y 0.011360 2.320700 0.108740 
#    z 0.124830 0.108740 2.321030 
# 
# From -- ./inp_files/10307.got.cif
#   From: 2010.05.17/outbox.cif.g08.bks.cpg/sg2_6_cif.got.tgz:10307.got - 2010.06.03 11:33:40.
