data_PCOD9052375
_publ_section_title
;
Structure prediction by ZEFSAII (Michael W. Deem and Ramdas Pophale) SiO2 
 PCOD9052375
Probable space group: P -1
;
_chemical_formula_sum "Si O2"
_cell_formula_units_Z 14
_cell_length_a 9.019475
_cell_length_b 6.737085
_cell_length_c 17.992056
_cell_angle_alpha 105.925461
_cell_angle_beta 59.181854
_cell_angle_gamma 63.203136
_cell_volume 630.183699
_symmetry_space_group_name_H-M "P -1"
_symmetry_group_IT_number 2
_symmetry_cell_setting 'triclinic'
loop_
_space_group_symop_operation_xyz
x,y,z
-x,-y,-z
loop_
_atom_site_type_symbol
_atom_site_label
_atom_site_fract_x
_atom_site_fract_y
_atom_site_fract_z
Si Si1 0.484170 0.471429 0.365047
Si Si2 0.377796 0.859819 0.930642
Si Si3 0.486969 0.342033 0.784496
Si Si4 0.205949 0.158586 0.841239
Si Si5 0.870201 0.595490 0.858673
Si Si6 0.991462 0.318128 0.426594
Si Si7 0.277824 0.339255 0.612582
O O1 0.490450 0.571802 0.293088
O O2 0.212127 0.663432 0.486102
O O3 0.624718 0.513061 0.384674
O O4 0.624027 0.135389 0.283495
O O5 0.404771 0.591624 0.887573
O O6 0.649666 0.706703 0.872535
O O7 0.264319 0.032657 0.897758
O O8 0.203507 0.113551 0.063136
O O9 0.298751 0.314192 0.831628
O O10 0.755663 0.012512 0.691797
O O11 0.936902 0.399702 0.894539
O O12 0.122417 0.393733 0.727599
O O13 0.902513 0.498274 0.393077
O O14 0.000000 0.500000 0.500000
O O15 0.500000 0.000000 0.500000
#
# Coordination Sequence:
#
# PCOD9052375 Si02
#       7
#     2   2   2   2   2   2   2
#     4  11  24  43  65 101 137 178 225 279 348 401
#     4  10  26  45  71 102 138 184 228 285 340 403
#     4  11  23  43  69 100 136 179 230 281 340 410
#     4  11  22  46  70 101 138 178 229 280 346 407
#     4  11  24  48  68 102 142 177 234 285 338 409
#     4  12  24  41  68 100 136 181 225 285 342 405
#     4  12  26  43  70 100 136 180 230 281 340 418
#
# _framework density 22.215745999999999
#
# number of rings (size 3 to 8) (size 9 to 14) (size 15 to 20)
#    0.000    0.857    2.857    3.857    6.000    0.571 
#    2.571    2.143    0.000    0.000    0.000    0.000 
#    0.000    0.000    0.000    0.000    0.000    0.000 
#
# Total GULP energy -78253.606720 kJ/mol
# GULP energy per Si atom -5589.543337 kJ/mol
# Density = 2.216518 g / cm^3
# Si number density = 22.215746 Si / 1000 Ang^3
#
#
#
# Elastic Constant Matrix: (Units=GPa)
#
#
# Indices 1 2 3 4 5 6 
#
# 1 82.2307 55.2914 50.5689 15.5138 32.4807 -18.9798
# 2 55.2914 112.6756 39.7533 21.3461 11.7975 -10.2751
# 3 50.5689 39.7533 107.2866 25.2779 8.7221 4.1055
# 4 15.5138 21.3461 25.2779 41.0980 2.5686 1.9561
# 5 32.4807 11.7975 8.7221 2.5686 33.7810 6.4715
# 6 -18.9798 -10.2751 4.1055 1.9561 6.4715 35.6429
#
#
#
# Elastic Compliance Matrix: (Units=1/GPa)
#
#
# Indices 1 2 3 4 5 6 
#
# 1 0.099344 -0.020346 -0.033471 -0.003797 -0.092490 0.067892
# 2 -0.020346 0.015758 0.003640 -0.003248 0.015145 -0.009282
# 3 -0.033471 0.003640 0.023261 -0.004261 0.029953 -0.024657
# 4 -0.003797 -0.003248 -0.004261 0.030024 0.004549 -0.004941
# 5 -0.092490 0.015145 0.029953 0.004549 0.118596 -0.070117
# 6 0.067892 -0.009282 -0.024657 -0.004941 -0.070117 0.077374
#
#
# Mechanical properties :
#
#
# Convention : Reuss Voigt Hill
#
# Bulk Modulus (GPa) = 26.30863 65.93557 46.12210
# Shear Modulus (GPa) = 10.47382 32.54301 21.50841
#
# Velocity S-wave (km/s) = 2.17367 3.83150 3.11490
# Velocity P-wave (km/s) = 4.26237 7.02268 5.80886
#
# Compressibility (1/GPa) = 0.03801034
#
# Stress axis : x y z
#
# Youngs Moduli (GPa) = 10.06599 63.46022 42.99115
#
# Poissons Ratio (x) = 1.29117 1.43894
# Poissons Ratio (y) = 0.20480 -0.15651
# Poissons Ratio (z) = 0.33691 -0.23102
#
# Static dielectric constant tensor:
#      x y z
#    x 1.885590 -0.056010 0.124360 
#    y -0.056010 1.825250 -0.105930 
#    z 0.124360 -0.105930 1.951850 
# 
# From -- ./inp_files/46018.got.cif
#   From: 2010.05.17/outbox.cif.g08.bks.cpg/sg2_24_cif.got.tgz:46018.got - 2010.06.03 11:33:40.
