data_PCOD9052538
_publ_section_title
;
Structure prediction by ZEFSAII (Michael W. Deem and Ramdas Pophale) SiO2 
 PCOD9052538
Probable space group: P -1
;
_chemical_formula_sum "Si O2"
_cell_formula_units_Z 15
_cell_length_a 8.873538
_cell_length_b 20.693714
_cell_length_c 8.457656
_cell_angle_alpha 130.680134
_cell_angle_beta 102.831639
_cell_angle_gamma 40.144001
_cell_volume 626.560831
_symmetry_space_group_name_H-M "P -1"
_symmetry_group_IT_number 2
_symmetry_cell_setting 'triclinic'
loop_
_space_group_symop_operation_xyz
x,y,z
-x,-y,-z
loop_
_atom_site_type_symbol
_atom_site_label
_atom_site_fract_x
_atom_site_fract_y
_atom_site_fract_z
Si Si1 0.703939 0.798913 0.848391
Si Si2 0.790726 0.324060 0.351013
Si Si3 0.861831 0.994972 0.080406
Si Si4 0.759232 0.616268 0.993262
Si Si5 0.000000 0.500000 0.500000
Si Si6 0.226926 0.843058 0.401414
Si Si7 0.289961 0.174156 0.745971
Si Si8 0.780863 0.329025 0.722692
O O1 0.377669 0.956792 0.975042
O O2 0.947959 0.730352 0.693034
O O3 0.741075 0.680714 0.683278
O O4 0.784674 0.792231 0.032692
O O5 0.500000 0.500000 0.500000
O O6 0.736066 0.332472 0.535006
O O7 0.899841 0.182072 0.083914
O O8 0.711476 0.119904 0.381163
O O9 0.000000 0.000000 0.000000
O O10 0.495955 0.686386 0.113401
O O11 0.611707 0.777762 0.201099
O O12 0.000000 0.500000 0.000000
O O13 0.877776 0.545237 0.732527
O O14 0.116276 0.806739 0.392757
O O15 0.000000 0.000000 0.500000
O O16 0.025291 0.282202 0.743664
O O17 0.500000 0.000000 0.500000
O O18 0.500000 0.500000 0.000000
#
# Coordination Sequence:
#
# PCOD9052538 Si02
#       8
#     2   2   2   2   1   2   2   2
#     4  11  27  48  79 111 151 210 257 321 400 465
#     4  12  29  49  78 113 155 210 262 326 401 470
#     4  12  28  52  76 110 160 201 270 331 392 475
#     4  11  25  47  76 108 147 201 257 315 392 459
#     4  10  26  46  80 110 154 196 268 326 384 478
#     4  12  29  47  78 112 151 208 255 327 400 465
#     4  11  25  46  75 105 148 192 248 310 379 469
#     4  12  27  48  73 112 156 195 255 323 389 467
#
# _framework density 23.940213
#
# number of rings (size 3 to 8) (size 9 to 14) (size 15 to 20)
#    0.000    0.533    1.333    4.400   16.800    2.133 
#    0.000    0.000    0.000    0.000    0.000    0.000 
#    0.000    0.000    0.000    0.000    0.000    0.000 
#
# Total GULP energy -83562.653622 kJ/mol
# GULP energy per Si atom -5570.843575 kJ/mol
# Density = 2.388572 g / cm^3
# Si number density = 23.940213 Si / 1000 Ang^3
#
#
#
# Elastic Constant Matrix: (Units=GPa)
#
#
# Indices 1 2 3 4 5 6 
#
# 1 79.2701 26.7889 4.4211 8.4457 -7.3620 14.4417
# 2 26.7889 110.5117 33.2747 15.4554 -10.3437 20.7806
# 3 4.4211 33.2747 91.9967 2.1121 -13.7180 8.7759
# 4 8.4457 15.4554 2.1121 51.0656 10.3735 -0.9919
# 5 -7.3620 -10.3437 -13.7180 10.3735 37.7883 2.2194
# 6 14.4417 20.7806 8.7759 -0.9919 2.2194 35.9937
#
#
#
# Elastic Compliance Matrix: (Units=1/GPa)
#
#
# Indices 1 2 3 4 5 6 
#
# 1 0.014913 -0.002259 0.001232 -0.002706 0.003788 -0.005288
# 2 -0.002259 0.012565 -0.003297 -0.004070 0.003264 -0.005858
# 3 0.001232 -0.003297 0.012851 -0.000649 0.004299 -0.002007
# 4 -0.002706 -0.004070 -0.000649 0.023108 -0.008500 0.004755
# 5 0.003788 0.003264 0.004299 -0.008500 0.032381 -0.006683
# 6 -0.005288 -0.005858 -0.002007 0.004755 -0.006683 0.034319
#
#
# Mechanical properties :
#
#
# Convention : Reuss Voigt Hill
#
# Bulk Modulus (GPa) = 31.56522 45.63868 38.60195
# Shear Modulus (GPa) = 33.47951 39.45577 36.46764
#
# Velocity S-wave (km/s) = 3.74366 4.06408 3.90716
# Velocity P-wave (km/s) = 5.64804 6.41306 6.04267
#
# Compressibility (1/GPa) = 0.03168043
#
# Stress axis : x y z
#
# Youngs Moduli (GPa) = 67.05488 79.58456 77.81663
#
# Poissons Ratio (x) = 0.17975 -0.09584
# Poissons Ratio (y) = 0.15145 0.25659
# Poissons Ratio (z) = -0.08258 0.26242
#
# Static dielectric constant tensor:
#      x y z
#    x 1.914050 -0.008670 -0.013540 
#    y -0.008670 1.904340 -0.063350 
#    z -0.013540 -0.063350 2.013090 
# 
# From -- ./inp_files/224080.got.cif
#   From: 2010.05.17/outbox.cif.g08.bks.cpg/sg2_113_cif.got.tgz:224080.got - 2010.06.03 11:33:40.
