data_PCOD9052723
_publ_section_title
;
Structure prediction by ZEFSAII (Michael W. Deem and Ramdas Pophale) SiO2 
 PCOD9052723
Probable space group: P -1
;
_chemical_formula_sum "Si O2"
_cell_formula_units_Z 15
_cell_length_a 6.078307
_cell_length_b 13.102844
_cell_length_c 8.893826
_cell_angle_alpha 93.564921
_cell_angle_beta 108.555017
_cell_angle_gamma 104.480676
_cell_volume 642.379670
_symmetry_space_group_name_H-M "P -1"
_symmetry_group_IT_number 2
_symmetry_cell_setting 'triclinic'
loop_
_space_group_symop_operation_xyz
x,y,z
-x,-y,-z
loop_
_atom_site_type_symbol
_atom_site_label
_atom_site_fract_x
_atom_site_fract_y
_atom_site_fract_z
Si Si1 0.045236 0.589054 0.148068
Si Si2 0.506120 0.939341 0.651046
Si Si3 0.058218 0.133040 0.149451
Si Si4 0.302609 0.558727 0.703916
Si Si5 0.057715 0.736468 0.603055
Si Si6 0.705106 0.714271 0.012317
Si Si7 0.500000 0.000000 0.000000
Si Si8 0.423797 0.354384 0.680768
O O1 0.300684 0.640248 0.285900
O O2 0.868237 0.525087 0.229339
O O3 0.951753 0.682055 0.067662
O O4 0.000000 0.500000 0.000000
O O5 0.763432 0.912774 0.715175
O O6 0.281684 0.830997 0.599253
O O7 0.500000 0.000000 0.500000
O O8 0.477273 0.998056 0.806120
O O9 0.006240 0.232198 0.239571
O O10 0.219536 0.170060 0.035705
O O11 0.793624 0.057880 0.054800
O O12 0.144571 0.629400 0.605974
O O13 0.423813 0.475392 0.647034
O O14 0.511443 0.640989 0.851206
O O15 0.808695 0.719842 0.457856
O O16 0.601152 0.684531 0.153194
#
# Coordination Sequence:
#
# PCOD9052723 Si02
#       8
#     2   2   2   2   2   2   1   2
#     4  11  19  36  60  93 133 181 234 285 335 398
#     4  11  26  52  78 104 145 180 232 304 366 432
#     4  11  25  48  72 100 142 180 232 295 361 431
#     4  11  21  40  64  94 144 186 236 281 342 411
#     4  11  26  43  66 105 137 185 235 287 358 422
#     4  11  22  39  67  93 130 186 234 284 337 422
#     4  10  26  48  78 112 130 184 232 290 372 434
#     4  11  24  39  65 101 140 188 236 289 339 409
#
# _framework density 23.350677999999998
#
# number of rings (size 3 to 8) (size 9 to 14) (size 15 to 20)
#    0.000    1.067    4.000    2.400    1.867    4.800 
#    4.800    0.000    0.000    0.000    0.000    0.000 
#    0.000    0.000    0.000    0.000    0.000    0.000 
#
# Total GULP energy -83504.534449 kJ/mol
# GULP energy per Si atom -5566.968963 kJ/mol
# Density = 2.329753 g / cm^3
# Si number density = 23.350678 Si / 1000 Ang^3
#
#
#
# Elastic Constant Matrix: (Units=GPa)
#
#
# Indices 1 2 3 4 5 6 
#
# 1 67.3574 14.9669 38.8208 -4.9938 33.4951 33.6571
# 2 14.9669 72.4600 47.3624 -19.6901 5.7051 23.8778
# 3 38.8208 47.3624 110.1522 -7.5067 13.0195 20.4535
# 4 -4.9938 -19.6901 -7.5067 43.3966 14.4930 9.8004
# 5 33.4951 5.7051 13.0195 14.4930 61.5602 10.1391
# 6 33.6571 23.8778 20.4535 9.8004 10.1391 41.6629
#
#
#
# Elastic Compliance Matrix: (Units=1/GPa)
#
#
# Indices 1 2 3 4 5 6 
#
# 1 0.122255 0.068980 -0.035474 0.089640 -0.065767 -0.125962
# 2 0.068980 0.067708 -0.028137 0.066493 -0.039212 -0.086815
# 3 -0.035474 -0.028137 0.023227 -0.026651 0.017440 0.035406
# 4 0.089640 0.066493 -0.026651 0.101817 -0.055501 -0.107884
# 5 -0.065767 -0.039212 0.017440 -0.055501 0.054013 0.066952
# 6 -0.125962 -0.086815 0.035406 -0.107884 0.066952 0.167218
#
#
# Mechanical properties :
#
#
# Convention : Reuss Voigt Hill
#
# Bulk Modulus (GPa) = 4.46573 50.25220 27.35896
# Shear Modulus (GPa) = 8.33135 39.24525 23.78830
#
# Velocity S-wave (km/s) = 1.89095 4.10407 3.19524
# Velocity P-wave (km/s) = 2.58538 6.63515 5.03535
#
# Compressibility (1/GPa) = 0.22392769
#
# Stress axis : x y z
#
# Youngs Moduli (GPa) = 8.17965 14.76928 43.05371
#
# Poissons Ratio (x) = -1.01879 1.52730
# Poissons Ratio (y) = -0.56423 1.21140
# Poissons Ratio (z) = 0.29017 0.41556
#
# Static dielectric constant tensor:
#      x y z
#    x 2.156730 -0.280180 -0.210950 
#    y -0.280180 2.022510 0.110020 
#    z -0.210950 0.110020 1.962660 
# 
# From -- ./inp_files/134298.got.cif
#   From: 2010.05.17/outbox.cif.g08.bks.cpg/sg2_68_cif.got.tgz:134298.got - 2010.06.03 11:33:40.
