data_PCOD9052869
_publ_section_title
;
Structure prediction by ZEFSAII (Michael W. Deem and Ramdas Pophale) SiO2 
 PCOD9052869
Probable space group: P -1
;
_chemical_formula_sum "Si O2"
_cell_formula_units_Z 14
_cell_length_a 9.709046
_cell_length_b 9.667051
_cell_length_c 12.208144
_cell_angle_alpha 54.330284
_cell_angle_beta 141.357303
_cell_angle_gamma 121.522936
_cell_volume 576.135740
_symmetry_space_group_name_H-M "P -1"
_symmetry_group_IT_number 2
_symmetry_cell_setting 'triclinic'
loop_
_space_group_symop_operation_xyz
x,y,z
-x,-y,-z
loop_
_atom_site_type_symbol
_atom_site_label
_atom_site_fract_x
_atom_site_fract_y
_atom_site_fract_z
Si Si1 0.012757 0.345123 0.494481
Si Si2 0.319310 0.575422 0.927037
Si Si3 0.948376 0.278114 0.922616
Si Si4 0.036867 0.027794 0.384338
Si Si5 0.372944 0.570104 0.492045
Si Si6 0.653873 0.852938 0.645709
Si Si7 0.644026 0.185018 0.982708
O O1 0.806705 0.329086 0.289285
O O2 0.017028 0.153301 0.629418
O O3 0.000000 0.500000 0.500000
O O4 0.226464 0.403030 0.526709
O O5 0.450466 0.685867 0.053048
O O6 0.500000 0.500000 0.000000
O O7 0.127473 0.447515 0.930527
O O8 0.128177 0.152750 0.136906
O O9 0.744571 0.254125 0.896438
O O10 0.796068 0.293208 0.712660
O O11 0.272334 0.111531 0.450820
O O12 0.000000 0.000000 0.500000
O O13 0.877832 0.163330 0.192563
O O14 0.500000 0.500000 0.500000
O O15 0.519118 0.664214 0.637381
O O16 0.500000 0.000000 0.500000
O O17 0.500000 0.000000 0.000000
#
# Coordination Sequence:
#
# PCOD9052869 Si02
#       7
#     2   2   2   2   2   2   2
#     4  11  25  43  67 101 136 174 231 284 337 420
#     4  11  26  45  70 100 138 184 223 289 355 402
#     4  10  27  47  71 103 143 180 241 284 340 432
#     4  11  23  43  67  97 135 173 230 284 339 411
#     4  11  26  43  72 103 131 186 234 279 344 413
#     4  11  26  45  70  98 139 187 221 288 358 396
#     4  11  26  44  71 101 135 185 225 289 353 403
#
# _framework density 24.299828999999999
#
# number of rings (size 3 to 8) (size 9 to 14) (size 15 to 20)
#    0.000    1.143    1.429    2.143   18.000    0.571 
#    2.571    0.000    0.000    0.000    0.000    0.000 
#    0.000    0.000    0.000    0.000    0.000    0.000 
#
# Total GULP energy -77954.585214 kJ/mol
# GULP energy per Si atom -5568.184658 kJ/mol
# Density = 2.424452 g / cm^3
# Si number density = 24.299829 Si / 1000 Ang^3
#
#
#
# Elastic Constant Matrix: (Units=GPa)
#
#
# Indices 1 2 3 4 5 6 
#
# 1 89.8746 33.2148 1.3946 -0.9569 8.2588 9.3044
# 2 33.2148 92.8114 3.9252 -7.1313 10.4704 -4.7107
# 3 1.3946 3.9252 122.8177 -4.1225 4.2528 -10.7325
# 4 -0.9569 -7.1313 -4.1225 32.0996 6.8554 3.8224
# 5 8.2588 10.4704 4.2528 6.8554 38.9483 -9.0690
# 6 9.3044 -4.7107 -10.7325 3.8224 -9.0690 35.6895
#
#
#
# Elastic Compliance Matrix: (Units=1/GPa)
#
#
# Indices 1 2 3 4 5 6 
#
# 1 0.013693 -0.004782 -0.000330 0.000518 -0.002856 -0.005082
# 2 -0.004782 0.013117 0.000002 0.003089 -0.002593 0.001989
# 3 -0.000330 0.000002 0.008401 0.000877 -0.000442 0.002406
# 4 0.000518 0.003089 0.000877 0.034368 -0.008309 -0.005256
# 5 -0.002856 -0.002593 -0.000442 -0.008309 0.030567 0.008927
# 6 -0.005082 0.001989 0.002406 -0.005256 0.008927 0.033162
#
#
# Mechanical properties :
#
#
# Convention : Reuss Voigt Hill
#
# Bulk Modulus (GPa) = 40.01587 42.50809 41.26198
# Shear Modulus (GPa) = 32.92545 39.14544 36.03545
#
# Velocity S-wave (km/s) = 3.68498 4.01800 3.85509
# Velocity P-wave (km/s) = 5.88292 6.24955 6.06900
#
# Compressibility (1/GPa) = 0.02499008
#
# Stress axis : x y z
#
# Youngs Moduli (GPa) = 73.02874 76.23872 119.03529
#
# Poissons Ratio (x) = 0.36460 0.03933
# Poissons Ratio (y) = 0.34925 -0.00028
# Poissons Ratio (z) = 0.02413 -0.00018
#
# Static dielectric constant tensor:
#      x y z
#    x 2.016280 -0.094400 0.078680 
#    y -0.094400 1.880640 -0.098180 
#    z 0.078680 -0.098180 1.958720 
# 
# From -- ./inp_files/381536.got.cif
#   From: 2010.05.17/outbox.cif.g08.bks.cpg/sg2_191_cif.got.tgz:381536.got - 2010.06.03 11:33:40.
