data_PCOD9052358
_publ_section_title
;
Structure prediction by ZEFSAII (Michael W. Deem and Ramdas Pophale) SiO2 
 PCOD9052358
Probable space group: P -1
;
_chemical_formula_sum "Si O2"
_cell_formula_units_Z 13
_cell_length_a 14.788649
_cell_length_b 8.134165
_cell_length_c 4.850478
_cell_angle_alpha 65.449576
_cell_angle_beta 71.946225
_cell_angle_gamma 66.506001
_cell_volume 479.399876
_symmetry_space_group_name_H-M "P -1"
_symmetry_group_IT_number 2
_symmetry_cell_setting 'triclinic'
loop_
_space_group_symop_operation_xyz
x,y,z
-x,-y,-z
loop_
_atom_site_type_symbol
_atom_site_label
_atom_site_fract_x
_atom_site_fract_y
_atom_site_fract_z
Si Si1 0.549711 0.283027 0.494286
Si Si2 0.872363 0.209767 0.755051
Si Si3 0.500000 0.000000 0.500000
Si Si4 0.251879 0.641581 0.714792
Si Si5 0.631815 0.785764 0.985748
Si Si6 0.064391 0.306122 0.434989
Si Si7 0.183529 0.165585 0.932109
O O1 0.500000 0.500000 0.500000
O O2 0.541899 0.199847 0.255654
O O3 0.665646 0.249169 0.468958
O O4 0.469075 0.175935 0.755137
O O5 0.798315 0.372066 0.519996
O O6 0.986827 0.186991 0.605587
O O7 0.846500 0.020596 0.842455
O O8 0.838369 0.260096 0.064428
O O9 0.397622 0.109011 0.345800
O O10 0.315238 0.439321 0.923613
O O11 0.707939 0.856957 0.042458
O O12 0.105748 0.325529 0.082350
O O13 0.000000 0.500000 0.500000
O O14 0.159528 0.214218 0.603817
#
# Coordination Sequence:
#
# PCOD9052358 Si02
#       7
#     2   2   1   2   2   2   2
#     4  10  26  45  69 104 145 194 247 308 366 445
#     4  12  25  46  72 108 144 191 246 300 373 440
#     4  12  26  44  76  98 150 192 254 302 382 430
#     4  11  26  45  74 104 148 194 243 304 370 441
#     4  11  27  46  70 106 145 193 248 305 369 450
#     4  12  25  46  74 105 145 190 241 303 369 441
#     4  12  26  45  74 106 146 189 243 303 370 441
#
# _framework density 27.117238
#
# number of rings (size 3 to 8) (size 9 to 14) (size 15 to 20)
#    0.000    0.615    0.000    6.462   10.769    1.231 
#    0.000    0.000    0.000    0.000    0.000    0.000 
#    0.000    0.000    0.000    0.000    0.000    0.000 
#
# Total GULP energy -72629.443630 kJ/mol
# GULP energy per Si atom -5586.880279 kJ/mol
# Density = 2.705552 g / cm^3
# Si number density = 27.117238 Si / 1000 Ang^3
#
#
#
# Elastic Constant Matrix: (Units=GPa)
#
#
# Indices 1 2 3 4 5 6 
#
# 1 193.8178 19.0094 55.4427 -15.7721 4.9402 27.5182
# 2 19.0094 101.3886 9.3951 -13.1419 -9.1812 2.2935
# 3 55.4427 9.3951 85.5697 7.2683 1.7313 -4.3178
# 4 -15.7721 -13.1419 7.2683 49.1606 -6.7949 -4.2822
# 5 4.9402 -9.1812 1.7313 -6.7949 51.6543 -14.8925
# 6 27.5182 2.2935 -4.3178 -4.2822 -14.8925 40.7898
#
#
#
# Elastic Compliance Matrix: (Units=1/GPa)
#
#
# Indices 1 2 3 4 5 6 
#
# 1 0.008006 -0.000744 -0.005585 0.002308 -0.002294 -0.006546
# 2 -0.000744 0.010740 -0.000972 0.003260 0.002773 0.001150
# 3 -0.005585 -0.000972 0.015993 -0.003819 0.000891 0.005440
# 4 0.002308 0.003260 -0.003819 0.023233 0.004054 0.001775
# 5 -0.002294 0.002773 0.000891 0.004054 0.023612 0.010533
# 6 -0.006546 0.001150 0.005440 0.001775 0.010533 0.033475
#
#
# Mechanical properties :
#
#
# Convention : Reuss Voigt Hill
#
# Bulk Modulus (GPa) = 49.66248 60.94118 55.30183
# Shear Modulus (GPa) = 36.66382 48.11621 42.39001
#
# Velocity S-wave (km/s) = 3.68101 4.21691 3.95804
# Velocity P-wave (km/s) = 6.03491 6.79939 6.42853
#
# Compressibility (1/GPa) = 0.02013593
#
# Stress axis : x y z
#
# Youngs Moduli (GPa) = 124.90797 93.10796 62.52748
#
# Poissons Ratio (x) = 0.06927 0.34925
# Poissons Ratio (y) = 0.09293 0.06079
# Poissons Ratio (z) = 0.69767 0.09051
#
# Static dielectric constant tensor:
#      x y z
#    x 2.020210 -0.080160 -0.179700 
#    y -0.080160 1.807170 -0.461800 
#    z -0.179700 -0.461800 1.796730 
# 
# From -- ./inp_files/35900.got.cif
#   From: 2010.05.17/outbox.cif.g08.bks.cpg/sg2_18_cif.got.tgz:35900.got - 2010.06.03 11:33:40.
