data_PCOD9052455
_publ_section_title
;
Structure prediction by ZEFSAII (Michael W. Deem and Ramdas Pophale) SiO2 
 PCOD9052455
Probable space group: P -1
;
_chemical_formula_sum "Si O2"
_cell_formula_units_Z 14
_cell_length_a 11.357090
_cell_length_b 8.138372
_cell_length_c 13.295581
_cell_angle_alpha 130.737480
_cell_angle_beta 144.336629
_cell_angle_gamma 65.443168
_cell_volume 524.285383
_symmetry_space_group_name_H-M "P -1"
_symmetry_group_IT_number 2
_symmetry_cell_setting 'triclinic'
loop_
_space_group_symop_operation_xyz
x,y,z
-x,-y,-z
loop_
_atom_site_type_symbol
_atom_site_label
_atom_site_fract_x
_atom_site_fract_y
_atom_site_fract_z
Si Si1 0.070213 0.334162 0.751920
Si Si2 0.417122 0.928795 0.684398
Si Si3 0.955101 0.888592 0.812436
Si Si4 0.536153 0.661796 0.494380
Si Si5 0.839564 0.325784 0.886600
Si Si6 0.722255 0.353822 0.143975
Si Si7 0.460552 0.238312 0.095348
O O1 0.161706 0.415582 0.738406
O O2 0.835309 0.173279 0.527581
O O3 0.095931 0.579251 0.920115
O O4 0.234974 0.241367 0.895365
O O5 0.507750 0.886271 0.621546
O O6 0.508887 0.780058 0.771172
O O7 0.513444 0.191866 0.881621
O O8 0.760357 0.681581 0.613595
O O9 0.123254 0.810531 0.830726
O O10 0.868715 0.085450 0.781902
O O11 0.000000 0.000000 0.000000
O O12 0.500000 0.500000 0.500000
O O13 0.380622 0.636414 0.283206
O O14 0.000000 0.500000 0.000000
O O15 0.642944 0.396477 0.216705
O O16 0.500000 0.000000 0.000000
#
# Coordination Sequence:
#
# PCOD9052455 Si02
#       7
#     2   2   2   2   2   2   2
#     4  12  24  47  71 102 138 182 232 284 350 411
#     4  11  24  44  71  99 137 184 228 284 349 403
#     4  12  23  43  68 100 142 177 227 287 350 413
#     4  12  23  40  67 102 139 184 228 282 354 418
#     4  12  25  40  67 103 137 180 228 285 350 415
#     4  11  25  46  70 100 141 179 230 289 335 417
#     4  10  26  46  71 102 136 183 237 284 339 409
#
# _framework density 26.703014
#
# number of rings (size 3 to 8) (size 9 to 14) (size 15 to 20)
#    0.000    0.571    4.286    3.429    4.000    2.857 
#    0.000    4.286    0.000    0.000    0.000    0.000 
#    0.000    0.000    0.000    0.000    0.000    0.000 
#
# Total GULP energy -78273.066540 kJ/mol
# GULP energy per Si atom -5590.933324 kJ/mol
# Density = 2.664224 g / cm^3
# Si number density = 26.703014 Si / 1000 Ang^3
#
#
#
# Elastic Constant Matrix: (Units=GPa)
#
#
# Indices 1 2 3 4 5 6 
#
# 1 122.8866 -13.7048 48.7216 -11.1423 23.3291 2.8644
# 2 -13.7048 92.5243 27.6692 -30.8551 25.1446 -10.9933
# 3 48.7216 27.6692 146.1637 -24.7974 30.7356 -4.9401
# 4 -11.1423 -30.8551 -24.7974 53.2947 -7.2142 7.1644
# 5 23.3291 25.1446 30.7356 -7.2142 52.5243 -2.6345
# 6 2.8644 -10.9933 -4.9401 7.1644 -2.6345 36.8776
#
#
#
# Elastic Compliance Matrix: (Units=1/GPa)
#
#
# Indices 1 2 3 4 5 6 
#
# 1 0.011189 0.004939 -0.003071 0.003181 -0.005140 -0.000793
# 2 0.004939 0.017556 -0.001618 0.009013 -0.008299 0.002289
# 3 -0.003071 -0.001618 0.009176 0.002252 -0.002904 0.000340
# 4 0.003181 0.009013 0.002252 0.025532 -0.003663 -0.002481
# 5 -0.005140 -0.008299 -0.002904 -0.003663 0.026498 0.000141
# 6 -0.000793 0.002289 0.000340 -0.002481 0.000141 0.028398
#
#
# Mechanical properties :
#
#
# Convention : Reuss Voigt Hill
#
# Bulk Modulus (GPa) = 26.02811 54.10517 40.06664
# Shear Modulus (GPa) = 38.26835 48.46523 43.36679
#
# Velocity S-wave (km/s) = 3.78975 4.26487 4.03431
# Velocity P-wave (km/s) = 5.37755 6.67518 6.06119
#
# Compressibility (1/GPa) = 0.03842001
#
# Stress axis : x y z
#
# Youngs Moduli (GPa) = 89.37718 56.95962 108.98154
#
# Poissons Ratio (x) = -0.28131 0.33467
# Poissons Ratio (y) = -0.44142 0.17636
# Poissons Ratio (z) = 0.27447 0.09218
#
# Static dielectric constant tensor:
#      x y z
#    x 1.308620 -0.291580 0.425680 
#    y -0.291580 2.130650 0.199030 
#    z 0.425680 0.199030 1.831350 
# 
# From -- ./inp_files/427334.got.cif
#   From: 2010.05.17/outbox.cif.g08.bks.cpg/sg2_214_cif.got.tgz:427334.got - 2010.06.03 11:33:40.
