data_PCOD9052966
_publ_section_title
;
Structure prediction by ZEFSAII (Michael W. Deem and Ramdas Pophale) SiO2 
 PCOD9052966
Probable space group: P -1
;
_chemical_formula_sum "Si O2"
_cell_formula_units_Z 16
_cell_length_a 10.477284
_cell_length_b 13.868452
_cell_length_c 11.547743
_cell_angle_alpha 57.177127
_cell_angle_beta 49.241053
_cell_angle_gamma 33.317829
_cell_volume 698.096938
_symmetry_space_group_name_H-M "P -1"
_symmetry_group_IT_number 2
_symmetry_cell_setting 'triclinic'
loop_
_space_group_symop_operation_xyz
x,y,z
-x,-y,-z
loop_
_atom_site_type_symbol
_atom_site_label
_atom_site_fract_x
_atom_site_fract_y
_atom_site_fract_z
Si Si1 0.777253 0.127313 0.953086
Si Si2 0.234168 0.484275 0.141296
Si Si3 0.247736 0.191814 0.568165
Si Si4 0.941931 0.027431 0.325877
Si Si5 0.598390 0.622258 0.628584
Si Si6 0.942490 0.390926 0.390552
Si Si7 0.221767 0.135680 0.878302
Si Si8 0.215837 0.054236 0.320033
O O1 0.517645 0.318741 0.028502
O O2 0.890894 0.123194 0.771877
O O3 0.726888 0.020981 0.017060
O O4 0.000000 0.000000 0.000000
O O5 0.282492 0.486195 0.249460
O O6 0.073749 0.447154 0.254887
O O7 0.053807 0.665291 0.058246
O O8 0.294896 0.302316 0.489656
O O9 0.193847 0.157185 0.741957
O O10 0.064657 0.283096 0.507953
O O11 0.500000 0.000000 0.500000
O O12 0.706276 0.211756 0.282034
O O13 0.108256 0.033503 0.293752
O O14 0.817247 0.005969 0.506402
O O15 0.653888 0.548388 0.511948
O O16 0.035678 0.257978 0.321185
O O17 0.484684 0.067988 0.795797
#
# Coordination Sequence:
#
# PCOD9052966 Si02
#       8
#     2   2   2   2   2   2   2   2
#     4  12  27  43  67  98 139 173 206 275 345 392
#     4  11  21  40  67 102 129 166 221 273 331 392
#     4  11  17  29  61  95 119 155 213 265 316 371
#     4  11  25  45  61  95 136 173 223 269 326 389
#     4  11  19  36  62  97 133 160 215 284 316 372
#     4  11  19  34  65 100 123 168 222 274 315 377
#     4  12  22  41  69  97 129 174 217 266 329 390
#     4  11  24  43  71  90 127 184 223 269 319 388
#
# _framework density 22.919450999999999
#
# number of rings (size 3 to 8) (size 9 to 14) (size 15 to 20)
#    0.000    0.750    7.500    1.500    1.750    1.500 
#    2.250    0.625    0.000    0.000    0.000    0.000 
#    0.000    0.000    0.000    0.000    0.000    0.000 
#
# Total GULP energy -89336.401681 kJ/mol
# GULP energy per Si atom -5583.525105 kJ/mol
# Density = 2.286728 g / cm^3
# Si number density = 22.919451 Si / 1000 Ang^3
#
#
#
# Elastic Constant Matrix: (Units=GPa)
#
#
# Indices 1 2 3 4 5 6 
#
# 1 69.7942 5.8098 17.9506 7.7610 -10.9051 7.0065
# 2 5.8098 97.2612 19.4218 34.6969 -6.6995 6.3900
# 3 17.9506 19.4218 59.6884 15.7985 -6.0472 -8.8180
# 4 7.7610 34.6969 15.7985 47.4983 5.8565 0.6651
# 5 -10.9051 -6.6995 -6.0472 5.8565 27.3047 4.2771
# 6 7.0065 6.3900 -8.8180 0.6651 4.2771 11.2586
#
#
#
# Elastic Compliance Matrix: (Units=1/GPa)
#
#
# Indices 1 2 3 4 5 6 
#
# 1 0.022242 0.005631 -0.010000 -0.005724 0.013951 -0.029832
# 2 0.005631 0.018195 -0.006221 -0.013270 0.011684 -0.022359
# 3 -0.010000 -0.006221 0.026899 -0.002722 -0.004075 0.032531
# 4 -0.005724 -0.013270 -0.002722 0.034321 -0.015516 0.012829
# 5 0.013951 0.011684 -0.004075 -0.015516 0.053422 -0.037883
# 6 -0.029832 -0.022359 0.032531 0.012829 -0.037883 0.159188
#
#
# Mechanical properties :
#
#
# Convention : Reuss Voigt Hill
#
# Bulk Modulus (GPa) = 21.66574 34.78982 28.22778
# Shear Modulus (GPa) = 14.25183 29.44976 21.85080
#
# Velocity S-wave (km/s) = 2.49634 3.58847 3.09102
# Velocity P-wave (km/s) = 4.21693 5.69049 5.00820
#
# Compressibility (1/GPa) = 0.04615581
#
# Stress axis : x y z
#
# Youngs Moduli (GPa) = 44.95980 54.95998 37.17650
#
# Poissons Ratio (x) = -0.30949 0.37177
# Poissons Ratio (y) = -0.25317 0.23128
# Poissons Ratio (z) = 0.44960 0.34191
#
# Static dielectric constant tensor:
#      x y z
#    x 1.838320 0.030240 -0.031090 
#    y 0.030240 1.859350 0.024770 
#    z -0.031090 0.024770 1.898400 
# 
# From -- ./inp_files/522335.got.cif
#   From: 2010.05.17/outbox.cif.g08.bks.cpg/sg2_262_cif.got.tgz:522335.got - 2010.06.03 11:33:40.
