data_PCOD9052070
_publ_section_title
;
Structure prediction by ZEFSAII (Michael W. Deem and Ramdas Pophale) SiO2 
 PCOD9052070
Probable space group: P -1
;
_chemical_formula_sum "Si O2"
_cell_formula_units_Z 16
_cell_length_a 7.661006
_cell_length_b 10.988655
_cell_length_c 9.273061
_cell_angle_alpha 115.173578
_cell_angle_beta 89.370619
_cell_angle_gamma 111.164888
_cell_volume 649.373114
_symmetry_space_group_name_H-M "P -1"
_symmetry_group_IT_number 2
_symmetry_cell_setting 'triclinic'
loop_
_space_group_symop_operation_xyz
x,y,z
-x,-y,-z
loop_
_atom_site_type_symbol
_atom_site_label
_atom_site_fract_x
_atom_site_fract_y
_atom_site_fract_z
Si Si1 0.063381 0.898393 0.844678
Si Si2 0.675356 0.411062 0.196631
Si Si3 0.072327 0.404423 0.143934
Si Si4 0.491589 0.086329 0.399393
Si Si5 0.462780 0.135123 0.893661
Si Si6 0.873435 0.855016 0.513631
Si Si7 0.712674 0.660646 0.159761
Si Si8 0.220237 0.594823 0.496842
O O1 0.014222 0.745120 0.842087
O O2 0.967840 0.862002 0.670258
O O3 0.281024 0.997780 0.872761
O O4 0.000000 0.000000 0.000000
O O5 0.586725 0.502837 0.147990
O O6 0.673354 0.433814 0.378961
O O7 0.888492 0.445514 0.150897
O O8 0.559702 0.241947 0.076194
O O9 0.223736 0.525701 0.306280
O O10 0.164877 0.364919 0.983664
O O11 0.334232 0.151293 0.453742
O O12 0.686966 0.228132 0.435274
O O13 0.500000 0.000000 0.500000
O O14 0.417732 0.948889 0.220197
O O15 0.389305 0.231484 0.833629
O O16 0.845125 0.729872 0.333812
O O17 0.000000 0.000000 0.500000
O O18 0.000000 0.500000 0.500000
#
# Coordination Sequence:
#
# PCOD9052070 Si02
#       8
#     2   2   2   2   2   2   2   2
#     4  12  25  48  72 109 151 193 244 311 378 443
#     4  11  27  45  76 107 149 198 247 306 377 450
#     4  11  25  48  78 105 147 199 246 309 377 450
#     4  12  27  47  81 115 147 200 254 310 376 449
#     4  12  26  45  72 110 154 189 251 312 370 449
#     4  12  26  48  75 110 153 194 247 313 381 443
#     4  12  25  48  71 107 150 196 247 311 371 448
#     4  10  25  50  75 110 152 194 250 312 375 451
#
# _framework density 24.639150999999998
#
# number of rings (size 3 to 8) (size 9 to 14) (size 15 to 20)
#    0.000    0.500    3.750    3.000    7.000    5.000 
#    0.000    1.875    0.000    0.000    0.000    0.000 
#    0.000    0.000    0.000    0.000    0.000    0.000 
#
# Total GULP energy -89495.961384 kJ/mol
# GULP energy per Si atom -5593.497586 kJ/mol
# Density = 2.458307 g / cm^3
# Si number density = 24.639151 Si / 1000 Ang^3
#
#
#
# Elastic Constant Matrix: (Units=GPa)
#
#
# Indices 1 2 3 4 5 6 
#
# 1 80.3315 29.8606 53.8572 -6.2128 -7.2839 2.3285
# 2 29.8606 160.5198 35.4821 5.9294 7.3344 -15.0689
# 3 53.8572 35.4821 183.7512 14.1074 -0.8493 -2.9070
# 4 -6.2128 5.9294 14.1074 47.6746 -6.1423 7.1328
# 5 -7.2839 7.3344 -0.8493 -6.1423 37.6700 6.4343
# 6 2.3285 -15.0689 -2.9070 7.1328 6.4343 30.2894
#
#
#
# Elastic Compliance Matrix: (Units=1/GPa)
#
#
# Indices 1 2 3 4 5 6 
#
# 1 0.018487 -0.003374 -0.005312 0.006154 0.006205 -0.006377
# 2 -0.003374 0.007670 -0.000224 -0.002586 -0.003496 0.005405
# 3 -0.005312 -0.000224 0.007328 -0.003381 -0.001739 0.002166
# 4 0.006154 -0.002586 -0.003381 0.025503 0.007427 -0.009668
# 5 0.006205 -0.003496 -0.001739 0.007427 0.031445 -0.010812
# 6 -0.006377 0.005405 0.002166 -0.009668 -0.010812 0.040975
#
#
# Mechanical properties :
#
#
# Convention : Reuss Voigt Hill
#
# Bulk Modulus (GPa) = 63.83777 73.66694 68.75236
# Shear Modulus (GPa) = 32.37276 43.48697 37.92987
#
# Velocity S-wave (km/s) = 3.62867 4.20569 3.92779
# Velocity P-wave (km/s) = 6.59710 7.31758 6.96666
#
# Compressibility (1/GPa) = 0.01566471
#
# Stress axis : x y z
#
# Youngs Moduli (GPa) = 54.09103 130.38305 136.46195
#
# Poissons Ratio (x) = 0.43997 0.72485
# Poissons Ratio (y) = 0.18253 0.03057
# Poissons Ratio (z) = 0.28732 0.02921
#
# Static dielectric constant tensor:
#      x y z
#    x 1.959300 0.036360 -0.035540 
#    y 0.036360 1.966830 -0.035960 
#    z -0.035540 -0.035960 2.150210 
# 
# From -- ./inp_files/190017.got.cif
#   From: 2010.05.17/outbox.cif.g08.bks.cpg/sg2_96_cif.got.tgz:190017.got - 2010.06.03 11:33:40.
