data_PCOD9052831
_publ_section_title
;
Structure prediction by ZEFSAII (Michael W. Deem and Ramdas Pophale) SiO2 
 PCOD9052831
Probable space group: P -1
;
_chemical_formula_sum "Si O2"
_cell_formula_units_Z 12
_cell_length_a 10.875538
_cell_length_b 7.595501
_cell_length_c 6.540527
_cell_angle_alpha 86.222685
_cell_angle_beta 55.917164
_cell_angle_gamma 89.283432
_cell_volume 446.309292
_symmetry_space_group_name_H-M "P -1"
_symmetry_group_IT_number 2
_symmetry_cell_setting 'triclinic'
loop_
_space_group_symop_operation_xyz
x,y,z
-x,-y,-z
loop_
_atom_site_type_symbol
_atom_site_label
_atom_site_fract_x
_atom_site_fract_y
_atom_site_fract_z
Si Si1 0.744631 0.690916 0.153210
Si Si2 0.836362 0.247167 0.418499
Si Si3 0.354107 0.595114 0.055719
Si Si4 0.442489 0.804985 0.593552
Si Si5 0.978466 0.583142 0.282222
Si Si6 0.059745 0.982992 0.176123
O O1 0.743293 0.530512 0.000141
O O2 0.570887 0.694427 0.377169
O O3 0.829807 0.657483 0.294015
O O4 0.801477 0.873825 0.973823
O O5 0.717394 0.208942 0.358977
O O6 0.962017 0.386445 0.205884
O O7 0.922128 0.073850 0.418098
O O8 0.736373 0.340577 0.671922
O O9 0.418662 0.756549 0.852558
O O10 0.500000 0.500000 0.000000
O O11 0.500000 0.000000 0.500000
O O12 0.068314 0.771537 0.206322
O O13 0.000000 0.500000 0.500000
O O14 0.000000 0.000000 0.000000
#
# Coordination Sequence:
#
# PCOD9052831 Si02
#       6
#     2   2   2   2   2   2
#     4  11  24  52  82 113 166 212 271 338 403 488
#     4  12  27  50  83 121 161 214 271 335 413 486
#     4  12  26  49  82 120 163 217 266 335 412 486
#     4  12  26  52  81 116 162 212 273 341 407 481
#     4  11  26  50  79 115 161 212 266 333 405 476
#     4  10  26  51  80 119 160 214 274 335 403 487
#
# _framework density 26.887181999999999
#
# number of rings (size 3 to 8) (size 9 to 14) (size 15 to 20)
#    0.000    0.667    3.333    3.500    2.333    8.000 
#    6.000    0.000    0.000    0.000    0.000    0.000 
#    0.000    0.000    0.000    0.000    0.000    0.000 
#
# Total GULP energy -67011.792941 kJ/mol
# GULP energy per Si atom -5584.316078 kJ/mol
# Density = 2.682599 g / cm^3
# Si number density = 26.887182 Si / 1000 Ang^3
#
#
#
# Elastic Constant Matrix: (Units=GPa)
#
#
# Indices 1 2 3 4 5 6 
#
# 1 137.2089 45.9660 55.1406 -18.9302 12.8513 -9.7353
# 2 45.9660 224.9857 77.5133 -38.2297 -3.9851 6.3757
# 3 55.1406 77.5133 126.5650 -5.6233 -25.1590 -10.0886
# 4 -18.9302 -38.2297 -5.6233 69.4762 -8.6987 -1.4786
# 5 12.8513 -3.9851 -25.1590 -8.6987 50.6956 0.2237
# 6 -9.7353 6.3757 -10.0886 -1.4786 0.2237 55.3041
#
#
#
# Elastic Compliance Matrix: (Units=1/GPa)
#
#
# Indices 1 2 3 4 5 6 
#
# 1 0.010162 -0.000118 -0.005173 0.001696 -0.004866 0.000924
# 2 -0.000118 0.006392 -0.004029 0.003011 -0.000945 -0.001408
# 3 -0.005173 -0.004029 0.014280 -0.001447 0.007824 0.002089
# 4 0.001696 0.003011 -0.001447 0.016641 0.001944 0.000124
# 5 -0.004866 -0.000945 0.007824 0.001944 0.025098 0.000630
# 6 0.000924 -0.001408 0.002089 0.000124 0.000630 0.018789
#
#
# Mechanical properties :
#
#
# Convention : Reuss Voigt Hill
#
# Bulk Modulus (GPa) = 82.01774 93.99995 88.00884
# Shear Modulus (GPa) = 43.83376 55.77117 49.80247
#
# Velocity S-wave (km/s) = 4.04206 4.55935 4.30848
# Velocity P-wave (km/s) = 7.23567 7.92172 7.58646
#
# Compressibility (1/GPa) = 0.01219248
#
# Stress axis : x y z
#
# Youngs Moduli (GPa) = 98.40680 156.44960 70.02733
#
# Poissons Ratio (x) = 0.01848 0.36226
# Poissons Ratio (y) = 0.01162 0.28217
# Poissons Ratio (z) = 0.50908 0.63040
#
# Static dielectric constant tensor:
#      x y z
#    x 2.444450 -0.081800 -0.338490 
#    y -0.081800 2.181870 0.147050 
#    z -0.338490 0.147050 2.638110 
# 
# From -- ./inp_files/60631.got.cif
#   From: 2010.05.17/outbox.cif.g08.bks.cpg/sg2_31_cif.got.tgz:60631.got - 2010.06.03 11:33:40.
