data_PCOD9052356
_publ_section_title
;
Structure prediction by ZEFSAII (Michael W. Deem and Ramdas Pophale) SiO2 
 PCOD9052356
Probable space group: P -1
;
_chemical_formula_sum "Si O2"
_cell_formula_units_Z 16
_cell_length_a 11.163583
_cell_length_b 22.955607
_cell_length_c 16.695556
_cell_angle_alpha 23.963722
_cell_angle_beta 155.733524
_cell_angle_gamma 150.590223
_cell_volume 695.364542
_symmetry_space_group_name_H-M "P -1"
_symmetry_group_IT_number 2
_symmetry_cell_setting 'triclinic'
loop_
_space_group_symop_operation_xyz
x,y,z
-x,-y,-z
loop_
_atom_site_type_symbol
_atom_site_label
_atom_site_fract_x
_atom_site_fract_y
_atom_site_fract_z
Si Si1 0.676362 0.162919 0.927056
Si Si2 0.615968 0.475095 0.490244
Si Si3 0.748694 0.090942 0.243726
Si Si4 0.197018 0.265389 0.986849
Si Si5 0.764847 0.180909 0.700363
Si Si6 0.077290 0.595744 0.006571
Si Si7 0.578816 0.447483 0.318101
Si Si8 0.291361 0.619643 0.739907
O O1 0.734118 0.156924 0.063773
O O2 0.515695 0.298265 0.651115
O O3 0.970896 0.206242 0.995965
O O4 0.500000 0.000000 0.000000
O O5 0.627945 0.510982 0.357289
O O6 0.950142 0.532505 0.654496
O O7 0.635322 0.448256 0.724497
O O8 0.840902 0.231400 0.180198
O O9 0.444238 0.980885 0.223516
O O10 0.000000 0.000000 0.500000
O O11 0.207561 0.435776 0.755225
O O12 0.076311 0.181581 0.935856
O O13 0.529436 0.278948 0.207028
O O14 0.623674 0.283056 0.546895
O O15 0.741345 0.267791 0.494392
O O16 0.763931 0.564146 0.901883
O O17 0.000000 0.500000 0.000000
O O18 0.500000 0.500000 0.000000
#
# Coordination Sequence:
#
# PCOD9052356 Si02
#       8
#     2   2   2   2   2   2   2   2
#     4  12  24  40  66 102 140 175 226 294 352 402
#     4  11  23  43  66  97 139 184 233 284 345 416
#     4  12  25  43  70 101 138 181 237 287 348 418
#     4  12  23  38  66 103 136 176 230 293 346 398
#     4  12  21  41  68  99 140 173 230 296 338 401
#     4  10  26  45  69 100 138 189 231 284 355 417
#     4  11  19  41  68  96 136 182 229 284 344 411
#     4  12  22  37  67 102 135 178 236 284 335 416
#
# _framework density 23.009512999999998
#
# number of rings (size 3 to 8) (size 9 to 14) (size 15 to 20)
#    0.000    0.500    7.500    1.125    3.500    0.500 
#    0.000    0.625    0.000    1.500    0.000    0.000 
#    0.000    0.000    0.000    0.000    0.000    0.000 
#
# Total GULP energy -89349.837460 kJ/mol
# GULP energy per Si atom -5584.364841 kJ/mol
# Density = 2.295714 g / cm^3
# Si number density = 23.009513 Si / 1000 Ang^3
#
#
#
# Elastic Constant Matrix: (Units=GPa)
#
#
# Indices 1 2 3 4 5 6 
#
# 1 58.4642 37.7025 31.5481 -4.9582 -6.9162 17.4505
# 2 37.7025 188.8310 57.8574 -2.4657 5.3956 18.6635
# 3 31.5481 57.8574 109.2744 19.6694 -3.4024 7.4754
# 4 -4.9582 -2.4657 19.6694 51.5426 4.1388 -5.4945
# 5 -6.9162 5.3956 -3.4024 4.1388 50.8972 4.6637
# 6 17.4505 18.6635 7.4754 -5.4945 4.6637 36.3107
#
#
#
# Elastic Compliance Matrix: (Units=1/GPa)
#
#
# Indices 1 2 3 4 5 6 
#
# 1 0.025494 -0.002388 -0.005878 0.003214 0.003965 -0.009837
# 2 -0.002388 0.006928 -0.003146 0.001251 -0.001241 -0.001417
# 3 -0.005878 -0.003146 0.013556 -0.005889 0.000860 0.000649
# 4 0.003214 0.001251 -0.005889 0.022480 -0.002165 0.002705
# 5 0.003965 -0.001241 0.000860 -0.002165 0.020960 -0.004464
# 6 -0.009837 -0.001417 0.000649 0.002705 -0.004464 0.033845
#
#
# Mechanical properties :
#
#
# Convention : Reuss Voigt Hill
#
# Bulk Modulus (GPa) = 43.18718 67.86505 55.52612
# Shear Modulus (GPa) = 32.50838 43.04754 37.77796
#
# Velocity S-wave (km/s) = 3.76283 4.33003 4.05636
# Velocity P-wave (km/s) = 6.13910 7.38629 6.79139
#
# Compressibility (1/GPa) = 0.02315502
#
# Stress axis : x y z
#
# Youngs Moduli (GPa) = 39.22434 144.33655 73.76699
#
# Poissons Ratio (x) = 0.34472 0.43360
# Poissons Ratio (y) = 0.09368 0.23204
# Poissons Ratio (z) = 0.23056 0.45403
#
# Static dielectric constant tensor:
#      x y z
#    x 1.957760 -0.029660 -0.053320 
#    y -0.029660 1.942310 0.062300 
#    z -0.053320 0.062300 1.948440 
# 
# From -- ./inp_files/428678.got.cif
#   From: 2010.05.17/outbox.cif.g08.bks.cpg/sg2_215_cif.got.tgz:428678.got - 2010.06.03 11:33:40.
