data_PCOD9052251
_publ_section_title
;
Structure prediction by ZEFSAII (Michael W. Deem and Ramdas Pophale) SiO2 
 PCOD9052251
Probable space group: P -1
;
_chemical_formula_sum "Si O2"
_cell_formula_units_Z 15
_cell_length_a 11.039971
_cell_length_b 10.381612
_cell_length_c 13.677797
_cell_angle_alpha 42.594094
_cell_angle_beta 38.691336
_cell_angle_gamma 56.526664
_cell_volume 662.263077
_symmetry_space_group_name_H-M "P -1"
_symmetry_group_IT_number 2
_symmetry_cell_setting 'triclinic'
loop_
_space_group_symop_operation_xyz
x,y,z
-x,-y,-z
loop_
_atom_site_type_symbol
_atom_site_label
_atom_site_fract_x
_atom_site_fract_y
_atom_site_fract_z
Si Si1 0.547243 0.453838 0.384436
Si Si2 0.000000 0.500000 0.000000
Si Si3 0.067376 0.217963 0.306394
Si Si4 0.105561 0.770530 0.239650
Si Si5 0.973583 0.139765 0.189382
Si Si6 0.497721 0.293366 0.070520
Si Si7 0.562485 0.019921 0.560557
Si Si8 0.866305 0.459343 0.458561
O O1 0.500000 0.500000 0.500000
O O2 0.525443 0.226644 0.509640
O O3 0.366581 0.540064 0.393132
O O4 0.765766 0.517045 0.181444
O O5 0.918377 0.330508 0.065297
O O6 0.039946 0.253060 0.186422
O O7 0.292495 0.246752 0.173928
O O8 0.943257 0.361897 0.366348
O O9 0.000000 0.000000 0.500000
O O10 0.058943 0.673687 0.427574
O O11 0.960923 0.669502 0.307544
O O12 0.098940 0.997433 0.131569
O O13 0.321005 0.720137 0.106174
O O14 0.794099 0.009694 0.414142
O O15 0.523036 0.141987 0.225237
O O16 0.500000 0.500000 0.000000
O O17 0.500000 0.000000 0.500000
#
# Coordination Sequence:
#
# PCOD9052251 Si02
#       8
#     2   1   2   2   2   2   2   2
#     4  11  26  46  72 100 145 192 242 294 369 436
#     4  10  26  44  68 102 146 184 244 298 356 442
#     4  12  23  44  72 100 142 186 236 298 371 422
#     4  11  25  42  72 105 142 179 250 301 357 442
#     4  11  24  45  70 102 140 188 242 298 363 433
#     4  12  27  45  73 108 145 185 247 305 361 435
#     4  11  25  47  71  98 143 193 231 296 374 434
#     4  11  23  45  70 102 140 193 233 302 369 429
#
# _framework density 22.649609999999999
#
# number of rings (size 3 to 8) (size 9 to 14) (size 15 to 20)
#    0.000    0.800    4.000    2.400    7.467    1.600 
#    4.800    1.333    0.000    0.000    0.000    0.000 
#    0.000    0.000    0.000    0.000    0.000    0.000 
#
# Total GULP energy -83665.869119 kJ/mol
# GULP energy per Si atom -5577.724608 kJ/mol
# Density = 2.259806 g / cm^3
# Si number density = 22.649610 Si / 1000 Ang^3
#
#
#
# Elastic Constant Matrix: (Units=GPa)
#
#
# Indices 1 2 3 4 5 6 
#
# 1 92.7178 28.6104 34.1845 9.7339 -6.9943 20.5192
# 2 28.6104 188.9604 47.9080 18.2397 -1.8522 16.3978
# 3 34.1845 47.9080 109.8453 10.5222 -9.1122 15.3130
# 4 9.7339 18.2397 10.5222 36.6599 -8.9616 -4.2219
# 5 -6.9943 -1.8522 -9.1122 -8.9616 40.7174 0.7951
# 6 20.5192 16.3978 15.3130 -4.2219 0.7951 27.4232
#
#
#
# Elastic Compliance Matrix: (Units=1/GPa)
#
#
# Indices 1 2 3 4 5 6 
#
# 1 0.014492 -0.000319 -0.002528 -0.003789 0.001268 -0.009861
# 2 -0.000319 0.006400 -0.002069 -0.003042 -0.000840 -0.002877
# 3 -0.002528 -0.002069 0.011605 -0.001614 0.001785 -0.003652
# 4 -0.003789 -0.003042 -0.001614 0.032904 0.005887 0.010451
# 5 0.001268 -0.000840 0.001785 0.005887 0.026460 -0.001303
# 6 -0.009861 -0.002877 -0.003652 0.010451 -0.001303 0.049250
#
#
# Mechanical properties :
#
#
# Convention : Reuss Voigt Hill
#
# Bulk Modulus (GPa) = 44.12374 68.10324 56.11349
# Shear Modulus (GPa) = 31.54640 39.68146 35.61393
#
# Velocity S-wave (km/s) = 3.73607 4.19020 3.96963
# Velocity P-wave (km/s) = 6.17530 7.31736 6.77045
#
# Compressibility (1/GPa) = 0.02266354
#
# Stress axis : x y z
#
# Youngs Moduli (GPa) = 69.00510 156.24644 86.17282
#
# Poissons Ratio (x) = 0.04990 0.21783
# Poissons Ratio (y) = 0.02204 0.17831
# Poissons Ratio (z) = 0.17443 0.32331
#
# Static dielectric constant tensor:
#      x y z
#    x 1.220430 0.817900 -0.708500 
#    y 0.817900 1.134240 0.892590 
#    z -0.708500 0.892590 1.185120 
# 
# From -- ./inp_files/514990.got.cif
#   From: 2010.05.17/outbox.cif.g08.bks.cpg/sg2_258_cif.got.tgz:514990.got - 2010.06.03 11:33:40.
