data_PCOD9052459
_publ_section_title
;
Structure prediction by ZEFSAII (Michael W. Deem and Ramdas Pophale) SiO2 
 PCOD9052459
Probable space group: P -1
;
_chemical_formula_sum "Si O2"
_cell_formula_units_Z 16
_cell_length_a 15.705039
_cell_length_b 4.957603
_cell_length_c 24.830572
_cell_angle_alpha 83.662481
_cell_angle_beta 19.426503
_cell_angle_gamma 84.418855
_cell_volume 638.941402
_symmetry_space_group_name_H-M "P -1"
_symmetry_group_IT_number 2
_symmetry_cell_setting 'triclinic'
loop_
_space_group_symop_operation_xyz
x,y,z
-x,-y,-z
loop_
_atom_site_type_symbol
_atom_site_label
_atom_site_fract_x
_atom_site_fract_y
_atom_site_fract_z
Si Si1 0.627684 0.739890 0.953344
Si Si2 0.344204 0.076105 0.669077
Si Si3 0.162898 0.733121 0.680811
Si Si4 0.618191 0.579662 0.797624
Si Si5 0.947574 0.082295 0.590729
Si Si6 0.490579 0.171857 0.316945
Si Si7 0.774907 0.684077 0.105432
Si Si8 0.099143 0.583476 0.065768
O O1 0.533842 0.637229 0.069703
O O2 0.500000 0.500000 0.000000
O O3 0.931008 0.799758 0.777384
O O4 0.500000 0.000000 0.000000
O O5 0.575778 0.280245 0.508328
O O6 0.461191 0.868524 0.647182
O O7 0.117764 0.225430 0.832064
O O8 0.235404 0.934392 0.682843
O O9 0.039190 0.483031 0.793330
O O10 0.765378 0.839893 0.728225
O O11 0.821680 0.377088 0.656091
O O12 0.384450 0.702569 0.900410
O O13 0.205420 0.091913 0.471136
O O14 0.000000 0.000000 0.500000
O O15 0.690625 0.972755 0.171801
O O16 0.535990 0.480403 0.264449
O O17 0.849866 0.671935 0.997801
O O18 0.000000 0.500000 0.000000
#
# Coordination Sequence:
#
# PCOD9052459 Si02
#       8
#     2   2   2   2   2   2   2   2
#     4  11  26  47  74 105 140 185 245 302 357 425
#     4  11  25  45  70 105 148 187 242 290 376 428
#     4  10  26  46  71 104 143 193 237 299 363 437
#     4  11  26  43  74 101 137 190 237 297 358 425
#     4  12  25  48  70 106 147 189 242 293 365 426
#     4  12  27  45  72 108 145 193 234 305 358 434
#     4  12  24  44  70 106 144 183 240 288 363 424
#     4  11  24  43  73  99 143 183 245 294 359 431
#
# _framework density 25.041422000000001
#
# number of rings (size 3 to 8) (size 9 to 14) (size 15 to 20)
#    0.000    0.750    1.250    4.875   12.250    0.000 
#    0.000    0.000    0.000    0.000    0.000    0.000 
#    0.000    0.000    0.000    0.000    0.000    0.000 
#
# Total GULP energy -89411.852946 kJ/mol
# GULP energy per Si atom -5588.240809 kJ/mol
# Density = 2.498443 g / cm^3
# Si number density = 25.041422 Si / 1000 Ang^3
#
#
#
# Elastic Constant Matrix: (Units=GPa)
#
#
# Indices 1 2 3 4 5 6 
#
# 1 102.6148 24.7628 50.9077 11.3546 -29.3821 0.7123
# 2 24.7628 118.5494 43.1687 1.9821 -9.8728 0.8853
# 3 50.9077 43.1687 145.3206 0.8352 -35.5437 5.4124
# 4 11.3546 1.9821 0.8352 38.9214 3.5819 2.9716
# 5 -29.3821 -9.8728 -35.5437 3.5819 51.0185 -3.5570
# 6 0.7123 0.8853 5.4124 2.9716 -3.5570 36.7572
#
#
#
# Elastic Compliance Matrix: (Units=1/GPa)
#
#
# Indices 1 2 3 4 5 6 
#
# 1 0.013732 -0.001209 -0.003006 -0.004518 0.005977 0.001149
# 2 -0.001209 0.009574 -0.002579 -0.000030 -0.000630 0.000114
# 3 -0.003006 -0.002579 0.009840 0.000451 0.004529 -0.000927
# 4 -0.004518 -0.000030 0.000451 0.027610 -0.004416 -0.002638
# 5 0.005977 -0.000630 0.004529 -0.004416 0.026537 0.002157
# 6 0.001149 0.000114 -0.000927 -0.002638 0.002157 0.027739
#
#
# Mechanical properties :
#
#
# Convention : Reuss Voigt Hill
#
# Bulk Modulus (GPa) = 51.12920 67.12923 59.12922
# Shear Modulus (GPa) = 36.99895 41.84911 39.42403
#
# Velocity S-wave (km/s) = 3.84801 4.09246 3.97212
# Velocity P-wave (km/s) = 6.34075 7.01402 6.68586
#
# Compressibility (1/GPa) = 0.01955830
#
# Stress axis : x y z
#
# Youngs Moduli (GPa) = 72.82421 104.44927 101.62513
#
# Poissons Ratio (x) = 0.12627 0.30550
# Poissons Ratio (y) = 0.08804 0.26206
# Poissons Ratio (z) = 0.21892 0.26934
#
# Static dielectric constant tensor:
#      x y z
#    x 2.080150 -0.098470 -0.041530 
#    y -0.098470 1.981390 -0.018640 
#    z -0.041530 -0.018640 2.066810 
# 
# From -- ./inp_files/611275.got.cif
#   From: 2010.05.17/outbox.cif.g08.bks.cpg/sg2_306_cif.got.tgz:611275.got - 2010.06.03 11:33:40.
