data_PCOD9052662
_publ_section_title
;
Structure prediction by ZEFSAII (Michael W. Deem and Ramdas Pophale) SiO2 
 PCOD9052662
Probable space group: P -1
;
_chemical_formula_sum "Si O2"
_cell_formula_units_Z 14
_cell_length_a 11.002498
_cell_length_b 12.663591
_cell_length_c 7.570068
_cell_angle_alpha 89.320224
_cell_angle_beta 64.544611
_cell_angle_gamma 139.064364
_cell_volume 513.175908
_symmetry_space_group_name_H-M "P -1"
_symmetry_group_IT_number 2
_symmetry_cell_setting 'triclinic'
loop_
_space_group_symop_operation_xyz
x,y,z
-x,-y,-z
loop_
_atom_site_type_symbol
_atom_site_label
_atom_site_fract_x
_atom_site_fract_y
_atom_site_fract_z
Si Si1 0.979551 0.018375 0.718591
Si Si2 0.812907 0.688743 0.915728
Si Si3 0.338308 0.965583 0.732879
Si Si4 0.275373 0.703390 0.895103
Si Si5 0.732988 0.280564 0.719219
Si Si6 0.044232 0.286201 0.567780
Si Si7 0.550971 0.379654 0.395477
O O1 0.920062 0.102281 0.742353
O O2 0.260449 0.206514 0.620104
O O3 0.806608 0.812798 0.913558
O O4 0.000000 0.000000 0.500000
O O5 0.091451 0.847037 0.806551
O O6 0.820297 0.653606 0.706200
O O7 0.635988 0.509088 0.169333
O O8 0.500000 0.000000 0.500000
O O9 0.522559 0.164502 0.712608
O O10 0.271378 0.826666 0.909889
O O11 0.327151 0.704282 0.060558
O O12 0.440036 0.736662 0.670982
O O13 0.000000 0.500000 0.000000
O O14 0.000000 0.500000 0.500000
O O15 0.810401 0.208085 0.672479
O O16 0.252827 0.467796 0.571978
#
# Coordination Sequence:
#
# PCOD9052662 Si02
#       7
#     2   2   2   2   2   2   2
#     4  10  26  48  72 101 140 188 238 293 345 410
#     4  11  24  47  71 105 140 186 237 285 354 417
#     4  12  23  41  68 101 143 181 227 289 351 421
#     4  12  23  42  65 104 141 179 227 287 352 416
#     4  12  25  42  70 105 138 183 229 285 356 421
#     4  11  24  45  72 102 140 186 235 286 350 414
#     4  12  25  47  73 102 145 184 235 294 345 421
#
# _framework density 27.281092000000001
#
# number of rings (size 3 to 8) (size 9 to 14) (size 15 to 20)
#    0.000    0.571    4.286    3.429    4.000    2.857 
#    0.000    0.000    0.000    0.000    0.000    0.000 
#    0.000    0.000    0.000    0.000    0.000    0.000 
#
# Total GULP energy -78407.246269 kJ/mol
# GULP energy per Si atom -5600.517591 kJ/mol
# Density = 2.721900 g / cm^3
# Si number density = 27.281092 Si / 1000 Ang^3
#
#
#
# Elastic Constant Matrix: (Units=GPa)
#
#
# Indices 1 2 3 4 5 6 
#
# 1 114.8341 45.1866 7.9810 -0.3422 7.2962 -4.7602
# 2 45.1866 137.8924 43.5039 18.2028 17.2775 22.7258
# 3 7.9810 43.5039 82.1084 12.9364 25.0159 15.5313
# 4 -0.3422 18.2028 12.9364 45.0490 6.9116 10.3872
# 5 7.2962 17.2775 25.0159 6.9116 36.7816 -2.4724
# 6 -4.7602 22.7258 15.5313 10.3872 -2.4724 73.6291
#
#
#
# Elastic Compliance Matrix: (Units=1/GPa)
#
#
# Indices 1 2 3 4 5 6 
#
# 1 0.010329 -0.003960 0.000903 0.001217 -0.000931 0.001497
# 2 -0.003960 0.010704 -0.004096 -0.002451 -0.001157 -0.002389
# 3 0.000903 -0.004096 0.018196 -0.001324 -0.010562 -0.002683
# 4 0.001217 -0.002451 -0.001324 0.024601 -0.002978 -0.002456
# 5 -0.000931 -0.001157 -0.010562 -0.002978 0.035937 0.004152
# 6 0.001497 -0.002389 -0.002683 -0.002456 0.004152 0.015468
#
#
# Mechanical properties :
#
#
# Convention : Reuss Voigt Hill
#
# Bulk Modulus (GPa) = 40.12537 58.68644 49.40591
# Shear Modulus (GPa) = 36.27181 46.96950 41.62065
#
# Velocity S-wave (km/s) = 3.65027 4.15382 3.91016
# Velocity P-wave (km/s) = 5.70140 6.67564 6.20766
#
# Compressibility (1/GPa) = 0.02492189
#
# Stress axis : x y z
#
# Youngs Moduli (GPa) = 96.81870 93.42094 54.95857
#
# Poissons Ratio (x) = 0.36997 -0.04963
# Poissons Ratio (y) = 0.38342 0.22511
# Poissons Ratio (z) = -0.08743 0.38266
#
# Static dielectric constant tensor:
#      x y z
#    x 1.874690 -0.043840 -0.206470 
#    y -0.043840 2.190340 0.067710 
#    z -0.206470 0.067710 1.879640 
# 
# From -- ./inp_files/258488.got.cif
#   From: 2010.05.17/outbox.cif.g08.bks.cpg/sg2_130_cif.got.tgz:258488.got - 2010.06.03 11:33:40.
