data_PCOD9052546
_publ_section_title
;
Structure prediction by ZEFSAII (Michael W. Deem and Ramdas Pophale) SiO2 
 PCOD9052546
Probable space group: P -1
;
_chemical_formula_sum "Si O2"
_cell_formula_units_Z 14
_cell_length_a 12.138597
_cell_length_b 14.338806
_cell_length_c 9.483450
_cell_angle_alpha 138.238907
_cell_angle_beta 35.323035
_cell_angle_gamma 135.177571
_cell_volume 613.520645
_symmetry_space_group_name_H-M "P -1"
_symmetry_group_IT_number 2
_symmetry_cell_setting 'triclinic'
loop_
_space_group_symop_operation_xyz
x,y,z
-x,-y,-z
loop_
_atom_site_type_symbol
_atom_site_label
_atom_site_fract_x
_atom_site_fract_y
_atom_site_fract_z
Si Si1 0.194878 0.008245 0.211631
Si Si2 0.085086 0.172919 0.074499
Si Si3 0.794915 0.483940 0.275418
Si Si4 0.593858 0.227364 0.010723
Si Si5 0.482912 0.827412 0.303536
Si Si6 0.974991 0.782983 0.518474
Si Si7 0.829140 0.272188 0.241785
O O1 0.119503 0.082483 0.239590
O O2 0.406252 0.114602 0.150202
O O3 0.000000 0.000000 0.500000
O O4 0.231319 0.858604 0.955026
O O5 0.003731 0.247810 0.375079
O O6 0.026088 0.242853 0.072497
O O7 0.317183 0.202264 0.882063
O O8 0.000000 0.000000 0.000000
O O9 0.808365 0.651882 0.475888
O O10 0.819423 0.410616 0.316918
O O11 0.634955 0.379184 0.224020
O O12 0.000000 0.500000 0.000000
O O13 0.552366 0.220758 0.877497
O O14 0.808866 0.189302 0.746693
O O15 0.315562 0.748684 0.498369
O O16 0.500000 0.000000 0.500000
#
# Coordination Sequence:
#
# PCOD9052546 Si02
#       7
#     2   2   2   2   2   2   2
#     4  12  25  40  70 108 133 179 236 284 349 414
#     4  12  21  40  71 104 135 174 227 297 341 405
#     4  10  26  47  66  97 143 195 232 276 348 417
#     4  11  22  44  69  99 143 181 221 297 348 403
#     4  12  21  41  71 106 136 174 229 291 358 402
#     4  11  22  44  68  95 142 184 227 285 345 409
#     4  12  25  44  71 103 137 182 232 286 354 411
#
# _framework density 22.819118
#
# number of rings (size 3 to 8) (size 9 to 14) (size 15 to 20)
#    0.000    0.571    7.143    1.714    0.000    4.571 
#    0.000    3.571    0.000    0.000    0.000    0.000 
#    0.000    0.000    0.000    0.000    0.000    0.000 
#
# Total GULP energy -78088.681966 kJ/mol
# GULP energy per Si atom -5577.762998 kJ/mol
# Density = 2.276718 g / cm^3
# Si number density = 22.819118 Si / 1000 Ang^3
#
#
#
# Elastic Constant Matrix: (Units=GPa)
#
#
# Indices 1 2 3 4 5 6 
#
# 1 132.6762 28.8906 31.0966 -18.6012 1.0187 14.1268
# 2 28.8906 59.5921 31.2816 -20.7849 0.7748 12.8330
# 3 31.0966 31.2816 90.8530 -18.1096 -0.5200 9.7429
# 4 -18.6012 -20.7849 -18.1096 34.4857 5.4956 1.1441
# 5 1.0187 0.7748 -0.5200 5.4956 47.5006 -2.2809
# 6 14.1268 12.8330 9.7429 1.1441 -2.2809 41.2706
#
#
#
# Elastic Compliance Matrix: (Units=1/GPa)
#
#
# Indices 1 2 3 4 5 6 
#
# 1 0.009001 -0.002020 -0.001556 0.002994 -0.000629 -0.002203
# 2 -0.002020 0.026373 -0.005148 0.012683 -0.002236 -0.006769
# 3 -0.001556 -0.005148 0.014164 0.003573 -0.000204 -0.001321
# 4 0.002994 0.012683 0.003573 0.041226 -0.005350 -0.007250
# 5 -0.000629 -0.002236 -0.000204 -0.005350 0.021830 0.002314
# 6 -0.002203 -0.006769 -0.001321 -0.007250 0.002314 0.027730
#
#
# Mechanical properties :
#
#
# Convention : Reuss Voigt Hill
#
# Bulk Modulus (GPa) = 31.16178 51.73988 41.45083
# Shear Modulus (GPa) = 29.67917 37.44153 33.56035
#
# Velocity S-wave (km/s) = 3.61033 4.05507 3.83915
# Velocity P-wave (km/s) = 5.57360 6.68191 6.15276
#
# Compressibility (1/GPa) = 0.03209059
#
# Stress axis : x y z
#
# Youngs Moduli (GPa) = 111.10081 37.91783 70.59972
#
# Poissons Ratio (x) = 0.07660 0.10984
# Poissons Ratio (y) = 0.22444 0.36343
# Poissons Ratio (z) = 0.17285 0.19519
#
# Static dielectric constant tensor:
#      x y z
#    x 1.894390 0.008370 0.021100 
#    y 0.008370 1.907490 -0.005680 
#    z 0.021100 -0.005680 1.859950 
# 
# From -- ./inp_files/274238.got.cif
#   From: 2010.05.17/outbox.cif.g08.bks.cpg/sg2_138_cif.got.tgz:274238.got - 2010.06.03 11:33:40.
