data_PCOD9052065
_publ_section_title
;
Structure prediction by ZEFSAII (Michael W. Deem and Ramdas Pophale) SiO2 
 PCOD9052065
Probable space group: P -1
;
_chemical_formula_sum "Si O2"
_cell_formula_units_Z 16
_cell_length_a 17.351096
_cell_length_b 8.015189
_cell_length_c 13.724396
_cell_angle_alpha 130.443668
_cell_angle_beta 25.950769
_cell_angle_gamma 117.151480
_cell_volume 587.659531
_symmetry_space_group_name_H-M "P -1"
_symmetry_group_IT_number 2
_symmetry_cell_setting 'triclinic'
loop_
_space_group_symop_operation_xyz
x,y,z
-x,-y,-z
loop_
_atom_site_type_symbol
_atom_site_label
_atom_site_fract_x
_atom_site_fract_y
_atom_site_fract_z
Si Si1 0.276938 0.702253 0.022186
Si Si2 0.134303 0.987665 0.751586
Si Si3 0.823472 0.510130 0.481722
Si Si4 0.199676 0.750314 0.915882
Si Si5 0.671125 0.730177 0.542365
Si Si6 0.144896 0.468144 0.233655
Si Si7 0.543901 0.737299 0.048762
Si Si8 0.435794 0.182769 0.556062
O O1 0.159144 0.811072 0.099527
O O2 0.466323 0.756548 0.830320
O O3 0.359024 0.431935 0.791253
O O4 0.177619 0.694827 0.234974
O O5 0.373451 0.993379 0.327356
O O6 0.266599 0.128356 0.678553
O O7 0.988470 0.100211 0.872581
O O8 0.000000 0.000000 0.000000
O O9 0.816090 0.615832 0.423049
O O10 0.034594 0.400280 0.245721
O O11 0.500000 0.500000 0.000000
O O12 0.693082 0.708075 0.779497
O O13 0.267507 0.479665 0.690407
O O14 0.382398 0.817079 0.711361
O O15 0.750358 0.295005 0.488469
O O16 0.000000 0.500000 0.500000
O O17 0.342069 0.293838 0.990559
O O18 0.500000 0.000000 0.500000
#
# Coordination Sequence:
#
# PCOD9052065 Si02
#       8
#     2   2   2   2   2   2   2   2
#     4  11  25  44  71 108 151 199 252 324 394 457
#     4  12  22  43  76 112 162 203 258 321 389 473
#     4  11  24  46  73 109 147 198 257 320 386 460
#     4  11  26  45  70 120 163 203 257 321 399 468
#     4  11  23  46  76 109 155 196 255 324 384 474
#     4  10  25  50  75 102 147 199 265 322 389 464
#     4  11  26  49  77 105 140 203 264 318 385 467
#     4  11  22  40  71 110 153 207 253 305 391 475
#
# _framework density 27.226648000000001
#
# number of rings (size 3 to 8) (size 9 to 14) (size 15 to 20)
#    0.000    1.000    2.500    4.125    1.750    3.500 
#    4.500    3.125    0.000    0.000    0.000    0.000 
#    0.000    0.000    0.000    0.000    0.000    0.000 
#
# Total GULP energy -89555.758231 kJ/mol
# GULP energy per Si atom -5597.234889 kJ/mol
# Density = 2.716468 g / cm^3
# Si number density = 27.226648 Si / 1000 Ang^3
#
#
#
# Elastic Constant Matrix: (Units=GPa)
#
#
# Indices 1 2 3 4 5 6 
#
# 1 142.1767 67.1690 41.7002 4.7439 -19.2664 -33.5744
# 2 67.1690 161.0714 44.6972 2.2737 -13.1140 -7.5865
# 3 41.7002 44.6972 137.1623 -9.5056 -1.3110 -2.6725
# 4 4.7439 2.2737 -9.5056 42.2267 -0.1508 2.8695
# 5 -19.2664 -13.1140 -1.3110 -0.1508 56.6421 -2.1494
# 6 -33.5744 -7.5865 -2.6725 2.8695 -2.1494 59.5631
#
#
#
# Elastic Compliance Matrix: (Units=1/GPa)
#
#
# Indices 1 2 3 4 5 6 
#
# 1 0.011275 -0.003498 -0.002278 -0.001989 0.003196 0.006019
# 2 -0.003498 0.008126 -0.001621 -0.000341 0.000616 -0.000971
# 3 -0.002278 -0.001621 0.008642 0.002370 -0.000991 -0.001253
# 4 -0.001989 -0.000341 0.002370 0.024609 -0.000721 -0.002270
# 5 0.003196 0.000616 -0.000991 -0.000721 0.018956 0.002554
# 6 0.006019 -0.000971 -0.001253 -0.002270 0.002554 0.020203
#
#
# Mechanical properties :
#
#
# Convention : Reuss Voigt Hill
#
# Bulk Modulus (GPa) = 75.47943 83.06035 79.26989
# Shear Modulus (GPa) = 45.03611 50.80931 47.92271
#
# Velocity S-wave (km/s) = 4.07150 4.32460 4.19995
# Velocity P-wave (km/s) = 7.06297 7.45046 7.25930
#
# Compressibility (1/GPa) = 0.01324864
#
# Stress axis : x y z
#
# Youngs Moduli (GPa) = 88.69311 123.05693 115.71531
#
# Poissons Ratio (x) = 0.43044 0.26359
# Poissons Ratio (y) = 0.31024 0.18762
# Poissons Ratio (z) = 0.20204 0.19952
#
# Static dielectric constant tensor:
#      x y z
#    x 2.127230 0.064300 0.071530 
#    y 0.064300 2.080040 0.090260 
#    z 0.071530 0.090260 2.314690 
# 
# From -- ./inp_files/540249.got.cif
#   From: 2010.05.17/outbox.cif.g08.bks.cpg/sg2_271_cif.got.tgz:540249.got - 2010.06.03 11:33:40.
