data_PCOD9052595
_publ_section_title
;
Structure prediction by ZEFSAII (Michael W. Deem and Ramdas Pophale) SiO2 
 PCOD9052595
Probable space group: P -1
;
_chemical_formula_sum "Si O2"
_cell_formula_units_Z 14
_cell_length_a 8.061494
_cell_length_b 7.305560
_cell_length_c 21.370148
_cell_angle_alpha 145.589465
_cell_angle_beta 52.971614
_cell_angle_gamma 112.229898
_cell_volume 547.871047
_symmetry_space_group_name_H-M "P -1"
_symmetry_group_IT_number 2
_symmetry_cell_setting 'triclinic'
loop_
_space_group_symop_operation_xyz
x,y,z
-x,-y,-z
loop_
_atom_site_type_symbol
_atom_site_label
_atom_site_fract_x
_atom_site_fract_y
_atom_site_fract_z
Si Si1 0.268894 0.580932 0.472938
Si Si2 0.299676 0.439370 0.987612
Si Si3 0.285430 0.615378 0.356865
Si Si4 0.474956 0.389170 0.125436
Si Si5 0.179909 0.368467 0.566141
Si Si6 0.960923 0.313492 0.769495
Si Si7 0.734376 0.288107 0.243701
O O1 0.187495 0.439734 0.388963
O O2 0.278515 0.384071 0.479048
O O3 0.494982 0.546941 0.373578
O O4 0.126454 0.954607 0.619182
O O5 0.327768 0.543850 0.939662
O O6 0.294921 0.054875 0.873441
O O7 0.500000 0.500000 0.000000
O O8 0.102009 0.640186 0.130531
O O9 0.467448 0.445749 0.217535
O O10 0.067040 0.630618 0.370743
O O11 0.292951 0.005673 0.467404
O O12 0.259057 0.609998 0.200743
O O13 0.500000 0.000000 0.000000
O O14 0.209596 0.683161 0.687902
O O15 0.089153 0.582742 0.796701
#
# Coordination Sequence:
#
# PCOD9052595 Si02
#       7
#     2   2   2   2   2   2   2
#     4  12  26  42  81 110 150 197 245 302 380 437
#     4  10  26  47  73 105 144 196 251 297 369 449
#     4  11  23  45  73 107 152 189 255 300 368 440
#     4  11  25  47  75 104 150 197 252 306 367 440
#     4  11  24  45  71 110 151 192 242 313 366 439
#     4  11  24  48  74 109 151 189 251 303 372 446
#     4  12  24  49  74 111 153 194 244 311 371 441
#
# _framework density 25.553457000000002
#
# number of rings (size 3 to 8) (size 9 to 14) (size 15 to 20)
#    0.000    0.857    2.857    3.429    6.000    2.286 
#    0.000    1.429    0.000    0.000    0.000    0.000 
#    0.000    0.000    0.000    0.000    0.000    0.000 
#
# Total GULP energy -78093.573577 kJ/mol
# GULP energy per Si atom -5578.112398 kJ/mol
# Density = 2.549530 g / cm^3
# Si number density = 25.553457 Si / 1000 Ang^3
#
#
#
# Elastic Constant Matrix: (Units=GPa)
#
#
# Indices 1 2 3 4 5 6 
#
# 1 192.3707 42.9227 93.4983 -60.8143 41.0798 -36.6955
# 2 42.9227 163.8173 79.3769 -55.7131 27.6884 -32.5177
# 3 93.4983 79.3769 185.5576 -65.8994 34.6195 -23.2443
# 4 -60.8143 -55.7131 -65.8994 81.9731 -9.5553 17.9654
# 5 41.0798 27.6884 34.6195 -9.5553 40.3318 1.4414
# 6 -36.6955 -32.5177 -23.2443 17.9654 1.4414 39.0883
#
#
#
# Elastic Compliance Matrix: (Units=1/GPa)
#
#
# Indices 1 2 3 4 5 6 
#
# 1 0.011935 0.004242 -0.001871 0.006347 -0.012358 0.011159
# 2 0.004242 0.011626 -0.001844 0.006247 -0.009598 0.010040
# 3 -0.001871 -0.001844 0.009484 0.004423 -0.003938 0.000462
# 4 0.006347 0.006247 0.004423 0.022833 -0.009271 0.003634
# 5 -0.012358 -0.009598 -0.003938 -0.009271 0.045847 -0.019358
# 6 0.011159 0.010040 0.000462 0.003634 -0.019358 0.043730
#
#
# Mechanical properties :
#
#
# Convention : Reuss Voigt Hill
#
# Bulk Modulus (GPa) = 29.32505 108.14905 68.73705
# Shear Modulus (GPa) = 32.09914 54.00849 43.05381
#
# Velocity S-wave (km/s) = 3.54807 4.60232 4.10915
# Velocity P-wave (km/s) = 5.31846 8.40573 7.03358
#
# Compressibility (1/GPa) = 0.03410054
#
# Stress axis : x y z
#
# Youngs Moduli (GPa) = 83.78420 86.01258 105.44221
#
# Poissons Ratio (x) = -0.36485 0.19725
# Poissons Ratio (y) = -0.35540 0.19439
# Poissons Ratio (z) = 0.15674 0.15857
#
# Static dielectric constant tensor:
#      x y z
#    x 6.079680 -0.339950 0.628660 
#    y -0.339950 2.042070 -0.102620 
#    z 0.628660 -0.102620 2.133780 
# 
# From -- ./inp_files/606918.got.cif
#   From: 2010.05.17/outbox.cif.g08.bks.cpg/sg2_304_cif.got.tgz:606918.got - 2010.06.03 11:33:40.
