data_PCOD9052913
_publ_section_title
;
Structure prediction by ZEFSAII (Michael W. Deem and Ramdas Pophale) SiO2 
 PCOD9052913
Probable space group: P -1
;
_chemical_formula_sum "Si O2"
_cell_formula_units_Z 13
_cell_length_a 12.991392
_cell_length_b 8.855885
_cell_length_c 11.444235
_cell_angle_alpha 125.107838
_cell_angle_beta 143.535742
_cell_angle_gamma 42.053520
_cell_volume 523.347552
_symmetry_space_group_name_H-M "P -1"
_symmetry_group_IT_number 2
_symmetry_cell_setting 'triclinic'
loop_
_space_group_symop_operation_xyz
x,y,z
-x,-y,-z
loop_
_atom_site_type_symbol
_atom_site_label
_atom_site_fract_x
_atom_site_fract_y
_atom_site_fract_z
Si Si1 0.716188 0.812835 0.549125
Si Si2 0.369434 0.482598 0.271006
Si Si3 0.394995 0.763211 0.987909
Si Si4 0.062580 0.128493 0.028759
Si Si5 0.000000 0.000000 0.500000
Si Si6 0.307406 0.586856 0.631481
Si Si7 0.651445 0.965632 0.303525
O O1 0.883515 0.746695 0.772866
O O2 0.714930 0.599147 0.421590
O O3 0.733281 0.911981 0.488733
O O4 0.500000 0.000000 0.500000
O O5 0.500000 0.500000 0.500000
O O6 0.460528 0.517316 0.249553
O O7 0.445120 0.224818 0.224721
O O8 0.125677 0.680335 0.136580
O O9 0.241670 0.794395 0.753135
O O10 0.500000 0.500000 0.000000
O O11 0.567349 0.810294 0.128951
O O12 0.256315 0.938356 0.041177
O O13 0.000000 0.000000 0.000000
O O14 0.858609 0.255491 0.547149
O O15 0.165314 0.060480 0.618307
#
# Coordination Sequence:
#
# PCOD9052913 Si02
#       7
#     2   2   2   2   1   2   2
#     4  12  23  48  78 115 149 211 262 338 395 473
#     4  11  26  49  76 109 162 214 264 333 391 488
#     4  12  25  47  76 118 157 203 257 340 398 474
#     4  12  27  44  80 117 156 208 272 323 411 476
#     4  10  28  46  70 116 146 218 250 334 404 474
#     4  11  26  46  74 109 158 196 269 325 402 470
#     4  11  25  49  78 107 167 204 270 328 402 476
#
# _framework density 24.840091000000001
#
# number of rings (size 3 to 8) (size 9 to 14) (size 15 to 20)
#    0.000    0.615    3.077    3.692    6.462    7.385 
#    0.000    0.000    0.000    0.000    0.000    0.000 
#    0.000    0.000    0.000    0.000    0.000    0.000 
#
# Total GULP energy -72549.827199 kJ/mol
# GULP energy per Si atom -5580.755938 kJ/mol
# Density = 2.478355 g / cm^3
# Si number density = 24.840091 Si / 1000 Ang^3
#
#
#
# Elastic Constant Matrix: (Units=GPa)
#
#
# Indices 1 2 3 4 5 6 
#
# 1 147.3291 54.2867 52.1251 11.6500 12.0703 8.2662
# 2 54.2867 137.8430 55.1669 -7.8302 15.2036 15.7239
# 3 52.1251 55.1669 145.9974 9.6027 -3.9380 7.9342
# 4 11.6500 -7.8302 9.6027 40.0404 3.6460 4.7289
# 5 12.0703 15.2036 -3.9380 3.6460 42.2783 3.0345
# 6 8.2662 15.7239 7.9342 4.7289 3.0345 37.3112
#
#
#
# Elastic Compliance Matrix: (Units=1/GPa)
#
#
# Indices 1 2 3 4 5 6 
#
# 1 0.008790 -0.002620 -0.002030 -0.002445 -0.001547 0.000024
# 2 -0.002620 0.010625 -0.003272 0.004354 -0.003504 -0.003468
# 3 -0.002030 -0.003272 0.009050 -0.002474 0.002813 -0.000011
# 4 -0.002445 0.004354 -0.002474 0.027901 -0.003214 -0.004042
# 5 -0.001547 -0.003504 0.002813 -0.003214 0.025928 -0.000480
# 6 0.000024 -0.003468 -0.000011 -0.004042 -0.000480 0.028811
#
#
# Mechanical properties :
#
#
# Convention : Reuss Voigt Hill
#
# Bulk Modulus (GPa) = 79.23664 83.81410 81.52537
# Shear Modulus (GPa) = 38.12192 41.89870 40.01031
#
# Velocity S-wave (km/s) = 3.92177 4.11145 4.01773
# Velocity P-wave (km/s) = 7.24396 7.50689 7.37659
#
# Compressibility (1/GPa) = 0.01262042
#
# Stress axis : x y z
#
# Youngs Moduli (GPa) = 113.76422 94.11388 110.49818
#
# Poissons Ratio (x) = 0.24659 0.22437
# Poissons Ratio (y) = 0.29808 0.36153
# Poissons Ratio (z) = 0.23100 0.30793
#
# Static dielectric constant tensor:
#      x y z
#    x 1.484700 -0.459430 1.192460 
#    y -0.459430 1.431520 1.231370 
#    z 1.192460 1.231370 -1.335980 
# 
# From -- ./inp_files/415856.got.cif
#   From: 2010.05.17/outbox.cif.g08.bks.cpg/sg2_208_cif.got.tgz:415856.got - 2010.06.03 11:33:40.
