data_PCOD9052870
_publ_section_title
;
Structure prediction by ZEFSAII (Michael W. Deem and Ramdas Pophale) SiO2 
 PCOD9052870
Probable space group: P -1
;
_chemical_formula_sum "Si O2"
_cell_formula_units_Z 15
_cell_length_a 7.428502
_cell_length_b 16.791185
_cell_length_c 19.247297
_cell_angle_alpha 158.335055
_cell_angle_beta 38.568908
_cell_angle_gamma 138.245427
_cell_volume 550.616627
_symmetry_space_group_name_H-M "P -1"
_symmetry_group_IT_number 2
_symmetry_cell_setting 'triclinic'
loop_
_space_group_symop_operation_xyz
x,y,z
-x,-y,-z
loop_
_atom_site_type_symbol
_atom_site_label
_atom_site_fract_x
_atom_site_fract_y
_atom_site_fract_z
Si Si1 0.000000 0.500000 0.000000
Si Si2 0.369242 0.937053 0.786922
Si Si3 0.524200 0.251693 0.717961
Si Si4 0.165743 0.349865 0.550237
Si Si5 0.586888 0.765243 0.761504
Si Si6 0.623612 0.666501 0.318327
Si Si7 0.203535 0.327476 0.232448
Si Si8 0.445484 0.863608 0.232422
O O1 0.130470 0.489375 0.867947
O O2 0.783576 0.264484 0.852429
O O3 0.640314 0.796819 0.579308
O O4 0.122273 0.771396 0.759872
O O5 0.295430 0.047116 0.825036
O O6 0.393794 0.137579 0.994053
O O7 0.323022 0.351369 0.798789
O O8 0.472586 0.262269 0.824459
O O9 0.844983 0.338820 0.668205
O O10 0.500000 0.000000 0.500000
O O11 0.306604 0.593625 0.699346
O O12 0.221065 0.238872 0.369195
O O13 0.756394 0.661714 0.689079
O O14 0.500000 0.000000 0.000000
O O15 0.324386 0.546038 0.335280
O O16 0.662373 0.913943 0.525006
#
# Coordination Sequence:
#
# PCOD9052870 Si02
#       8
#     1   2   2   2   2   2   2   2
#     4  12  26  46  72 104 140 192 240 296 360 420
#     4  11  25  45  74 109 146 184 245 289 364 434
#     4  10  27  47  72 106 142 189 248 292 351 435
#     4  11  26  45  73 103 141 192 233 295 360 421
#     4  11  25  46  71 105 143 186 235 291 360 428
#     4  11  26  48  73 105 146 187 244 295 362 434
#     4  11  25  45  73 113 142 188 236 303 356 429
#     4  11  26  47  74 104 140 196 237 298 357 430
#
# _framework density 27.242184999999999
#
# number of rings (size 3 to 8) (size 9 to 14) (size 15 to 20)
#    0.000    1.067    2.667    1.200   14.933    1.600 
#    0.000    0.000    0.000    0.000    0.000    0.000 
#    0.000    0.000    0.000    0.000    0.000    0.000 
#
# Total GULP energy -83797.022430 kJ/mol
# GULP energy per Si atom -5586.468162 kJ/mol
# Density = 2.718018 g / cm^3
# Si number density = 27.242185 Si / 1000 Ang^3
#
#
#
# Elastic Constant Matrix: (Units=GPa)
#
#
# Indices 1 2 3 4 5 6 
#
# 1 115.5477 52.2091 23.1932 12.6897 -7.4757 -27.7289
# 2 52.2091 143.7498 37.9535 14.4440 -3.0919 -12.8513
# 3 23.1932 37.9535 186.4334 28.6696 3.9702 7.4239
# 4 12.6897 14.4440 28.6696 39.8340 4.5422 8.4141
# 5 -7.4757 -3.0919 3.9702 4.5422 37.0220 -4.1796
# 6 -27.7289 -12.8513 7.4239 8.4141 -4.1796 59.8221
#
#
#
# Elastic Compliance Matrix: (Units=1/GPa)
#
#
# Indices 1 2 3 4 5 6 
#
# 1 0.012337 -0.003340 -0.000554 -0.003949 0.003418 0.005864
# 2 -0.003340 0.008695 -0.001170 -0.001444 0.000433 0.000698
# 3 -0.000554 -0.001170 0.006282 -0.003691 -0.000521 -0.000805
# 4 -0.003949 -0.001444 -0.003691 0.031492 -0.005116 -0.006469
# 5 0.003418 0.000433 -0.000521 -0.005116 0.028927 0.004483
# 6 0.005864 0.000698 -0.000805 -0.006469 0.004483 0.020907
#
#
# Mechanical properties :
#
#
# Convention : Reuss Voigt Hill
#
# Bulk Modulus (GPa) = 58.18432 74.71582 66.45007
# Shear Modulus (GPa) = 40.16207 49.49395 44.82801
#
# Velocity S-wave (km/s) = 3.84378 4.26703 4.06092
# Velocity P-wave (km/s) = 6.41124 7.19464 6.81421
#
# Compressibility (1/GPa) = 0.01718676
#
# Stress axis : x y z
#
# Youngs Moduli (GPa) = 81.05919 115.00577 159.19482
#
# Poissons Ratio (x) = 0.38410 0.08818
# Poissons Ratio (y) = 0.27073 0.18620
# Poissons Ratio (z) = 0.04490 0.13451
#
# Static dielectric constant tensor:
#      x y z
#    x 2.323290 0.011560 -0.015010 
#    y 0.011560 2.225260 -0.039610 
#    z -0.015010 -0.039610 2.094510 
# 
# From -- ./inp_files/591036.got.cif
#   From: 2010.05.17/outbox.cif.g08.bks.cpg/sg2_296_cif.got.tgz:591036.got - 2010.06.03 11:33:40.
