data_PCOD9052805
_publ_section_title
;
Structure prediction by ZEFSAII (Michael W. Deem and Ramdas Pophale) SiO2 
 PCOD9052805
Probable space group: P -1
;
_chemical_formula_sum "Si O2"
_cell_formula_units_Z 10
_cell_length_a 5.460150
_cell_length_b 15.103936
_cell_length_c 5.177755
_cell_angle_alpha 99.850274
_cell_angle_beta 88.715731
_cell_angle_gamma 90.240677
_cell_volume 420.607598
_symmetry_space_group_name_H-M "P -1"
_symmetry_group_IT_number 2
_symmetry_cell_setting 'triclinic'
loop_
_space_group_symop_operation_xyz
x,y,z
-x,-y,-z
loop_
_atom_site_type_symbol
_atom_site_label
_atom_site_fract_x
_atom_site_fract_y
_atom_site_fract_z
Si Si1 0.000312 0.563358 0.281608
Si Si2 0.500312 0.849104 0.925008
Si Si3 0.759258 0.742809 0.246758
Si Si4 0.821261 0.000036 0.754632
Si Si5 0.757862 0.257445 0.502940
O O1 0.208820 0.636277 0.391468
O O2 0.000000 0.500000 0.500000
O O3 0.792337 0.636448 0.244883
O O4 0.000000 0.500000 0.000000
O O5 0.715880 0.782667 0.985578
O O6 0.364135 0.916068 0.161351
O O7 0.635577 0.916173 0.755028
O O8 0.285764 0.782049 0.798279
O O9 0.500643 0.766390 0.383776
O O10 0.000660 0.782836 0.392415
O O11 0.000000 0.000000 0.500000
O O12 0.000000 0.000000 0.000000
#
# Coordination Sequence:
#
# PCOD9052805 Si02
#       5
#     2   2   2   2   2
#     4  10  26  50  76 119 164 205 266 336 402 478
#     4  11  28  50  80 116 166 212 282 330 410 493
#     4  10  27  46  81 115 159 213 272 329 405 483
#     4  11  30  51  81 116 166 212 270 344 412 484
#     4  10  27  46  81 115 159 213 272 329 405 483
#
# _framework density 23.775130000000001
#
# number of rings (size 3 to 8) (size 9 to 14) (size 15 to 20)
#    1.200    0.400    0.000    0.000   16.800    3.200 
#    0.000    3.000    0.000    0.000    0.000    0.000 
#    0.000    0.000    0.000    0.000    0.000    0.000 
#
# Total GULP energy -55695.868397 kJ/mol
# GULP energy per Si atom -5569.586840 kJ/mol
# Density = 2.372102 g / cm^3
# Si number density = 23.775130 Si / 1000 Ang^3
#
#
#
# Elastic Constant Matrix: (Units=GPa)
#
#
# Indices 1 2 3 4 5 6 
#
# 1 182.4706 82.6997 70.5360 3.5577 14.6341 -4.2278
# 2 82.6997 177.0479 85.5748 6.4054 19.4041 -11.9366
# 3 70.5360 85.5748 157.7452 -3.1062 10.9042 5.6499
# 4 3.5577 6.4054 -3.1062 29.2170 5.7319 19.3919
# 5 14.6341 19.4041 10.9042 5.7319 58.3378 -3.3560
# 6 -4.2278 -11.9366 5.6499 19.3919 -3.3560 41.3812
#
#
#
# Elastic Compliance Matrix: (Units=1/GPa)
#
#
# Indices 1 2 3 4 5 6 
#
# 1 0.007411 -0.002303 -0.002077 -0.001059 -0.000553 0.000828
# 2 -0.002303 0.009577 -0.004437 -0.006036 -0.000846 0.005893
# 3 -0.002077 -0.004437 0.010073 0.006407 -0.000857 -0.005939
# 4 -0.001059 -0.006036 0.006407 0.057697 -0.006335 -0.030276
# 5 -0.000553 -0.000846 -0.000857 -0.006335 0.018591 0.004293
# 6 0.000828 0.005893 -0.005939 -0.030276 0.004293 0.041297
#
#
# Mechanical properties :
#
#
# Convention : Reuss Voigt Hill
#
# Bulk Modulus (GPa) = 106.07317 110.54273 108.30795
# Shear Modulus (GPa) = 30.22555 44.35076 37.28815
#
# Velocity S-wave (km/s) = 3.56941 4.32374 3.96456
# Velocity P-wave (km/s) = 7.85491 8.45709 8.16156
#
# Compressibility (1/GPa) = 0.00942745
#
# Stress axis : x y z
#
# Youngs Moduli (GPa) = 134.93097 104.41613 99.27495
#
# Poissons Ratio (x) = 0.24050 0.20616
# Poissons Ratio (y) = 0.31078 0.44048
# Poissons Ratio (z) = 0.28021 0.46329
#
# Static dielectric constant tensor:
#      x y z
#    x 1.875240 -0.010470 0.065850 
#    y -0.010470 2.048460 -0.053470 
#    z 0.065850 -0.053470 2.313540 
# 
# From -- ./inp_files/3670.got.cif
#   From: 2010.05.17/outbox.cif.g08.bks.cpg/sg2_2_cif.got.tgz:3670.got - 2010.06.03 11:33:40.
