data_PCOD9052906
_publ_section_title
;
Structure prediction by ZEFSAII (Michael W. Deem and Ramdas Pophale) SiO2 
 PCOD9052906
Probable space group: P -1
;
_chemical_formula_sum "Si O2"
_cell_formula_units_Z 15
_cell_length_a 11.584277
_cell_length_b 5.469991
_cell_length_c 12.209373
_cell_angle_alpha 120.695043
_cell_angle_beta 77.218269
_cell_angle_gamma 110.801287
_cell_volume 621.133309
_symmetry_space_group_name_H-M "P -1"
_symmetry_group_IT_number 2
_symmetry_cell_setting 'triclinic'
loop_
_space_group_symop_operation_xyz
x,y,z
-x,-y,-z
loop_
_atom_site_type_symbol
_atom_site_label
_atom_site_fract_x
_atom_site_fract_y
_atom_site_fract_z
Si Si1 0.547752 0.189693 0.643693
Si Si2 0.331301 0.100287 0.254846
Si Si3 0.142826 0.298091 0.633979
Si Si4 0.339506 0.440687 0.789478
Si Si5 0.500000 0.000000 0.000000
Si Si6 0.899504 0.673985 0.040938
Si Si7 0.041330 0.358123 0.202716
Si Si8 0.091349 0.220974 0.383641
O O1 0.621100 0.534297 0.676182
O O2 0.428871 0.236784 0.743413
O O3 0.500000 0.000000 0.500000
O O4 0.618011 0.033009 0.679050
O O5 0.182585 0.030204 0.283377
O O6 0.378105 0.983755 0.106125
O O7 0.280326 0.368889 0.665806
O O8 0.143213 0.358863 0.519440
O O9 0.069857 0.499547 0.755369
O O10 0.049642 0.973414 0.606158
O O11 0.222180 0.373176 0.875591
O O12 0.414804 0.774824 0.877461
O O13 0.862065 0.602810 0.905966
O O14 0.975576 0.009127 0.128409
O O15 0.000000 0.500000 0.000000
O O16 0.093034 0.435086 0.330721
#
# Coordination Sequence:
#
# PCOD9052906 Si02
#       8
#     2   2   2   2   1   2   2   2
#     4  11  26  50  77 107 144 202 260 308 373 435
#     4  11  27  48  73 109 149 195 253 315 368 446
#     4  11  24  45  69 107 146 185 241 298 381 450
#     4  11  24  47  73 104 146 192 245 314 369 444
#     4  10  28  44  74 104 144 196 256 298 372 434
#     4  11  23  41  67 107 144 183 239 296 374 447
#     4  11  23  39  69 106 142 189 232 290 372 456
#     4  11  25  43  70 108 146 189 237 305 374 443
#
# _framework density 24.149405999999999
#
# number of rings (size 3 to 8) (size 9 to 14) (size 15 to 20)
#    0.000    1.067    2.667    1.600    5.600    7.467 
#    0.000    0.000    0.000    0.000    0.000    0.000 
#    0.000    0.000    0.000    0.000    0.000    0.000 
#
# Total GULP energy -83566.564453 kJ/mol
# GULP energy per Si atom -5571.104297 kJ/mol
# Density = 2.409444 g / cm^3
# Si number density = 24.149406 Si / 1000 Ang^3
#
#
#
# Elastic Constant Matrix: (Units=GPa)
#
#
# Indices 1 2 3 4 5 6 
#
# 1 116.5698 22.1134 19.0247 -4.1180 -0.8283 -1.2291
# 2 22.1134 68.2554 27.8635 4.0128 6.5535 -9.9295
# 3 19.0247 27.8635 119.2410 -11.3416 -0.3749 8.2758
# 4 -4.1180 4.0128 -11.3416 43.5607 4.8528 2.2583
# 5 -0.8283 6.5535 -0.3749 4.8528 41.7922 -1.9411
# 6 -1.2291 -9.9295 8.2758 2.2583 -1.9411 30.3716
#
#
#
# Elastic Compliance Matrix: (Units=1/GPa)
#
#
# Indices 1 2 3 4 5 6 
#
# 1 0.009270 -0.002888 -0.000685 0.000930 0.000503 -0.000419
# 2 -0.002888 0.019096 -0.004859 -0.003428 -0.002346 0.007555
# 3 -0.000685 -0.004859 0.010265 0.003269 0.000245 -0.004641
# 4 0.000930 -0.003428 0.003269 0.024692 -0.002466 -0.003967
# 5 0.000503 -0.002346 0.000245 -0.002466 0.024638 0.000944
# 6 -0.000419 0.007555 -0.004641 -0.003967 0.000944 0.036998
#
#
# Mechanical properties :
#
#
# Convention : Reuss Voigt Hill
#
# Bulk Modulus (GPa) = 45.94111 49.11882 47.52996
# Shear Modulus (GPa) = 33.53927 38.81587 36.17757
#
# Velocity S-wave (km/s) = 3.73074 4.01349 3.87469
# Velocity P-wave (km/s) = 6.13375 6.47002 6.30413
#
# Compressibility (1/GPa) = 0.02176700
#
# Stress axis : x y z
#
# Youngs Moduli (GPa) = 107.87313 52.36716 97.41899
#
# Poissons Ratio (x) = 0.15121 0.06675
# Poissons Ratio (y) = 0.31149 0.47338
# Poissons Ratio (z) = 0.07391 0.25447
#
# Static dielectric constant tensor:
#      x y z
#    x 1.994730 0.007780 0.038420 
#    y 0.007780 2.009490 -0.028080 
#    z 0.038420 -0.028080 1.965910 
# 
# From -- ./inp_files/363068.got.cif
#   From: 2010.05.17/outbox.cif.g08.bks.cpg/sg2_182_cif.got.tgz:363068.got - 2010.06.03 11:33:40.
