data_PCOD9052104
_publ_section_title
;
Structure prediction by ZEFSAII (Michael W. Deem and Ramdas Pophale) SiO2 
 PCOD9052104
Probable space group: P -1
;
_chemical_formula_sum "Si O2"
_cell_formula_units_Z 15
_cell_length_a 17.529092
_cell_length_b 14.547214
_cell_length_c 8.506307
_cell_angle_alpha 128.219023
_cell_angle_beta 129.582063
_cell_angle_gamma 21.214327
_cell_volume 602.566992
_symmetry_space_group_name_H-M "P -1"
_symmetry_group_IT_number 2
_symmetry_cell_setting 'triclinic'
loop_
_space_group_symop_operation_xyz
x,y,z
-x,-y,-z
loop_
_atom_site_type_symbol
_atom_site_label
_atom_site_fract_x
_atom_site_fract_y
_atom_site_fract_z
Si Si1 0.964444 0.445210 0.536999
Si Si2 0.500000 0.000000 0.000000
Si Si3 0.320877 0.649178 0.042758
Si Si4 0.133055 0.673203 0.295933
Si Si5 0.451810 0.268629 0.771395
Si Si6 0.063227 0.973313 0.308691
Si Si7 0.578559 0.127822 0.436508
Si Si8 0.175026 0.224474 0.051643
O O1 0.750738 0.602666 0.371282
O O2 0.925674 0.555474 0.765376
O O3 0.000000 0.500000 0.500000
O O4 0.160869 0.148325 0.506218
O O5 0.531735 0.039013 0.247310
O O6 0.323079 0.096987 0.959900
O O7 0.275290 0.773311 0.269244
O O8 0.500000 0.500000 0.000000
O O9 0.385227 0.452675 0.975381
O O10 0.119048 0.848757 0.873180
O O11 0.389807 0.383051 0.349196
O O12 0.016425 0.848372 0.482824
O O13 0.091824 0.818508 0.268842
O O14 0.014503 0.674182 0.106824
O O15 0.508346 0.239519 0.636231
O O16 0.659406 0.997062 0.836090
#
# Coordination Sequence:
#
# PCOD9052104 Si02
#       8
#     2   1   2   2   2   2   2   2
#     4  12  26  47  79 110 151 198 262 314 368 457
#     4  12  28  44  70 116 156 196 250 312 380 454
#     4  11  25  47  80 113 148 201 260 316 380 458
#     4  11  26  51  77 117 155 201 254 320 398 446
#     4  12  26  49  76 114 150 206 261 307 381 464
#     4  10  25  51  76 112 155 194 258 324 378 461
#     4  12  26  47  75 111 154 202 254 312 383 456
#     4  12  27  49  79 114 157 208 252 313 387 461
#
# _framework density 24.893498000000001
#
# number of rings (size 3 to 8) (size 9 to 14) (size 15 to 20)
#    0.000    0.533    4.000    2.800    5.600    4.267 
#    0.000    2.000    0.000    0.000    0.000    0.000 
#    0.000    0.000    0.000    0.000    0.000    0.000 
#
# Total GULP energy -83701.972762 kJ/mol
# GULP energy per Si atom -5580.131517 kJ/mol
# Density = 2.483684 g / cm^3
# Si number density = 24.893498 Si / 1000 Ang^3
#
#
#
# Elastic Constant Matrix: (Units=GPa)
#
#
# Indices 1 2 3 4 5 6 
#
# 1 157.0767 85.9223 51.2189 -22.6388 -37.2380 0.8384
# 2 85.9223 203.2293 74.9786 -28.3553 -26.3404 29.1968
# 3 51.2189 74.9786 124.5945 -0.5553 -21.8550 -2.7524
# 4 -22.6388 -28.3553 -0.5553 69.1920 11.1505 -18.9535
# 5 -37.2380 -26.3404 -21.8550 11.1505 53.4955 -5.5158
# 6 0.8384 29.1968 -2.7524 -18.9535 -5.5158 47.7847
#
#
#
# Elastic Compliance Matrix: (Units=1/GPa)
#
#
# Indices 1 2 3 4 5 6 
#
# 1 0.009965 -0.003339 -0.001182 0.001979 0.004720 0.003127
# 2 -0.003339 0.008633 -0.004011 0.001101 -0.000463 -0.005064
# 3 -0.001182 -0.004011 0.011416 -0.001574 0.002482 0.002791
# 4 0.001979 0.001101 -0.001574 0.017441 -0.001749 0.005918
# 5 0.004720 -0.000463 0.002482 -0.001749 0.023371 0.002347
# 6 0.003127 -0.005064 0.002791 0.005918 0.002347 0.026746
#
#
# Mechanical properties :
#
#
# Convention : Reuss Voigt Hill
#
# Bulk Modulus (GPa) = 77.21159 101.01557 89.11358
# Shear Modulus (GPa) = 42.03392 52.27981 47.15686
#
# Velocity S-wave (km/s) = 4.11366 4.58770 4.35713
# Velocity P-wave (km/s) = 7.32441 8.29035 7.82230
#
# Compressibility (1/GPa) = 0.01295142
#
# Stress axis : x y z
#
# Youngs Moduli (GPa) = 100.34760 115.83652 87.60011
#
# Poissons Ratio (x) = 0.38673 0.10351
# Poissons Ratio (y) = 0.33502 0.35136
# Poissons Ratio (z) = 0.11858 0.46461
#
# Static dielectric constant tensor:
#      x y z
#    x 2.036040 -0.000790 -0.016190 
#    y -0.000790 1.776630 0.195400 
#    z -0.016190 0.195400 1.808860 
# 
# From -- ./inp_files/335775.got.cif
#   From: 2010.05.17/outbox.cif.g08.bks.cpg/sg2_168_cif.got.tgz:335775.got - 2010.06.03 11:33:40.
