data_PCOD9052298
_publ_section_title
;
Structure prediction by ZEFSAII (Michael W. Deem and Ramdas Pophale) SiO2 
 PCOD9052298
Probable space group: P -1
;
_chemical_formula_sum "Si O2"
_cell_formula_units_Z 12
_cell_length_a 11.004793
_cell_length_b 10.525610
_cell_length_c 10.759106
_cell_angle_alpha 126.683187
_cell_angle_beta 89.971155
_cell_angle_gamma 133.000406
_cell_volume 526.393707
_symmetry_space_group_name_H-M "P -1"
_symmetry_group_IT_number 2
_symmetry_cell_setting 'triclinic'
loop_
_space_group_symop_operation_xyz
x,y,z
-x,-y,-z
loop_
_atom_site_type_symbol
_atom_site_label
_atom_site_fract_x
_atom_site_fract_y
_atom_site_fract_z
Si Si1 0.224748 0.334321 0.094060
Si Si2 0.247297 0.846495 0.182323
Si Si3 0.725547 0.809031 0.753759
Si Si4 0.630954 0.984485 0.452326
Si Si5 0.620884 0.108642 0.195109
Si Si6 0.931006 0.562196 0.654364
O O1 0.293999 0.271268 0.150964
O O2 0.447668 0.652017 0.209999
O O3 0.143657 0.386068 0.219200
O O4 0.985141 0.035255 0.847318
O O5 0.262620 0.991107 0.157637
O O6 0.298347 0.994020 0.397005
O O7 0.415623 0.889436 0.167985
O O8 0.000000 0.500000 0.000000
O O9 0.500000 0.500000 0.500000
O O10 0.500000 0.000000 0.500000
O O11 0.841035 0.292476 0.554328
O O12 0.786639 0.423513 0.445895
O O13 0.800292 0.163462 0.213313
O O14 0.500000 0.000000 0.000000
#
# Coordination Sequence:
#
# PCOD9052298 Si02
#       6
#     2   2   2   2   2   2
#     4  10  20  36  58  84 119 156 193 242 296 347
#     4  12  22  36  62  92 119 152 200 245 289 347
#     4  11  21  35  56  90 120 151 192 246 295 348
#     4  10  17  35  56  85 118 146 193 244 285 337
#     4  11  21  35  55  89 123 153 191 242 297 346
#     4  10  21  37  59  88 120 154 193 243 295 352
#
# _framework density 22.796623
#
# number of rings (size 3 to 8) (size 9 to 14) (size 15 to 20)
#    0.000    1.333    5.000    4.000    0.000    0.000 
#    0.000    0.000    0.000    2.000   17.333    0.000 
#    0.000    0.000    0.000    0.000    0.000    0.000 
#
# Total GULP energy -66808.826516 kJ/mol
# GULP energy per Si atom -5567.402210 kJ/mol
# Density = 2.274474 g / cm^3
# Si number density = 22.796623 Si / 1000 Ang^3
#
#
#
# Elastic Constant Matrix: (Units=GPa)
#
#
# Indices 1 2 3 4 5 6 
#
# 1 69.5313 45.4439 30.6537 12.1489 17.7420 -2.1035
# 2 45.4439 111.1742 34.8856 22.4720 0.0036 -9.3488
# 3 30.6537 34.8856 139.1084 7.9194 28.7434 0.4077
# 4 12.1489 22.4720 7.9194 53.3531 -2.1909 1.0804
# 5 17.7420 0.0036 28.7434 -2.1909 35.8447 3.2981
# 6 -2.1035 -9.3488 0.4077 1.0804 3.2981 49.6908
#
#
#
# Elastic Compliance Matrix: (Units=1/GPa)
#
#
# Indices 1 2 3 4 5 6 
#
# 1 0.023923 -0.009232 -0.000445 -0.001971 -0.011612 0.000093
# 2 -0.009232 0.014473 -0.002724 -0.003369 0.006362 0.002005
# 3 -0.000445 -0.002724 0.009535 -0.000470 -0.007445 -0.000105
# 4 -0.001971 -0.003369 -0.000470 0.020821 0.002750 -0.001349
# 5 -0.011612 0.006362 -0.007445 0.002750 0.039962 -0.001946
# 6 0.000093 0.002005 -0.000105 -0.001349 -0.001946 0.020665
#
#
# Mechanical properties :
#
#
# Convention : Reuss Voigt Hill
#
# Bulk Modulus (GPa) = 43.23676 60.19783 51.71729
# Shear Modulus (GPa) = 30.88524 41.69977 36.29251
#
# Velocity S-wave (km/s) = 3.68478 4.28156 3.99433
# Velocity P-wave (km/s) = 6.09187 7.13486 6.63389
#
# Compressibility (1/GPa) = 0.02312847
#
# Stress axis : x y z
#
# Youngs Moduli (GPa) = 41.80162 69.09536 104.87604
#
# Poissons Ratio (x) = 0.63791 0.04666
# Poissons Ratio (y) = 0.38593 0.28565
# Poissons Ratio (z) = 0.01860 0.18819
#
# Static dielectric constant tensor:
#      x y z
#    x 1.924740 -0.035250 0.044970 
#    y -0.035250 1.919480 -0.022950 
#    z 0.044970 -0.022950 2.056620 
# 
# From -- ./inp_files/426693.got.cif
#   From: 2010.05.17/outbox.cif.g08.bks.cpg/sg2_214_cif.got.tgz:426693.got - 2010.06.03 11:33:40.
