data_PCOD9052054
_publ_section_title
;
Structure prediction by ZEFSAII (Michael W. Deem and Ramdas Pophale) SiO2 
 PCOD9052054
Probable space group: P -1
;
_chemical_formula_sum "Si O2"
_cell_formula_units_Z 14
_cell_length_a 11.071337
_cell_length_b 11.606586
_cell_length_c 6.769134
_cell_angle_alpha 52.100154
_cell_angle_beta 66.986481
_cell_angle_gamma 70.763805
_cell_volume 626.954197
_symmetry_space_group_name_H-M "P -1"
_symmetry_group_IT_number 2
_symmetry_cell_setting 'triclinic'
loop_
_space_group_symop_operation_xyz
x,y,z
-x,-y,-z
loop_
_atom_site_type_symbol
_atom_site_label
_atom_site_fract_x
_atom_site_fract_y
_atom_site_fract_z
Si Si1 0.968629 0.152517 0.979621
Si Si2 0.775347 0.885003 0.869667
Si Si3 0.935514 0.388610 0.399113
Si Si4 0.227300 0.794422 0.598874
Si Si5 0.771267 0.661180 0.785873
Si Si6 0.702271 0.633553 0.404015
Si Si7 0.552901 0.470676 0.218426
O O1 0.746519 0.058315 0.685917
O O2 0.954397 0.286834 0.691676
O O3 0.840397 0.164768 0.189263
O O4 0.089683 0.152708 0.054306
O O5 0.786765 0.814981 0.717683
O O6 0.000000 0.000000 0.000000
O O7 0.872032 0.290271 0.380078
O O8 0.833980 0.532888 0.353234
O O9 0.081324 0.425631 0.210570
O O10 0.361135 0.687116 0.655062
O O11 0.726436 0.669439 0.580148
O O12 0.677075 0.790338 0.146934
O O13 0.660532 0.584141 0.054110
O O14 0.581730 0.535825 0.568379
O O15 0.500000 0.500000 0.000000
#
# Coordination Sequence:
#
# PCOD9052054 Si02
#       7
#     2   2   2   2   2   2   2
#     4  12  23  42  67 103 147 173 220 278 351 403
#     4  12  25  40  69 104 139 175 224 286 340 402
#     4  12  24  42  73 105 136 178 227 282 335 406
#     4  12  26  43  70 104 137 179 225 280 348 400
#     4  11  23  44  69 101 138 175 229 283 336 396
#     4  11  26  45  68 100 138 185 230 274 336 402
#     4  10  25  50  69  95 138 185 229 278 336 404
#
# _framework density 22.330181
#
# number of rings (size 3 to 8) (size 9 to 14) (size 15 to 20)
#    0.000    0.571    4.286    4.286    2.000    4.000 
#    0.000    2.857    0.000    0.000    0.000    0.000 
#    0.000    0.000    0.000    0.000    0.000    0.000 
#
# Total GULP energy -78352.770054 kJ/mol
# GULP energy per Si atom -5596.626432 kJ/mol
# Density = 2.227936 g / cm^3
# Si number density = 22.330181 Si / 1000 Ang^3
#
#
#
# Elastic Constant Matrix: (Units=GPa)
#
#
# Indices 1 2 3 4 5 6 
#
# 1 125.1705 40.3753 36.9960 -6.6829 0.5099 5.8262
# 2 40.3753 107.1678 39.1748 -12.7795 5.5714 14.6513
# 3 36.9960 39.1748 106.4963 -11.0585 -5.9818 2.4371
# 4 -6.6829 -12.7795 -11.0585 45.5782 0.2094 8.0665
# 5 0.5099 5.5714 -5.9818 0.2094 47.2121 3.0463
# 6 5.8262 14.6513 2.4371 8.0665 3.0463 37.6505
#
#
#
# Elastic Compliance Matrix: (Units=1/GPa)
#
#
# Indices 1 2 3 4 5 6 
#
# 1 0.009564 -0.002696 -0.002312 0.000140 -0.000059 -0.000306
# 2 -0.002696 0.012718 -0.003386 0.003219 -0.001601 -0.004873
# 3 -0.002312 -0.003386 0.011685 0.001457 0.001869 0.000456
# 4 0.000140 0.003219 0.001457 0.024385 0.000121 -0.006603
# 5 -0.000059 -0.001601 0.001869 0.000121 0.021689 -0.001270
# 6 -0.000306 -0.004873 0.000456 -0.006603 -0.001270 0.029991
#
#
# Mechanical properties :
#
#
# Convention : Reuss Voigt Hill
#
# Bulk Modulus (GPa) = 58.21533 63.54744 60.88138
# Shear Modulus (GPa) = 37.72242 40.90740 39.31491
#
# Velocity S-wave (km/s) = 4.11457 4.28475 4.20052
# Velocity P-wave (km/s) = 6.97852 7.28002 7.13086
#
# Compressibility (1/GPa) = 0.01717761
#
# Stress axis : x y z
#
# Youngs Moduli (GPa) = 104.55539 78.62935 85.58214
#
# Poissons Ratio (x) = 0.21202 0.19791
# Poissons Ratio (y) = 0.28193 0.28976
# Poissons Ratio (z) = 0.24178 0.26622
#
# Static dielectric constant tensor:
#      x y z
#    x 1.830910 0.045390 -0.014810 
#    y 0.045390 1.781410 0.024420 
#    z -0.014810 0.024420 1.884900 
# 
# From -- ./inp_files/73762.got.cif
#   From: 2010.05.17/outbox.cif.g08.bks.cpg/sg2_37_cif.got.tgz:73762.got - 2010.06.03 11:33:40.
