data_PCOD9052541
_publ_section_title
;
Structure prediction by ZEFSAII (Michael W. Deem and Ramdas Pophale) SiO2 
 PCOD9052541
Probable space group: P -1
;
_chemical_formula_sum "Si O2"
_cell_formula_units_Z 15
_cell_length_a 11.120882
_cell_length_b 13.199234
_cell_length_c 4.640820
_cell_angle_alpha 99.900293
_cell_angle_beta 98.675952
_cell_angle_gamma 127.344467
_cell_volume 504.395748
_symmetry_space_group_name_H-M "P -1"
_symmetry_group_IT_number 2
_symmetry_cell_setting 'triclinic'
loop_
_space_group_symop_operation_xyz
x,y,z
-x,-y,-z
loop_
_atom_site_type_symbol
_atom_site_label
_atom_site_fract_x
_atom_site_fract_y
_atom_site_fract_z
Si Si1 0.091941 0.637060 0.281314
Si Si2 0.338815 0.225633 0.414602
Si Si3 0.786792 0.117994 0.955055
Si Si4 0.936382 0.873192 0.199559
Si Si5 0.609603 0.940434 0.331083
Si Si6 0.500000 0.500000 0.500000
Si Si7 0.194726 0.398648 0.635850
Si Si8 0.363426 0.690434 0.807215
O O1 0.976395 0.638075 0.456077
O O2 0.768507 0.337874 0.469707
O O3 0.146945 0.746418 0.111099
O O4 0.000000 0.500000 0.000000
O O5 0.190300 0.164299 0.116151
O O6 0.318589 0.134032 0.615399
O O7 0.434853 0.378483 0.636411
O O8 0.478523 0.258272 0.278221
O O9 0.730247 0.069400 0.235461
O O10 0.919106 0.103972 0.909218
O O11 0.621829 0.998850 0.672184
O O12 0.000000 0.000000 0.500000
O O13 0.852701 0.735258 0.290298
O O14 0.435721 0.819717 0.093344
O O15 0.308830 0.440963 0.419454
O O16 0.295657 0.551859 0.873809
#
# Coordination Sequence:
#
# PCOD9052541 Si02
#       8
#     2   2   2   2   2   1   2   2
#     4  11  28  55  88 122 170 231 294 365 427 515
#     4  11  27  48  79 121 166 231 276 356 431 507
#     4  11  29  53  85 125 169 227 291 356 441 518
#     4  11  27  49  82 123 178 225 287 353 433 527
#     4  12  27  52  79 126 169 223 289 347 443 511
#     4  10  26  46  84 118 170 210 290 350 426 524
#     4  10  26  48  83 128 165 228 284 354 439 510
#     4  11  26  50  83 120 169 227 291 357 423 518
#
# _framework density 29.738553
#
# number of rings (size 3 to 8) (size 9 to 14) (size 15 to 20)
#    0.000    1.067    1.333    1.200    7.467   11.733 
#    0.000    0.000    0.000    0.000    0.000    0.000 
#    0.000    0.000    0.000    0.000    0.000    0.000 
#
# Total GULP energy -83735.641958 kJ/mol
# GULP energy per Si atom -5582.376131 kJ/mol
# Density = 2.967087 g / cm^3
# Si number density = 29.738553 Si / 1000 Ang^3
#
#
#
# Elastic Constant Matrix: (Units=GPa)
#
#
# Indices 1 2 3 4 5 6 
#
# 1 176.0792 34.5552 54.1357 -0.3515 45.8196 31.0497
# 2 34.5552 252.7010 69.7534 12.7361 22.5647 -43.7176
# 3 54.1357 69.7534 143.7880 7.5971 46.7254 -3.7344
# 4 -0.3515 12.7361 7.5971 47.2494 5.4172 -4.9755
# 5 45.8196 22.5647 46.7254 5.4172 63.5236 -10.2395
# 6 31.0497 -43.7176 -3.7344 -4.9755 -10.2395 63.3710
#
#
#
# Elastic Compliance Matrix: (Units=1/GPa)
#
#
# Indices 1 2 3 4 5 6 
#
# 1 0.009111 -0.001651 -0.000691 0.000680 -0.006608 -0.006658
# 2 -0.001651 0.005576 -0.002538 -0.000826 0.001914 0.004751
# 3 -0.000691 -0.002538 0.010582 -0.000460 -0.006651 -0.001900
# 4 0.000680 -0.000826 -0.000460 0.021706 -0.001628 0.000511
# 5 -0.006608 0.001914 -0.006651 -0.001628 0.026193 0.008271
# 6 -0.006658 0.004751 -0.001900 0.000511 0.008271 0.023584
#
#
# Mechanical properties :
#
#
# Convention : Reuss Voigt Hill
#
# Bulk Modulus (GPa) = 64.47728 98.82853 81.65291
# Shear Modulus (GPa) = 44.76937 62.43706 53.60322
#
# Velocity S-wave (km/s) = 3.88420 4.58704 4.25017
# Velocity P-wave (km/s) = 6.46873 7.83321 7.18344
#
# Compressibility (1/GPa) = 0.01550934
#
# Stress axis : x y z
#
# Youngs Moduli (GPa) = 109.76073 179.32868 94.49697
#
# Poissons Ratio (x) = 0.29613 0.06525
# Poissons Ratio (y) = 0.18125 0.23986
# Poissons Ratio (z) = 0.07579 0.45518
#
# Static dielectric constant tensor:
#      x y z
#    x 2.689120 0.030700 -0.204670 
#    y 0.030700 2.405770 0.069970 
#    z -0.204670 0.069970 2.432370 
# 
# From -- ./inp_files/96541.got.cif
#   From: 2010.05.17/outbox.cif.g08.bks.cpg/sg2_49_cif.got.tgz:96541.got - 2010.06.03 11:33:40.
