data_PCOD9052132
_publ_section_title
;
Structure prediction by ZEFSAII (Michael W. Deem and Ramdas Pophale) SiO2 
 PCOD9052132
Probable space group: P -1
;
_chemical_formula_sum "Si O2"
_cell_formula_units_Z 14
_cell_length_a 9.452668
_cell_length_b 20.370034
_cell_length_c 9.475154
_cell_angle_alpha 147.355971
_cell_angle_beta 124.548911
_cell_angle_gamma 34.362761
_cell_volume 504.025648
_symmetry_space_group_name_H-M "P -1"
_symmetry_group_IT_number 2
_symmetry_cell_setting 'triclinic'
loop_
_space_group_symop_operation_xyz
x,y,z
-x,-y,-z
loop_
_atom_site_type_symbol
_atom_site_label
_atom_site_fract_x
_atom_site_fract_y
_atom_site_fract_z
Si Si1 0.738988 0.842179 0.235576
Si Si2 0.846777 0.168874 0.331869
Si Si3 0.520293 0.900088 0.693675
Si Si4 0.135831 0.894500 0.235603
Si Si5 0.614300 0.562769 0.096778
Si Si6 0.937275 0.278884 0.339064
Si Si7 0.273622 0.387415 0.362863
O O1 0.057164 0.641553 0.098688
O O2 0.500000 0.000000 0.500000
O O3 0.719735 0.941967 0.268587
O O4 0.651329 0.764507 0.970205
O O5 0.792917 0.311765 0.457396
O O6 0.055285 0.051215 0.369274
O O7 0.000000 0.000000 0.000000
O O8 0.579846 0.723397 0.424938
O O9 0.785917 0.812907 0.614074
O O10 0.500000 0.000000 0.000000
O O11 0.437143 0.681784 0.068524
O O12 0.000000 0.000000 0.500000
O O13 0.018242 0.850786 0.990119
O O14 0.449570 0.721785 0.600286
O O15 0.500000 0.500000 0.000000
O O16 0.797166 0.462208 0.505048
O O17 0.000000 0.500000 0.500000
#
# Coordination Sequence:
#
# PCOD9052132 Si02
#       7
#     2   2   2   2   2   2   2
#     4  12  31  59  88 131 189 240 304 392 479 547
#     4  10  25  53  83 129 179 238 304 379 463 552
#     4  12  28  56  94 132 185 248 310 382 468 569
#     4  11  27  49  85 133 184 235 306 390 467 550
#     4  12  32  56  90 138 187 241 312 388 475 563
#     4  11  25  52  87 127 179 243 310 377 459 557
#     4  12  27  53  93 133 180 246 318 379 461 570
#
# _framework density 27.776363
#
# number of rings (size 3 to 8) (size 9 to 14) (size 15 to 20)
#    0.000    0.571    1.429    3.857    8.000    4.000 
#   12.857    0.000    0.000    0.000    0.000    0.000 
#    0.000    0.000    0.000    0.000    0.000    0.000 
#
# Total GULP energy -78272.677682 kJ/mol
# GULP energy per Si atom -5590.905549 kJ/mol
# Density = 2.771314 g / cm^3
# Si number density = 27.776363 Si / 1000 Ang^3
#
#
#
# Elastic Constant Matrix: (Units=GPa)
#
#
# Indices 1 2 3 4 5 6 
#
# 1 197.7605 107.4555 83.5891 -1.0160 4.4070 4.8663
# 2 107.4555 282.3949 78.6320 3.2305 -11.3499 14.2868
# 3 83.5891 78.6320 227.1531 23.8540 -2.9397 28.9655
# 4 -1.0160 3.2305 23.8540 67.2390 3.4471 5.8298
# 5 4.4070 -11.3499 -2.9397 3.4471 42.5563 -9.2448
# 6 4.8663 14.2868 28.9655 5.8298 -9.2448 56.2771
#
#
#
# Elastic Compliance Matrix: (Units=1/GPa)
#
#
# Indices 1 2 3 4 5 6 
#
# 1 0.007176 -0.002258 -0.002066 0.000963 -0.001418 0.000683
# 2 -0.002258 0.004674 -0.000715 -0.000040 0.001348 -0.000398
# 3 -0.002066 -0.000715 0.005926 -0.001886 0.000045 -0.002487
# 4 0.000963 -0.000040 -0.001886 0.015735 -0.001736 -0.001018
# 5 -0.001418 0.001348 0.000045 -0.001736 0.025028 0.004048
# 6 0.000683 -0.000398 -0.002487 -0.001018 0.004048 0.019862
#
#
# Mechanical properties :
#
#
# Convention : Reuss Voigt Hill
#
# Bulk Modulus (GPa) = 129.88581 138.51795 134.20188
# Shear Modulus (GPa) = 54.91820 62.38994 58.65407
#
# Velocity S-wave (km/s) = 4.45135 4.74450 4.60026
# Velocity P-wave (km/s) = 8.56050 8.94377 8.75423
#
# Compressibility (1/GPa) = 0.00769907
#
# Stress axis : x y z
#
# Youngs Moduli (GPa) = 139.34384 213.94242 168.75751
#
# Poissons Ratio (x) = 0.48311 0.34862
# Poissons Ratio (y) = 0.31465 0.12061
# Poissons Ratio (z) = 0.28786 0.15291
#
# Static dielectric constant tensor:
#      x y z
#    x 1.850860 -0.117180 -0.059050 
#    y -0.117180 2.258100 -0.012670 
#    z -0.059050 -0.012670 2.254440 
# 
# From -- ./inp_files/283509.got.cif
#   From: 2010.05.17/outbox.cif.g08.bks.cpg/sg2_142_cif.got.tgz:283509.got - 2010.06.03 11:33:40.
