data_PCOD9052211
_publ_section_title
;
Structure prediction by ZEFSAII (Michael W. Deem and Ramdas Pophale) SiO2 
 PCOD9052211
Probable space group: P -1
;
_chemical_formula_sum "Si O2"
_cell_formula_units_Z 16
_cell_length_a 13.486407
_cell_length_b 6.964541
_cell_length_c 8.760256
_cell_angle_alpha 89.745859
_cell_angle_beta 133.565387
_cell_angle_gamma 75.818896
_cell_volume 560.178703
_symmetry_space_group_name_H-M "P -1"
_symmetry_group_IT_number 2
_symmetry_cell_setting 'triclinic'
loop_
_space_group_symop_operation_xyz
x,y,z
-x,-y,-z
loop_
_atom_site_type_symbol
_atom_site_label
_atom_site_fract_x
_atom_site_fract_y
_atom_site_fract_z
Si Si1 0.167067 0.929140 0.124555
Si Si2 0.963517 0.761711 0.530895
Si Si3 0.236158 0.419254 0.521755
Si Si4 0.540501 0.209762 0.953395
Si Si5 0.256605 0.629428 0.995986
Si Si6 0.747915 0.145372 0.458603
Si Si7 0.243105 0.139289 0.976543
Si Si8 0.170464 0.416528 0.125686
O O1 0.188754 0.654461 0.107472
O O2 0.272365 0.894275 0.384577
O O3 0.225510 0.892277 0.007861
O O4 0.000000 0.000000 0.000000
O O5 0.908937 0.609122 0.572955
O O6 0.881894 0.794787 0.284777
O O7 0.890198 0.969767 0.545944
O O8 0.134705 0.682711 0.732822
O O9 0.367886 0.290936 0.767860
O O10 0.216687 0.651032 0.500807
O O11 0.269584 0.351402 0.382931
O O12 0.587389 0.384915 0.911385
O O13 0.623291 0.171998 0.201929
O O14 0.600683 0.993466 0.927972
O O15 0.260312 0.378725 0.040270
O O16 0.173072 0.175376 0.079186
O O17 0.000000 0.500000 0.000000
#
# Coordination Sequence:
#
# PCOD9052211 Si02
#       8
#     2   2   2   2   2   2   2   2
#     4  11  20  38  69 100 136 179 229 285 357 411
#     4  11  25  45  74 105 143 185 235 299 346 420
#     4  12  26  47  73 103 143 191 239 282 357 427
#     4  10  27  47  66 103 143 189 233 286 358 425
#     4  11  23  42  67 104 140 176 236 293 353 410
#     4  11  24  44  73 101 142 188 236 289 352 419
#     4  10  26  43  67 104 143 183 235 294 355 411
#     4  12  24  43  70 107 139 180 238 296 351 420
#
# _framework density 28.562314000000001
#
# number of rings (size 3 to 8) (size 9 to 14) (size 15 to 20)
#    0.000    1.000    3.750    1.875    3.500    5.000 
#    2.250    0.000    0.000    0.000    0.000    0.000 
#    0.000    0.000    0.000    0.000    0.000    0.000 
#
# Total GULP energy -89542.360243 kJ/mol
# GULP energy per Si atom -5596.397515 kJ/mol
# Density = 2.849730 g / cm^3
# Si number density = 28.562314 Si / 1000 Ang^3
#
#
#
# Elastic Constant Matrix: (Units=GPa)
#
#
# Indices 1 2 3 4 5 6 
#
# 1 130.3495 46.2383 40.8057 6.6551 -17.4182 47.0812
# 2 46.2383 226.0033 13.9696 26.1031 -9.1457 12.1079
# 3 40.8057 13.9696 80.8479 13.7838 -31.2600 -5.0632
# 4 6.6551 26.1031 13.7838 47.6119 -0.5975 -11.2524
# 5 -17.4182 -9.1457 -31.2600 -0.5975 57.4521 -1.6090
# 6 47.0812 12.1079 -5.0632 -11.2524 -1.6090 66.9859
#
#
#
# Elastic Compliance Matrix: (Units=1/GPa)
#
#
# Indices 1 2 3 4 5 6 
#
# 1 0.014611 -0.001793 -0.007624 -0.001401 -0.000320 -0.010765
# 2 -0.001793 0.005093 0.000739 -0.002760 0.000639 -0.000053
# 3 -0.007624 0.000739 0.020676 -0.003700 0.009196 0.006387
# 4 -0.001401 -0.002760 -0.003700 0.025016 -0.002468 0.005347
# 5 -0.000320 0.000639 0.009196 -0.002468 0.022415 0.000928
# 6 -0.010765 -0.000053 0.006387 0.005347 0.000928 0.023907
#
#
# Mechanical properties :
#
#
# Convention : Reuss Voigt Hill
#
# Bulk Modulus (GPa) = 43.42963 71.02531 57.22747
# Shear Modulus (GPa) = 36.56364 56.82245 46.69305
#
# Velocity S-wave (km/s) = 3.58178 4.46513 4.04763
# Velocity P-wave (km/s) = 5.68716 7.17663 6.47486
#
# Compressibility (1/GPa) = 0.02302575
#
# Stress axis : x y z
#
# Youngs Moduli (GPa) = 68.44159 196.33618 48.36577
#
# Poissons Ratio (x) = 0.35194 0.36873
# Poissons Ratio (y) = 0.12268 -0.03575
# Poissons Ratio (z) = 0.52178 -0.14512
#
# Static dielectric constant tensor:
#      x y z
#    x 2.181010 0.265260 -0.081450 
#    y 0.265260 2.922270 0.121550 
#    z -0.081450 0.121550 2.021340 
# 
# From -- ./inp_files/298997.got.cif
#   From: 2010.05.17/outbox.cif.g08.bks.cpg/sg2_150_cif.got.tgz:298997.got - 2010.06.03 11:33:40.
