data_PCOD9052215
_publ_section_title
;
Structure prediction by ZEFSAII (Michael W. Deem and Ramdas Pophale) SiO2 
 PCOD9052215
Probable space group: P -1
;
_chemical_formula_sum "Si O2"
_cell_formula_units_Z 14
_cell_length_a 8.940283
_cell_length_b 19.062347
_cell_length_c 15.303202
_cell_angle_alpha 19.375360
_cell_angle_beta 127.814095
_cell_angle_gamma 124.806297
_cell_volume 683.244244
_symmetry_space_group_name_H-M "P -1"
_symmetry_group_IT_number 2
_symmetry_cell_setting 'triclinic'
loop_
_space_group_symop_operation_xyz
x,y,z
-x,-y,-z
loop_
_atom_site_type_symbol
_atom_site_label
_atom_site_fract_x
_atom_site_fract_y
_atom_site_fract_z
Si Si1 0.206674 0.083614 0.074140
Si Si2 0.241153 0.944962 0.056458
Si Si3 0.466706 0.643203 0.091412
Si Si4 0.712273 0.061139 0.534137
Si Si5 0.620472 0.510679 0.941797
Si Si6 0.199863 0.054927 0.471251
Si Si7 0.438386 0.347169 0.578779
O O1 0.269981 0.961315 0.152447
O O2 0.262971 0.972193 0.316205
O O3 0.328701 0.294628 0.871669
O O4 0.979727 0.109156 0.966774
O O5 0.382132 0.783083 0.246458
O O6 0.292367 0.174945 0.764424
O O7 0.491068 0.529726 0.140093
O O8 0.366328 0.495717 0.298868
O O9 0.344276 0.859830 0.776557
O O10 0.827885 0.919012 0.674125
O O11 0.500000 0.000000 0.500000
O O12 0.755235 0.302346 0.243203
O O13 0.720953 0.730369 0.715683
O O14 0.500000 0.500000 0.000000
O O15 0.000000 0.000000 0.500000
O O16 0.500000 0.500000 0.500000
#
# Coordination Sequence:
#
# PCOD9052215 Si02
#       7
#     2   2   2   2   2   2   2
#     4  11  21  46  66  99 133 169 230 276 328 393
#     4  10  26  43  69  96 131 175 224 286 327 393
#     4  11  24  40  69  94 132 174 217 275 327 402
#     4  11  21  40  66  98 132 167 220 269 320 408
#     4  11  21  39  67  95 127 176 210 262 338 383
#     4  11  25  42  63 101 137 171 221 269 331 400
#     4  11  24  45  65  95 134 175 224 273 342 394
#
# _framework density 20.490476000000001
#
# number of rings (size 3 to 8) (size 9 to 14) (size 15 to 20)
#    0.000    1.143    5.714    0.000    4.000    6.286 
#    0.000    0.000    0.000    0.000    0.000    0.000 
#    0.000    0.000    0.000    0.000    0.000    0.000 
#
# Total GULP energy -78101.265640 kJ/mol
# GULP energy per Si atom -5578.661831 kJ/mol
# Density = 2.044384 g / cm^3
# Si number density = 20.490476 Si / 1000 Ang^3
#
#
#
# Elastic Constant Matrix: (Units=GPa)
#
#
# Indices 1 2 3 4 5 6 
#
# 1 120.1496 67.3859 15.6529 -9.9190 -12.8228 -1.9275
# 2 67.3859 144.2434 44.3845 -13.0850 -4.8632 -20.1713
# 3 15.6529 44.3845 94.0564 -16.2898 -19.3546 0.5989
# 4 -9.9190 -13.0850 -16.2898 37.2960 -9.3199 -11.3705
# 5 -12.8228 -4.8632 -19.3546 -9.3199 26.7102 0.4423
# 6 -1.9275 -20.1713 0.5989 -11.3705 0.4423 39.6487
#
#
#
# Elastic Compliance Matrix: (Units=1/GPa)
#
#
# Indices 1 2 3 4 5 6 
#
# 1 0.012928 -0.006685 0.003711 0.004538 0.009289 -0.001631
# 2 -0.006685 0.012654 -0.005735 0.000935 -0.004843 0.006521
# 3 0.003711 -0.005735 0.018472 0.011619 0.018175 0.000113
# 4 0.004538 0.000935 0.011619 0.043775 0.025831 0.012787
# 5 0.009289 -0.004843 0.018175 0.025831 0.063126 0.004417
# 6 -0.001631 0.006521 0.000113 0.012787 0.004417 0.032076
#
#
# Mechanical properties :
#
#
# Convention : Reuss Voigt Hill
#
# Bulk Modulus (GPa) = 37.54261 68.14399 52.84330
# Shear Modulus (GPa) = 23.88588 36.13271 30.00930
#
# Velocity S-wave (km/s) = 3.41795 4.20383 3.83109
# Velocity P-wave (km/s) = 5.82565 7.54265 6.73906
#
# Compressibility (1/GPa) = 0.02663640
#
# Stress axis : x y z
#
# Youngs Moduli (GPa) = 77.34869 79.02773 54.13538
#
# Poissons Ratio (x) = 0.52828 -0.20087
# Poissons Ratio (y) = 0.51706 0.31046
# Poissons Ratio (z) = -0.28701 0.45321
#
# Static dielectric constant tensor:
#      x y z
#    x 1.733520 -0.033190 0.002250 
#    y -0.033190 1.745020 0.008880 
#    z 0.002250 0.008880 1.781520 
# 
# From -- ./inp_files/318015.got.cif
#   From: 2010.05.17/outbox.cif.g08.bks.cpg/sg2_160_cif.got.tgz:318015.got - 2010.06.03 11:33:40.
