data_PCOD9052533
_publ_section_title
;
Structure prediction by ZEFSAII (Michael W. Deem and Ramdas Pophale) SiO2 
 PCOD9052533
Probable space group: P -1
;
_chemical_formula_sum "Si O2"
_cell_formula_units_Z 13
_cell_length_a 13.359685
_cell_length_b 5.156311
_cell_length_c 18.173342
_cell_angle_alpha 72.727551
_cell_angle_beta 154.051817
_cell_angle_gamma 103.988723
_cell_volume 522.120548
_symmetry_space_group_name_H-M "P -1"
_symmetry_group_IT_number 2
_symmetry_cell_setting 'triclinic'
loop_
_space_group_symop_operation_xyz
x,y,z
-x,-y,-z
loop_
_atom_site_type_symbol
_atom_site_label
_atom_site_fract_x
_atom_site_fract_y
_atom_site_fract_z
Si Si1 0.882344 0.565256 0.702679
Si Si2 0.500000 0.000000 0.000000
Si Si3 0.355143 0.845395 0.523441
Si Si4 0.643732 0.656437 0.984026
Si Si5 0.776012 0.487990 0.803239
Si Si6 0.234174 0.322603 0.680775
Si Si7 0.504113 0.946347 0.258309
O O1 0.790787 0.375879 0.594154
O O2 0.752330 0.858536 0.592398
O O3 0.837661 0.436320 0.763649
O O4 0.152636 0.575090 0.866499
O O5 0.613689 0.792762 0.031059
O O6 0.275487 0.074433 0.787048
O O7 0.371817 0.852458 0.622135
O O8 0.615412 0.766459 0.677192
O O9 0.421309 0.516508 0.821341
O O10 0.680990 0.889538 0.929112
O O11 0.623621 0.263007 0.757953
O O12 0.000000 0.500000 0.000000
O O13 0.320385 0.203054 0.669298
O O14 0.000000 0.500000 0.500000
#
# Coordination Sequence:
#
# PCOD9052533 Si02
#       7
#     2   1   2   2   2   2   2
#     4  12  29  46  79 109 165 203 263 321 390 469
#     4  10  26  46  78 108 154 198 268 322 402 466
#     4  12  27  48  71 114 153 210 263 318 386 463
#     4  11  27  49  75 116 153 205 260 327 401 470
#     4  12  27  49  77 112 159 210 259 321 387 475
#     4  11  26  50  77 114 153 204 263 332 403 477
#     4  11  26  48  74 112 153 202 261 317 396 470
#
# _framework density 24.898464000000001
#
# number of rings (size 3 to 8) (size 9 to 14) (size 15 to 20)
#    0.000    0.615    1.538    4.154   10.769    4.923 
#    0.000    0.000    0.000    0.000    0.000    0.000 
#    0.000    0.000    0.000    0.000    0.000    0.000 
#
# Total GULP energy -72607.402499 kJ/mol
# GULP energy per Si atom -5585.184808 kJ/mol
# Density = 2.484179 g / cm^3
# Si number density = 24.898464 Si / 1000 Ang^3
#
#
#
# Elastic Constant Matrix: (Units=GPa)
#
#
# Indices 1 2 3 4 5 6 
#
# 1 125.3564 43.5765 48.6007 -3.4575 -12.1640 -29.8890
# 2 43.5765 107.8328 50.2366 -8.8917 2.3994 -25.1908
# 3 48.6007 50.2366 205.4197 -13.0766 20.7258 -13.6542
# 4 -3.4575 -8.8917 -13.0766 45.6182 -12.6114 -8.5618
# 5 -12.1640 2.3994 20.7258 -12.6114 36.6123 -6.9700
# 6 -29.8890 -25.1908 -13.6542 -8.5618 -6.9700 40.9442
#
#
#
# Elastic Compliance Matrix: (Units=1/GPa)
#
#
# Indices 1 2 3 4 5 6 
#
# 1 0.013013 -0.001443 -0.002713 0.004460 0.009441 0.010247
# 2 -0.001443 0.012948 -0.002363 0.003890 0.002760 0.007408
# 3 -0.002713 -0.002363 0.006402 -0.000653 -0.005032 -0.002293
# 4 0.004460 0.003890 -0.000653 0.029451 0.014415 0.014044
# 5 0.009441 0.002760 -0.005032 0.014415 0.041311 0.016959
# 6 0.010247 0.007408 -0.002293 0.014044 0.016959 0.041520
#
#
# Mechanical properties :
#
#
# Convention : Reuss Voigt Hill
#
# Bulk Modulus (GPa) = 51.75297 80.38182 66.06740
# Shear Modulus (GPa) = 30.46436 44.38130 37.42283
#
# Velocity S-wave (km/s) = 3.50171 4.22654 3.88108
# Velocity P-wave (km/s) = 6.09755 7.49480 6.83199
#
# Compressibility (1/GPa) = 0.01932256
#
# Stress axis : x y z
#
# Youngs Moduli (GPa) = 76.84503 77.23322 156.20670
#
# Poissons Ratio (x) = 0.11147 0.42385
# Poissons Ratio (y) = 0.11091 0.36919
# Poissons Ratio (z) = 0.20851 0.18254
#
# Static dielectric constant tensor:
#      x y z
#    x 1.884300 0.124970 0.007020 
#    y 0.124970 2.178470 -0.057850 
#    z 0.007020 -0.057850 1.991170 
# 
# From -- ./inp_files/60143.got.cif
#   From: 2010.05.17/outbox.cif.g08.bks.cpg/sg2_31_cif.got.tgz:60143.got - 2010.06.03 11:33:40.
