data_PCOD9052159
_publ_section_title
;
Structure prediction by ZEFSAII (Michael W. Deem and Ramdas Pophale) SiO2 
 PCOD9052159
Probable space group: P -1
;
_chemical_formula_sum "Si O2"
_cell_formula_units_Z 14
_cell_length_a 8.027108
_cell_length_b 17.801939
_cell_length_c 6.955041
_cell_angle_alpha 99.476697
_cell_angle_beta 107.930614
_cell_angle_gamma 38.832382
_cell_volume 588.200693
_symmetry_space_group_name_H-M "P -1"
_symmetry_group_IT_number 2
_symmetry_cell_setting 'triclinic'
loop_
_space_group_symop_operation_xyz
x,y,z
-x,-y,-z
loop_
_atom_site_type_symbol
_atom_site_label
_atom_site_fract_x
_atom_site_fract_y
_atom_site_fract_z
Si Si1 0.027398 0.670248 0.121270
Si Si2 0.141268 0.399815 0.226032
Si Si3 0.581518 0.165013 0.502037
Si Si4 0.596519 0.574741 0.934344
Si Si5 0.266452 0.146923 0.596063
Si Si6 0.028580 0.173862 0.121308
Si Si7 0.842124 0.960763 0.232305
O O1 0.340552 0.535874 0.132949
O O2 0.965700 0.721774 0.330517
O O3 0.934313 0.766711 0.981145
O O4 0.844285 0.660357 0.983286
O O5 0.301793 0.305141 0.413485
O O6 0.288418 0.425964 0.221113
O O7 0.809003 0.520847 0.163595
O O8 0.510876 0.122868 0.613509
O O9 0.835590 0.133832 0.635887
O O10 0.682629 0.087584 0.310945
O O11 0.301964 0.711254 0.920505
O O12 0.162953 0.144961 0.360727
O O13 0.289076 0.067727 0.715750
O O14 0.145502 0.062787 0.998170
#
# Coordination Sequence:
#
# PCOD9052159 Si02
#       7
#     2   2   2   2   2   2   2
#     4   9  20  37  58  91 123 155 203 246 297 370
#     4   9  19  38  61  89 122 159 204 249 304 364
#     4  11  22  45  64  87 128 162 205 256 311 356
#     4   9  19  36  62  90 126 156 201 256 299 365
#     4  11  22  41  64  91 125 165 202 249 314 361
#     4  11  21  40  63  91 126 160 202 252 311 358
#     4  10  26  42  61  97 121 158 214 256 293 378
#
# _framework density 23.801397999999999
#
# number of rings (size 3 to 8) (size 9 to 14) (size 15 to 20)
#    0.857    1.143    1.429    1.714    2.000    1.143 
#    2.571    7.857    0.000    0.000    0.000    0.000 
#    0.000    0.000    0.000    0.000    0.000    0.000 
#
# Total GULP energy -78069.282239 kJ/mol
# GULP energy per Si atom -5576.377303 kJ/mol
# Density = 2.374722 g / cm^3
# Si number density = 23.801398 Si / 1000 Ang^3
#
#
#
# Elastic Constant Matrix: (Units=GPa)
#
#
# Indices 1 2 3 4 5 6 
#
# 1 1.3181 41.4251 52.2002 -12.4217 34.3585 -17.7134
# 2 41.4251 39.1218 13.2147 -1.7069 -16.4381 -14.8729
# 3 52.2002 13.2147 71.8257 20.2603 -20.6999 -6.9732
# 4 -12.4217 -1.7069 20.2603 46.5284 2.7551 0.1193
# 5 34.3585 -16.4381 -20.6999 2.7551 5.5340 -2.4565
# 6 -17.7134 -14.8729 -6.9732 0.1193 -2.4565 36.4765
#
#
#
# Elastic Compliance Matrix: (Units=1/GPa)
#
#
# Indices 1 2 3 4 5 6 
#
# 1 0.002526 0.006071 0.003470 -0.001735 0.018692 0.005630
# 2 0.006071 0.025484 -0.011674 0.007897 -0.004821 0.010757
# 3 0.003470 -0.011674 0.012582 -0.004539 -0.007409 -0.001154
# 4 -0.001735 0.007897 -0.004539 0.022894 0.006690 0.001885
# 5 0.018692 -0.004821 -0.007409 0.006690 0.022476 0.007186
# 6 0.005630 0.010757 -0.001154 0.001885 0.007186 0.034792
#
#
# Mechanical properties :
#
#
# Convention : Reuss Voigt Hill
#
# Bulk Modulus (GPa) = 27.52814 36.21616 31.87215
# Shear Modulus (GPa) = 36.46229 18.06947 27.26588
#
# Velocity S-wave (km/s) = 3.91825 2.75831 3.38828
# Velocity P-wave (km/s) = 5.66225 5.03918 5.35978
#
# Compressibility (1/GPa) = 0.03632647
#
# Stress axis : x y z
#
# Youngs Moduli (GPa) = 395.83944 39.24095 79.48092
#
# Poissons Ratio (x) = -0.23825 -0.27578
# Poissons Ratio (y) = -2.40332 0.92784
# Poissons Ratio (z) = -1.37348 0.45809
#
# Static dielectric constant tensor:
#      x y z
#    x 1.939130 -0.016140 -0.002540 
#    y -0.016140 1.973240 0.001910 
#    z -0.002540 0.001910 1.874110 
# 
# From -- ./inp_files/51735.got.cif
#   From: 2010.05.17/outbox.cif.g08.bks.cpg/sg2_26_cif.got.tgz:51735.got - 2010.06.03 11:33:40.
