data_PCOD9052163
_publ_section_title
;
Structure prediction by ZEFSAII (Michael W. Deem and Ramdas Pophale) SiO2 
 PCOD9052163
Probable space group: P -1
;
_chemical_formula_sum "Si O2"
_cell_formula_units_Z 16
_cell_length_a 12.319289
_cell_length_b 16.173854
_cell_length_c 14.533020
_cell_angle_alpha 48.803287
_cell_angle_beta 61.577343
_cell_angle_gamma 26.157182
_cell_volume 900.719668
_symmetry_space_group_name_H-M "P -1"
_symmetry_group_IT_number 2
_symmetry_cell_setting 'triclinic'
loop_
_space_group_symop_operation_xyz
x,y,z
-x,-y,-z
loop_
_atom_site_type_symbol
_atom_site_label
_atom_site_fract_x
_atom_site_fract_y
_atom_site_fract_z
Si Si1 0.623021 0.035606 0.127563
Si Si2 0.682280 0.557658 0.182905
Si Si3 0.663608 0.377409 0.914020
Si Si4 0.031713 0.672928 0.074604
Si Si5 0.034760 0.075950 0.812079
Si Si6 0.307382 0.725196 0.353475
Si Si7 0.896860 0.604722 0.860882
Si Si8 0.066660 0.796623 0.801924
O O1 0.404250 0.128833 0.191423
O O2 0.482704 0.245548 0.972753
O O3 0.783769 0.967855 0.193748
O O4 0.807665 0.836068 0.122470
O O5 0.483092 0.656609 0.260261
O O6 0.889777 0.478418 0.202836
O O7 0.863022 0.328773 0.223851
O O8 0.796581 0.264273 0.843346
O O9 0.748560 0.425004 0.891855
O O10 0.646138 0.391620 0.139989
O O11 0.802437 0.165463 0.064816
O O12 0.947090 0.813392 0.918266
O O13 0.113164 0.494732 0.126490
O O14 0.901719 0.181385 0.689478
O O15 0.500000 0.500000 0.500000
O O16 0.131993 0.947923 0.319145
O O17 0.000000 0.500000 0.000000
#
# Coordination Sequence:
#
# PCOD9052163 Si02
#       8
#     2   2   2   2   2   2   2   2
#     4  10  19  32  55  88 113 144 177 224 289 334
#     4  11  21  39  53  83 122 142 186 230 279 339
#     4  10  18  30  57  89 113 141 175 233 298 332
#     4  11  19  29  52  89 118 143 175 216 288 350
#     4  10  17  35  56  80 121 137 178 245 276 333
#     4  12  26  39  55  80 113 157 193 231 276 325
#     4  10  21  32  52  83 124 148 173 219 283 355
#     4  12  20  33  59  83 114 151 179 231 284 337
#
# _framework density 17.763573999999998
#
# number of rings (size 3 to 8) (size 9 to 14) (size 15 to 20)
#    0.000    1.250    7.500    1.125    1.750    3.500 
#    0.000    0.000    0.000    0.750    0.000    2.625 
#    0.000    0.000    0.000    0.000    0.000    0.000 
#
# Total GULP energy -89209.340547 kJ/mol
# GULP energy per Si atom -5575.583784 kJ/mol
# Density = 1.772314 g / cm^3
# Si number density = 17.763574 Si / 1000 Ang^3
#
#
#
# Elastic Constant Matrix: (Units=GPa)
#
#
# Indices 1 2 3 4 5 6 
#
# 1 70.5125 34.2326 5.4090 -3.4648 4.6956 6.0092
# 2 34.2326 66.8462 3.9617 -15.8359 -6.3321 2.3313
# 3 5.4090 3.9617 52.0605 -15.9185 7.8664 0.7396
# 4 -3.4648 -15.8359 -15.9185 14.8547 -1.0899 -3.6383
# 5 4.6956 -6.3321 7.8664 -1.0899 10.3994 -4.9760
# 6 6.0092 2.3313 0.7396 -3.6383 -4.9760 36.1084
#
#
#
# Elastic Compliance Matrix: (Units=1/GPa)
#
#
# Indices 1 2 3 4 5 6 
#
# 1 0.026946 -0.022502 -0.004857 -0.027493 -0.029767 -0.009804
# 2 -0.022502 0.042888 0.010426 0.057560 0.040212 0.012103
# 3 -0.004857 0.010426 0.035183 0.047440 -0.011877 0.002558
# 4 -0.027493 0.057560 0.047440 0.182088 0.042166 0.024045
# 5 -0.029767 0.040212 -0.011877 0.042166 0.161408 0.029093
# 6 -0.009804 0.012103 0.002558 0.024045 0.029093 0.034924
#
#
# Mechanical properties :
#
#
# Convention : Reuss Voigt Hill
#
# Bulk Modulus (GPa) = 14.05436 30.73620 22.39528
# Shear Modulus (GPa) = 9.24180 21.99357 15.61769
#
# Velocity S-wave (km/s) = 2.28341 3.52252 2.96834
# Velocity P-wave (km/s) = 3.85759 5.82106 4.93790
#
# Compressibility (1/GPa) = 0.07115230
#
# Stress axis : x y z
#
# Youngs Moduli (GPa) = 37.11170 23.31639 28.42244
#
# Poissons Ratio (x) = 0.52467 0.13804
# Poissons Ratio (y) = 0.83509 -0.29634
# Poissons Ratio (z) = 0.18024 -0.24310
#
# Static dielectric constant tensor:
#      x y z
#    x 1.646500 -0.013730 0.003630 
#    y -0.013730 1.648660 -0.003270 
#    z 0.003630 -0.003270 1.574910 
# 
# From -- ./inp_files/522338.got.cif
#   From: 2010.05.17/outbox.cif.g08.bks.cpg/sg2_262_cif.got.tgz:522338.got - 2010.06.03 11:33:40.
