data_PCOD9052201
_publ_section_title
;
Structure prediction by ZEFSAII (Michael W. Deem and Ramdas Pophale) SiO2 
 PCOD9052201
Probable space group: P -1
;
_chemical_formula_sum "Si O2"
_cell_formula_units_Z 15
_cell_length_a 20.404081
_cell_length_b 11.122695
_cell_length_c 15.115511
_cell_angle_alpha 146.456962
_cell_angle_beta 20.737185
_cell_angle_gamma 145.717696
_cell_volume 651.692294
_symmetry_space_group_name_H-M "P -1"
_symmetry_group_IT_number 2
_symmetry_cell_setting 'triclinic'
loop_
_space_group_symop_operation_xyz
x,y,z
-x,-y,-z
loop_
_atom_site_type_symbol
_atom_site_label
_atom_site_fract_x
_atom_site_fract_y
_atom_site_fract_z
Si Si1 0.216373 0.123776 0.823837
Si Si2 0.030957 0.481359 0.846755
Si Si3 0.298154 0.452709 0.078980
Si Si4 0.326195 0.913992 0.234749
Si Si5 0.679015 0.299461 0.507086
Si Si6 0.914232 0.682410 0.555002
Si Si7 0.312624 0.303692 0.626497
Si Si8 0.000000 0.000000 0.500000
O O1 0.320570 0.190929 0.641571
O O2 0.321783 0.956158 0.636643
O O3 0.221269 0.329017 0.009067
O O4 0.000000 0.000000 0.000000
O O5 0.242495 0.618634 0.638113
O O6 0.007887 0.232827 0.686686
O O7 0.873207 0.596021 0.074316
O O8 0.000000 0.500000 0.000000
O O9 0.342992 0.715994 0.160088
O O10 0.152724 0.360062 0.285426
O O11 0.489136 0.376065 0.814977
O O12 0.138805 0.807101 0.347045
O O13 0.296276 0.123531 0.458023
O O14 0.500000 0.000000 0.000000
O O15 0.842110 0.441570 0.453465
O O16 0.844730 0.853086 0.681433
O O17 0.500000 0.500000 0.500000
#
# Coordination Sequence:
#
# PCOD9052201 Si02
#       8
#     2   2   2   2   2   2   2   1
#     4  12  24  47  73 105 150 196 243 308 378 450
#     4  11  26  46  73 108 154 194 247 306 388 442
#     4  12  27  46  78 110 147 196 258 310 380 459
#     4  12  28  47  76 108 150 197 258 312 381 459
#     4  11  26  46  76 109 148 195 250 317 373 457
#     4  11  25  49  73 108 145 199 247 316 382 446
#     4  12  28  46  74 108 148 196 249 311 376 452
#     4  10  26  42  80 102 150 190 248 304 382 452
#
# _framework density 23.016997
#
# number of rings (size 3 to 8) (size 9 to 14) (size 15 to 20)
#    0.000    0.533    1.333    5.200   14.933    1.067 
#    0.000    0.000    0.000    0.000    0.000    0.000 
#    0.000    0.000    0.000    0.000    0.000    0.000 
#
# Total GULP energy -83708.770150 kJ/mol
# GULP energy per Si atom -5580.584677 kJ/mol
# Density = 2.296461 g / cm^3
# Si number density = 23.016997 Si / 1000 Ang^3
#
#
#
# Elastic Constant Matrix: (Units=GPa)
#
#
# Indices 1 2 3 4 5 6 
#
# 1 49.0281 22.3917 13.0710 -0.7890 26.7181 17.8168
# 2 22.3917 122.9600 40.9022 3.2990 7.7594 -3.9189
# 3 13.0710 40.9022 85.1338 -8.6080 13.4211 11.4529
# 4 -0.7890 3.2990 -8.6080 54.0632 -5.4550 3.1374
# 5 26.7181 7.7594 13.4211 -5.4550 49.3546 -3.2344
# 6 17.8168 -3.9189 11.4529 3.1374 -3.2344 40.3245
#
#
#
# Elastic Compliance Matrix: (Units=1/GPa)
#
#
# Indices 1 2 3 4 5 6 
#
# 1 0.047488 -0.009453 0.005060 0.000817 -0.027184 -0.025582
# 2 -0.009453 0.011917 -0.006320 -0.001786 0.005269 0.007691
# 3 0.005060 -0.006320 0.016424 0.002905 -0.006432 -0.008257
# 4 0.000817 -0.001786 0.002905 0.019343 0.001004 -0.002784
# 5 -0.027184 0.005269 -0.006432 0.001004 0.037140 0.017250
# 6 -0.025582 0.007691 -0.008257 -0.002784 0.017250 0.040795
#
#
# Mechanical properties :
#
#
# Convention : Reuss Voigt Hill
#
# Bulk Modulus (GPa) = 18.38113 45.53910 31.96011
# Shear Modulus (GPa) = 23.51089 40.79892 32.15491
#
# Velocity S-wave (km/s) = 3.19949 4.21474 3.74171
# Velocity P-wave (km/s) = 4.65320 6.59646 5.70813
#
# Compressibility (1/GPa) = 0.05440363
#
# Stress axis : x y z
#
# Youngs Moduli (GPa) = 21.05786 83.91321 60.88557
#
# Poissons Ratio (x) = 0.79322 -0.30809
# Poissons Ratio (y) = 0.19906 0.38481
# Poissons Ratio (z) = -0.10655 0.53034
#
# Static dielectric constant tensor:
#      x y z
#    x 2.364180 -0.194890 -0.210760 
#    y -0.194890 1.898940 0.020190 
#    z -0.210760 0.020190 1.953120 
# 
# From -- ./inp_files/541156.got.cif
#   From: 2010.05.17/outbox.cif.g08.bks.cpg/sg2_271_cif.got.tgz:541156.got - 2010.06.03 11:33:40.
