data_PCOD9052732
_publ_section_title
;
Structure prediction by ZEFSAII (Michael W. Deem and Ramdas Pophale) SiO2 
 PCOD9052732
Probable space group: P -1
;
_chemical_formula_sum "Si O2"
_cell_formula_units_Z 10
_cell_length_a 14.395128
_cell_length_b 10.013964
_cell_length_c 13.442920
_cell_angle_alpha 37.080421
_cell_angle_beta 19.962623
_cell_angle_gamma 36.240411
_cell_volume 383.470482
_symmetry_space_group_name_H-M "P -1"
_symmetry_group_IT_number 2
_symmetry_cell_setting 'triclinic'
loop_
_space_group_symop_operation_xyz
x,y,z
-x,-y,-z
loop_
_atom_site_type_symbol
_atom_site_label
_atom_site_fract_x
_atom_site_fract_y
_atom_site_fract_z
Si Si1 0.162901 0.916581 0.642042
Si Si2 0.763836 0.161966 0.070868
Si Si3 0.309829 0.322872 0.300005
Si Si4 0.026771 0.229861 0.284937
Si Si5 0.564282 0.493072 0.241096
O O1 0.045955 0.801270 0.737747
O O2 0.346202 0.712296 0.647019
O O3 0.320419 0.112163 0.339107
O O4 0.909046 0.070258 0.873771
O O5 0.434163 0.180946 0.361836
O O6 0.706715 0.401161 0.047279
O O7 0.000000 0.000000 0.000000
O O8 0.000000 0.500000 0.500000
O O9 0.500000 0.500000 0.000000
O O10 0.772985 0.430771 0.468249
O O11 0.000000 0.000000 0.500000
O O12 0.314952 0.299029 0.967898
#
# Coordination Sequence:
#
# PCOD9052732 Si02
#       5
#     2   2   2   2   2
#     4  11  27  49  78 106 152 198 254 298 381 448
#     4  10  26  48  79 111 148 193 259 304 374 445
#     4  12  27  44  74 113 154 191 247 313 380 431
#     4  12  29  48  74 109 150 194 248 311 378 442
#     4  11  28  48  76 105 150 197 251 303 373 448
#
# _framework density 26.077628000000001
#
# number of rings (size 3 to 8) (size 9 to 14) (size 15 to 20)
#    0.000    0.800    2.000    1.800   16.800    1.600 
#    0.000    0.000    0.000    0.000    0.000    0.000 
#    0.000    0.000    0.000    0.000    0.000    0.000 
#
# Total GULP energy -55816.145622 kJ/mol
# GULP energy per Si atom -5581.614562 kJ/mol
# Density = 2.601827 g / cm^3
# Si number density = 26.077628 Si / 1000 Ang^3
#
#
#
# Elastic Constant Matrix: (Units=GPa)
#
#
# Indices 1 2 3 4 5 6 
#
# 1 85.4166 28.8488 12.9603 16.0851 -18.1271 0.2218
# 2 28.8488 94.9831 10.3180 7.8386 -1.9086 1.6631
# 3 12.9603 10.3180 110.3312 -4.5240 -23.2009 -2.4358
# 4 16.0851 7.8386 -4.5240 55.8649 2.5436 -11.2096
# 5 -18.1271 -1.9086 -23.2009 2.5436 44.0413 3.9233
# 6 0.2218 1.6631 -2.4358 -11.2096 3.9233 56.4756
#
#
#
# Elastic Compliance Matrix: (Units=1/GPa)
#
#
# Indices 1 2 3 4 5 6 
#
# 1 0.015316 -0.004108 -0.000290 -0.004400 0.006340 -0.001265
# 2 -0.004108 0.011906 -0.001007 -0.000571 -0.001639 -0.000377
# 3 -0.000290 -0.001007 0.010328 0.000883 0.005201 0.000290
# 4 -0.004400 -0.000571 0.000883 0.020316 -0.002928 0.004308
# 5 0.006340 -0.001639 0.005201 -0.002928 0.028359 -0.002303
# 6 -0.001265 -0.000377 0.000290 0.004308 -0.002303 0.018750
#
#
# Mechanical properties :
#
#
# Convention : Reuss Voigt Hill
#
# Bulk Modulus (GPa) = 37.39725 43.88726 40.64225
# Shear Modulus (GPa) = 40.09656 47.18326 43.63991
#
# Velocity S-wave (km/s) = 3.92546 4.25825 4.09523
# Velocity P-wave (km/s) = 5.90910 6.40647 6.16281
#
# Compressibility (1/GPa) = 0.02673994
#
# Stress axis : x y z
#
# Youngs Moduli (GPa) = 65.29147 83.99147 96.82252
#
# Poissons Ratio (x) = 0.34501 0.02809
# Poissons Ratio (y) = 0.26820 0.09752
# Poissons Ratio (z) = 0.01894 0.08460
#
# Static dielectric constant tensor:
#      x y z
#    x 2.209930 -0.104070 0.136160 
#    y -0.104070 2.033320 -0.059910 
#    z 0.136160 -0.059910 2.249880 
# 
# From -- ./inp_files/16375.got.cif
#   From: 2010.05.17/outbox.cif.g08.bks.cpg/sg2_9_cif.got.tgz:16375.got - 2010.06.03 11:33:40.
