data_PCOD9052875
_publ_section_title
;
Structure prediction by ZEFSAII (Michael W. Deem and Ramdas Pophale) SiO2 
 PCOD9052875
Probable space group: P -1
;
_chemical_formula_sum "Si O2"
_cell_formula_units_Z 14
_cell_length_a 18.294220
_cell_length_b 10.044484
_cell_length_c 17.028517
_cell_angle_alpha 43.904649
_cell_angle_beta 157.029655
_cell_angle_gamma 148.649382
_cell_volume 601.053066
_symmetry_space_group_name_H-M "P -1"
_symmetry_group_IT_number 2
_symmetry_cell_setting 'triclinic'
loop_
_space_group_symop_operation_xyz
x,y,z
-x,-y,-z
loop_
_atom_site_type_symbol
_atom_site_label
_atom_site_fract_x
_atom_site_fract_y
_atom_site_fract_z
Si Si1 0.646194 0.647759 0.498266
Si Si2 0.160716 0.139393 0.179673
Si Si3 0.127514 0.742244 0.960827
Si Si4 0.688179 0.395846 0.054075
Si Si5 0.353095 0.194568 0.102092
Si Si6 0.290898 0.822954 0.439643
Si Si7 0.578626 0.934403 0.220566
O O1 0.500000 0.500000 0.500000
O O2 0.420572 0.448160 0.295407
O O3 0.740551 0.927214 0.448070
O O4 0.880016 0.670496 0.709856
O O5 0.276838 0.025123 0.378431
O O6 0.000000 0.000000 0.000000
O O7 0.942784 0.073694 0.046753
O O8 0.296137 0.750985 0.060908
O O9 0.000000 0.500000 0.000000
O O10 0.327287 0.055750 0.055461
O O11 0.976310 0.578696 0.219098
O O12 0.686907 0.224994 0.188734
O O13 0.648004 0.577125 0.977815
O O14 0.462188 0.185136 0.856052
O O15 0.584047 0.257170 0.352213
O O16 0.500000 0.000000 0.500000
#
# Coordination Sequence:
#
# PCOD9052875 Si02
#       7
#     2   2   2   2   2   2   2
#     4  12  23  40  70 101 138 178 228 287 354 406
#     4  11  21  37  61 102 139 169 220 291 345 397
#     4  12  25  41  69 103 138 177 230 282 352 413
#     4  10  27  48  66  98 141 187 230 282 349 406
#     4  11  23  41  64  98 135 178 227 281 346 410
#     4  11  23  36  70  99 129 173 232 285 338 407
#     4  11  26  47  68  97 142 184 231 287 339 422
#
# _framework density 23.292451
#
# number of rings (size 3 to 8) (size 9 to 14) (size 15 to 20)
#    0.000    0.857    4.286    2.571    4.000    1.714 
#    0.000    4.286    0.000    0.000    0.000    0.000 
#    0.000    0.000    0.000    0.000    0.000    0.000 
#
# Total GULP energy -78002.989244 kJ/mol
# GULP energy per Si atom -5571.642089 kJ/mol
# Density = 2.323944 g / cm^3
# Si number density = 23.292451 Si / 1000 Ang^3
#
#
#
# Elastic Constant Matrix: (Units=GPa)
#
#
# Indices 1 2 3 4 5 6 
#
# 1 61.4052 22.7658 16.0802 -5.8864 7.0330 -15.6931
# 2 22.7658 111.9387 40.5978 -29.7170 -4.1879 -15.4278
# 3 16.0802 40.5978 124.2459 -30.2352 20.8389 -19.2845
# 4 -5.8864 -29.7170 -30.2352 40.8798 -8.9985 -3.8974
# 5 7.0330 -4.1879 20.8389 -8.9985 31.9907 -0.5648
# 6 -15.6931 -15.4278 -19.2845 -3.8974 -0.5648 43.3191
#
#
#
# Elastic Compliance Matrix: (Units=1/GPa)
#
#
# Indices 1 2 3 4 5 6 
#
# 1 0.019556 -0.003447 0.000351 0.000069 -0.004855 0.005956
# 2 -0.003447 0.013788 -0.002292 0.009681 0.006843 0.003602
# 3 0.000351 -0.002292 0.012231 0.006519 -0.006418 0.005259
# 4 0.000069 0.009681 0.006519 0.039084 0.008176 0.009998
# 5 -0.004855 0.006843 -0.006418 0.008176 0.039686 -0.000926
# 6 0.005956 0.003602 0.005259 0.009998 -0.000926 0.029753
#
#
# Mechanical properties :
#
#
# Convention : Reuss Voigt Hill
#
# Bulk Modulus (GPa) = 28.73619 50.71972 39.72796
# Shear Modulus (GPa) = 28.33253 37.78098 33.05675
#
# Velocity S-wave (km/s) = 3.49145 4.03181 3.77132
# Velocity P-wave (km/s) = 5.34954 6.59518 6.00475
#
# Compressibility (1/GPa) = 0.03479933
#
# Stress axis : x y z
#
# Youngs Moduli (GPa) = 51.13485 72.52526 81.75812
#
# Poissons Ratio (x) = 0.24999 -0.02867
# Poissons Ratio (y) = 0.17626 0.18738
# Poissons Ratio (z) = -0.01793 0.16622
#
# Static dielectric constant tensor:
#      x y z
#    x 7.672200 0.857320 -2.740870 
#    y 0.857320 2.296790 -0.474530 
#    z -2.740870 -0.474530 3.133970 
# 
# From -- ./inp_files/577962.got.cif
#   From: 2010.05.17/outbox.cif.g08.bks.cpg/sg2_289_cif.got.tgz:577962.got - 2010.06.03 11:33:40.
