data_PCOD9052253
_publ_section_title
;
Structure prediction by ZEFSAII (Michael W. Deem and Ramdas Pophale) SiO2 
 PCOD9052253
Probable space group: P -1
;
_chemical_formula_sum "Si O2"
_cell_formula_units_Z 16
_cell_length_a 9.530023
_cell_length_b 9.124486
_cell_length_c 11.661910
_cell_angle_alpha 132.454497
_cell_angle_beta 80.368205
_cell_angle_gamma 97.941124
_cell_volume 737.211249
_symmetry_space_group_name_H-M "P -1"
_symmetry_group_IT_number 2
_symmetry_cell_setting 'triclinic'
loop_
_space_group_symop_operation_xyz
x,y,z
-x,-y,-z
loop_
_atom_site_type_symbol
_atom_site_label
_atom_site_fract_x
_atom_site_fract_y
_atom_site_fract_z
Si Si1 0.237455 0.048410 0.721012
Si Si2 0.607674 0.559160 0.639992
Si Si3 0.616737 0.995294 0.882885
Si Si4 0.063874 0.217475 0.642328
Si Si5 0.843426 0.077071 0.075670
Si Si6 0.289364 0.502871 0.652164
Si Si7 0.224382 0.675512 0.349755
Si Si8 0.466520 0.724371 0.157153
O O1 0.125478 0.191057 0.747975
O O2 0.392516 0.156593 0.755016
O O3 0.207991 0.000999 0.833323
O O4 0.227614 0.847944 0.538417
O O5 0.451109 0.492882 0.673424
O O6 0.669934 0.458395 0.465692
O O7 0.721897 0.523960 0.704021
O O8 0.594937 0.782744 0.715910
O O9 0.592133 0.169220 0.891218
O O10 0.762354 0.996764 0.931904
O O11 0.500000 0.000000 0.000000
O O12 0.194213 0.307614 0.594955
O O13 0.927827 0.348358 0.703472
O O14 0.000000 0.000000 0.500000
O O15 0.802490 0.309671 0.200059
O O16 0.000000 0.000000 0.000000
O O17 0.343061 0.734549 0.272478
O O18 0.500000 0.500000 0.000000
#
# Coordination Sequence:
#
# PCOD9052253 Si02
#       8
#     2   2   2   2   2   2   2   2
#     4  11  24  49  69 103 144 189 245 299 360 431
#     4  11  24  43  78 105 141 183 251 303 357 421
#     4  12  25  46  69 107 148 185 249 294 360 433
#     4  10  26  44  68 103 148 184 241 291 367 429
#     4  12  28  47  74 104 148 194 238 302 371 431
#     4  11  24  46  73 107 136 193 242 301 356 438
#     4  11  25  45  71 107 140 190 242 297 371 425
#     4  12  27  44  73 104 147 192 240 297 361 435
#
# _framework density 21.703412
#
# number of rings (size 3 to 8) (size 9 to 14) (size 15 to 20)
#    0.000    0.750    3.750    1.875   10.500    1.500 
#    0.000    1.250    0.000    0.000    0.000    0.000 
#    0.000    0.000    0.000    0.000    0.000    0.000 
#
# Total GULP energy -89324.380968 kJ/mol
# GULP energy per Si atom -5582.773811 kJ/mol
# Density = 2.165401 g / cm^3
# Si number density = 21.703412 Si / 1000 Ang^3
#
#
#
# Elastic Constant Matrix: (Units=GPa)
#
#
# Indices 1 2 3 4 5 6 
#
# 1 149.4583 56.0876 20.2665 6.3507 8.4327 -16.7383
# 2 56.0876 125.0582 22.8141 0.0353 5.3588 -17.3837
# 3 20.2665 22.8141 52.6474 1.7273 -4.3171 7.2641
# 4 6.3507 0.0353 1.7273 27.4019 -6.2441 9.4206
# 5 8.4327 5.3588 -4.3171 -6.2441 33.1607 -5.2924
# 6 -16.7383 -17.3837 7.2641 9.4206 -5.2924 42.5138
#
#
#
# Elastic Compliance Matrix: (Units=1/GPa)
#
#
# Indices 1 2 3 4 5 6 
#
# 1 0.008773 -0.002913 -0.002627 -0.003477 -0.002246 0.003203
# 2 -0.002913 0.010638 -0.004091 -0.000659 -0.001009 0.003922
# 3 -0.002627 -0.004091 0.022926 0.002303 0.003682 -0.006676
# 4 -0.003477 -0.000659 0.002303 0.042501 0.007617 -0.010501
# 5 -0.002246 -0.001009 0.003682 0.007617 0.032880 0.000479
# 6 0.003203 0.003922 -0.006676 -0.010501 0.000479 0.029914
#
#
# Mechanical properties :
#
#
# Convention : Reuss Voigt Hill
#
# Bulk Modulus (GPa) = 43.33619 58.38892 50.86256
# Shear Modulus (GPa) = 28.63930 35.81502 32.22716
#
# Velocity S-wave (km/s) = 3.63654 4.06668 3.85761
# Velocity P-wave (km/s) = 6.13542 7.00085 6.58237
#
# Compressibility (1/GPa) = 0.02307540
#
# Stress axis : x y z
#
# Youngs Moduli (GPa) = 113.98086 94.00583 43.61944
#
# Poissons Ratio (x) = 0.27385 0.11458
# Poissons Ratio (y) = 0.33205 0.17843
# Poissons Ratio (z) = 0.29942 0.38453
#
# Static dielectric constant tensor:
#      x y z
#    x 1.824020 -0.028740 -0.015130 
#    y -0.028740 1.805990 0.036980 
#    z -0.015130 0.036980 1.835260 
# 
# From -- ./inp_files/336832.got.cif
#   From: 2010.05.17/outbox.cif.g08.bks.cpg/sg2_169_cif.got.tgz:336832.got - 2010.06.03 11:33:40.
