data_PCOD9052996
_publ_section_title
;
Structure prediction by ZEFSAII (Michael W. Deem and Ramdas Pophale) SiO2 
 PCOD9052996
Probable space group: P -1
;
_chemical_formula_sum "Si O2"
_cell_formula_units_Z 16
_cell_length_a 11.025207
_cell_length_b 20.931399
_cell_length_c 16.265760
_cell_angle_alpha 159.628253
_cell_angle_beta 149.226632
_cell_angle_gamma 32.495749
_cell_volume 653.192655
_symmetry_space_group_name_H-M "P -1"
_symmetry_group_IT_number 2
_symmetry_cell_setting 'triclinic'
loop_
_space_group_symop_operation_xyz
x,y,z
-x,-y,-z
loop_
_atom_site_type_symbol
_atom_site_label
_atom_site_fract_x
_atom_site_fract_y
_atom_site_fract_z
Si Si1 0.366889 0.055606 0.375269
Si Si2 0.539154 0.853534 0.771422
Si Si3 0.004582 0.615891 0.807654
Si Si4 0.637584 0.925391 0.227522
Si Si5 0.495792 0.666957 0.080520
Si Si6 0.944332 0.366014 0.948038
Si Si7 0.159631 0.775164 0.739606
Si Si8 0.299755 0.631913 0.483904
O O1 0.371045 0.234288 0.651890
O O2 0.096994 0.093958 0.228605
O O3 0.583107 0.044596 0.422254
O O4 0.413954 0.850698 0.197614
O O5 0.409772 0.697687 0.546050
O O6 0.822839 0.763954 0.824860
O O7 0.428876 0.944020 0.732839
O O8 0.500000 0.000000 0.000000
O O9 0.007357 0.681580 0.983879
O O10 0.894691 0.429076 0.518641
O O11 0.269762 0.597607 0.903672
O O12 0.420273 0.806649 0.960310
O O13 0.908657 0.804847 0.226981
O O14 0.671011 0.483879 0.922741
O O15 0.097435 0.523676 0.210819
O O16 0.183633 0.792423 0.674899
O O17 0.500000 0.500000 0.500000
#
# Coordination Sequence:
#
# PCOD9052996 Si02
#       8
#     2   2   2   2   2   2   2   2
#     4  11  26  43  63  96 133 171 214 275 321 378
#     4  12  20  34  67 102 128 162 209 270 333 386
#     4  11  21  39  70  97 122 173 227 253 309 404
#     4  12  24  41  65 103 134 159 210 283 335 366
#     4  11  25  45  69  88 123 190 227 246 316 397
#     4  11  21  40  69  90 127 171 219 266 307 389
#     4  11  20  40  68  94 133 162 207 278 328 376
#     4  11  17  36  64  98 122 167 216 255 315 384
#
# _framework density 24.495069999999998
#
# number of rings (size 3 to 8) (size 9 to 14) (size 15 to 20)
#    0.000    0.750    8.750    1.500    0.000    0.500 
#    0.000    4.375    0.000    0.000    0.000    0.000 
#    0.000    0.000    0.000    0.000    0.000    0.000 
#
# Total GULP energy -89458.921800 kJ/mol
# GULP energy per Si atom -5591.182612 kJ/mol
# Density = 2.443932 g / cm^3
# Si number density = 24.495070 Si / 1000 Ang^3
#
#
#
# Elastic Constant Matrix: (Units=GPa)
#
#
# Indices 1 2 3 4 5 6 
#
# 1 112.0617 35.6856 32.4467 12.2672 16.7223 -34.7963
# 2 35.6856 84.4729 35.4214 20.3273 6.8480 -42.1701
# 3 32.4467 35.4214 79.6630 -4.4398 21.1668 -5.4833
# 4 12.2672 20.3273 -4.4398 27.9332 -6.5899 5.6537
# 5 16.7223 6.8480 21.1668 -6.5899 41.8750 3.2525
# 6 -34.7963 -42.1701 -5.4833 5.6537 3.2525 51.0693
#
#
#
# Elastic Compliance Matrix: (Units=1/GPa)
#
#
# Indices 1 2 3 4 5 6 
#
# 1 0.369668 0.872060 -0.440383 -1.163318 -0.334183 1.074758
# 2 0.872060 2.154081 -1.076246 -2.843138 -0.807700 2.623534
# 3 -0.440383 -1.076246 0.553755 1.424117 0.398000 -1.312308
# 4 -1.163318 -2.843138 1.424117 3.799959 1.077701 -3.476738
# 5 -0.334183 -0.807700 0.398000 1.077701 0.334933 -0.992555
# 6 1.074758 2.623534 -1.312308 -3.476738 -0.992555 3.225443
#
#
# Mechanical properties :
#
#
# Convention : Reuss Voigt Hill
#
# Bulk Modulus (GPa) = 0.55917 53.70055 27.12986
# Shear Modulus (GPa) = 0.40574 35.68510 18.04542
#
# Velocity S-wave (km/s) = 0.40743 3.82098 2.71716
# Velocity P-wave (km/s) = 0.67090 6.43717 4.57642
#
# Compressibility (1/GPa) = 1.78836539
#
# Stress axis : x y z
#
# Youngs Moduli (GPa) = 2.70513 0.46424 1.80585
#
# Poissons Ratio (x) = -0.40484 0.79527
# Poissons Ratio (y) = -2.35903 1.94354
# Poissons Ratio (z) = 1.19129 0.49963
#
# Static dielectric constant tensor:
#      x y z
#    x 1.969860 -0.016570 -0.037460 
#    y -0.016570 1.969330 0.031740 
#    z -0.037460 0.031740 2.051990 
# 
# From -- ./inp_files/570817.got.cif
#   From: 2010.05.17/outbox.cif.g08.bks.cpg/sg2_286_cif.got.tgz:570817.got - 2010.06.03 11:33:40.
