data_PCOD9052346
_publ_section_title
;
Structure prediction by ZEFSAII (Michael W. Deem and Ramdas Pophale) SiO2 
 PCOD9052346
Probable space group: P -1
;
_chemical_formula_sum "Si O2"
_cell_formula_units_Z 16
_cell_length_a 8.713440
_cell_length_b 9.636020
_cell_length_c 13.444206
_cell_angle_alpha 71.397196
_cell_angle_beta 138.964389
_cell_angle_gamma 107.466789
_cell_volume 699.156334
_symmetry_space_group_name_H-M "P -1"
_symmetry_group_IT_number 2
_symmetry_cell_setting 'triclinic'
loop_
_space_group_symop_operation_xyz
x,y,z
-x,-y,-z
loop_
_atom_site_type_symbol
_atom_site_label
_atom_site_fract_x
_atom_site_fract_y
_atom_site_fract_z
Si Si1 0.659623 0.507383 0.301058
Si Si2 0.044241 0.090149 0.187615
Si Si3 0.218383 0.472134 0.856909
Si Si4 0.159125 0.618011 0.986100
Si Si5 0.125006 0.056787 0.446899
Si Si6 0.145039 0.788397 0.236033
Si Si7 0.583051 0.641111 0.437056
Si Si8 0.414953 0.807086 0.575741
O O1 0.826847 0.529389 0.282847
O O2 0.703854 0.580281 0.412852
O O3 0.624797 0.334040 0.342258
O O4 0.420940 0.577103 0.139670
O O5 0.968516 0.036901 0.274398
O O6 0.308915 0.165787 0.313743
O O7 0.889471 0.217097 0.049738
O O8 0.073578 0.954009 0.160490
O O9 0.111882 0.588014 0.851777
O O10 0.094314 0.316734 0.867798
O O11 0.500000 0.500000 0.000000
O O12 0.000000 0.500000 0.000000
O O13 0.235296 0.224418 0.469613
O O14 0.331050 0.951560 0.552031
O O15 0.000000 0.000000 0.500000
O O16 0.343536 0.720515 0.282287
O O17 0.268586 0.781608 0.407782
O O18 0.500000 0.500000 0.500000
#
# Coordination Sequence:
#
# PCOD9052346 Si02
#       8
#     2   2   2   2   2   2   2   2
#     4  11  24  41  66  98 137 174 231 282 340 400
#     4  11  22  43  67 101 139 175 226 276 341 416
#     4  10  26  45  63  97 136 176 231 286 338 402
#     4  11  23  44  71  93 128 187 231 274 334 411
#     4  11  25  40  66 104 145 178 220 286 358 405
#     4  11  22  41  67  96 135 176 223 279 342 405
#     4  12  23  41  69 105 135 181 232 277 337 422
#     4  11  21  42  66 100 139 175 218 283 343 407
#
# _framework density 22.884723999999999
#
# number of rings (size 3 to 8) (size 9 to 14) (size 15 to 20)
#    0.000    1.000    5.000    1.500    7.000    0.500 
#    0.000    7.500    0.000    0.000    0.000    0.000 
#    0.000    0.000    0.000    0.000    0.000    0.000 
#
# Total GULP energy -89370.192885 kJ/mol
# GULP energy per Si atom -5585.637055 kJ/mol
# Density = 2.283264 g / cm^3
# Si number density = 22.884724 Si / 1000 Ang^3
#
#
#
# Elastic Constant Matrix: (Units=GPa)
#
#
# Indices 1 2 3 4 5 6 
#
# 1 114.0038 23.0302 30.5088 -6.2812 -14.3703 -13.4985
# 2 23.0302 143.3562 39.0278 -21.7459 5.1031 -19.2199
# 3 30.5088 39.0278 82.3437 -21.3315 13.2887 -9.0901
# 4 -6.2812 -21.7459 -21.3315 46.8457 1.4341 7.3780
# 5 -14.3703 5.1031 13.2887 1.4341 26.4645 5.9708
# 6 -13.4985 -19.2199 -9.0901 7.3780 5.9708 28.4953
#
#
#
# Elastic Compliance Matrix: (Units=1/GPa)
#
#
# Indices 1 2 3 4 5 6 
#
# 1 0.011713 -0.000678 -0.005785 -0.001948 0.009085 0.001847
# 2 -0.000678 0.008795 -0.002524 0.002169 -0.001964 0.004656
# 3 -0.005785 -0.002524 0.019835 0.007042 -0.013655 0.002922
# 4 -0.001948 0.002169 0.007042 0.025903 -0.005806 -0.002703
# 5 0.009085 -0.001964 -0.013655 -0.005806 0.052735 -0.010924
# 6 0.001847 0.004656 0.002922 -0.002703 -0.010924 0.043029
#
#
# Mechanical properties :
#
#
# Convention : Reuss Voigt Hill
#
# Bulk Modulus (GPa) = 44.70749 58.31525 51.51137
# Shear Modulus (GPa) = 26.67504 36.83688 31.75596
#
# Velocity S-wave (km/s) = 3.41783 4.01642 3.72916
# Velocity P-wave (km/s) = 5.92906 6.85904 6.41093
#
# Compressibility (1/GPa) = 0.02236762
#
# Stress axis : x y z
#
# Youngs Moduli (GPa) = 85.37269 113.70152 50.41652
#
# Poissons Ratio (x) = 0.07709 0.29168
# Poissons Ratio (y) = 0.05788 0.12727
# Poissons Ratio (z) = 0.49391 0.28703
#
# Static dielectric constant tensor:
#      x y z
#    x 1.904510 -0.033660 -0.055060 
#    y -0.033660 1.841520 0.030270 
#    z -0.055060 0.030270 1.906310 
# 
# From -- ./inp_files/225861.got.cif
#   From: 2010.05.17/outbox.cif.g08.bks.cpg/sg2_113_cif.got.tgz:225861.got - 2010.06.03 11:33:40.
