data_PCOD9052817
_publ_section_title
;
Structure prediction by ZEFSAII (Michael W. Deem and Ramdas Pophale) SiO2 
 PCOD9052817
Probable space group: P -1
;
_chemical_formula_sum "Si O2"
_cell_formula_units_Z 15
_cell_length_a 16.080326
_cell_length_b 13.235434
_cell_length_c 15.174703
_cell_angle_alpha 29.683159
_cell_angle_beta 153.912807
_cell_angle_gamma 156.460942
_cell_volume 547.920859
_symmetry_space_group_name_H-M "P -1"
_symmetry_group_IT_number 2
_symmetry_cell_setting 'triclinic'
loop_
_space_group_symop_operation_xyz
x,y,z
-x,-y,-z
loop_
_atom_site_type_symbol
_atom_site_label
_atom_site_fract_x
_atom_site_fract_y
_atom_site_fract_z
Si Si1 0.330359 0.906779 0.513666
Si Si2 0.787532 0.738475 0.898408
Si Si3 0.256963 0.726741 0.029929
Si Si4 0.101932 0.346007 0.390122
Si Si5 0.666513 0.788165 0.983842
Si Si6 0.990417 0.506543 0.627460
Si Si7 0.368059 0.220940 0.833815
Si Si8 0.500000 0.500000 0.500000
O O1 0.558675 0.932882 0.743255
O O2 0.199319 0.682731 0.484526
O O3 0.161296 0.792136 0.527654
O O4 0.357475 0.148054 0.314385
O O5 0.620654 0.513005 0.838166
O O6 0.847211 0.587748 0.132904
O O7 0.054453 0.010602 0.931014
O O8 0.620299 0.008376 0.999849
O O9 0.428295 0.646554 0.258443
O O10 0.000000 0.500000 0.000000
O O11 0.149152 0.755035 0.816376
O O12 0.114586 0.494586 0.377722
O O13 0.129665 0.142030 0.615667
O O14 0.320450 0.482854 0.422740
O O15 0.500000 0.500000 0.000000
O O16 0.670344 0.765923 0.109101
#
# Coordination Sequence:
#
# PCOD9052817 Si02
#       8
#     2   2   2   2   2   2   2   1
#     4  11  25  51  81 122 177 224 279 354 420 518
#     4  12  29  48  82 124 172 225 282 351 429 506
#     4  10  26  54  83 117 164 222 290 356 429 507
#     4  11  26  51  81 120 162 227 283 351 430 508
#     4  12  28  51  83 127 174 226 286 347 424 523
#     4  11  25  51  83 124 170 223 291 347 426 516
#     4  12  28  52  82 124 169 220 285 357 431 511
#     4  10  26  50  82 116 166 216 282 360 420 502
#
# _framework density 27.376217
#
# number of rings (size 3 to 8) (size 9 to 14) (size 15 to 20)
#    0.000    0.800    1.333    4.000    9.333    2.133 
#    4.800    0.000    0.000    0.000    0.000    0.000 
#    0.000    0.000    0.000    0.000    0.000    0.000 
#
# Total GULP energy -83669.899716 kJ/mol
# GULP energy per Si atom -5577.993314 kJ/mol
# Density = 2.731391 g / cm^3
# Si number density = 27.376217 Si / 1000 Ang^3
#
#
#
# Elastic Constant Matrix: (Units=GPa)
#
#
# Indices 1 2 3 4 5 6 
#
# 1 184.8030 42.2518 42.6151 -0.0890 5.0080 4.7939
# 2 42.2518 112.8493 33.0809 -5.3727 24.1840 -3.2794
# 3 42.6151 33.0809 224.0540 -0.5225 25.5037 2.5425
# 4 -0.0890 -5.3727 -0.5225 30.4004 0.2417 0.9596
# 5 5.0080 24.1840 25.5037 0.2417 52.5954 3.9346
# 6 4.7939 -3.2794 2.5425 0.9596 3.9346 35.4438
#
#
#
# Elastic Compliance Matrix: (Units=1/GPa)
#
#
# Indices 1 2 3 4 5 6 
#
# 1 0.006152 -0.002294 -0.000934 -0.000377 0.001005 -0.001079
# 2 -0.002294 0.011070 -0.000681 0.001917 -0.004689 0.001852
# 3 -0.000934 -0.000681 0.004970 -0.000020 -0.002003 -0.000070
# 4 -0.000377 0.001917 -0.000020 0.033257 -0.000946 -0.000566
# 5 0.001005 -0.004689 -0.002003 -0.000946 0.022264 -0.002872
# 6 -0.001079 0.001852 -0.000070 -0.000566 -0.002872 0.028870
#
#
# Mechanical properties :
#
#
# Convention : Reuss Voigt Hill
#
# Bulk Modulus (GPa) = 69.57414 84.17800 76.87607
# Shear Modulus (GPa) = 41.94919 50.60514 46.27717
#
# Velocity S-wave (km/s) = 3.91874 4.30409 4.11593
# Velocity P-wave (km/s) = 6.77824 7.45088 7.12251
#
# Compressibility (1/GPa) = 0.01437316
#
# Stress axis : x y z
#
# Youngs Moduli (GPa) = 162.55769 90.33631 201.20037
#
# Poissons Ratio (x) = 0.20722 0.18799
# Poissons Ratio (y) = 0.37290 0.13701
# Poissons Ratio (z) = 0.15188 0.06151
#
# Static dielectric constant tensor:
#      x y z
#    x 2.201110 0.071310 -0.043310 
#    y 0.071310 2.166610 -0.027340 
#    z -0.043310 -0.027340 2.087050 
# 
# From -- ./inp_files/534207.got.cif
#   From: 2010.05.17/outbox.cif.g08.bks.cpg/sg2_268_cif.got.tgz:534207.got - 2010.06.03 11:33:40.
