data_PCOD9052468
_publ_section_title
;
Structure prediction by ZEFSAII (Michael W. Deem and Ramdas Pophale) SiO2 
 PCOD9052468
Probable space group: P -1
;
_chemical_formula_sum "Si O2"
_cell_formula_units_Z 12
_cell_length_a 20.633023
_cell_length_b 5.276244
_cell_length_c 5.076853
_cell_angle_alpha 96.129297
_cell_angle_beta 81.937518
_cell_angle_gamma 72.008825
_cell_volume 513.817391
_symmetry_space_group_name_H-M "P -1"
_symmetry_group_IT_number 2
_symmetry_cell_setting 'triclinic'
loop_
_space_group_symop_operation_xyz
x,y,z
-x,-y,-z
loop_
_atom_site_type_symbol
_atom_site_label
_atom_site_fract_x
_atom_site_fract_y
_atom_site_fract_z
Si Si1 0.145553 0.279069 0.273970
Si Si2 0.265034 0.830223 0.921460
Si Si3 0.549866 0.948708 0.715866
Si Si4 0.042914 0.534432 0.729866
Si Si5 0.357397 0.669315 0.346279
Si Si6 0.122359 0.793741 0.986195
O O1 0.121060 0.323351 0.596725
O O2 0.123631 0.567073 0.176055
O O3 0.106562 0.080473 0.162369
O O4 0.223846 0.115701 0.121946
O O5 0.311300 0.816670 0.638623
O O6 0.311217 0.665824 0.115204
O O7 0.202152 0.728730 0.847979
O O8 0.600338 0.639792 0.644299
O O9 0.500000 0.000000 0.500000
O O10 0.592459 0.157617 0.724682
O O11 0.500000 0.000000 0.000000
O O12 0.000000 0.500000 0.500000
O O13 0.066194 0.794557 0.799324
O O14 0.000000 0.500000 0.000000
#
# Coordination Sequence:
#
# PCOD9052468 Si02
#       6
#     2   2   2   2   2   2
#     4  10  26  46  72 100 147 182 235 311 371 407
#     4  10  28  43  74 103 146 176 250 290 366 420
#     4  12  26  47  72 105 152 184 232 286 344 408
#     4  12  26  47  74 103 140 194 250 292 370 454
#     4  12  26  43  76 105 136 196 236 282 350 430
#     4  10  26  46  72 100 147 182 235 311 371 407
#
# _framework density 23.354596999999998
#
# number of rings (size 3 to 8) (size 9 to 14) (size 15 to 20)
#    1.000    0.000    1.667    3.000    9.333    2.667 
#    0.000    0.000    0.000    0.000    0.000    0.000 
#    0.000    0.000    0.000    0.000    0.000    0.000 
#
# Total GULP energy -67013.315066 kJ/mol
# GULP energy per Si atom -5584.442922 kJ/mol
# Density = 2.330144 g / cm^3
# Si number density = 23.354597 Si / 1000 Ang^3
#
#
#
# Elastic Constant Matrix: (Units=GPa)
#
#
# Indices 1 2 3 4 5 6 
#
# 1 107.0674 33.4093 37.7517 -5.5403 -1.1928 -3.8693
# 2 33.4093 104.7129 3.2775 -3.2779 4.8099 9.4239
# 3 37.7517 3.2775 162.1188 -8.3256 -16.5831 -7.7498
# 4 -5.5403 -3.2779 -8.3256 32.8299 -1.8796 6.5808
# 5 -1.1928 4.8099 -16.5831 -1.8796 38.2476 -2.9931
# 6 -3.8693 9.4239 -7.7498 6.5808 -2.9931 35.3929
#
#
#
# Elastic Compliance Matrix: (Units=1/GPa)
#
#
# Indices 1 2 3 4 5 6 
#
# 1 0.011461 -0.003695 -0.002499 0.000611 -0.000109 0.001567
# 2 -0.003695 0.011158 0.000360 0.001224 -0.001588 -0.003658
# 3 -0.002499 0.000360 0.007195 0.001376 0.003159 0.001218
# 4 0.000611 0.001224 0.001376 0.032294 0.001592 -0.005828
# 5 -0.000109 -0.001588 0.003159 0.001592 0.028038 0.003178
# 6 0.001567 -0.003658 0.001218 -0.005828 0.003178 0.031018
#
#
# Mechanical properties :
#
#
# Convention : Reuss Voigt Hill
#
# Bulk Modulus (GPa) = 55.10732 58.08623 56.59677
# Shear Modulus (GPa) = 36.00186 41.25812 38.62999
#
# Velocity S-wave (km/s) = 3.93049 4.20765 4.07143
# Velocity P-wave (km/s) = 6.65173 6.96643 6.81090
#
# Compressibility (1/GPa) = 0.01814641
#
# Stress axis : x y z
#
# Youngs Moduli (GPa) = 87.25062 89.62029 138.98594
#
# Poissons Ratio (x) = 0.33119 0.34733
# Poissons Ratio (y) = 0.32243 -0.05010
# Poissons Ratio (z) = 0.21804 -0.03231
#
# Static dielectric constant tensor:
#      x y z
#    x 1.918530 -0.044730 0.001280 
#    y -0.044730 1.901370 0.000960 
#    z 0.001280 0.000960 1.901360 
# 
# From -- ./inp_files/113553.got.cif
#   From: 2010.05.17/outbox.cif.g08.bks.cpg/sg2_57_cif.got.tgz:113553.got - 2010.06.03 11:33:40.
