data_PCOD9052667
_publ_section_title
;
Structure prediction by ZEFSAII (Michael W. Deem and Ramdas Pophale) SiO2 
 PCOD9052667
Probable space group: P -1
;
_chemical_formula_sum "Si O2"
_cell_formula_units_Z 16
_cell_length_a 10.044729
_cell_length_b 8.270675
_cell_length_c 18.304686
_cell_angle_alpha 119.968347
_cell_angle_beta 142.512481
_cell_angle_gamma 47.973320
_cell_volume 685.782380
_symmetry_space_group_name_H-M "P -1"
_symmetry_group_IT_number 2
_symmetry_cell_setting 'triclinic'
loop_
_space_group_symop_operation_xyz
x,y,z
-x,-y,-z
loop_
_atom_site_type_symbol
_atom_site_label
_atom_site_fract_x
_atom_site_fract_y
_atom_site_fract_z
Si Si1 0.417758 0.022820 0.820652
Si Si2 0.085763 0.486523 0.829488
Si Si3 0.189868 0.507767 0.523112
Si Si4 0.267029 0.394286 0.047090
Si Si5 0.604641 0.278427 0.764842
Si Si6 0.589564 0.672881 0.572101
Si Si7 0.275898 0.063793 0.613167
Si Si8 0.111065 0.906682 0.946049
O O1 0.182279 0.270850 0.774967
O O2 0.380325 0.941644 0.707882
O O3 0.499404 0.830855 0.871090
O O4 0.647982 0.066533 0.943815
O O5 0.174571 0.663112 0.902269
O O6 0.788847 0.628977 0.713537
O O7 0.178253 0.382410 0.925496
O O8 0.456539 0.419115 0.661264
O O9 0.268612 0.358896 0.450905
O O10 0.000000 0.500000 0.500000
O O11 0.023947 0.756155 0.479096
O O12 0.361284 0.565044 0.130389
O O13 0.000000 0.500000 0.000000
O O14 0.432894 0.189468 0.702718
O O15 0.887858 0.070573 0.830514
O O16 0.500000 0.500000 0.500000
O O17 0.353227 0.910724 0.541490
O O18 0.000000 0.000000 0.000000
#
# Coordination Sequence:
#
# PCOD9052667 Si02
#       8
#     2   2   2   2   2   2   2   2
#     4  12  24  41  71 105 146 184 236 304 368 434
#     4  12  25  45  66 105 149 184 241 295 368 448
#     4  10  26  48  72 105 147 189 252 298 361 431
#     4  12  24  41  68 102 141 181 236 294 369 430
#     4  11  23  42  73 101 136 188 245 290 360 430
#     4  12  27  44  76 107 143 198 247 299 371 437
#     4  11  23  49  73 100 147 193 244 302 366 436
#     4  12  20  42  72 100 132 190 235 284 359 433
#
# _framework density 23.331018
#
# number of rings (size 3 to 8) (size 9 to 14) (size 15 to 20)
#    0.000    0.500    6.250    1.500    3.500    3.500 
#    0.000    0.000    0.000    0.000    0.000    0.000 
#    0.000    0.000    0.000    0.000    0.000    0.000 
#
# Total GULP energy -89338.866151 kJ/mol
# GULP energy per Si atom -5583.679134 kJ/mol
# Density = 2.327792 g / cm^3
# Si number density = 23.331018 Si / 1000 Ang^3
#
#
#
# Elastic Constant Matrix: (Units=GPa)
#
#
# Indices 1 2 3 4 5 6 
#
# 1 50.9636 26.7870 18.0154 8.8671 -17.3493 -8.8834
# 2 26.7870 117.7249 22.8123 -4.2070 -9.2697 -13.7120
# 3 18.0154 22.8123 107.0257 -15.5983 -21.2547 5.9195
# 4 8.8671 -4.2070 -15.5983 58.1992 12.6376 2.8679
# 5 -17.3493 -9.2697 -21.2547 12.6376 36.5146 6.1241
# 6 -8.8834 -13.7120 5.9195 2.8679 6.1241 39.9640
#
#
#
# Elastic Compliance Matrix: (Units=1/GPa)
#
#
# Indices 1 2 3 4 5 6 
#
# 1 0.030254 -0.005121 -0.002755 -0.008930 0.013910 0.003885
# 2 -0.005121 0.010208 -0.001613 0.001319 -0.001701 0.002769
# 3 -0.002755 -0.001613 0.011700 0.002576 0.004842 -0.003825
# 4 -0.008930 0.001319 0.002576 0.021493 -0.009512 -0.001999
# 5 0.013910 -0.001701 0.004842 -0.009512 0.040295 -0.003701
# 6 0.003885 0.002769 -0.003825 -0.001999 -0.003701 0.028113
#
#
# Mechanical properties :
#
#
# Convention : Reuss Voigt Hill
#
# Bulk Modulus (GPa) = 30.13539 45.66039 37.89789
# Shear Modulus (GPa) = 29.05279 40.80887 34.93083
#
# Velocity S-wave (km/s) = 3.53263 4.18679 3.87354
# Velocity P-wave (km/s) = 5.43910 6.55633 6.02367
#
# Compressibility (1/GPa) = 0.03318357
#
# Stress axis : x y z
#
# Youngs Moduli (GPa) = 33.05375 97.96392 85.47319
#
# Poissons Ratio (x) = 0.50171 0.23547
# Poissons Ratio (y) = 0.16928 0.13783
# Poissons Ratio (z) = 0.09106 0.15797
#
# Static dielectric constant tensor:
#      x y z
#    x 1.957820 0.012440 -0.055110 
#    y 0.012440 1.906000 0.003540 
#    z -0.055110 0.003540 1.849920 
# 
# From -- ./inp_files/594204.got.cif
#   From: 2010.05.17/outbox.cif.g08.bks.cpg/sg2_298_cif.got.tgz:594204.got - 2010.06.03 11:33:40.
