data_PCOD9052083
_publ_section_title
;
Structure prediction by ZEFSAII (Michael W. Deem and Ramdas Pophale) SiO2 
 PCOD9052083
Probable space group: P -1
;
_chemical_formula_sum "Si O2"
_cell_formula_units_Z 14
_cell_length_a 5.769277
_cell_length_b 11.607321
_cell_length_c 9.022390
_cell_angle_alpha 80.576567
_cell_angle_beta 96.144320
_cell_angle_gamma 105.436099
_cell_volume 573.257665
_symmetry_space_group_name_H-M "P -1"
_symmetry_group_IT_number 2
_symmetry_cell_setting 'triclinic'
loop_
_space_group_symop_operation_xyz
x,y,z
-x,-y,-z
loop_
_atom_site_type_symbol
_atom_site_label
_atom_site_fract_x
_atom_site_fract_y
_atom_site_fract_z
Si Si1 0.446231 0.358045 0.055435
Si Si2 0.189436 0.947963 0.112148
Si Si3 0.659224 0.082056 0.186152
Si Si4 0.939714 0.371426 0.938891
Si Si5 0.211913 0.107089 0.564480
Si Si6 0.626570 0.254009 0.370103
Si Si7 0.963567 0.286202 0.644380
O O1 0.505386 0.329913 0.234483
O O2 0.500000 0.500000 0.000000
O O3 0.653707 0.323950 0.973124
O O4 0.158074 0.309154 0.014713
O O5 0.138900 0.840374 0.247667
O O6 0.371109 0.058802 0.181485
O O7 0.300921 0.900316 0.987085
O O8 0.000000 0.000000 0.000000
O O9 0.776523 0.189260 0.281686
O O10 0.720830 0.960305 0.272010
O O11 0.986098 0.379030 0.762669
O O12 0.000000 0.500000 0.000000
O O13 0.437358 0.145943 0.462848
O O14 0.165201 0.236822 0.579775
O O15 0.000000 0.000000 0.500000
O O16 0.795488 0.319185 0.499490
#
# Coordination Sequence:
#
# PCOD9052083 Si02
#       7
#     2   2   2   2   2   2   2
#     4  10  25  51  79 104 140 190 251 317 376 437
#     4  11  23  37  59  92 136 186 236 279 336 430
#     4  11  23  39  59  95 142 190 237 283 344 436
#     4  10  25  50  78 105 140 186 249 315 371 438
#     4  12  24  40  63 103 154 187 235 294 359 442
#     4  12  26  41  70 104 145 193 244 302 375 437
#     4  12  25  41  70 104 143 191 243 298 372 436
#
# _framework density 24.421828000000001
#
# number of rings (size 3 to 8) (size 9 to 14) (size 15 to 20)
#    0.000    0.857    4.286    2.143    6.000    0.000 
#    0.000    5.714    0.000    0.000    0.000    0.000 
#    0.000    0.000    0.000    0.000    0.000    0.000 
#
# Total GULP energy -77986.200574 kJ/mol
# GULP energy per Si atom -5570.442898 kJ/mol
# Density = 2.436624 g / cm^3
# Si number density = 24.421828 Si / 1000 Ang^3
#
#
#
# Elastic Constant Matrix: (Units=GPa)
#
#
# Indices 1 2 3 4 5 6 
#
# 1 93.9643 11.2403 21.7048 6.7457 12.5045 -15.4284
# 2 11.2403 83.1581 20.4042 15.4827 9.1400 -22.5592
# 3 21.7048 20.4042 162.1554 12.4410 20.2611 -11.3406
# 4 6.7457 15.4827 12.4410 56.7562 -5.2801 -3.1769
# 5 12.5045 9.1400 20.2611 -5.2801 46.8613 -2.8423
# 6 -15.4284 -22.5592 -11.3406 -3.1769 -2.8423 25.2507
#
#
#
# Elastic Compliance Matrix: (Units=1/GPa)
#
#
# Indices 1 2 3 4 5 6 
#
# 1 0.012460 0.001234 -0.000798 -0.001474 -0.002911 0.007844
# 2 0.001234 0.017161 -0.000588 -0.004139 -0.002981 0.014965
# 3 -0.000798 -0.000588 0.006909 -0.001423 -0.002723 0.001605
# 4 -0.001474 -0.004139 -0.001423 0.019463 0.003866 -0.002354
# 5 -0.002911 -0.002981 -0.002723 0.003866 0.024161 -0.002458
# 6 0.007844 0.014965 0.001605 -0.002354 -0.002458 0.057914
#
#
# Mechanical properties :
#
#
# Convention : Reuss Voigt Hill
#
# Bulk Modulus (GPa) = 27.60366 49.55292 38.57829
# Shear Modulus (GPa) = 33.23415 44.83554 39.03485
#
# Velocity S-wave (km/s) = 3.69296 4.28937 4.00229
# Velocity P-wave (km/s) = 5.43243 6.69821 6.09825
#
# Compressibility (1/GPa) = 0.03622708
#
# Stress axis : x y z
#
# Youngs Moduli (GPa) = 80.25545 58.27263 144.73279
#
# Poissons Ratio (x) = -0.07191 0.11544
# Poissons Ratio (y) = -0.09903 0.08509
# Poissons Ratio (z) = 0.06401 0.03426
#
# Static dielectric constant tensor:
#      x y z
#    x 2.349720 -0.060010 -0.206590 
#    y -0.060010 2.170140 0.147260 
#    z -0.206590 0.147260 2.131380 
# 
# From -- ./inp_files/56324.got.cif
#   From: 2010.05.17/outbox.cif.g08.bks.cpg/sg2_29_cif.got.tgz:56324.got - 2010.06.03 11:33:40.
