data_PCOD9052694
_publ_section_title
;
Structure prediction by ZEFSAII (Michael W. Deem and Ramdas Pophale) SiO2 
 PCOD9052694
Probable space group: P -1
;
_chemical_formula_sum "Si O2"
_cell_formula_units_Z 15
_cell_length_a 14.959112
_cell_length_b 15.356725
_cell_length_c 8.916599
_cell_angle_alpha 102.195206
_cell_angle_beta 60.319441
_cell_angle_gamma 152.605939
_cell_volume 671.998666
_symmetry_space_group_name_H-M "P -1"
_symmetry_group_IT_number 2
_symmetry_cell_setting 'triclinic'
loop_
_space_group_symop_operation_xyz
x,y,z
-x,-y,-z
loop_
_atom_site_type_symbol
_atom_site_label
_atom_site_fract_x
_atom_site_fract_y
_atom_site_fract_z
Si Si1 0.556154 0.648955 0.497015
Si Si2 0.631852 0.046702 0.273887
Si Si3 0.321660 0.117798 0.286889
Si Si4 0.816613 0.296947 0.694396
Si Si5 0.836227 0.435471 0.008991
Si Si6 0.374309 0.159858 0.898790
Si Si7 0.146706 0.384146 0.507447
Si Si8 0.000000 0.000000 0.000000
O O1 0.500000 0.500000 0.500000
O O2 0.639111 0.754212 0.627382
O O3 0.295959 0.486620 0.577880
O O4 0.790740 0.854333 0.258568
O O5 0.946647 0.314612 0.112847
O O6 0.500000 0.000000 0.500000
O O7 0.466976 0.951578 0.233822
O O8 0.592791 0.909082 0.238339
O O9 0.554122 0.247641 0.224728
O O10 0.362385 0.143594 0.083257
O O11 0.039383 0.848243 0.457384
O O12 0.776459 0.332511 0.873641
O O13 0.000000 0.500000 0.500000
O O14 0.965311 0.327400 0.636606
O O15 0.000000 0.500000 0.000000
O O16 0.630514 0.422490 0.733504
O O17 0.117573 0.007261 0.998945
#
# Coordination Sequence:
#
# PCOD9052694 Si02
#       8
#     2   2   2   2   2   2   2   1
#     4  11  27  50  76 108 147 190 245 311 377 442
#     4  12  25  44  73 104 152 198 243 301 369 445
#     4  12  27  46  76 110 146 193 246 307 372 439
#     4  12  22  44  67 106 147 195 246 294 361 442
#     4  12  26  41  68 109 146 193 242 298 371 432
#     4  11  25  49  75 108 147 197 249 311 372 440
#     4  11  25  46  73 105 150 191 245 303 366 447
#     4  10  26  48  76 104 138 192 246 302 374 438
#
# _framework density 22.321472
#
# number of rings (size 3 to 8) (size 9 to 14) (size 15 to 20)
#    0.000    0.533    4.000    2.400    5.600    7.467 
#    0.000    2.667    0.000    0.000    0.000    0.000 
#    0.000    0.000    0.000    0.000    0.000    0.000 
#
# Total GULP energy -83624.230735 kJ/mol
# GULP energy per Si atom -5574.948716 kJ/mol
# Density = 2.227067 g / cm^3
# Si number density = 22.321472 Si / 1000 Ang^3
#
#
#
# Elastic Constant Matrix: (Units=GPa)
#
#
# Indices 1 2 3 4 5 6 
#
# 1 129.4239 34.5659 16.5254 16.7478 -18.2300 4.8189
# 2 34.5659 148.0368 48.5032 19.4543 2.9554 -6.9562
# 3 16.5254 48.5032 53.2554 12.0975 -3.4061 1.1070
# 4 16.7478 19.4543 12.0975 33.8564 -0.6394 -2.1486
# 5 -18.2300 2.9554 -3.4061 -0.6394 37.8912 -7.0465
# 6 4.8189 -6.9562 1.1070 -2.1486 -7.0465 30.9831
#
#
#
# Elastic Compliance Matrix: (Units=1/GPa)
#
#
# Indices 1 2 3 4 5 6 
#
# 1 0.009338 -0.001808 -0.000151 -0.003514 0.004355 -0.001106
# 2 -0.001808 0.010420 -0.008682 -0.001882 -0.002061 0.002332
# 3 -0.000151 -0.008682 0.028110 -0.005104 0.002542 -0.002706
# 4 -0.003514 -0.001882 -0.005104 0.034319 -0.000965 0.002467
# 5 0.004355 -0.002061 0.002542 -0.000965 0.029882 0.005498
# 6 -0.001106 0.002332 -0.002706 0.002467 0.005498 0.034489
#
#
# Mechanical properties :
#
#
# Convention : Reuss Voigt Hill
#
# Bulk Modulus (GPa) = 37.61407 58.87835 48.24621
# Shear Modulus (GPa) = 28.29634 35.95425 32.12529
#
# Velocity S-wave (km/s) = 3.56430 4.01777 3.79781
# Velocity P-wave (km/s) = 5.81607 6.92517 6.39471
#
# Compressibility (1/GPa) = 0.02658579
#
# Stress axis : x y z
#
# Youngs Moduli (GPa) = 107.08814 95.97164 35.57489
#
# Poissons Ratio (x) = 0.17351 0.00538
# Poissons Ratio (y) = 0.19361 0.30885
# Poissons Ratio (z) = 0.01619 0.83320
#
# Static dielectric constant tensor:
#      x y z
#    x 1.858580 -0.040620 0.013520 
#    y -0.040620 1.830420 -0.042410 
#    z 0.013520 -0.042410 1.834320 
# 
# From -- ./inp_files/315554.got.cif
#   From: 2010.05.17/outbox.cif.g08.bks.cpg/sg2_158_cif.got.tgz:315554.got - 2010.06.03 11:33:40.
