data_PCOD9052565
_publ_section_title
;
Structure prediction by ZEFSAII (Michael W. Deem and Ramdas Pophale) SiO2 
 PCOD9052565
Probable space group: P -1
;
_chemical_formula_sum "Si O2"
_cell_formula_units_Z 14
_cell_length_a 16.963537
_cell_length_b 6.665871
_cell_length_c 8.312164
_cell_angle_alpha 101.394103
_cell_angle_beta 53.685857
_cell_angle_gamma 125.046899
_cell_volume 605.397997
_symmetry_space_group_name_H-M "P -1"
_symmetry_group_IT_number 2
_symmetry_cell_setting 'triclinic'
loop_
_space_group_symop_operation_xyz
x,y,z
-x,-y,-z
loop_
_atom_site_type_symbol
_atom_site_label
_atom_site_fract_x
_atom_site_fract_y
_atom_site_fract_z
Si Si1 0.461230 0.890389 0.783402
Si Si2 0.312993 0.901895 0.674473
Si Si3 0.833303 0.786763 0.526799
Si Si4 0.097803 0.437978 0.977510
Si Si5 0.844725 0.926240 0.158577
Si Si6 0.423934 0.609549 0.083349
Si Si7 0.959220 0.289049 0.650147
O O1 0.373523 0.869790 0.750020
O O2 0.586494 0.977605 0.564024
O O3 0.494245 0.119141 0.891796
O O4 0.409482 0.650963 0.920637
O O5 0.192395 0.620551 0.755211
O O6 0.264550 0.073012 0.773284
O O7 0.833525 0.864224 0.353381
O O8 0.702791 0.552913 0.699857
O O9 0.933416 0.732575 0.427670
O O10 0.865225 0.019991 0.638931
O O11 0.143103 0.278444 0.973549
O O12 0.089242 0.616495 0.138533
O O13 0.966902 0.206617 0.040309
O O14 0.500000 0.500000 0.000000
O O15 0.000000 0.500000 0.500000
#
# Coordination Sequence:
#
# PCOD9052565 Si02
#       7
#     2   2   2   2   2   2   2
#     4  10  26  47  70 105 131 189 236 287 354 403
#     4  11  25  46  73  97 144 181 231 291 346 419
#     4  11  26  44  72 107 141 185 235 286 355 420
#     4  11  26  41  71 104 140 185 229 282 356 419
#     4  11  25  43  70 107 139 182 234 284 352 427
#     4  11  25  45  75 101 139 180 239 291 345 412
#     4  11  26  44  68 104 148 183 228 289 352 424
#
# _framework density 23.125284000000001
#
# number of rings (size 3 to 8) (size 9 to 14) (size 15 to 20)
#    0.000    1.143    1.429    2.143   12.000    2.286 
#    0.000    3.571    0.000    0.000    0.000    0.000 
#    0.000    0.000    0.000    0.000    0.000    0.000 
#
# Total GULP energy -78329.597863 kJ/mol
# GULP energy per Si atom -5594.971276 kJ/mol
# Density = 2.307265 g / cm^3
# Si number density = 23.125284 Si / 1000 Ang^3
#
#
#
# Elastic Constant Matrix: (Units=GPa)
#
#
# Indices 1 2 3 4 5 6 
#
# 1 70.6267 32.6405 51.6149 -0.4641 -7.1671 -36.0695
# 2 32.6405 112.2845 39.6538 17.7389 -4.6352 -13.6643
# 3 51.6149 39.6538 129.9144 -14.0077 2.1464 -19.3694
# 4 -0.4641 17.7389 -14.0077 53.8963 -12.8267 -6.3520
# 5 -7.1671 -4.6352 2.1464 -12.8267 38.6623 5.2430
# 6 -36.0695 -13.6643 -19.3694 -6.3520 5.2430 32.8499
#
#
#
# Elastic Compliance Matrix: (Units=1/GPa)
#
#
# Indices 1 2 3 4 5 6 
#
# 1 0.046559 -0.005538 -0.009766 0.005897 0.004570 0.043471
# 2 -0.005538 0.011733 -0.002447 -0.005129 -0.000708 -0.003523
# 3 -0.009766 -0.002447 0.012116 0.003132 -0.001223 -0.003796
# 4 0.005897 -0.005129 0.003132 0.023897 0.006916 0.009705
# 5 0.004570 -0.000708 -0.001223 0.006916 0.028891 0.000729
# 6 0.043471 -0.003523 -0.003796 0.009705 0.000729 0.076230
#
#
# Mechanical properties :
#
#
# Convention : Reuss Voigt Hill
#
# Bulk Modulus (GPa) = 28.64933 62.29378 45.47155
# Shear Modulus (GPa) = 20.27882 37.67612 28.97747
#
# Velocity S-wave (km/s) = 2.96448 4.04074 3.54371
# Velocity P-wave (km/s) = 4.91255 6.98327 6.03735
#
# Compressibility (1/GPa) = 0.03490483
#
# Stress axis : x y z
#
# Youngs Moduli (GPa) = 21.47818 85.23298 82.53381
#
# Poissons Ratio (x) = 0.47205 0.80601
# Poissons Ratio (y) = 0.11895 0.20198
# Poissons Ratio (z) = 0.20975 0.20859
#
# Static dielectric constant tensor:
#      x y z
#    x 1.893610 -0.008220 0.030610 
#    y -0.008220 1.875910 0.014350 
#    z 0.030610 0.014350 1.889370 
# 
# From -- ./inp_files/229651.got.cif
#   From: 2010.05.17/outbox.cif.g08.bks.cpg/sg2_115_cif.got.tgz:229651.got - 2010.06.03 11:33:40.
