data_PCOD9052097
_publ_section_title
;
Structure prediction by ZEFSAII (Michael W. Deem and Ramdas Pophale) SiO2 
 PCOD9052097
Probable space group: P -1
;
_chemical_formula_sum "Si O2"
_cell_formula_units_Z 14
_cell_length_a 12.325485
_cell_length_b 8.075233
_cell_length_c 14.384340
_cell_angle_alpha 51.049237
_cell_angle_beta 148.804610
_cell_angle_gamma 112.057364
_cell_volume 527.865511
_symmetry_space_group_name_H-M "P -1"
_symmetry_group_IT_number 2
_symmetry_cell_setting 'triclinic'
loop_
_space_group_symop_operation_xyz
x,y,z
-x,-y,-z
loop_
_atom_site_type_symbol
_atom_site_label
_atom_site_fract_x
_atom_site_fract_y
_atom_site_fract_z
Si Si1 0.087439 0.783970 0.710972
Si Si2 0.191646 0.521780 0.274778
Si Si3 0.398671 0.141540 0.661940
Si Si4 0.264443 0.332877 0.880005
Si Si5 0.160940 0.787436 0.347401
Si Si6 0.464357 0.348969 0.820520
Si Si7 0.753744 0.785000 0.755518
O O1 0.213239 0.566908 0.813975
O O2 0.865835 0.757712 0.600755
O O3 0.267378 0.785018 0.917446
O O4 0.000000 0.000000 0.500000
O O5 0.451127 0.322511 0.576837
O O6 0.180135 0.711824 0.280548
O O7 0.240512 0.407017 0.246956
O O8 0.902548 0.649411 0.000727
O O9 0.393283 0.205175 0.742781
O O10 0.535619 0.874142 0.846969
O O11 0.340513 0.352789 0.824902
O O12 0.044981 0.271688 0.742136
O O13 0.382914 0.607973 0.628873
O O14 0.111550 0.053826 0.233672
O O15 0.500000 0.000000 0.500000
#
# Coordination Sequence:
#
# PCOD9052097 Si02
#       7
#     2   2   2   2   2   2   2
#     4  12  26  43  70 103 151 199 253 298 355 438
#     4  10  25  51  69 114 143 182 256 310 371 457
#     4  11  26  46  72 107 151 193 247 314 360 446
#     4  12  25  47  70 106 157 196 246 300 366 448
#     4  11  26  47  78 108 150 202 245 311 379 446
#     4  11  25  46  70 108 150 201 246 299 371 437
#     4  11  27  49  81 105 146 192 250 318 388 446
#
# _framework density 26.521909000000001
#
# number of rings (size 3 to 8) (size 9 to 14) (size 15 to 20)
#    0.000    0.857    4.286    1.714    6.000    1.714 
#    7.714    0.000    0.000    0.000    0.000    0.000 
#    0.000    0.000    0.000    0.000    0.000    0.000 
#
# Total GULP energy -78140.896572 kJ/mol
# GULP energy per Si atom -5581.492612 kJ/mol
# Density = 2.646154 g / cm^3
# Si number density = 26.521909 Si / 1000 Ang^3
#
#
#
# Elastic Constant Matrix: (Units=GPa)
#
#
# Indices 1 2 3 4 5 6 
#
# 1 85.0088 39.4963 32.0787 -0.7990 -4.8919 -17.0103
# 2 39.4963 169.1728 91.8960 -1.9264 -28.1562 -52.9260
# 3 32.0787 91.8960 243.1095 -6.3746 -20.5211 -39.8482
# 4 -0.7990 -1.9264 -6.3746 66.0042 -6.3813 -18.2156
# 5 -4.8919 -28.1562 -20.5211 -6.3813 34.4600 10.2478
# 6 -17.0103 -52.9260 -39.8482 -18.2156 10.2478 73.8363
#
#
#
# Elastic Compliance Matrix: (Units=1/GPa)
#
#
# Indices 1 2 3 4 5 6 
#
# 1 0.013377 -0.002562 -0.000693 0.000225 -0.000877 0.001048
# 2 -0.002562 0.010313 -0.002154 0.002085 0.005566 0.005382
# 3 -0.000693 -0.002154 0.005341 0.000896 0.001118 0.001245
# 4 0.000225 0.002085 0.000896 0.017255 0.003750 0.005767
# 5 -0.000877 0.005566 0.001118 0.003750 0.034652 0.000507
# 6 0.001048 0.005382 0.001245 0.005767 0.000507 0.019667
#
#
# Mechanical properties :
#
#
# Convention : Reuss Voigt Hill
#
# Bulk Modulus (GPa) = 54.90482 91.58144 73.24313
# Shear Modulus (GPa) = 42.55598 57.11476 49.83537
#
# Velocity S-wave (km/s) = 4.01004 4.64561 4.33948
# Velocity P-wave (km/s) = 6.49517 7.96122 7.26527
#
# Compressibility (1/GPa) = 0.01821334
#
# Stress axis : x y z
#
# Youngs Moduli (GPa) = 74.75643 96.96557 187.23713
#
# Poissons Ratio (x) = 0.24843 0.12974
# Poissons Ratio (y) = 0.19153 0.40324
# Poissons Ratio (z) = 0.05180 0.20883
#
# Static dielectric constant tensor:
#      x y z
#    x 1.955800 -0.037720 0.125480 
#    y -0.037720 1.939530 0.078620 
#    z 0.125480 0.078620 2.128050 
# 
# From -- ./inp_files/528319.got.cif
#   From: 2010.05.17/outbox.cif.g08.bks.cpg/sg2_265_cif.got.tgz:528319.got - 2010.06.03 11:33:40.
