data_PCOD9052679
_publ_section_title
;
Structure prediction by ZEFSAII (Michael W. Deem and Ramdas Pophale) SiO2 
 PCOD9052679
Probable space group: P -1
;
_chemical_formula_sum "Si O2"
_cell_formula_units_Z 13
_cell_length_a 17.350073
_cell_length_b 7.866002
_cell_length_c 9.077350
_cell_angle_alpha 49.589234
_cell_angle_beta 148.302104
_cell_angle_gamma 125.316901
_cell_volume 494.541531
_symmetry_space_group_name_H-M "P -1"
_symmetry_group_IT_number 2
_symmetry_cell_setting 'triclinic'
loop_
_space_group_symop_operation_xyz
x,y,z
-x,-y,-z
loop_
_atom_site_type_symbol
_atom_site_label
_atom_site_fract_x
_atom_site_fract_y
_atom_site_fract_z
Si Si1 0.841813 0.515751 0.157871
Si Si2 0.000000 0.000000 0.000000
Si Si3 0.561714 0.310234 0.407940
Si Si4 0.978520 0.496838 0.795012
Si Si5 0.694707 0.725254 0.231407
Si Si6 0.271378 0.920462 0.675528
Si Si7 0.644374 0.905638 0.591753
O O1 0.728887 0.345146 0.152543
O O2 0.000000 0.500000 0.500000
O O3 0.872440 0.431964 0.090206
O O4 0.792298 0.768247 0.918106
O O5 0.109877 0.992957 0.327084
O O6 0.648858 0.542350 0.385903
O O7 0.652289 0.107096 0.608578
O O8 0.491182 0.258411 0.480999
O O9 0.423237 0.296563 0.077640
O O10 0.850071 0.658756 0.458925
O O11 0.939535 0.244383 0.818454
O O12 0.000000 0.500000 0.000000
O O13 0.695236 0.957490 0.185525
O O14 0.366895 0.004698 0.642484
#
# Coordination Sequence:
#
# PCOD9052679 Si02
#       7
#     2   1   2   2   2   2   2
#     4  12  25  43  76 111 142 194 240 305 376 437
#     4  12  22  44  72 108 150 186 232 306 372 434
#     4  10  26  48  73 103 145 195 249 305 357 434
#     4  12  24  46  74 110 150 188 242 306 372 445
#     4  11  25  47  74 109 143 196 246 300 367 441
#     4  12  25  46  72 107 148 190 241 299 372 439
#     4  11  24  50  72 104 143 195 243 305 368 429
#
# _framework density 26.286975999999999
#
# number of rings (size 3 to 8) (size 9 to 14) (size 15 to 20)
#    0.000    0.615    4.615    1.846    4.308    1.846 
#   13.846    0.000    0.000    0.000    0.000    0.000 
#    0.000    0.000    0.000    0.000    0.000    0.000 
#
# Total GULP energy -72692.326227 kJ/mol
# GULP energy per Si atom -5591.717402 kJ/mol
# Density = 2.622715 g / cm^3
# Si number density = 26.286976 Si / 1000 Ang^3
#
#
#
# Elastic Constant Matrix: (Units=GPa)
#
#
# Indices 1 2 3 4 5 6 
#
# 1 151.9541 28.5051 35.3820 -9.5768 -7.2531 2.7739
# 2 28.5051 92.2008 15.5942 -25.2389 -9.8801 -7.3787
# 3 35.3820 15.5942 109.0923 -15.1735 12.2704 -9.6439
# 4 -9.5768 -25.2389 -15.1735 31.6550 6.4135 -7.4981
# 5 -7.2531 -9.8801 12.2704 6.4135 46.4867 -10.5542
# 6 2.7739 -7.3787 -9.6439 -7.4981 -10.5542 45.4034
#
#
#
# Elastic Compliance Matrix: (Units=1/GPa)
#
#
# Indices 1 2 3 4 5 6 
#
# 1 0.007605 -0.002231 -0.002584 -0.001281 0.001278 -0.001290
# 2 -0.002231 0.015658 0.000497 0.012871 0.002310 0.005449
# 3 -0.002584 0.000497 0.011505 0.006548 -0.003572 0.002934
# 4 -0.001281 0.012871 0.006548 0.047814 -0.003366 0.010675
# 5 0.001278 0.002310 -0.003572 -0.003366 0.024681 0.004720
# 6 -0.001290 0.005449 0.002934 0.010675 0.004720 0.026472
#
#
# Mechanical properties :
#
#
# Convention : Reuss Voigt Hill
#
# Bulk Modulus (GPa) = 38.26468 56.91220 47.58844
# Shear Modulus (GPa) = 33.09464 42.96010 38.02737
#
# Velocity S-wave (km/s) = 3.55205 4.04700 3.80758
# Velocity P-wave (km/s) = 5.60454 6.59810 6.12151
#
# Compressibility (1/GPa) = 0.02613376
#
# Stress axis : x y z
#
# Youngs Moduli (GPa) = 131.49439 63.86337 86.91679
#
# Poissons Ratio (x) = 0.14249 0.22456
# Poissons Ratio (y) = 0.29340 -0.04324
# Poissons Ratio (z) = 0.33973 -0.03177
#
# Static dielectric constant tensor:
#      x y z
#    x 1.653200 -0.278390 -0.142600 
#    y -0.278390 1.732850 -0.131600 
#    z -0.142600 -0.131600 1.983950 
# 
# From -- ./inp_files/295905.got.cif
#   From: 2010.05.17/outbox.cif.g08.bks.cpg/sg2_148_cif.got.tgz:295905.got - 2010.06.03 11:33:40.
