data_PCOD9052688
_publ_section_title
;
Structure prediction by ZEFSAII (Michael W. Deem and Ramdas Pophale) SiO2 
 PCOD9052688
Probable space group: P -1
;
_chemical_formula_sum "Si O2"
_cell_formula_units_Z 15
_cell_length_a 17.869023
_cell_length_b 8.989523
_cell_length_c 11.003529
_cell_angle_alpha 106.467209
_cell_angle_beta 137.374802
_cell_angle_gamma 41.986262
_cell_volume 651.387133
_symmetry_space_group_name_H-M "P -1"
_symmetry_group_IT_number 2
_symmetry_cell_setting 'triclinic'
loop_
_space_group_symop_operation_xyz
x,y,z
-x,-y,-z
loop_
_atom_site_type_symbol
_atom_site_label
_atom_site_fract_x
_atom_site_fract_y
_atom_site_fract_z
Si Si1 0.040166 0.382107 0.721515
Si Si2 0.448492 0.290483 0.477578
Si Si3 0.500000 0.500000 0.000000
Si Si4 0.598809 0.054831 0.106910
Si Si5 0.105153 0.921080 0.233738
Si Si6 0.692907 0.003427 0.465456
Si Si7 0.789303 0.731863 0.861089
Si Si8 0.916389 0.022609 0.279592
O O1 0.824127 0.699772 0.535005
O O2 0.175590 0.228994 0.729275
O O3 0.020164 0.229161 0.705625
O O4 0.170835 0.324028 0.962094
O O5 0.313684 0.592471 0.411599
O O6 0.311517 0.299117 0.327886
O O7 0.527478 0.190547 0.411645
O O8 0.642606 0.043454 0.731790
O O9 0.488743 0.713755 0.034329
O O10 0.313165 0.709591 0.913279
O O11 0.604087 0.139942 0.260518
O O12 0.500000 0.000000 0.000000
O O13 0.154521 0.043844 0.322121
O O14 0.988996 0.016216 0.240354
O O15 0.000000 0.000000 0.000000
O O16 0.000000 0.500000 0.000000
O O17 0.000000 0.000000 0.500000
#
# Coordination Sequence:
#
# PCOD9052688 Si02
#       8
#     2   2   1   2   2   2   2   2
#     4  11  24  44  75 106 143 195 251 320 381 470
#     4  11  26  44  74 106 151 200 248 316 386 463
#     4  10  26  48  74 110 148 198 258 320 384 478
#     4  11  26  45  75 109 148 202 258 324 395 469
#     4  12  28  46  76 111 156 208 256 329 398 472
#     4  12  26  46  71 110 152 191 259 313 394 473
#     4  11  22  44  72 107 142 192 254 312 382 465
#     4  11  27  49  75 107 149 199 257 320 397 462
#
# _framework density 23.027781000000001
#
# number of rings (size 3 to 8) (size 9 to 14) (size 15 to 20)
#    0.000    0.800    1.333    4.800    9.333    4.267 
#    0.000    0.000    0.000    0.000    0.000    0.000 
#    0.000    0.000    0.000    0.000    0.000    0.000 
#
# Total GULP energy -83592.931157 kJ/mol
# GULP energy per Si atom -5572.862077 kJ/mol
# Density = 2.297537 g / cm^3
# Si number density = 23.027781 Si / 1000 Ang^3
#
#
#
# Elastic Constant Matrix: (Units=GPa)
#
#
# Indices 1 2 3 4 5 6 
#
# 1 113.8437 35.7828 36.4419 -12.3779 24.4930 -30.6317
# 2 35.7828 109.4809 21.7393 -29.5662 10.9166 3.1929
# 3 36.4419 21.7393 75.7199 -2.4029 -0.5959 -4.7140
# 4 -12.3779 -29.5662 -2.4029 48.3524 -5.8774 5.1377
# 5 24.4930 10.9166 -0.5959 -5.8774 39.4536 1.0439
# 6 -30.6317 3.1929 -4.7140 5.1377 1.0439 49.8535
#
#
#
# Elastic Compliance Matrix: (Units=1/GPa)
#
#
# Indices 1 2 3 4 5 6 
#
# 1 0.016844 -0.003672 -0.006510 -0.000547 -0.009891 0.010233
# 2 -0.003672 0.012787 -0.001925 0.007194 -0.000110 -0.003997
# 3 -0.006510 -0.001925 0.016750 -0.001198 0.004709 -0.002268
# 4 -0.000547 0.007194 -0.001198 0.025533 0.002229 -0.003588
# 5 -0.009891 -0.000110 0.004709 0.002229 0.032093 -0.006527
# 6 0.010233 -0.003997 -0.002268 -0.003588 -0.006527 0.026894
#
#
# Mechanical properties :
#
#
# Convention : Reuss Voigt Hill
#
# Bulk Modulus (GPa) = 45.11473 54.10807 49.61140
# Shear Modulus (GPa) = 30.76795 41.20392 35.98594
#
# Velocity S-wave (km/s) = 3.65927 4.23462 3.95741
# Velocity P-wave (km/s) = 6.12271 6.88892 6.51709
#
# Compressibility (1/GPa) = 0.02216571
#
# Stress axis : x y z
#
# Youngs Moduli (GPa) = 59.36750 78.20457 59.70003
#
# Poissons Ratio (x) = 0.28720 0.38867
# Poissons Ratio (y) = 0.21802 0.11493
# Poissons Ratio (z) = 0.38651 0.15055
#
# Static dielectric constant tensor:
#      x y z
#    x 1.819370 0.083560 -0.003650 
#    y 0.083560 1.891150 -0.015900 
#    z -0.003650 -0.015900 1.870460 
# 
# From -- ./inp_files/337787.got.cif
#   From: 2010.05.17/outbox.cif.g08.bks.cpg/sg2_169_cif.got.tgz:337787.got - 2010.06.03 11:33:40.
