data_PCOD9052026
_publ_section_title
;
Structure prediction by ZEFSAII (Michael W. Deem and Ramdas Pophale) SiO2 
 PCOD9052026
Probable space group: P -1
;
_chemical_formula_sum "Si O2"
_cell_formula_units_Z 16
_cell_length_a 7.091660
_cell_length_b 18.149081
_cell_length_c 11.165052
_cell_angle_alpha 132.745757
_cell_angle_beta 94.265705
_cell_angle_gamma 55.997017
_cell_volume 756.989059
_symmetry_space_group_name_H-M "P -1"
_symmetry_group_IT_number 2
_symmetry_cell_setting 'triclinic'
loop_
_space_group_symop_operation_xyz
x,y,z
-x,-y,-z
loop_
_atom_site_type_symbol
_atom_site_label
_atom_site_fract_x
_atom_site_fract_y
_atom_site_fract_z
Si Si1 0.180251 0.774166 0.010760
Si Si2 0.661869 0.886529 0.748264
Si Si3 0.563585 0.532683 0.917539
Si Si4 0.938957 0.617181 0.348604
Si Si5 0.497693 0.366123 0.565534
Si Si6 0.861990 0.055795 0.184818
Si Si7 0.330939 0.403348 0.332783
Si Si8 0.254280 0.194307 0.079681
O O1 0.347805 0.695464 0.051612
O O2 0.391843 0.683849 0.815252
O O3 0.961983 0.767922 0.979527
O O4 0.039541 0.931969 0.153361
O O5 0.410623 0.906907 0.787673
O O6 0.811932 0.828272 0.817651
O O7 0.816611 0.773021 0.526981
O O8 0.534164 0.041077 0.888064
O O9 0.856091 0.468412 0.843892
O O10 0.546826 0.452721 0.726407
O O11 0.500000 0.500000 0.000000
O O12 0.107386 0.537150 0.390195
O O13 0.702311 0.625215 0.352730
O O14 0.762396 0.203488 0.376511
O O15 0.361452 0.427297 0.496550
O O16 0.000000 0.000000 0.000000
O O17 0.726495 0.694446 0.784428
#
# Coordination Sequence:
#
# PCOD9052026 Si02
#       8
#     2   2   2   2   2   2   2   2
#     4  10  22  35  59  84 119 154 183 229 283 341
#     4   9  19  29  51  84 121 153 169 212 279 354
#     4  11  27  44  57  77 108 158 213 245 271 312
#     4  10  22  37  58  84 115 145 188 235 284 347
#     4  11  22  36  60  86 118 152 180 233 294 339
#     4  10  17  35  55  92 127 145 174 218 289 369
#     4  11  20  32  53  90 120 146 176 217 295 360
#     4  10  18  32  52  84 127 144 173 212 282 363
#
# _framework density 21.136371
#
# number of rings (size 3 to 8) (size 9 to 14) (size 15 to 20)
#    0.000    1.750    3.750    1.125    3.500    3.500 
#    0.000    0.625    0.000    6.750    0.000    0.000 
#    0.000    0.000    0.000    0.000    0.000    0.000 
#
# Total GULP energy -89430.598732 kJ/mol
# GULP energy per Si atom -5589.412421 kJ/mol
# Density = 2.108826 g / cm^3
# Si number density = 21.136371 Si / 1000 Ang^3
#
#
#
# Elastic Constant Matrix: (Units=GPa)
#
#
# Indices 1 2 3 4 5 6 
#
# 1 70.6096 13.0752 17.6676 0.5657 -4.4860 7.9024
# 2 13.0752 71.4907 32.3967 12.6886 -19.4389 18.3242
# 3 17.6676 32.3967 55.0451 23.8886 -6.1407 5.1679
# 4 0.5657 12.6886 23.8886 27.1632 4.0421 -6.4824
# 5 -4.4860 -19.4389 -6.1407 4.0421 35.6638 0.7755
# 6 7.9024 18.3242 5.1679 -6.4824 0.7755 20.2048
#
#
#
# Elastic Compliance Matrix: (Units=1/GPa)
#
#
# Indices 1 2 3 4 5 6 
#
# 1 0.016265 0.000430 -0.007260 0.004973 0.000539 -0.003320
# 2 0.000430 0.039325 -0.002839 -0.030629 0.025469 -0.045911
# 3 -0.007260 -0.002839 0.044371 -0.044007 0.010612 -0.020461
# 4 0.004973 -0.030629 -0.044007 0.113263 -0.038111 0.074891
# 5 0.000539 0.025469 0.010612 -0.038111 0.049009 -0.040132
# 6 -0.003320 -0.045911 -0.020461 0.074891 -0.040132 0.123231
#
#
# Mechanical properties :
#
#
# Convention : Reuss Voigt Hill
#
# Bulk Modulus (GPa) = 12.40330 35.93606 24.16968
# Shear Modulus (GPa) = 11.58277 25.54009 18.56143
#
# Velocity S-wave (km/s) = 2.34348 3.47990 2.96662
# Velocity P-wave (km/s) = 3.63366 5.76066 4.81605
#
# Compressibility (1/GPa) = 0.08062371
#
# Stress axis : x y z
#
# Youngs Moduli (GPa) = 61.48075 25.42928 22.53739
#
# Poissons Ratio (x) = -0.01094 0.16362
# Poissons Ratio (y) = -0.02644 0.06398
# Poissons Ratio (z) = 0.44634 0.07218
#
# Static dielectric constant tensor:
#      x y z
#    x 1.841520 0.000410 -0.010610 
#    y 0.000410 1.774480 0.055780 
#    z -0.010610 0.055780 1.788610 
# 
# From -- ./inp_files/404860.got.cif
#   From: 2010.05.17/outbox.cif.g08.bks.cpg/sg2_203_cif.got.tgz:404860.got - 2010.06.03 11:33:40.
