data_PCOD9052508
_publ_section_title
;
Structure prediction by ZEFSAII (Michael W. Deem and Ramdas Pophale) SiO2 
 PCOD9052508
Probable space group: P -1
;
_chemical_formula_sum "Si O2"
_cell_formula_units_Z 15
_cell_length_a 6.821378
_cell_length_b 4.914840
_cell_length_c 22.028223
_cell_angle_alpha 72.555669
_cell_angle_beta 125.316749
_cell_angle_gamma 81.279315
_cell_volume 522.418952
_symmetry_space_group_name_H-M "P -1"
_symmetry_group_IT_number 2
_symmetry_cell_setting 'triclinic'
loop_
_space_group_symop_operation_xyz
x,y,z
-x,-y,-z
loop_
_atom_site_type_symbol
_atom_site_label
_atom_site_fract_x
_atom_site_fract_y
_atom_site_fract_z
Si Si1 0.260062 0.141264 0.630406
Si Si2 0.681131 0.839871 0.652588
Si Si3 0.245492 0.336929 0.751689
Si Si4 0.674522 0.340300 0.482633
Si Si5 0.732346 0.668651 0.044985
Si Si6 0.971018 0.052063 0.200678
Si Si7 0.213174 0.801674 0.131976
Si Si8 0.000000 0.500000 0.000000
O O1 0.280925 0.238124 0.695071
O O2 0.297836 0.393561 0.573925
O O3 0.978030 0.133425 0.569201
O O4 0.505910 0.818111 0.679535
O O5 0.463773 0.858331 0.561593
O O6 0.948540 0.587936 0.689974
O O7 0.821969 0.034189 0.700655
O O8 0.249966 0.056994 0.812509
O O9 0.482481 0.425787 0.806382
O O10 0.500000 0.500000 0.500000
O O11 0.849415 0.416520 0.136453
O O12 0.719778 0.497166 0.992361
O O13 0.010852 0.691391 0.068366
O O14 0.500000 0.000000 0.000000
O O15 0.116317 0.860516 0.180088
O O16 0.175616 0.139096 0.080010
#
# Coordination Sequence:
#
# PCOD9052508 Si02
#       8
#     2   2   2   2   2   2   2   1
#     4  11  26  49  73 111 150 197 256 308 372 452
#     4  12  25  46  78 103 150 202 249 306 380 437
#     4  12  27  48  74 108 156 194 252 317 373 448
#     4  11  25  49  74 109 155 196 252 315 369 446
#     4  11  27  50  78 108 152 195 248 312 377 453
#     4  11  27  47  72 112 147 196 253 311 375 448
#     4  11  26  49  75 109 152 195 250 309 377 454
#     4  10  26  46  74 110 144 190 248 300 376 444
#
# _framework density 28.712584
#
# number of rings (size 3 to 8) (size 9 to 14) (size 15 to 20)
#    0.000    0.800    2.667    2.400    7.467    4.800 
#    0.000    0.000    0.000    0.000    0.000    0.000 
#    0.000    0.000    0.000    0.000    0.000    0.000 
#
# Total GULP energy -83797.598447 kJ/mol
# GULP energy per Si atom -5586.506563 kJ/mol
# Density = 2.864723 g / cm^3
# Si number density = 28.712584 Si / 1000 Ang^3
#
#
#
# Elastic Constant Matrix: (Units=GPa)
#
#
# Indices 1 2 3 4 5 6 
#
# 1 191.0979 56.0333 83.6782 -2.1679 8.5124 -26.7061
# 2 56.0333 106.6854 37.5592 20.7009 0.0955 -9.6479
# 3 83.6782 37.5592 92.2327 17.7722 27.3057 9.0484
# 4 -2.1679 20.7009 17.7722 57.8239 2.3062 -4.1316
# 5 8.5124 0.0955 27.3057 2.3062 84.6902 -1.9002
# 6 -26.7061 -9.6479 9.0484 -4.1316 -1.9002 65.3270
#
#
#
# Elastic Compliance Matrix: (Units=1/GPa)
#
#
# Indices 1 2 3 4 5 6 
#
# 1 0.012642 -0.002501 -0.013141 0.005795 0.002970 0.007072
# 2 -0.002501 0.012372 -0.002485 -0.003738 0.001162 0.000946
# 3 -0.013141 -0.002485 0.028892 -0.008917 -0.007985 -0.010537
# 4 0.005795 -0.003738 -0.008917 0.021839 0.001803 0.004486
# 5 0.002970 0.001162 -0.007985 0.001803 0.014101 0.003016
# 6 0.007072 0.000946 -0.010537 0.004486 0.003016 0.020169
#
#
# Mechanical properties :
#
#
# Convention : Reuss Voigt Hill
#
# Bulk Modulus (GPa) = 56.65218 82.72860 69.69039
# Shear Modulus (GPa) = 32.86160 55.75124 44.30642
#
# Velocity S-wave (km/s) = 3.38672 4.41125 3.93249
# Velocity P-wave (km/s) = 5.92172 7.40410 6.70401
#
# Compressibility (1/GPa) = 0.01765157
#
# Stress axis : x y z
#
# Youngs Moduli (GPa) = 79.10100 80.82870 34.61152
#
# Poissons Ratio (x) = 0.20217 0.45481
# Poissons Ratio (y) = 0.19785 0.08602
# Poissons Ratio (z) = 1.03943 0.20089
#
# Static dielectric constant tensor:
#      x y z
#    x 2.431200 -0.059790 0.018160 
#    y -0.059790 2.606480 0.148330 
#    z 0.018160 0.148330 2.517880 
# 
# From -- ./inp_files/114824.got.cif
#   From: 2010.05.17/outbox.cif.g08.bks.cpg/sg2_58_cif.got.tgz:114824.got - 2010.06.03 11:33:40.
