data_PCOD9052554
_publ_section_title
;
Structure prediction by ZEFSAII (Michael W. Deem and Ramdas Pophale) SiO2 
 PCOD9052554
Probable space group: P -1
;
_chemical_formula_sum "Si O2"
_cell_formula_units_Z 12
_cell_length_a 13.828474
_cell_length_b 8.845953
_cell_length_c 15.221718
_cell_angle_alpha 134.230571
_cell_angle_beta 19.351473
_cell_angle_gamma 134.233509
_cell_volume 435.960772
_symmetry_space_group_name_H-M "P -1"
_symmetry_group_IT_number 2
_symmetry_cell_setting 'triclinic'
loop_
_space_group_symop_operation_xyz
x,y,z
-x,-y,-z
loop_
_atom_site_type_symbol
_atom_site_label
_atom_site_fract_x
_atom_site_fract_y
_atom_site_fract_z
Si Si1 0.225072 0.076591 0.472518
Si Si2 0.303844 0.188448 0.263389
Si Si3 0.533036 0.366903 0.787570
Si Si4 0.726116 0.783337 0.233881
Si Si5 0.674925 0.314229 0.303141
Si Si6 0.942285 0.873520 0.789769
O O1 0.986580 0.057691 0.749838
O O2 0.042403 0.881495 0.494197
O O3 0.298108 0.238937 0.393274
O O4 0.528744 0.118596 0.285385
O O5 0.431609 0.389175 0.175261
O O6 0.500000 0.000000 0.000000
O O7 0.363126 0.241157 0.799408
O O8 0.843342 0.285855 0.493041
O O9 0.350456 0.286329 0.997739
O O10 0.438426 0.740270 0.523822
O O11 0.904860 0.006071 0.206779
O O12 0.973453 0.632811 0.979839
O O13 0.500000 0.500000 0.500000
#
# Coordination Sequence:
#
# PCOD9052554 Si02
#       6
#     2   2   2   2   2   2
#     4  10  26  47  68 101 141 182 237 290 352 405
#     4  11  28  46  73  95 144 190 237 295 343 417
#     4  12  26  45  74 107 142 188 235 281 356 421
#     4  11  23  42  69 105 145 177 226 290 354 416
#     4  11  23  39  72 103 140 184 229 288 349 420
#     4  11  25  45  74 106 143 182 232 295 349 422
#
# _framework density 27.525414000000001
#
# number of rings (size 3 to 8) (size 9 to 14) (size 15 to 20)
#    0.000    1.000    0.000    5.500   14.000    1.333 
#    0.000    0.000    0.000    0.000    0.000    0.000 
#    0.000    0.000    0.000    0.000    0.000    0.000 
#
# Total GULP energy -67064.029849 kJ/mol
# GULP energy per Si atom -5588.669154 kJ/mol
# Density = 2.746277 g / cm^3
# Si number density = 27.525414 Si / 1000 Ang^3
#
#
#
# Elastic Constant Matrix: (Units=GPa)
#
#
# Indices 1 2 3 4 5 6 
#
# 1 164.4823 12.6722 33.4846 -8.9315 17.8150 -6.9650
# 2 12.6722 133.4245 37.1517 -3.2329 7.7043 -19.6473
# 3 33.4846 37.1517 129.8639 -11.5573 7.6776 -15.4769
# 4 -8.9315 -3.2329 -11.5573 34.6539 -22.6985 -2.6037
# 5 17.8150 7.7043 7.6776 -22.6985 45.1969 -7.3718
# 6 -6.9650 -19.6473 -15.4769 -2.6037 -7.3718 42.2618
#
#
#
# Elastic Compliance Matrix: (Units=1/GPa)
#
#
# Indices 1 2 3 4 5 6 
#
# 1 0.006663 -0.000050 -0.001596 -0.000531 -0.002613 0.000002
# 2 -0.000050 0.008559 -0.002033 -0.000063 -0.000617 0.003114
# 3 -0.001596 -0.002033 0.009257 0.003863 0.001789 0.002732
# 4 -0.000531 -0.000063 0.003863 0.046565 0.024321 0.008409
# 5 -0.002613 -0.000617 0.001789 0.024321 0.036442 0.007793
# 6 0.000002 0.003114 0.002732 0.008409 0.007793 0.027988
#
#
# Mechanical properties :
#
#
# Convention : Reuss Voigt Hill
#
# Bulk Modulus (GPa) = 58.41447 66.04308 62.22877
# Shear Modulus (GPa) = 33.66121 47.38666 40.52394
#
# Velocity S-wave (km/s) = 3.50081 4.15367 3.84114
# Velocity P-wave (km/s) = 6.13262 6.85927 6.50610
#
# Compressibility (1/GPa) = 0.01711905
#
# Stress axis : x y z
#
# Youngs Moduli (GPa) = 150.08856 116.84205 108.02267
#
# Poissons Ratio (x) = 0.00585 0.17243
# Poissons Ratio (y) = 0.00752 0.21966
# Poissons Ratio (z) = 0.23957 0.23760
#
# Static dielectric constant tensor:
#      x y z
#    x 2.152040 -0.029360 0.000470 
#    y -0.029360 2.266780 0.117550 
#    z 0.000470 0.117550 2.211420 
# 
# From -- ./inp_files/41411.got.cif
#   From: 2010.05.17/outbox.cif.g08.bks.cpg/sg2_21_cif.got.tgz:41411.got - 2010.06.03 11:33:40.
