data_PCOD9052571
_publ_section_title
;
Structure prediction by ZEFSAII (Michael W. Deem and Ramdas Pophale) SiO2 
 PCOD9052571
Probable space group: P -1
;
_chemical_formula_sum "Si O2"
_cell_formula_units_Z 14
_cell_length_a 11.471985
_cell_length_b 12.865070
_cell_length_c 11.855751
_cell_angle_alpha 73.310639
_cell_angle_beta 85.058007
_cell_angle_gamma 23.103811
_cell_volume 579.255887
_symmetry_space_group_name_H-M "P -1"
_symmetry_group_IT_number 2
_symmetry_cell_setting 'triclinic'
loop_
_space_group_symop_operation_xyz
x,y,z
-x,-y,-z
loop_
_atom_site_type_symbol
_atom_site_label
_atom_site_fract_x
_atom_site_fract_y
_atom_site_fract_z
Si Si1 0.016625 0.864012 0.756788
Si Si2 0.067390 0.172116 0.738791
Si Si3 0.585890 0.063426 0.006478
Si Si4 0.490948 0.505882 0.363768
Si Si5 0.177614 0.211151 0.160893
Si Si6 0.686671 0.855841 0.412614
Si Si7 0.682820 0.211072 0.004130
O O1 0.174031 0.764945 0.653552
O O2 0.868281 0.871537 0.762333
O O3 0.341975 0.572006 0.901250
O O4 0.754859 0.177342 0.729573
O O5 0.171722 0.147261 0.627245
O O6 0.698287 0.440062 0.676784
O O7 0.156532 0.175968 0.835035
O O8 0.291063 0.872559 0.850658
O O9 0.360317 0.049147 0.075908
O O10 0.675758 0.110544 0.956338
O O11 0.189564 0.421131 0.949312
O O12 0.500000 0.500000 0.500000
O O13 0.406118 0.074747 0.273108
O O14 0.000000 0.500000 0.500000
O O15 0.500000 0.000000 0.500000
O O16 0.000000 0.000000 0.000000
#
# Coordination Sequence:
#
# PCOD9052571 Si02
#       7
#     2   2   2   2   2   2   2
#     4  11  23  43  69 107 137 192 225 297 363 420
#     4  10  26  47  70 110 142 186 243 293 366 416
#     4   9  22  40  70 105 138 175 224 300 353 413
#     4  12  27  43  70 101 154 190 238 285 350 440
#     4  11  23  43  73 102 138 182 237 284 358 413
#     4  12  30  51  74  98 143 199 242 292 338 430
#     4   9  18  42  68 107 145 177 224 301 365 422
#
# _framework density 24.168939000000002
#
# number of rings (size 3 to 8) (size 9 to 14) (size 15 to 20)
#    0.857    0.571    1.429    3.000    4.000    6.286 
#    0.000    0.000    0.000    0.000    0.000    0.000 
#    0.000    0.000    0.000    0.000    0.000    0.000 
#
# Total GULP energy -78229.394507 kJ/mol
# GULP energy per Si atom -5587.813893 kJ/mol
# Density = 2.411393 g / cm^3
# Si number density = 24.168939 Si / 1000 Ang^3
#
#
#
# Elastic Constant Matrix: (Units=GPa)
#
#
# Indices 1 2 3 4 5 6 
#
# 1 85.8374 10.9896 5.3954 16.8309 -9.4681 -29.7584
# 2 10.9896 110.6797 6.8448 33.9978 -9.8822 -10.2192
# 3 5.3954 6.8448 84.0545 31.5074 -9.3749 -8.1928
# 4 16.8309 33.9978 31.5074 47.7202 -3.8388 -7.6003
# 5 -9.4681 -9.8822 -9.3749 -3.8388 53.3506 10.0871
# 6 -29.7584 -10.2192 -8.1928 -7.6003 10.0871 45.7196
#
#
#
# Elastic Compliance Matrix: (Units=1/GPa)
#
#
# Indices 1 2 3 4 5 6 
#
# 1 0.016178 0.001269 0.002400 -0.006523 0.001187 0.009897
# 2 0.001269 0.012486 0.003507 -0.011188 0.001981 0.001948
# 3 0.002400 0.003507 0.017302 -0.014157 0.002622 0.002515
# 4 -0.006523 -0.011188 -0.014157 0.040045 -0.002442 -0.002088
# 5 0.001187 0.001981 0.002622 -0.002442 0.020208 -0.003179
# 6 0.009897 0.001948 0.002515 -0.002088 -0.003179 0.029555
#
#
# Mechanical properties :
#
#
# Convention : Reuss Voigt Hill
#
# Bulk Modulus (GPa) = 16.57925 36.33681 26.45803
# Shear Modulus (GPa) = 35.32889 46.51421 40.92155
#
# Velocity S-wave (km/s) = 3.82743 4.39172 4.11925
# Velocity P-wave (km/s) = 5.13877 6.38619 5.79614
#
# Compressibility (1/GPa) = 0.06031635
#
# Stress axis : x y z
#
# Youngs Moduli (GPa) = 61.81290 80.09136 57.79836
#
# Poissons Ratio (x) = -0.10161 -0.13874
# Poissons Ratio (y) = -0.07842 -0.20267
# Poissons Ratio (z) = -0.14838 -0.28084
#
# Static dielectric constant tensor:
#      x y z
#    x 2.020620 0.019490 0.000540 
#    y 0.019490 1.895440 0.043510 
#    z 0.000540 0.043510 2.003540 
# 
# From -- ./inp_files/521581.got.cif
#   From: 2010.05.17/outbox.cif.g08.bks.cpg/sg2_261_cif.got.tgz:521581.got - 2010.06.03 11:33:40.
