data_PCOD9052503
_publ_section_title
;
Structure prediction by ZEFSAII (Michael W. Deem and Ramdas Pophale) SiO2 
 PCOD9052503
Probable space group: P -1
;
_chemical_formula_sum "Si O2"
_cell_formula_units_Z 15
_cell_length_a 5.208499
_cell_length_b 11.843136
_cell_length_c 15.677899
_cell_angle_alpha 38.047560
_cell_angle_beta 72.997425
_cell_angle_gamma 81.699037
_cell_volume 563.894344
_symmetry_space_group_name_H-M "P -1"
_symmetry_group_IT_number 2
_symmetry_cell_setting 'triclinic'
loop_
_space_group_symop_operation_xyz
x,y,z
-x,-y,-z
loop_
_atom_site_type_symbol
_atom_site_label
_atom_site_fract_x
_atom_site_fract_y
_atom_site_fract_z
Si Si1 0.777858 0.383578 0.224959
Si Si2 0.688851 0.146705 0.949439
Si Si3 0.241477 0.234913 0.061471
Si Si4 0.491527 0.142644 0.254182
Si Si5 0.843057 0.702371 0.608554
Si Si6 0.935375 0.570304 0.372551
Si Si7 0.000000 0.000000 0.500000
Si Si8 0.814428 0.930455 0.221782
O O1 0.712342 0.281487 0.202430
O O2 0.477619 0.372335 0.307300
O O3 0.989077 0.287985 0.320758
O O4 0.896543 0.597413 0.065796
O O5 0.848334 0.284460 0.785349
O O6 0.511154 0.250789 0.968321
O O7 0.500000 0.000000 0.000000
O O8 0.849292 0.039174 0.064466
O O9 0.328127 0.261568 0.134971
O O10 0.089750 0.025623 0.185125
O O11 0.304034 0.039191 0.405484
O O12 0.597517 0.000756 0.262819
O O13 0.038474 0.602388 0.589174
O O14 0.875614 0.919545 0.463604
O O15 0.729388 0.714854 0.332527
O O16 0.000000 0.500000 0.500000
#
# Coordination Sequence:
#
# PCOD9052503 Si02
#       8
#     2   2   2   2   2   2   1   2
#     4  11  25  47  76 110 147 192 253 322 368 450
#     4  11  23  45  73 104 148 205 252 305 384 454
#     4  11  23  43  74 106 150 182 264 306 377 451
#     4  10  26  46  74 108 141 199 247 310 386 449
#     4  11  27  47  77 107 148 203 248 306 388 449
#     4  12  27  45  74 112 155 197 257 321 383 458
#     4  10  26  52  72  98 152 194 246 302 384 466
#     4  11  26  44  78 108 148 202 253 316 377 471
#
# _framework density 26.600726000000002
#
# number of rings (size 3 to 8) (size 9 to 14) (size 15 to 20)
#    0.000    1.067    2.667    1.600    9.333    3.733 
#    0.000    2.000    0.000    0.000    0.000    0.000 
#    0.000    0.000    0.000    0.000    0.000    0.000 
#
# Total GULP energy -83576.178312 kJ/mol
# GULP energy per Si atom -5571.745221 kJ/mol
# Density = 2.654018 g / cm^3
# Si number density = 26.600726 Si / 1000 Ang^3
#
#
#
# Elastic Constant Matrix: (Units=GPa)
#
#
# Indices 1 2 3 4 5 6 
#
# 1 100.1827 24.6080 10.0952 19.2460 19.6089 0.0722
# 2 24.6080 186.7757 33.7228 15.3023 1.1664 -3.5931
# 3 10.0952 33.7228 84.4457 22.1882 25.6921 -4.4326
# 4 19.2460 15.3023 22.1882 43.6013 2.2294 7.9839
# 5 19.6089 1.1664 25.6921 2.2294 26.0221 13.1972
# 6 0.0722 -3.5931 -4.4326 7.9839 13.1972 41.7068
#
#
#
# Elastic Compliance Matrix: (Units=1/GPa)
#
#
# Indices 1 2 3 4 5 6 
#
# 1 0.019386 -0.003421 0.014971 -0.016012 -0.035806 0.015658
# 2 -0.003421 0.006568 -0.006086 0.002470 0.009956 -0.003698
# 3 0.014971 -0.006086 0.040325 -0.027056 -0.063162 0.028901
# 4 -0.016012 0.002470 -0.027056 0.045304 0.048267 -0.026580
# 5 -0.035806 0.009956 -0.063162 0.048267 0.155819 -0.064338
# 6 0.015658 -0.003698 0.028901 -0.026580 -0.064338 0.052149
#
#
# Mechanical properties :
#
#
# Convention : Reuss Voigt Hill
#
# Bulk Modulus (GPa) = 12.95202 56.47289 34.71245
# Shear Modulus (GPa) = 14.95400 42.46456 28.70928
#
# Velocity S-wave (km/s) = 2.37357 3.99979 3.28878
# Velocity P-wave (km/s) = 3.52015 6.52741 5.24397
#
# Compressibility (1/GPa) = 0.07720805
#
# Stress axis : x y z
#
# Youngs Moduli (GPa) = 51.58245 152.25654 24.79841
#
# Poissons Ratio (x) = 0.52081 -0.37126
# Poissons Ratio (y) = 0.17644 0.15093
# Poissons Ratio (z) = -0.77225 0.92666
#
# Static dielectric constant tensor:
#      x y z
#    x 2.101260 -0.016940 -0.051070 
#    y -0.016940 2.056800 0.203070 
#    z -0.051070 0.203070 1.630280 
# 
# From -- ./inp_files/482530.got.cif
#   From: 2010.05.17/outbox.cif.g08.bks.cpg/sg2_242_cif.got.tgz:482530.got - 2010.06.03 11:33:40.
