data_PCOD9052603
_publ_section_title
;
Structure prediction by ZEFSAII (Michael W. Deem and Ramdas Pophale) SiO2 
 PCOD9052603
Probable space group: P -1
;
_chemical_formula_sum "Si O2"
_cell_formula_units_Z 16
_cell_length_a 8.714825
_cell_length_b 8.941404
_cell_length_c 14.713832
_cell_angle_alpha 80.351369
_cell_angle_beta 37.876194
_cell_angle_gamma 80.555563
_cell_volume 693.012449
_symmetry_space_group_name_H-M "P -1"
_symmetry_group_IT_number 2
_symmetry_cell_setting 'triclinic'
loop_
_space_group_symop_operation_xyz
x,y,z
-x,-y,-z
loop_
_atom_site_type_symbol
_atom_site_label
_atom_site_fract_x
_atom_site_fract_y
_atom_site_fract_z
Si Si1 0.059448 0.062177 0.677692
Si Si2 0.725491 0.048586 0.587208
Si Si3 0.357137 0.630668 0.997153
Si Si4 0.475684 0.037278 0.133646
Si Si5 0.139341 0.379056 0.662075
Si Si6 0.589908 0.382738 0.580266
Si Si7 0.998844 0.079023 0.092431
Si Si8 0.246259 0.589701 0.852624
O O1 0.070590 0.242389 0.643361
O O2 0.260788 0.985568 0.522406
O O3 0.785857 0.008692 0.781538
O O4 0.102986 0.021207 0.767305
O O5 0.661083 0.226480 0.613178
O O6 0.553435 0.956471 0.743626
O O7 0.000000 0.000000 0.500000
O O8 0.068339 0.619436 0.162519
O O9 0.500000 0.500000 0.000000
O O10 0.443892 0.800382 0.956483
O O11 0.391181 0.600812 0.878284
O O12 0.705167 0.915010 0.023677
O O13 0.409531 0.344765 0.584622
O O14 0.169405 0.536380 0.579446
O O15 0.424244 0.501874 0.706198
O O16 0.856631 0.242226 0.144390
O O17 0.000000 0.000000 0.000000
O O18 0.000000 0.500000 0.000000
#
# Coordination Sequence:
#
# PCOD9052603 Si02
#       8
#     2   2   2   2   2   2   2   2
#     4  11  26  46  76 108 147 200 254 299 389 436
#     4  10  26  47  74 105 147 201 248 305 366 446
#     4  12  28  46  74 109 153 195 247 307 378 450
#     4  11  25  48  73 108 150 194 253 318 358 448
#     4  11  26  47  71 112 147 196 246 306 376 445
#     4  11  27  49  72 108 159 185 250 311 366 454
#     4  12  25  45  75 108 149 186 254 311 361 447
#     4  12  26  46  75 107 144 199 243 304 380 428
#
# _framework density 23.087607999999999
#
# number of rings (size 3 to 8) (size 9 to 14) (size 15 to 20)
#    0.000    0.750    3.750    1.125   12.250    2.500 
#    0.000    3.125    0.000    0.000    0.000    0.000 
#    0.000    0.000    0.000    0.000    0.000    0.000 
#
# Total GULP energy -89516.511103 kJ/mol
# GULP energy per Si atom -5594.781944 kJ/mol
# Density = 2.303506 g / cm^3
# Si number density = 23.087608 Si / 1000 Ang^3
#
#
#
# Elastic Constant Matrix: (Units=GPa)
#
#
# Indices 1 2 3 4 5 6 
#
# 1 79.0502 37.8208 26.8991 -6.1894 7.2902 3.6612
# 2 37.8208 122.3450 36.5987 -12.2273 0.6396 -17.8470
# 3 26.8991 36.5987 125.5808 -10.0552 13.3089 6.9282
# 4 -6.1894 -12.2273 -10.0552 47.5413 9.7197 -0.0909
# 5 7.2902 0.6396 13.3089 9.7197 41.4596 -1.6685
# 6 3.6612 -17.8470 6.9282 -0.0909 -1.6685 38.8284
#
#
#
# Elastic Compliance Matrix: (Units=1/GPa)
#
#
# Indices 1 2 3 4 5 6 
#
# 1 0.015989 -0.004928 -0.001421 0.001053 -0.002672 -0.003632
# 2 -0.004928 0.011569 -0.002702 0.001475 0.001465 0.006331
# 3 -0.001421 -0.002702 0.009728 0.001865 -0.003389 -0.002985
# 4 0.001053 0.001475 0.001865 0.023223 -0.006250 0.000032
# 5 -0.002672 0.001465 -0.003389 -0.006250 0.027228 0.002685
# 6 -0.003632 0.006331 -0.002985 0.000032 0.002685 0.029655
#
#
# Mechanical properties :
#
#
# Convention : Reuss Voigt Hill
#
# Bulk Modulus (GPa) = 52.12936 58.84591 55.48763
# Shear Modulus (GPa) = 35.23926 40.60969 37.92447
#
# Velocity S-wave (km/s) = 3.91106 4.19852 4.05734
# Velocity P-wave (km/s) = 6.55921 7.00335 6.78491
#
# Compressibility (1/GPa) = 0.01918305
#
# Stress axis : x y z
#
# Youngs Moduli (GPa) = 62.54490 86.44044 102.79680
#
# Poissons Ratio (x) = 0.42599 0.14603
# Poissons Ratio (y) = 0.30823 0.27779
# Poissons Ratio (z) = 0.08885 0.23359
#
# Static dielectric constant tensor:
#      x y z
#    x 1.901510 0.016470 0.011500 
#    y 0.016470 1.836180 -0.010430 
#    z 0.011500 -0.010430 1.888360 
# 
# From -- ./inp_files/494561.got.cif
#   From: 2010.05.17/outbox.cif.g08.bks.cpg/sg2_248_cif.got.tgz:494561.got - 2010.06.03 11:33:40.
