data_PCOD9052087
_publ_section_title
;
Structure prediction by ZEFSAII (Michael W. Deem and Ramdas Pophale) SiO2 
 PCOD9052087
Probable space group: P -1
;
_chemical_formula_sum "Si O2"
_cell_formula_units_Z 10
_cell_length_a 10.708491
_cell_length_b 7.274486
_cell_length_c 9.710860
_cell_angle_alpha 48.361928
_cell_angle_beta 50.947045
_cell_angle_gamma 43.712203
_cell_volume 373.885531
_symmetry_space_group_name_H-M "P -1"
_symmetry_group_IT_number 2
_symmetry_cell_setting 'triclinic'
loop_
_space_group_symop_operation_xyz
x,y,z
-x,-y,-z
loop_
_atom_site_type_symbol
_atom_site_label
_atom_site_fract_x
_atom_site_fract_y
_atom_site_fract_z
Si Si1 0.454415 0.150051 0.602893
Si Si2 0.942801 0.603710 0.331052
Si Si3 0.447184 0.816451 0.032233
Si Si4 0.750535 0.242834 0.241847
Si Si5 0.945694 0.837086 0.730928
O O1 0.239095 0.396838 0.602809
O O2 0.619142 0.219367 0.464165
O O3 0.500000 0.000000 0.500000
O O4 0.458063 0.930997 0.819337
O O5 0.000000 0.500000 0.500000
O O6 0.875568 0.939947 0.224429
O O7 0.090747 0.381152 0.227158
O O8 0.597899 0.486115 0.125918
O O9 0.500000 0.000000 0.000000
O O10 0.235648 0.926202 0.173715
O O11 0.889763 0.310603 0.194339
O O12 0.000000 0.000000 0.500000
#
# Coordination Sequence:
#
# PCOD9052087 Si02
#       5
#     2   2   2   2   2
#     4  10  25  50  78 113 161 207 264 326 396 469
#     4  11  24  46  77 116 154 207 261 320 394 474
#     4  12  28  49  81 121 157 207 274 325 398 481
#     4  11  26  52  83 112 159 214 262 327 404 466
#     4  12  25  49  82 116 161 209 261 331 399 470
#
# _framework density 26.746155000000002
#
# number of rings (size 3 to 8) (size 9 to 14) (size 15 to 20)
#    0.000    0.800    2.000    3.600    2.800    8.800 
#    0.000    9.000    0.000    0.000    0.000    0.000 
#    0.000    0.000    0.000    0.000    0.000    0.000 
#
# Total GULP energy -55964.219924 kJ/mol
# GULP energy per Si atom -5596.421992 kJ/mol
# Density = 2.668528 g / cm^3
# Si number density = 26.746155 Si / 1000 Ang^3
#
#
#
# Elastic Constant Matrix: (Units=GPa)
#
#
# Indices 1 2 3 4 5 6 
#
# 1 137.9955 53.8613 48.3064 -2.1260 22.9329 -6.4908
# 2 53.8613 181.9063 82.3074 -20.7531 28.9847 0.6526
# 3 48.3064 82.3074 234.3400 -12.0335 30.5783 -22.1441
# 4 -2.1260 -20.7531 -12.0335 29.9449 -12.0162 11.0684
# 5 22.9329 28.9847 30.5783 -12.0162 45.9628 4.6336
# 6 -6.4908 0.6526 -22.1441 11.0684 4.6336 61.4176
#
#
#
# Elastic Compliance Matrix: (Units=1/GPa)
#
#
# Indices 1 2 3 4 5 6 
#
# 1 0.008940 -0.002147 -0.000620 -0.003169 -0.003683 0.001593
# 2 -0.002147 0.007782 -0.002087 0.004655 -0.001047 -0.001822
# 3 -0.000620 -0.002087 0.005645 -0.001189 -0.002683 0.002409
# 4 -0.003169 0.004655 -0.001189 0.044322 0.012002 -0.009706
# 5 -0.003683 -0.001047 -0.002683 0.012002 0.029758 -0.005754
# 6 0.001593 -0.001822 0.002409 -0.009706 -0.005754 0.019521
#
#
# Mechanical properties :
#
#
# Convention : Reuss Voigt Hill
#
# Bulk Modulus (GPa) = 79.00215 102.57691 90.78953
# Shear Modulus (GPa) = 38.49234 52.11617 45.30425
#
# Velocity S-wave (km/s) = 3.79776 4.41903 4.12012
# Velocity P-wave (km/s) = 6.98803 8.02947 7.52678
#
# Compressibility (1/GPa) = 0.01265788
#
# Stress axis : x y z
#
# Youngs Moduli (GPa) = 111.85842 128.50449 177.14791
#
# Poissons Ratio (x) = 0.27586 0.10992
# Poissons Ratio (y) = 0.24013 0.36975
# Poissons Ratio (z) = 0.06941 0.26822
#
# Static dielectric constant tensor:
#      x y z
#    x 2.179920 -0.052030 -0.205500 
#    y -0.052030 2.117950 0.191900 
#    z -0.205500 0.191900 2.328070 
# 
# From -- ./inp_files/236458.got.cif
#   From: 2010.05.17/outbox.cif.g08.bks.cpg/sg2_119_cif.got.tgz:236458.got - 2010.06.03 11:33:40.
