data_PCOD9052414
_publ_section_title
;
Structure prediction by ZEFSAII (Michael W. Deem and Ramdas Pophale) SiO2 
 PCOD9052414
Probable space group: P -1
;
_chemical_formula_sum "Si O2"
_cell_formula_units_Z 16
_cell_length_a 17.739382
_cell_length_b 15.291077
_cell_length_c 10.001993
_cell_angle_alpha 37.863721
_cell_angle_beta 38.212263
_cell_angle_gamma 22.922116
_cell_volume 628.798348
_symmetry_space_group_name_H-M "P -1"
_symmetry_group_IT_number 2
_symmetry_cell_setting 'triclinic'
loop_
_space_group_symop_operation_xyz
x,y,z
-x,-y,-z
loop_
_atom_site_type_symbol
_atom_site_label
_atom_site_fract_x
_atom_site_fract_y
_atom_site_fract_z
Si Si1 0.061587 0.876404 0.366841
Si Si2 0.196151 0.244630 0.928227
Si Si3 0.776951 0.891227 0.660738
Si Si4 0.422950 0.281410 0.512464
Si Si5 0.577883 0.710060 0.937066
Si Si6 0.242183 0.182351 0.513460
Si Si7 0.335954 0.810877 0.918686
Si Si8 0.853792 0.341449 0.226862
O O1 0.888855 0.931576 0.494301
O O2 0.970424 0.098716 0.295812
O O3 0.195397 0.666429 0.543189
O O4 0.190831 0.813480 0.140238
O O5 0.213644 0.394698 0.680317
O O6 0.390731 0.973344 0.938725
O O7 0.008093 0.328747 0.040260
O O8 0.205621 0.228428 0.094742
O O9 0.545562 0.139248 0.648620
O O10 0.846390 0.765382 0.573071
O O11 0.529186 0.317137 0.249496
O O12 0.523890 0.078112 0.508108
O O13 0.741250 0.662838 0.690920
O O14 0.482006 0.693502 0.982988
O O15 0.680832 0.542221 0.123345
O O16 0.191539 0.089431 0.783029
#
# Coordination Sequence:
#
# PCOD9052414 Si02
#       8
#     2   2   2   2   2   2   2   2
#     4  10  19  37  50  74 121 136 179 217 251 326
#     4  10  17  35  57  78 111 130 174 230 264 306
#     4   8  17  32  55  79 101 149 174 207 273 311
#     4   7  17  29  58  77 101 140 174 209 271 317
#     4  11  19  34  58  82 108 132 180 224 272 307
#     4   7  18  31  57  80 103 137 177 214 270 317
#     4   9  18  33  55  78 109 145 169 217 267 315
#     4  10  23  34  52  87 102 143 179 219 266 308
#
# _framework density 25.445357999999999
#
# number of rings (size 3 to 8) (size 9 to 14) (size 15 to 20)
#    1.500    1.250    1.250    0.750    0.000    2.500 
#    0.000    5.000    0.000    3.000    6.500    0.000 
#    0.000    0.000    0.000    0.000    0.000    0.000 
#
# Total GULP energy -89081.006795 kJ/mol
# GULP energy per Si atom -5567.562925 kJ/mol
# Density = 2.538744 g / cm^3
# Si number density = 25.445358 Si / 1000 Ang^3
#
#
#
# Elastic Constant Matrix: (Units=GPa)
#
#
# Indices 1 2 3 4 5 6 
#
# 1 83.9914 15.1988 19.7602 -2.7372 2.5363 -24.0183
# 2 15.1988 53.8694 -3.8758 -19.1953 -3.5841 -2.1996
# 3 19.7602 -3.8758 110.8207 27.2972 -0.2310 -11.5351
# 4 -2.7372 -19.1953 27.2972 26.3341 -4.0259 0.7092
# 5 2.5363 -3.5841 -0.2310 -4.0259 38.3713 -12.0722
# 6 -24.0183 -2.1996 -11.5351 0.7092 -12.0722 40.4431
#
#
#
# Elastic Compliance Matrix: (Units=1/GPa)
#
#
# Indices 1 2 3 4 5 6 
#
# 1 0.015644 -0.003613 -0.002338 0.001415 0.001552 0.008866
# 2 -0.003613 0.029171 -0.005061 0.026997 0.005504 -0.000833
# 3 -0.002338 -0.005061 0.014147 -0.018887 -0.001506 0.002253
# 4 0.001415 0.026997 -0.018887 0.078968 0.010149 -0.001434
# 5 0.001552 0.005504 -0.001506 0.010149 0.030595 0.009746
# 6 0.008866 -0.000833 0.002253 -0.001434 0.009746 0.033523
#
#
# Mechanical properties :
#
#
# Convention : Reuss Voigt Hill
#
# Bulk Modulus (GPa) = 27.07181 34.53866 30.80524
# Shear Modulus (GPa) = 21.15203 35.53625 28.34414
#
# Velocity S-wave (km/s) = 2.88631 3.74113 3.34117
# Velocity P-wave (km/s) = 4.66583 5.68018 5.19781
#
# Compressibility (1/GPa) = 0.03693879
#
# Stress axis : x y z
#
# Youngs Moduli (GPa) = 63.92056 34.28106 70.68521
#
# Poissons Ratio (x) = 0.12384 0.16529
# Poissons Ratio (y) = 0.23092 0.35772
# Poissons Ratio (z) = 0.14947 0.17349
#
# Static dielectric constant tensor:
#      x y z
#    x 1.999460 0.134850 0.007000 
#    y 0.134850 2.117420 0.020310 
#    z 0.007000 0.020310 2.236670 
# 
# From -- ./inp_files/472656.got.cif
#   From: 2010.05.17/outbox.cif.g08.bks.cpg/sg2_237_cif.got.tgz:472656.got - 2010.06.03 11:33:40.
