data_PCOD9052942
_publ_section_title
;
Structure prediction by ZEFSAII (Michael W. Deem and Ramdas Pophale) SiO2 
 PCOD9052942
Probable space group: P -1
;
_chemical_formula_sum "Si O2"
_cell_formula_units_Z 14
_cell_length_a 12.452311
_cell_length_b 13.978080
_cell_length_c 9.539288
_cell_angle_alpha 65.619480
_cell_angle_beta 145.265417
_cell_angle_gamma 136.381125
_cell_volume 578.343450
_symmetry_space_group_name_H-M "P -1"
_symmetry_group_IT_number 2
_symmetry_cell_setting 'triclinic'
loop_
_space_group_symop_operation_xyz
x,y,z
-x,-y,-z
loop_
_atom_site_type_symbol
_atom_site_label
_atom_site_fract_x
_atom_site_fract_y
_atom_site_fract_z
Si Si1 0.143996 0.162310 0.205524
Si Si2 0.218181 0.767917 0.878303
Si Si3 0.311263 0.518564 0.339450
Si Si4 0.397547 0.060381 0.543553
Si Si5 0.841913 0.224043 0.674754
Si Si6 0.282246 0.578604 0.964196
Si Si7 0.070880 0.150656 0.462537
O O1 0.476508 0.318813 0.451158
O O2 0.134096 0.031972 0.262378
O O3 0.068285 0.159207 0.286033
O O4 0.998672 0.191047 0.939921
O O5 0.927857 0.619528 0.734122
O O6 0.158462 0.863425 0.715607
O O7 0.446765 0.852185 0.196446
O O8 0.258422 0.694150 0.850336
O O9 0.500000 0.500000 0.500000
O O10 0.209408 0.529925 0.080624
O O11 0.608313 0.162707 0.574868
O O12 0.310891 0.902112 0.536821
O O13 0.063900 0.407291 0.763650
O O14 0.615477 0.693502 0.238330
O O15 0.000000 0.000000 0.500000
#
# Coordination Sequence:
#
# PCOD9052942 Si02
#       7
#     2   2   2   2   2   2   2
#     4  11  19  35  52  80 112 146 172 219 265 318
#     4  12  19  34  56  82 109 139 175 223 272 321
#     4  11  15  28  54  77 108 137 163 211 281 312
#     4  11  21  31  53  87 113 146 167 205 274 338
#     4  11  21  34  53  85 119 139 168 209 273 337
#     4  11  20  34  55  79 108 140 177 225 269 315
#     4  11  23  37  57  79 103 140 191 234 264 299
#
# _framework density 24.207069000000001
#
# number of rings (size 3 to 8) (size 9 to 14) (size 15 to 20)
#    0.000    0.857   10.000    1.714    0.000    0.571 
#    0.000    0.000    0.000    1.714    0.000    0.000 
#    0.000    0.000    0.000    0.000    0.000    0.000 
#
# Total GULP energy -78227.362786 kJ/mol
# GULP energy per Si atom -5587.668770 kJ/mol
# Density = 2.415197 g / cm^3
# Si number density = 24.207069 Si / 1000 Ang^3
#
#
#
# Elastic Constant Matrix: (Units=GPa)
#
#
# Indices 1 2 3 4 5 6 
#
# 1 63.3945 32.9051 25.0924 -2.5308 14.7036 -29.1150
# 2 32.9051 121.5191 28.5725 -7.1628 -2.8926 -37.9939
# 3 25.0924 28.5725 60.6428 -1.4110 13.9120 -15.7646
# 4 -2.5308 -7.1628 -1.4110 39.7885 -21.3844 8.6880
# 5 14.7036 -2.8926 13.9120 -21.3844 26.3580 -5.9237
# 6 -29.1150 -37.9939 -15.7646 8.6880 -5.9237 55.7401
#
#
#
# Elastic Compliance Matrix: (Units=1/GPa)
#
#
# Indices 1 2 3 4 5 6 
#
# 1 0.030264 -0.006337 -0.000510 -0.017032 -0.028665 0.010953
# 2 -0.006337 0.014066 -0.006784 0.010799 0.018463 0.004638
# 3 -0.000510 -0.006784 0.025897 -0.014402 -0.025368 0.001983
# 4 -0.017032 0.010799 -0.014402 0.064053 0.068384 -0.008325
# 5 -0.028665 0.018463 -0.025368 0.068384 0.123224 -0.007126
# 6 0.010953 0.004638 0.001983 -0.008325 -0.007126 0.027924
#
#
# Mechanical properties :
#
#
# Convention : Reuss Voigt Hill
#
# Bulk Modulus (GPa) = 23.27398 46.52184 34.89791
# Shear Modulus (GPa) = 15.28994 34.97640 25.13317
#
# Velocity S-wave (km/s) = 2.51595 3.80529 3.22570
# Velocity P-wave (km/s) = 4.25152 6.21023 5.32177
#
# Compressibility (1/GPa) = 0.04296644
#
# Stress axis : x y z
#
# Youngs Moduli (GPa) = 33.04254 71.09149 38.61406
#
# Poissons Ratio (x) = 0.45050 0.01968
# Poissons Ratio (y) = 0.20939 0.26196
# Poissons Ratio (z) = 0.01684 0.48228
#
# Static dielectric constant tensor:
#      x y z
#    x 1.935060 -0.071580 -0.003040 
#    y -0.071580 2.107450 -0.011700 
#    z -0.003040 -0.011700 1.985520 
# 
# From -- ./inp_files/448891.got.cif
#   From: 2010.05.17/outbox.cif.g08.bks.cpg/sg2_225_cif.got.tgz:448891.got - 2010.06.03 11:33:40.
