data_PCOD9052278
_publ_section_title
;
Structure prediction by ZEFSAII (Michael W. Deem and Ramdas Pophale) SiO2 
 PCOD9052278
Probable space group: P -1
;
_chemical_formula_sum "Si O2"
_cell_formula_units_Z 13
_cell_length_a 10.432561
_cell_length_b 13.822367
_cell_length_c 11.316930
_cell_angle_alpha 37.673858
_cell_angle_beta 106.554692
_cell_angle_gamma 132.977807
_cell_volume 599.805744
_symmetry_space_group_name_H-M "P -1"
_symmetry_group_IT_number 2
_symmetry_cell_setting 'triclinic'
loop_
_space_group_symop_operation_xyz
x,y,z
-x,-y,-z
loop_
_atom_site_type_symbol
_atom_site_label
_atom_site_fract_x
_atom_site_fract_y
_atom_site_fract_z
Si Si1 0.500000 0.000000 0.500000
Si Si2 0.996431 0.500892 0.855863
Si Si3 0.179540 0.038382 0.038994
Si Si4 0.642560 0.765702 0.719779
Si Si5 0.572993 0.635142 0.556157
Si Si6 0.030479 0.191736 0.552673
Si Si7 0.657402 0.011372 0.081083
O O1 0.429879 0.123143 0.374191
O O2 0.755093 0.282925 0.322668
O O3 0.906656 0.587506 0.706092
O O4 0.000000 0.500000 0.000000
O O5 0.830825 0.227848 0.014854
O O6 0.393051 0.338210 0.812625
O O7 0.213060 0.939907 0.042464
O O8 0.107119 0.899673 0.278639
O O9 0.000000 0.000000 0.000000
O O10 0.639545 0.745811 0.597947
O O11 0.500000 0.500000 0.000000
O O12 0.877216 0.960213 0.645883
O O13 0.767011 0.730444 0.446635
O O14 0.520154 0.744145 0.363598
O O15 0.500000 0.000000 0.000000
#
# Coordination Sequence:
#
# PCOD9052278 Si02
#       7
#     1   2   2   2   2   2   2
#     4  10  26  44  70 110 150 190 254 316 376 452
#     4  11  27  49  76 111 154 193 254 317 388 455
#     4  12  27  47  73 107 149 196 261 302 369 468
#     4  11  24  44  77 109 146 197 251 318 388 452
#     4  12  26  48  76 105 152 196 259 308 385 463
#     4  11  25  47  75 110 143 203 248 317 376 463
#     4  12  28  48  79 113 154 205 247 324 393 455
#
# _framework density 21.673683
#
# number of rings (size 3 to 8) (size 9 to 14) (size 15 to 20)
#    0.000    0.615    3.077    3.692    8.615    5.538 
#    0.000    0.000    0.000    0.000    0.000    0.000 
#    0.000    0.000    0.000    0.000    0.000    0.000 
#
# Total GULP energy -72450.955402 kJ/mol
# GULP energy per Si atom -5573.150416 kJ/mol
# Density = 2.162435 g / cm^3
# Si number density = 21.673683 Si / 1000 Ang^3
#
#
#
# Elastic Constant Matrix: (Units=GPa)
#
#
# Indices 1 2 3 4 5 6 
#
# 1 104.1396 36.2543 38.7074 2.4472 -3.2709 0.8761
# 2 36.2543 134.4597 41.6676 12.7352 3.3447 -21.1190
# 3 38.7074 41.6676 99.8773 8.4278 15.8409 -15.6114
# 4 2.4472 12.7352 8.4278 52.2790 5.4157 -3.3593
# 5 -3.2709 3.3447 15.8409 5.4157 27.7210 -3.4002
# 6 0.8761 -21.1190 -15.6114 -3.3593 -3.4002 30.4107
#
#
#
# Elastic Compliance Matrix: (Units=1/GPa)
#
#
# Indices 1 2 3 4 5 6 
#
# 1 0.012582 -0.002596 -0.005145 0.000163 0.004176 -0.004322
# 2 -0.002596 0.009848 -0.002198 -0.001638 0.000780 0.005692
# 3 -0.005145 -0.002198 0.015112 -0.000460 -0.008224 0.005409
# 4 0.000163 -0.001638 -0.000460 0.019972 -0.003366 0.000451
# 5 0.004176 0.000780 -0.008224 -0.003366 0.041892 0.000511
# 6 -0.004322 0.005692 0.005409 0.000451 0.000511 0.039844
#
#
# Mechanical properties :
#
#
# Convention : Reuss Voigt Hill
#
# Bulk Modulus (GPa) = 56.61221 63.52613 60.06917
# Shear Modulus (GPa) = 30.30011 36.87197 33.58604
#
# Velocity S-wave (km/s) = 3.74306 4.12907 3.94080
# Velocity P-wave (km/s) = 6.69758 7.21846 6.96290
#
# Compressibility (1/GPa) = 0.01766404
#
# Stress axis : x y z
#
# Youngs Moduli (GPa) = 79.47706 101.54225 66.17385
#
# Poissons Ratio (x) = 0.26364 0.34044
# Poissons Ratio (y) = 0.20635 0.14546
# Poissons Ratio (z) = 0.40888 0.22320
#
# Static dielectric constant tensor:
#      x y z
#    x 1.760350 -0.000550 0.001460 
#    y -0.000550 1.829870 -0.025410 
#    z 0.001460 -0.025410 1.847200 
# 
# From -- ./inp_files/135923.got.cif
#   From: 2010.05.17/outbox.cif.g08.bks.cpg/sg2_68_cif.got.tgz:135923.got - 2010.06.03 11:33:40.
