data_PCOD9052064
_publ_section_title
;
Structure prediction by ZEFSAII (Michael W. Deem and Ramdas Pophale) SiO2 
 PCOD9052064
Probable space group: P -1
;
_chemical_formula_sum "Si O2"
_cell_formula_units_Z 14
_cell_length_a 13.753767
_cell_length_b 4.892875
_cell_length_c 14.158376
_cell_angle_alpha 101.306531
_cell_angle_beta 34.901018
_cell_angle_gamma 86.532589
_cell_volume 491.240058
_symmetry_space_group_name_H-M "P -1"
_symmetry_group_IT_number 2
_symmetry_cell_setting 'triclinic'
loop_
_space_group_symop_operation_xyz
x,y,z
-x,-y,-z
loop_
_atom_site_type_symbol
_atom_site_label
_atom_site_fract_x
_atom_site_fract_y
_atom_site_fract_z
Si Si1 0.122242 0.959148 0.805486
Si Si2 0.266276 0.689757 0.357176
Si Si3 0.591981 0.580033 0.570314
Si Si4 0.339433 0.238816 0.763937
Si Si5 0.052035 0.683088 0.357356
Si Si6 0.157744 0.160731 0.087352
Si Si7 0.598311 0.200317 0.984697
O O1 0.271809 0.633161 0.631774
O O2 0.237105 0.160763 0.752192
O O3 0.973863 0.013419 0.843935
O O4 0.000000 0.000000 0.000000
O O5 0.310410 0.547520 0.415846
O O6 0.134445 0.583226 0.390047
O O7 0.459179 0.548529 0.136246
O O8 0.149594 0.049275 0.473667
O O9 0.518781 0.934766 0.628603
O O10 0.409456 0.502767 0.710124
O O11 0.201747 0.297968 0.966099
O O12 0.074899 0.415155 0.249858
O O13 0.204723 0.818351 0.211206
O O14 0.350669 0.936131 0.960540
O O15 0.500000 0.000000 0.000000
#
# Coordination Sequence:
#
# PCOD9052064 Si02
#       7
#     2   2   2   2   2   2   2
#     4  10  25  50  74 109 148 198 248 326 390 461
#     4  11  25  45  73 108 151 202 253 311 385 457
#     4  12  25  48  78 112 150 199 260 318 388 467
#     4  11  26  48  78 112 150 200 260 321 390 454
#     4  11  26  46  68 111 153 204 254 311 382 466
#     4  11  24  48  73 107 153 203 255 313 388 459
#     4  12  24  44  73 106 154 201 256 314 381 455
#
# _framework density 28.499307000000002
#
# number of rings (size 3 to 8) (size 9 to 14) (size 15 to 20)
#    0.000    0.857    2.857    3.000    4.000    0.571 
#    5.143    2.857    0.000    0.000    0.000    0.000 
#    0.000    0.000    0.000    0.000    0.000    0.000 
#
# Total GULP energy -78553.440078 kJ/mol
# GULP energy per Si atom -5610.960006 kJ/mol
# Density = 2.843444 g / cm^3
# Si number density = 28.499307 Si / 1000 Ang^3
#
#
#
# Elastic Constant Matrix: (Units=GPa)
#
#
# Indices 1 2 3 4 5 6 
#
# 1 240.5137 61.3531 47.6130 6.1404 8.6731 15.7369
# 2 61.3531 98.5005 31.6365 23.6144 -9.1022 -0.6423
# 3 47.6130 31.6365 123.8854 41.5897 0.9761 2.8066
# 4 6.1404 23.6144 41.5897 54.6103 3.5045 4.9138
# 5 8.6731 -9.1022 0.9761 3.5045 50.7294 6.3914
# 6 15.7369 -0.6423 2.8066 4.9138 6.3914 19.1799
#
#
#
# Elastic Compliance Matrix: (Units=1/GPa)
#
#
# Indices 1 2 3 4 5 6 
#
# 1 0.005881 -0.003871 -0.002239 0.003252 -0.001246 -0.005045
# 2 -0.003871 0.014449 -0.000236 -0.006217 0.003155 0.004236
# 3 -0.002239 -0.000236 0.011953 -0.008979 0.000450 0.002231
# 4 0.003252 -0.006217 -0.008979 0.028350 -0.002448 -0.008010
# 5 -0.001246 0.003155 0.000450 -0.002448 0.021335 -0.005420
# 6 -0.005045 0.004236 0.002231 -0.008010 -0.005420 0.059951
#
#
# Mechanical properties :
#
#
# Convention : Reuss Voigt Hill
#
# Bulk Modulus (GPa) = 51.04616 82.67831 66.86224
# Shear Modulus (GPa) = 31.02887 46.39039 38.70963
#
# Velocity S-wave (km/s) = 3.30321 4.03894 3.68946
# Velocity P-wave (km/s) = 5.70075 7.12912 6.45457
#
# Compressibility (1/GPa) = 0.01959011
#
# Stress axis : x y z
#
# Youngs Moduli (GPa) = 170.05190 69.20994 83.66126
#
# Poissons Ratio (x) = 0.26793 0.18732
# Poissons Ratio (y) = 0.65833 0.01972
# Poissons Ratio (z) = 0.38076 0.01631
#
# Static dielectric constant tensor:
#      x y z
#    x 2.228450 -0.044130 0.024820 
#    y -0.044130 2.142310 -0.027150 
#    z 0.024820 -0.027150 2.240260 
# 
# From -- ./inp_files/525822.got.cif
#   From: 2010.05.17/outbox.cif.g08.bks.cpg/sg2_263_cif.got.tgz:525822.got - 2010.06.03 11:33:40.
