data_PCOD9052745
_publ_section_title
;
Structure prediction by ZEFSAII (Michael W. Deem and Ramdas Pophale) SiO2 
 PCOD9052745
Probable space group: P -1
;
_chemical_formula_sum "Si O2"
_cell_formula_units_Z 14
_cell_length_a 12.902496
_cell_length_b 7.034620
_cell_length_c 9.113569
_cell_angle_alpha 63.577523
_cell_angle_beta 98.073049
_cell_angle_gamma 126.806457
_cell_volume 583.858730
_symmetry_space_group_name_H-M "P -1"
_symmetry_group_IT_number 2
_symmetry_cell_setting 'triclinic'
loop_
_space_group_symop_operation_xyz
x,y,z
-x,-y,-z
loop_
_atom_site_type_symbol
_atom_site_label
_atom_site_fract_x
_atom_site_fract_y
_atom_site_fract_z
Si Si1 0.974772 0.638276 0.265687
Si Si2 0.240109 0.322596 0.646478
Si Si3 0.973564 0.189561 0.353951
Si Si4 0.370233 0.137644 0.919428
Si Si5 0.407041 0.504803 0.361901
Si Si6 0.827086 0.484125 0.981588
Si Si7 0.270833 0.174699 0.175082
O O1 0.867752 0.653429 0.318047
O O2 0.926070 0.579991 0.105375
O O3 0.968601 0.383360 0.391531
O O4 0.122358 0.905193 0.219793
O O5 0.332361 0.327501 0.784447
O O6 0.310702 0.507928 0.453970
O O7 0.000000 0.000000 0.500000
O O8 0.165295 0.022259 0.675817
O O9 0.084032 0.365040 0.194914
O O10 0.503614 0.253980 0.816446
O O11 0.265617 0.828810 0.962304
O O12 0.364127 0.163396 0.084357
O O13 0.500000 0.500000 0.500000
O O14 0.325059 0.247649 0.327019
O O15 0.743145 0.594445 0.950010
#
# Coordination Sequence:
#
# PCOD9052745 Si02
#       7
#     2   2   2   2   2   2   2
#     4  12  24  42  77 113 147 190 242 304 378 442
#     4  11  23  46  70 105 153 193 237 303 371 434
#     4  12  25  42  66 111 157 185 230 299 379 445
#     4  11  23  46  77 103 147 198 251 299 353 442
#     4  10  26  49  70 101 153 201 247 305 359 427
#     4  12  23  43  74 113 148 187 242 309 369 437
#     4  12  23  43  78 109 140 191 258 301 364 438
#
# _framework density 23.978401999999999
#
# number of rings (size 3 to 8) (size 9 to 14) (size 15 to 20)
#    0.000    0.571    5.714    3.000    0.000    1.143 
#    0.000    2.143    0.000    0.000    0.000    0.000 
#    0.000    0.000    0.000    0.000    0.000    0.000 
#
# Total GULP energy -78327.818937 kJ/mol
# GULP energy per Si atom -5594.844210 kJ/mol
# Density = 2.392383 g / cm^3
# Si number density = 23.978402 Si / 1000 Ang^3
#
#
#
# Elastic Constant Matrix: (Units=GPa)
#
#
# Indices 1 2 3 4 5 6 
#
# 1 62.4367 45.8887 56.7116 -7.6222 -13.1294 -18.6859
# 2 45.8887 115.2581 71.9542 17.0419 -6.3353 1.7989
# 3 56.7116 71.9542 127.7432 -5.9308 -36.6075 -7.1654
# 4 -7.6222 17.0419 -5.9308 43.4273 8.0349 -6.6264
# 5 -13.1294 -6.3353 -36.6075 8.0349 56.1467 -1.1132
# 6 -18.6859 1.7989 -7.1654 -6.6264 -1.1132 37.1719
#
#
#
# Elastic Compliance Matrix: (Units=1/GPa)
#
#
# Indices 1 2 3 4 5 6 
#
# 1 0.044407 -0.014681 -0.009060 0.015809 0.001037 0.024136
# 2 -0.014681 0.021626 -0.008356 -0.013230 -0.004796 -0.012540
# 3 -0.009060 -0.008356 0.019325 0.002683 0.009161 0.000328
# 4 0.015809 -0.013230 0.002683 0.033773 -0.000580 0.015108
# 5 0.001037 -0.004796 0.009161 -0.000580 0.023630 0.003123
# 6 0.024136 -0.012540 0.000328 0.015108 0.003123 0.042492
#
#
# Mechanical properties :
#
#
# Convention : Reuss Voigt Hill
#
# Bulk Modulus (GPa) = 47.24925 72.72745 59.98835
# Shear Modulus (GPa) = 19.49309 36.07475 27.78392
#
# Velocity S-wave (km/s) = 2.85431 3.88296 3.40767
# Velocity P-wave (km/s) = 5.53267 7.10629 6.36827
#
# Compressibility (1/GPa) = 0.02116436
#
# Stress axis : x y z
#
# Youngs Moduli (GPa) = 22.51885 46.24066 51.74622
#
# Poissons Ratio (x) = 0.67888 0.46882
# Poissons Ratio (y) = 0.33061 0.43237
# Poissons Ratio (z) = 0.20402 0.38636
#
# Static dielectric constant tensor:
#      x y z
#    x 1.955210 0.059850 0.014780 
#    y 0.059850 1.918710 0.037480 
#    z 0.014780 0.037480 2.006980 
# 
# From -- ./inp_files/294907.got.cif
#   From: 2010.05.17/outbox.cif.g08.bks.cpg/sg2_148_cif.got.tgz:294907.got - 2010.06.03 11:33:40.
