data_PCOD9052372
_publ_section_title
;
Structure prediction by ZEFSAII (Michael W. Deem and Ramdas Pophale) SiO2 
 PCOD9052372
Probable space group: P -1
;
_chemical_formula_sum "Si O2"
_cell_formula_units_Z 14
_cell_length_a 15.180802
_cell_length_b 15.537913
_cell_length_c 8.742661
_cell_angle_alpha 71.658249
_cell_angle_beta 50.376815
_cell_angle_gamma 30.208802
_cell_volume 633.244305
_symmetry_space_group_name_H-M "P -1"
_symmetry_group_IT_number 2
_symmetry_cell_setting 'triclinic'
loop_
_space_group_symop_operation_xyz
x,y,z
-x,-y,-z
loop_
_atom_site_type_symbol
_atom_site_label
_atom_site_fract_x
_atom_site_fract_y
_atom_site_fract_z
Si Si1 0.765687 0.947814 0.402051
Si Si2 0.108083 0.332411 0.556473
Si Si3 0.872464 0.184904 0.111561
Si Si4 0.757310 0.062843 0.644539
Si Si5 0.839440 0.696421 0.139965
Si Si6 0.684076 0.314991 0.599935
Si Si7 0.623939 0.977130 0.007512
O O1 0.930678 0.744340 0.411554
O O2 0.725730 0.055102 0.510054
O O3 0.470296 0.118248 0.598737
O O4 0.924129 0.880011 0.125444
O O5 0.045824 0.369070 0.782917
O O6 0.000000 0.500000 0.500000
O O7 0.422777 0.124836 0.290476
O O8 0.825428 0.215509 0.329853
O O9 0.571132 0.433242 0.246850
O O10 0.000000 0.000000 0.000000
O O11 0.076827 0.841343 0.455347
O O12 0.605386 0.265890 0.732835
O O13 0.653742 0.053713 0.863493
O O14 0.873076 0.750486 0.944102
O O15 0.000000 0.500000 0.000000
O O16 0.500000 0.000000 0.000000
#
# Coordination Sequence:
#
# PCOD9052372 Si02
#       7
#     2   2   2   2   2   2   2
#     4  11  24  43  69  96 138 182 229 290 345 419
#     4  11  25  42  62 103 135 178 230 277 353 425
#     4  11  24  48  68  99 136 183 242 289 351 418
#     4  11  23  45  67 102 137 184 235 289 355 412
#     4  11  25  42  65  99 139 181 229 281 354 424
#     4  10  26  45  70  99 139 186 237 298 347 409
#     4  11  21  41  66  94 136 173 222 285 344 419
#
# _framework density 22.108371999999999
#
# number of rings (size 3 to 8) (size 9 to 14) (size 15 to 20)
#    0.000    1.143    4.286    2.571    6.000    1.714 
#    0.000    0.000    0.000    0.000    0.000    0.000 
#    0.000    0.000    0.000    0.000    0.000    0.000 
#
# Total GULP energy -78034.445789 kJ/mol
# GULP energy per Si atom -5573.888985 kJ/mol
# Density = 2.205805 g / cm^3
# Si number density = 22.108372 Si / 1000 Ang^3
#
#
#
# Elastic Constant Matrix: (Units=GPa)
#
#
# Indices 1 2 3 4 5 6 
#
# 1 72.2190 22.4338 10.0114 -1.6931 1.3513 11.9522
# 2 22.4338 124.2832 30.6846 -10.1770 -1.6299 28.7726
# 3 10.0114 30.6846 92.6816 -17.8761 -2.1916 17.9191
# 4 -1.6931 -10.1770 -17.8761 47.8919 7.8971 -0.8637
# 5 1.3513 -1.6299 -2.1916 7.8971 31.1998 -6.3143
# 6 11.9522 28.7726 17.9191 -0.8637 -6.3143 39.9987
#
#
#
# Elastic Compliance Matrix: (Units=1/GPa)
#
#
# Indices 1 2 3 4 5 6 
#
# 1 0.015046 -0.001887 -0.000385 0.000172 -0.001467 -0.003195
# 2 -0.001887 0.010383 -0.001746 0.001567 -0.001165 -0.006273
# 3 -0.000385 -0.001746 0.013173 0.004657 -0.001265 -0.004629
# 4 0.000172 0.001567 0.004657 0.023949 -0.006421 -0.003761
# 5 -0.001467 -0.001165 -0.001265 -0.006421 0.035056 0.007238
# 6 -0.003195 -0.006273 -0.004629 -0.003761 0.007238 0.033603
#
#
# Mechanical properties :
#
#
# Convention : Reuss Voigt Hill
#
# Bulk Modulus (GPa) = 32.71496 46.16039 39.43768
# Shear Modulus (GPa) = 33.45966 38.88833 36.17399
#
# Velocity S-wave (km/s) = 3.89451 4.19858 4.04940
# Velocity P-wave (km/s) = 5.92053 6.66547 6.30401
#
# Compressibility (1/GPa) = 0.03056705
#
# Stress axis : x y z
#
# Youngs Moduli (GPa) = 66.46147 96.31046 75.91438
#
# Poissons Ratio (x) = 0.18170 0.02920
# Poissons Ratio (y) = 0.12539 0.13257
# Poissons Ratio (z) = 0.02556 0.16819
#
# Static dielectric constant tensor:
#      x y z
#    x 1.824470 0.078950 -0.010070 
#    y 0.078950 1.928860 0.014850 
#    z -0.010070 0.014850 1.825680 
# 
# From -- ./inp_files/314852.got.cif
#   From: 2010.05.17/outbox.cif.g08.bks.cpg/sg2_158_cif.got.tgz:314852.got - 2010.06.03 11:33:40.
