data_PCOD9052953
_publ_section_title
;
Structure prediction by ZEFSAII (Michael W. Deem and Ramdas Pophale) SiO2 
 PCOD9052953
Probable space group: P -1
;
_chemical_formula_sum "Si O2"
_cell_formula_units_Z 14
_cell_length_a 17.636892
_cell_length_b 6.694613
_cell_length_c 7.010546
_cell_angle_alpha 60.085566
_cell_angle_beta 44.783734
_cell_angle_gamma 71.442729
_cell_volume 504.544096
_symmetry_space_group_name_H-M "P -1"
_symmetry_group_IT_number 2
_symmetry_cell_setting 'triclinic'
loop_
_space_group_symop_operation_xyz
x,y,z
-x,-y,-z
loop_
_atom_site_type_symbol
_atom_site_label
_atom_site_fract_x
_atom_site_fract_y
_atom_site_fract_z
Si Si1 0.968484 0.376965 0.399419
Si Si2 0.184475 0.862455 0.484233
Si Si3 0.748625 0.489887 0.741773
Si Si4 0.470724 0.390899 0.901409
Si Si5 0.104491 0.969245 0.964564
Si Si6 0.627712 0.348312 0.364463
Si Si7 0.200192 0.288638 0.967926
O O1 0.740652 0.329613 0.645388
O O2 0.875644 0.558839 0.498000
O O3 0.943713 0.202701 0.701318
O O4 0.905824 0.568545 0.869297
O O5 0.187377 0.893438 0.687984
O O6 0.202986 0.091594 0.217798
O O7 0.068329 0.755602 0.665275
O O8 0.658054 0.674557 0.823617
O O9 0.690922 0.558176 0.267173
O O10 0.720397 0.313742 0.054225
O O11 0.446462 0.768110 0.279620
O O12 0.500000 0.500000 0.000000
O O13 0.461335 0.599974 0.665414
O O14 0.170667 0.167890 0.876587
O O15 0.000000 0.000000 0.000000
#
# Coordination Sequence:
#
# PCOD9052953 Si02
#       7
#     2   2   2   2   2   2   2
#     4   9  18  31  52  79 113 141 170 211 259 317
#     4   9  18  32  51  80 109 139 181 201 257 321
#     4   8  18  37  55  79 100 146 177 213 271 313
#     4   9  19  41  61  72  99 142 185 220 272 320
#     4  11  16  30  53  77 110 155 173 195 255 326
#     4   9  21  37  57  79 103 139 179 223 273 312
#     4  11  19  32  54  83 114 141 168 219 264 315
#
# _framework density 27.747824999999999
#
# number of rings (size 3 to 8) (size 9 to 14) (size 15 to 20)
#    1.714    0.857    2.857    0.857    0.000    2.857 
#    0.000    0.714    0.000    4.286    0.000    0.000 
#    0.000    0.000    0.000    0.000    0.000    0.000 
#
# Total GULP energy -77960.707606 kJ/mol
# GULP energy per Si atom -5568.621972 kJ/mol
# Density = 2.768467 g / cm^3
# Si number density = 27.747825 Si / 1000 Ang^3
#
#
#
# Elastic Constant Matrix: (Units=GPa)
#
#
# Indices 1 2 3 4 5 6 
#
# 1 168.1638 47.4669 80.5169 16.6313 0.5722 9.6000
# 2 47.4669 79.6452 64.4775 30.7570 -4.5965 13.6655
# 3 80.5169 64.4775 172.9504 34.4796 25.3013 19.2233
# 4 16.6313 30.7570 34.4796 67.6931 3.8880 9.1342
# 5 0.5722 -4.5965 25.3013 3.8880 80.0428 25.8187
# 6 9.6000 13.6655 19.2233 9.1342 25.8187 37.1218
#
#
#
# Elastic Compliance Matrix: (Units=1/GPa)
#
#
# Indices 1 2 3 4 5 6 
#
# 1 0.008057 -0.002505 -0.003042 0.000706 0.000836 -0.000341
# 2 -0.002505 0.023058 -0.006297 -0.006019 0.005962 -0.007245
# 3 -0.003042 -0.006297 0.010319 -0.001534 -0.003773 0.000763
# 4 0.000706 -0.006019 -0.001534 0.018332 -0.000275 -0.001492
# 5 0.000836 0.005962 -0.003773 -0.000275 0.018257 -0.013087
# 6 -0.000341 -0.007245 0.000763 -0.001492 -0.013087 0.038768
#
#
# Mechanical properties :
#
#
# Convention : Reuss Voigt Hill
#
# Bulk Modulus (GPa) = 56.35291 89.52023 72.93657
# Shear Modulus (GPa) = 34.15429 52.19141 43.17285
#
# Velocity S-wave (km/s) = 3.51220 4.34166 3.94877
# Velocity P-wave (km/s) = 6.06633 7.58060 6.86534
#
# Compressibility (1/GPa) = 0.01774531
#
# Stress axis : x y z
#
# Youngs Moduli (GPa) = 124.11475 43.36948 96.91002
#
# Poissons Ratio (x) = 0.10863 0.29483
# Poissons Ratio (y) = 0.31089 0.61024
# Poissons Ratio (z) = 0.37759 0.27310
#
# Static dielectric constant tensor:
#      x y z
#    x 2.247970 -0.217990 -0.034560 
#    y -0.217990 2.374320 0.034300 
#    z -0.034560 0.034300 2.221580 
# 
# From -- ./inp_files/108396.got.cif
#   From: 2010.05.17/outbox.cif.g08.bks.cpg/sg2_55_cif.got.tgz:108396.got - 2010.06.03 11:33:40.
