data_PCOD9052431
_publ_section_title
;
Structure prediction by ZEFSAII (Michael W. Deem and Ramdas Pophale) SiO2 
 PCOD9052431
Probable space group: P -1
;
_chemical_formula_sum "Si O2"
_cell_formula_units_Z 14
_cell_length_a 15.071143
_cell_length_b 9.342093
_cell_length_c 16.144674
_cell_angle_alpha 116.671909
_cell_angle_beta 18.660048
_cell_angle_gamma 107.627319
_cell_volume 587.262994
_symmetry_space_group_name_H-M "P -1"
_symmetry_group_IT_number 2
_symmetry_cell_setting 'triclinic'
loop_
_space_group_symop_operation_xyz
x,y,z
-x,-y,-z
loop_
_atom_site_type_symbol
_atom_site_label
_atom_site_fract_x
_atom_site_fract_y
_atom_site_fract_z
Si Si1 0.221414 0.958333 0.871071
Si Si2 0.638331 0.120569 0.107988
Si Si3 0.246835 0.372587 0.383148
Si Si4 0.635968 0.601805 0.344454
Si Si5 0.755967 0.300148 0.449333
Si Si6 0.769748 0.209372 0.741239
Si Si7 0.719837 0.106594 0.583653
O O1 0.199208 0.854020 0.946700
O O2 0.533210 0.807273 0.517897
O O3 0.071803 0.157348 0.093397
O O4 0.000000 0.000000 0.000000
O O5 0.426571 0.286377 0.286128
O O6 0.419746 0.033310 0.312279
O O7 0.909569 0.993718 0.776130
O O8 0.162942 0.575657 0.527818
O O9 0.967960 0.320182 0.606130
O O10 0.485887 0.284424 0.074684
O O11 0.500000 0.500000 0.500000
O O12 0.483941 0.614739 0.391085
O O13 0.000000 0.500000 0.000000
O O14 0.628485 0.199322 0.599822
O O15 0.647546 0.225843 0.760038
O O16 0.000000 0.000000 0.500000
#
# Coordination Sequence:
#
# PCOD9052431 Si02
#       7
#     2   2   2   2   2   2   2
#     4   9  22  45  70 100 143 185 222 286 357 421
#     4  11  21  40  67  98 131 183 237 284 343 416
#     4  12  24  40  70 100 138 182 240 299 339 426
#     4  11  25  47  76 105 142 188 241 289 343 429
#     4  10  26  46  69 111 148 185 236 293 370 415
#     4  12  23  43  69 100 136 186 245 288 356 415
#     4  11  24  42  67  96 140 183 231 293 352 420
#
# _framework density 23.839403999999998
#
# number of rings (size 3 to 8) (size 9 to 14) (size 15 to 20)
#    0.000    1.143    2.857    2.143    0.000   12.571 
#    0.000    7.143    0.000    0.000    0.000    0.000 
#    0.000    0.000    0.000    0.000    0.000    0.000 
#
# Total GULP energy -78149.717130 kJ/mol
# GULP energy per Si atom -5582.122652 kJ/mol
# Density = 2.378514 g / cm^3
# Si number density = 23.839404 Si / 1000 Ang^3
#
#
#
# Elastic Constant Matrix: (Units=GPa)
#
#
# Indices 1 2 3 4 5 6 
#
# 1 106.3910 15.0565 36.6295 3.3144 14.8350 -13.8760
# 2 15.0565 84.8691 63.2349 -13.0863 5.6649 8.1037
# 3 36.6295 63.2349 98.2947 2.3455 -14.0229 2.3109
# 4 3.3144 -13.0863 2.3455 43.8177 3.3314 6.7155
# 5 14.8350 5.6649 -14.0229 3.3314 31.8181 7.0381
# 6 -13.8760 8.1037 2.3109 6.7155 7.0381 33.5646
#
#
#
# Elastic Compliance Matrix: (Units=1/GPa)
#
#
# Indices 1 2 3 4 5 6 
#
# 1 0.016930 0.008560 -0.014674 0.002009 -0.018163 0.009349
# 2 0.008560 0.037794 -0.031527 0.014432 -0.025934 -0.000865
# 3 -0.014674 -0.031527 0.041073 -0.012133 0.033110 -0.005798
# 4 0.002009 0.014432 -0.012133 0.029276 -0.010718 -0.005428
# 5 -0.018163 -0.025934 0.033110 -0.010718 0.063479 -0.014693
# 6 0.009349 -0.000865 -0.005798 -0.005428 -0.014693 0.038433
#
#
# Mechanical properties :
#
#
# Convention : Reuss Voigt Hill
#
# Bulk Modulus (GPa) = 48.74949 57.71076 53.23012
# Shear Modulus (GPa) = 16.17569 33.48234 24.82901
#
# Velocity S-wave (km/s) = 2.60768 3.75173 3.23075
# Velocity P-wave (km/s) = 5.43693 6.55957 6.02446
#
# Compressibility (1/GPa) = 0.02051303
#
# Stress axis : x y z
#
# Youngs Moduli (GPa) = 59.06825 26.45950 24.34676
#
# Poissons Ratio (x) = -0.22649 0.35727
# Poissons Ratio (y) = -0.50561 0.76758
# Poissons Ratio (z) = 0.86679 0.83419
#
# Static dielectric constant tensor:
#      x y z
#    x 1.940640 -0.047480 -0.031350 
#    y -0.047480 1.856310 0.019280 
#    z -0.031350 0.019280 1.898160 
# 
# From -- ./inp_files/528779.got.cif
#   From: 2010.05.17/outbox.cif.g08.bks.cpg/sg2_265_cif.got.tgz:528779.got - 2010.06.03 11:33:40.
