data_PCOD9052502
_publ_section_title
;
Structure prediction by ZEFSAII (Michael W. Deem and Ramdas Pophale) SiO2 
 PCOD9052502
Probable space group: P -1
;
_chemical_formula_sum "Si O2"
_cell_formula_units_Z 15
_cell_length_a 12.789053
_cell_length_b 8.204742
_cell_length_c 21.041370
_cell_angle_alpha 43.452365
_cell_angle_beta 153.958175
_cell_angle_gamma 140.765147
_cell_volume 609.503217
_symmetry_space_group_name_H-M "P -1"
_symmetry_group_IT_number 2
_symmetry_cell_setting 'triclinic'
loop_
_space_group_symop_operation_xyz
x,y,z
-x,-y,-z
loop_
_atom_site_type_symbol
_atom_site_label
_atom_site_fract_x
_atom_site_fract_y
_atom_site_fract_z
Si Si1 0.511629 0.953493 0.367502
Si Si2 0.026635 0.999785 0.300155
Si Si3 0.595442 0.027600 0.149682
Si Si4 0.264610 0.259168 0.073487
Si Si5 0.500000 0.500000 0.000000
Si Si6 0.292185 0.222675 0.597550
Si Si7 0.923722 0.356447 0.065919
Si Si8 0.750485 0.244028 0.595782
O O1 0.548964 0.802081 0.369978
O O2 0.277840 0.793695 0.333311
O O3 0.460110 0.195531 0.244920
O O4 0.771241 0.018016 0.532405
O O5 0.005009 0.786704 0.295045
O O6 0.782159 0.988001 0.210428
O O7 0.124876 0.274012 0.237975
O O8 0.583667 0.841195 0.254353
O O9 0.668726 0.320332 0.127089
O O10 0.304710 0.923575 0.993538
O O11 0.386943 0.331161 0.050865
O O12 0.190167 0.481203 0.999438
O O13 0.000000 0.000000 0.000000
O O14 0.264632 0.492136 0.506873
O O15 0.000000 0.000000 0.500000
O O16 0.000000 0.500000 0.000000
O O17 0.500000 0.000000 0.500000
#
# Coordination Sequence:
#
# PCOD9052502 Si02
#       8
#     2   2   2   2   1   2   2   2
#     4  11  25  49  76 114 153 202 260 322 391 470
#     4  11  25  49  75 111 148 201 253 324 392 464
#     4  12  27  48  78 109 155 203 261 326 396 478
#     4  12  28  49  80 116 154 210 263 323 396 482
#     4  12  26  52  78 108 162 202 264 316 410 464
#     4  12  26  46  75 116 152 200 261 327 390 465
#     4  12  28  48  77 108 155 201 265 320 395 478
#     4  10  26  46  74 107 157 203 252 319 398 462
#
# _framework density 24.610209000000001
#
# number of rings (size 3 to 8) (size 9 to 14) (size 15 to 20)
#    0.000    0.533    4.000    2.400    7.467    4.800 
#    0.000    0.000    0.000    0.000    0.000    0.000 
#    0.000    0.000    0.000    0.000    0.000    0.000 
#
# Total GULP energy -83808.405781 kJ/mol
# GULP energy per Si atom -5587.227052 kJ/mol
# Density = 2.455419 g / cm^3
# Si number density = 24.610209 Si / 1000 Ang^3
#
#
#
# Elastic Constant Matrix: (Units=GPa)
#
#
# Indices 1 2 3 4 5 6 
#
# 1 230.6152 41.1677 62.7845 -31.5547 6.2960 16.5943
# 2 41.1677 84.4337 49.2436 -31.1638 -2.6791 4.3654
# 3 62.7845 49.2436 146.9541 -48.7253 -1.0867 9.2691
# 4 -31.5547 -31.1638 -48.7253 58.4998 0.7330 6.8778
# 5 6.2960 -2.6791 -1.0867 0.7330 48.5711 -20.5052
# 6 16.5943 4.3654 9.2691 6.8778 -20.5052 34.3666
#
#
#
# Elastic Compliance Matrix: (Units=1/GPa)
#
#
# Indices 1 2 3 4 5 6 
#
# 1 0.005471 -0.001204 -0.001042 0.001960 -0.002575 -0.004136
# 2 -0.001204 0.016396 -0.002922 0.005860 0.000148 -0.001798
# 3 -0.001042 -0.002922 0.011066 0.007685 -0.001918 -0.004792
# 4 0.001960 0.005860 0.007685 0.029277 -0.005699 -0.013023
# 5 -0.002575 0.000148 -0.001918 -0.005699 0.029662 0.020580
# 6 -0.004136 -0.001798 -0.004792 -0.013023 0.020580 0.047502
#
#
# Mechanical properties :
#
#
# Convention : Reuss Voigt Hill
#
# Bulk Modulus (GPa) = 44.25639 85.37717 64.81678
# Shear Modulus (GPa) = 31.79833 48.87466 40.33649
#
# Velocity S-wave (km/s) = 3.59845 4.46124 4.05287
# Velocity P-wave (km/s) = 5.94029 7.82968 6.94950
#
# Compressibility (1/GPa) = 0.02259561
#
# Stress axis : x y z
#
# Youngs Moduli (GPa) = 182.78134 60.99211 90.37020
#
# Poissons Ratio (x) = 0.07344 0.09418
# Poissons Ratio (y) = 0.22008 0.26406
# Poissons Ratio (z) = 0.19049 0.17822
#
# Static dielectric constant tensor:
#      x y z
#    x 1.958290 0.038130 0.100590 
#    y 0.038130 2.311810 0.755900 
#    z 0.100590 0.755900 3.385040 
# 
# From -- ./inp_files/593432.got.cif
#   From: 2010.05.17/outbox.cif.g08.bks.cpg/sg2_297_cif.got.tgz:593432.got - 2010.06.03 11:33:40.
