data_PCOD9052021
_publ_section_title
;
Structure prediction by ZEFSAII (Michael W. Deem and Ramdas Pophale) SiO2 
 PCOD9052021
Probable space group: P -1
;
_chemical_formula_sum "Si O2"
_cell_formula_units_Z 14
_cell_length_a 16.554779
_cell_length_b 7.249728
_cell_length_c 20.163432
_cell_angle_alpha 126.925901
_cell_angle_beta 16.115535
_cell_angle_gamma 122.704988
_cell_volume 529.523740
_symmetry_space_group_name_H-M "P -1"
_symmetry_group_IT_number 2
_symmetry_cell_setting 'triclinic'
loop_
_space_group_symop_operation_xyz
x,y,z
-x,-y,-z
loop_
_atom_site_type_symbol
_atom_site_label
_atom_site_fract_x
_atom_site_fract_y
_atom_site_fract_z
Si Si1 0.143789 0.397356 0.529523
Si Si2 0.167794 0.197163 0.945745
Si Si3 0.812220 0.289471 0.007116
Si Si4 0.832190 0.280495 0.629638
Si Si5 0.443381 0.767336 0.030368
Si Si6 0.179723 0.894830 0.543753
Si Si7 0.233867 0.985464 0.702725
O O1 0.126605 0.666897 0.579009
O O2 0.108153 0.271660 0.459379
O O3 0.403196 0.794151 0.148020
O O4 0.460319 0.303673 0.290901
O O5 0.471504 0.104907 0.723618
O O6 0.466117 0.070379 0.591156
O O7 0.140995 0.449136 0.988860
O O8 0.915514 0.234217 0.212742
O O9 0.969256 0.114086 0.788960
O O10 0.996016 0.188461 0.905126
O O11 0.869460 0.138607 0.502431
O O12 0.702970 0.547331 0.771088
O O13 0.149653 0.663196 0.217102
O O14 0.500000 0.000000 0.000000
O O15 0.000000 0.000000 0.000000
#
# Coordination Sequence:
#
# PCOD9052021 Si02
#       7
#     2   2   2   2   2   2   2
#     4   9  22  46  77 111 151 200 262 315 372 449
#     4  10  25  49  76 116 145 197 256 303 382 465
#     4  11  24  47  77 117 150 198 251 313 385 453
#     4   9  21  45  75 106 158 200 252 323 365 443
#     4   9  20  47  79 104 143 210 265 309 375 447
#     4  11  22  46  76 110 156 197 252 324 378 442
#     4  11  23  50  82 107 157 194 243 321 382 451
#
# _framework density 26.438851
#
# number of rings (size 3 to 8) (size 9 to 14) (size 15 to 20)
#    0.857    1.143    1.429    0.857    0.000    2.286 
#   12.857    2.143    6.286    0.000    0.000    0.000 
#    0.000    0.000    0.000    0.000    0.000    0.000 
#
# Total GULP energy -78205.183821 kJ/mol
# GULP energy per Si atom -5586.084559 kJ/mol
# Density = 2.637867 g / cm^3
# Si number density = 26.438851 Si / 1000 Ang^3
#
#
#
# Elastic Constant Matrix: (Units=GPa)
#
#
# Indices 1 2 3 4 5 6 
#
# 1 84.3031 20.5068 19.7401 0.1091 -18.8797 12.1415
# 2 20.5068 175.0699 88.8201 -13.7932 -18.7126 -7.9579
# 3 19.7401 88.8201 177.5362 -6.4509 -49.5968 14.6018
# 4 0.1091 -13.7932 -6.4509 64.0385 17.3081 -5.2391
# 5 -18.8797 -18.7126 -49.5968 17.3081 52.9361 8.2451
# 6 12.1415 -7.9579 14.6018 -5.2391 8.2451 36.8283
#
#
#
# Elastic Compliance Matrix: (Units=1/GPa)
#
#
# Indices 1 2 3 4 5 6 
#
# 1 0.015741 -0.003333 0.003642 -0.004150 0.010819 -0.010366
# 2 -0.003333 0.009452 -0.006701 0.003784 -0.006579 0.007809
# 3 0.003642 -0.006701 0.013697 -0.005231 0.015384 -0.012267
# 4 -0.004150 0.003784 -0.005231 0.020324 -0.013266 0.010121
# 5 0.010819 -0.006579 0.015384 -0.013266 0.042684 -0.022531
# 6 -0.010366 0.007809 -0.012267 0.010121 -0.022531 0.043606
#
#
# Mechanical properties :
#
#
# Convention : Reuss Voigt Hill
#
# Bulk Modulus (GPa) = 38.30668 77.22701 57.76684
# Shear Modulus (GPa) = 29.94185 51.28339 40.61262
#
# Velocity S-wave (km/s) = 3.36891 4.40898 3.92356
# Velocity P-wave (km/s) = 5.44545 7.42912 6.51325
#
# Compressibility (1/GPa) = 0.02610511
#
# Stress axis : x y z
#
# Youngs Moduli (GPa) = 63.52682 105.79871 73.01030
#
# Poissons Ratio (x) = 0.35264 -0.26587
# Poissons Ratio (y) = 0.21174 0.48923
# Poissons Ratio (z) = -0.23134 0.70895
#
# Static dielectric constant tensor:
#      x y z
#    x 3.604690 -0.284700 0.400460 
#    y -0.284700 2.078470 -0.114520 
#    z 0.400460 -0.114520 2.131630 
# 
# From -- ./inp_files/612882.got.cif
#   From: 2010.05.17/outbox.cif.g08.bks.cpg/sg2_307_cif.got.tgz:612882.got - 2010.06.03 11:33:40.
