data_PCOD9052847
_publ_section_title
;
Structure prediction by ZEFSAII (Michael W. Deem and Ramdas Pophale) SiO2 
 PCOD9052847
Probable space group: P -1
;
_chemical_formula_sum "Si O2"
_cell_formula_units_Z 16
_cell_length_a 19.559374
_cell_length_b 8.714277
_cell_length_c 6.979959
_cell_angle_alpha 49.014006
_cell_angle_beta 53.754823
_cell_angle_gamma 40.329013
_cell_volume 570.983917
_symmetry_space_group_name_H-M "P -1"
_symmetry_group_IT_number 2
_symmetry_cell_setting 'triclinic'
loop_
_space_group_symop_operation_xyz
x,y,z
-x,-y,-z
loop_
_atom_site_type_symbol
_atom_site_label
_atom_site_fract_x
_atom_site_fract_y
_atom_site_fract_z
Si Si1 0.696716 0.684068 0.752180
Si Si2 0.568532 0.693307 0.643732
Si Si3 0.888515 0.794794 0.644474
Si Si4 0.111691 0.658207 0.542065
Si Si5 0.606007 0.238778 0.365916
Si Si6 0.036386 0.738370 0.040480
Si Si7 0.712185 0.377163 0.324158
Si Si8 0.826861 0.976776 0.995681
O O1 0.617955 0.637062 0.818071
O O2 0.904534 0.547045 0.732618
O O3 0.788315 0.601825 0.510853
O O4 0.628297 0.990359 0.641684
O O5 0.487534 0.648224 0.727383
O O6 0.669135 0.538598 0.457826
O O7 0.500000 0.000000 0.500000
O O8 0.001109 0.739138 0.562078
O O9 0.805748 0.072865 0.453080
O O10 0.835185 0.832341 0.909954
O O11 0.091514 0.695190 0.775021
O O12 0.142116 0.841051 0.274603
O O13 0.610549 0.406466 0.379836
O O14 0.713658 0.123065 0.160214
O O15 0.259071 0.494884 0.985746
O O16 0.923722 0.797069 0.125850
O O17 0.000000 0.000000 0.000000
#
# Coordination Sequence:
#
# PCOD9052847 Si02
#       8
#     2   2   2   2   2   2   2   2
#     4  11  25  52  84 115 164 204 269 333 402 481
#     4  10  26  53  86 115 157 208 265 337 414 473
#     4  11  25  48  76 116 164 216 267 322 401 483
#     4  11  23  50  80 112 163 216 264 325 400 483
#     4  11  25  50  77 120 154 207 266 339 398 473
#     4  11  25  46  80 117 162 216 272 334 392 476
#     4  12  27  51  80 124 154 207 272 326 407 481
#     4  11  23  47  75 112 160 211 269 325 401 481
#
# _framework density 28.021803999999999
#
# number of rings (size 3 to 8) (size 9 to 14) (size 15 to 20)
#    0.000    1.000    1.250    5.625    0.000    7.000 
#   13.500    7.500    0.000    0.000    0.000    0.000 
#    0.000    0.000    0.000    0.000    0.000    0.000 
#
# Total GULP energy -89604.343816 kJ/mol
# GULP energy per Si atom -5600.271488 kJ/mol
# Density = 2.795802 g / cm^3
# Si number density = 28.021804 Si / 1000 Ang^3
#
#
#
# Elastic Constant Matrix: (Units=GPa)
#
#
# Indices 1 2 3 4 5 6 
#
# 1 158.3344 26.6171 63.1654 -8.4893 0.6778 0.1004
# 2 26.6171 145.9210 62.5196 -39.5522 25.8652 6.6610
# 3 63.1654 62.5196 122.9536 -24.3421 9.0801 7.3516
# 4 -8.4893 -39.5522 -24.3421 47.1136 -5.1874 -1.2144
# 5 0.6778 25.8652 9.0801 -5.1874 49.8513 8.1506
# 6 0.1004 6.6610 7.3516 -1.2144 8.1506 50.6086
#
#
#
# Elastic Compliance Matrix: (Units=1/GPa)
#
#
# Indices 1 2 3 4 5 6 
#
# 1 0.008000 0.000133 -0.004369 -0.000639 0.000468 0.000511
# 2 0.000133 0.011209 -0.004091 0.006840 -0.004358 -0.000015
# 3 -0.004369 -0.004091 0.013011 0.002498 0.000289 -0.001330
# 4 -0.000639 0.006840 0.002498 0.028021 -0.001010 -0.000427
# 5 0.000468 -0.004358 0.000289 -0.001010 0.022671 -0.003145
# 6 0.000511 -0.000015 -0.001330 -0.000427 -0.003145 0.020450
#
#
# Mechanical properties :
#
#
# Convention : Reuss Voigt Hill
#
# Bulk Modulus (GPa) = 64.24592 81.31256 72.77924
# Shear Modulus (GPa) = 39.93533 47.84182 43.88858
#
# Velocity S-wave (km/s) = 3.77921 4.13644 3.96186
# Velocity P-wave (km/s) = 6.48230 7.20376 6.85253
#
# Compressibility (1/GPa) = 0.01556519
#
# Stress axis : x y z
#
# Youngs Moduli (GPa) = 125.00381 89.21723 76.86068
#
# Poissons Ratio (x) = -0.01188 0.33581
# Poissons Ratio (y) = -0.01665 0.31443
# Poissons Ratio (z) = 0.54616 0.36498
#
# Static dielectric constant tensor:
#      x y z
#    x 2.279520 -0.011150 -0.009890 
#    y -0.011150 2.251720 -0.022380 
#    z -0.009890 -0.022380 2.201250 
# 
# From -- ./inp_files/327429.got.cif
#   From: 2010.05.17/outbox.cif.g08.bks.cpg/sg2_164_cif.got.tgz:327429.got - 2010.06.03 11:33:40.
