data_PCOD9052214
_publ_section_title
;
Structure prediction by ZEFSAII (Michael W. Deem and Ramdas Pophale) SiO2 
 PCOD9052214
Probable space group: P -1
;
_chemical_formula_sum "Si O2"
_cell_formula_units_Z 14
_cell_length_a 9.395498
_cell_length_b 8.238731
_cell_length_c 16.421183
_cell_angle_alpha 61.610407
_cell_angle_beta 105.060698
_cell_angle_gamma 149.045118
_cell_volume 543.590743
_symmetry_space_group_name_H-M "P -1"
_symmetry_group_IT_number 2
_symmetry_cell_setting 'triclinic'
loop_
_space_group_symop_operation_xyz
x,y,z
-x,-y,-z
loop_
_atom_site_type_symbol
_atom_site_label
_atom_site_fract_x
_atom_site_fract_y
_atom_site_fract_z
Si Si1 0.836249 0.503637 0.006835
Si Si2 0.084844 0.301051 0.416764
Si Si3 0.849953 0.626886 0.411692
Si Si4 0.605226 0.932903 0.816070
Si Si5 0.240353 0.712043 0.678440
Si Si6 0.415817 0.314729 0.898618
Si Si7 0.448558 0.484762 0.309643
O O1 0.587563 0.192541 0.110220
O O2 0.661167 0.429891 0.930255
O O3 0.000000 0.500000 0.000000
O O4 0.101871 0.916088 0.982026
O O5 0.178830 0.481336 0.475755
O O6 0.822475 0.141287 0.382223
O O7 0.315950 0.518110 0.327356
O O8 0.000000 0.000000 0.500000
O O9 0.645492 0.582783 0.377612
O O10 0.768950 0.397527 0.384052
O O11 0.178217 0.058927 0.346891
O O12 0.520937 0.626274 0.871823
O O13 0.505650 0.924658 0.720195
O O14 0.951780 0.332856 0.776071
O O15 0.383930 0.290566 0.801932
#
# Coordination Sequence:
#
# PCOD9052214 Si02
#       7
#     2   2   2   2   2   2   2
#     4  12  28  44  72 101 139 174 222 280 334 403
#     4  10  26  43  69 100 140 178 222 277 342 396
#     4  11  21  45  64  99 131 174 225 275 326 397
#     4  12  26  46  69 103 131 179 229 273 340 391
#     4  12  24  44  70  99 137 177 226 282 322 406
#     4  12  23  47  71  98 138 180 222 272 336 402
#     4  11  23  41  70  98 133 172 224 272 337 390
#
# _framework density 25.754669
#
# number of rings (size 3 to 8) (size 9 to 14) (size 15 to 20)
#    0.000    0.571    2.857    4.714    4.000    4.571 
#    0.000    5.000    0.000    0.000    0.000    0.000 
#    0.000    0.000    0.000    0.000    0.000    0.000 
#
# Total GULP energy -78576.477283 kJ/mol
# GULP energy per Si atom -5612.605520 kJ/mol
# Density = 2.569605 g / cm^3
# Si number density = 25.754669 Si / 1000 Ang^3
#
#
#
# Elastic Constant Matrix: (Units=GPa)
#
#
# Indices 1 2 3 4 5 6 
#
# 1 119.6874 -7.4692 26.8062 7.4286 0.1903 -2.7917
# 2 -7.4692 68.3658 -0.5081 -2.5608 15.8823 12.1289
# 3 26.8062 -0.5081 96.9024 -0.8043 -0.5296 -4.3846
# 4 7.4286 -2.5608 -0.8043 43.4884 7.1927 5.2935
# 5 0.1903 15.8823 -0.5296 7.1927 55.5537 4.0358
# 6 -2.7917 12.1289 -4.3846 5.2935 4.0358 43.1694
#
#
#
# Elastic Compliance Matrix: (Units=1/GPa)
#
#
# Indices 1 2 3 4 5 6 
#
# 1 0.009076 0.000894 -0.002507 -0.001557 -0.000130 0.000284
# 2 0.000894 0.016700 -0.000371 0.002154 -0.004733 -0.004493
# 3 -0.002507 -0.000371 0.011061 0.000475 0.000086 0.000999
# 4 -0.001557 0.002154 0.000475 0.024383 -0.003522 -0.003318
# 5 -0.000130 -0.004733 0.000086 -0.003522 0.019818 -0.000091
# 6 0.000284 -0.004493 0.000999 -0.003318 -0.000091 0.024962
#
#
# Mechanical properties :
#
#
# Convention : Reuss Voigt Hill
#
# Bulk Modulus (GPa) = 30.42375 35.84596 33.13486
# Shear Modulus (GPa) = 41.34894 46.18408 43.76651
#
# Velocity S-wave (km/s) = 4.01121 4.23925 4.12680
# Velocity P-wave (km/s) = 5.76989 6.15712 5.96665
#
# Compressibility (1/GPa) = 0.03286906
#
# Stress axis : x y z
#
# Youngs Moduli (GPa) = 110.18289 59.88174 90.40943
#
# Poissons Ratio (x) = -0.05355 0.22663
# Poissons Ratio (y) = -0.09854 0.03356
# Poissons Ratio (z) = 0.27620 0.02223
#
# Static dielectric constant tensor:
#      x y z
#    x 1.991530 -0.065570 -0.012510 
#    y -0.065570 2.049410 -0.042790 
#    z -0.012510 -0.042790 2.037860 
# 
# From -- ./inp_files/38558.got.cif
#   From: 2010.05.17/outbox.cif.g08.bks.cpg/sg2_20_cif.got.tgz:38558.got - 2010.06.03 11:33:40.
