data_PCOD9052978
_publ_section_title
;
Structure prediction by ZEFSAII (Michael W. Deem and Ramdas Pophale) SiO2 
 PCOD9052978
Probable space group: P -1
;
_chemical_formula_sum "Si O2"
_cell_formula_units_Z 12
_cell_length_a 13.822349
_cell_length_b 9.442622
_cell_length_c 8.937139
_cell_angle_alpha 120.200498
_cell_angle_beta 60.201192
_cell_angle_gamma 152.567305
_cell_volume 460.708819
_symmetry_space_group_name_H-M "P -1"
_symmetry_group_IT_number 2
_symmetry_cell_setting 'triclinic'
loop_
_space_group_symop_operation_xyz
x,y,z
-x,-y,-z
loop_
_atom_site_type_symbol
_atom_site_label
_atom_site_fract_x
_atom_site_fract_y
_atom_site_fract_z
Si Si1 0.196374 0.941871 0.177449
Si Si2 0.720304 0.271760 0.815078
Si Si3 0.627469 0.487326 0.573849
Si Si4 0.549457 0.837691 0.186023
Si Si5 0.773078 0.569649 0.200367
Si Si6 0.093733 0.242860 0.246757
O O1 0.223390 0.831546 0.217113
O O2 0.955371 0.689604 0.200871
O O3 0.324664 0.262436 0.300234
O O4 0.279657 0.994914 0.976937
O O5 0.528549 0.073613 0.742043
O O6 0.917515 0.602387 0.751435
O O7 0.671804 0.330183 0.025153
O O8 0.432816 0.180546 0.662189
O O9 0.627023 0.455185 0.382524
O O10 0.834006 0.654934 0.580970
O O11 0.676986 0.540547 0.873677
O O12 0.900610 0.879854 0.192256
#
# Coordination Sequence:
#
# PCOD9052978 Si02
#       6
#     2   2   2   2   2   2
#     4  11  17  32  55  76  91 131 173 196 230 299
#     4   9  20  31  51  76 101 124 161 207 246 279
#     4   8  19  32  52  73  97 130 166 196 240 290
#     4   8  19  34  52  69  98 137 164 188 240 307
#     4  11  18  33  52  77  98 125 162 211 241 277
#     4   7  17  31  51  67  99 129 164 181 248 291
#
# _framework density 26.046818999999999
#
# number of rings (size 3 to 8) (size 9 to 14) (size 15 to 20)
#    2.000    0.667    0.000    4.000    0.000    0.000 
#    0.000    9.167    0.000    4.000    0.000    0.000 
#    0.000    0.000    0.000    0.000    0.000    0.000 
#
# Total GULP energy -66982.840158 kJ/mol
# GULP energy per Si atom -5581.903347 kJ/mol
# Density = 2.598753 g / cm^3
# Si number density = 26.046819 Si / 1000 Ang^3
#
#
#
# Elastic Constant Matrix: (Units=GPa)
#
#
# Indices 1 2 3 4 5 6 
#
# 1 105.2642 50.7462 45.2285 -22.3881 13.4387 -37.7418
# 2 50.7462 118.2572 46.6796 -18.3257 9.1442 -37.6597
# 3 45.2285 46.6796 90.2278 -17.2968 6.9905 -19.3169
# 4 -22.3881 -18.3257 -17.2968 22.2694 0.9312 7.7851
# 5 13.4387 9.1442 6.9905 0.9312 20.4703 -5.4041
# 6 -37.7418 -37.6597 -19.3169 7.7851 -5.4041 61.7271
#
#
#
# Elastic Compliance Matrix: (Units=1/GPa)
#
#
# Indices 1 2 3 4 5 6 
#
# 1 0.017815 -0.001598 -0.003806 0.011721 -0.008498 0.006505
# 2 -0.001598 0.013174 -0.003872 0.004556 -0.002384 0.005065
# 3 -0.003806 -0.003872 0.016116 0.005756 -0.001674 -0.000518
# 4 0.011721 0.004556 0.005756 0.064668 -0.014013 0.002365
# 5 -0.008498 -0.002384 -0.001674 -0.014013 0.056585 -0.000453
# 6 0.006505 0.005065 -0.000518 0.002365 -0.000453 0.022768
#
#
# Mechanical properties :
#
#
# Convention : Reuss Voigt Hill
#
# Bulk Modulus (GPa) = 35.02104 66.56201 50.79153
# Shear Modulus (GPa) = 22.81077 32.29968 27.55522
#
# Velocity S-wave (km/s) = 2.96253 3.52527 3.25608
# Velocity P-wave (km/s) = 5.01764 6.49464 5.80332
#
# Compressibility (1/GPa) = 0.02855426
#
# Stress axis : x y z
#
# Youngs Moduli (GPa) = 56.13092 75.90981 62.04930
#
# Poissons Ratio (x) = 0.12128 0.23615
# Poissons Ratio (y) = 0.08968 0.24026
# Poissons Ratio (z) = 0.21362 0.29392
#
# Static dielectric constant tensor:
#      x y z
#    x 2.070330 -0.030230 0.030350 
#    y -0.030230 2.127810 -0.036870 
#    z 0.030350 -0.036870 2.046240 
# 
# From -- ./inp_files/292943.got.cif
#   From: 2010.05.17/outbox.cif.g08.bks.cpg/sg2_147_cif.got.tgz:292943.got - 2010.06.03 11:33:40.
