data_PCOD9052078
_publ_section_title
;
Structure prediction by ZEFSAII (Michael W. Deem and Ramdas Pophale) SiO2 
 PCOD9052078
Probable space group: P -1
;
_chemical_formula_sum "Si O2"
_cell_formula_units_Z 16
_cell_length_a 4.950267
_cell_length_b 9.168945
_cell_length_c 14.531155
_cell_angle_alpha 75.823514
_cell_angle_beta 90.616602
_cell_angle_gamma 75.969268
_cell_volume 618.659630
_symmetry_space_group_name_H-M "P -1"
_symmetry_group_IT_number 2
_symmetry_cell_setting 'triclinic'
loop_
_space_group_symop_operation_xyz
x,y,z
-x,-y,-z
loop_
_atom_site_type_symbol
_atom_site_label
_atom_site_fract_x
_atom_site_fract_y
_atom_site_fract_z
Si Si1 0.339591 0.190610 0.605851
Si Si2 0.102541 0.417544 0.808479
Si Si3 0.747133 0.286061 0.190496
Si Si4 0.900997 0.493361 0.394093
Si Si5 0.692357 0.911406 0.765866
Si Si6 0.755439 0.368319 0.980463
Si Si7 0.838477 0.173634 0.499167
Si Si8 0.538161 0.119056 0.903207
O O1 0.353511 0.350480 0.631451
O O2 0.512629 0.188973 0.512722
O O3 0.016764 0.194994 0.587933
O O4 0.500968 0.034214 0.678275
O O5 0.296667 0.539767 0.798258
O O6 0.942300 0.472431 0.703376
O O7 0.261943 0.235197 0.839851
O O8 0.940221 0.440114 0.901385
O O9 0.477129 0.219212 0.196736
O O10 0.003381 0.167145 0.259614
O O11 0.874512 0.283502 0.087890
O O12 0.850326 0.322966 0.415553
O O13 0.000000 0.500000 0.500000
O O14 0.706504 0.015713 0.839173
O O15 0.671957 0.240621 0.936616
O O16 0.500000 0.500000 0.000000
O O17 0.000000 0.000000 0.500000
O O18 0.500000 0.000000 0.000000
#
# Coordination Sequence:
#
# PCOD9052078 Si02
#       8
#     2   2   2   2   2   2   2   2
#     4  11  24  48  73 105 153 193 250 316 387 452
#     4  12  27  48  77 109 154 211 262 312 403 465
#     4  12  27  48  74 111 160 203 252 320 387 464
#     4  10  25  50  76 111 153 202 259 327 387 463
#     4  12  27  46  75 112 153 199 258 318 382 465
#     4  12  26  48  74 112 158 205 259 320 384 474
#     4  11  25  47  74 111 145 195 251 322 385 455
#     4  12  26  45  73 110 152 204 256 312 387 461
#
# _framework density 25.862363999999999
#
# number of rings (size 3 to 8) (size 9 to 14) (size 15 to 20)
#    0.000    0.500    3.750    3.375    5.250    3.000 
#    4.500    0.000    0.000    0.000    0.000    0.000 
#    0.000    0.000    0.000    0.000    0.000    0.000 
#
# Total GULP energy -89418.355248 kJ/mol
# GULP energy per Si atom -5588.647203 kJ/mol
# Density = 2.580350 g / cm^3
# Si number density = 25.862364 Si / 1000 Ang^3
#
#
#
# Elastic Constant Matrix: (Units=GPa)
#
#
# Indices 1 2 3 4 5 6 
#
# 1 64.0667 30.8097 -8.8383 1.5756 1.7816 6.4894
# 2 30.8097 180.0681 14.1505 -9.9805 -9.9436 6.3353
# 3 -8.8383 14.1505 120.5790 -21.1158 -2.9566 5.8554
# 4 1.5756 -9.9805 -21.1158 53.9270 -2.2852 1.7652
# 5 1.7816 -9.9436 -2.9566 -2.2852 27.7219 3.0906
# 6 6.4894 6.3353 5.8554 1.7652 3.0906 42.8150
#
#
#
# Elastic Compliance Matrix: (Units=1/GPa)
#
#
# Indices 1 2 3 4 5 6 
#
# 1 0.017672 -0.003204 0.001654 -0.000468 -0.001894 -0.002275
# 2 -0.003204 0.006382 -0.000693 0.001132 0.002581 -0.000597
# 3 0.001654 -0.000693 0.009221 0.003534 0.001102 -0.001634
# 4 -0.000468 0.001132 0.003534 0.020316 0.002667 -0.001610
# 5 -0.001894 0.002581 0.001102 0.002667 0.037801 -0.003084
# 6 -0.002275 -0.000597 -0.001634 -0.001610 -0.003084 0.024302
#
#
# Mechanical properties :
#
#
# Convention : Reuss Voigt Hill
#
# Bulk Modulus (GPa) = 34.73662 48.55083 41.64373
# Shear Modulus (GPa) = 38.52686 46.79891 42.66288
#
# Velocity S-wave (km/s) = 3.86384 4.25848 4.06595
# Velocity P-wave (km/s) = 5.77634 6.55691 6.17896
#
# Compressibility (1/GPa) = 0.02878806
#
# Stress axis : x y z
#
# Youngs Moduli (GPa) = 56.58582 156.67940 108.44588
#
# Poissons Ratio (x) = 0.50202 -0.17932
# Poissons Ratio (y) = 0.18131 0.07519
# Poissons Ratio (z) = -0.09356 0.10863
#
# Static dielectric constant tensor:
#      x y z
#    x 2.110160 -0.001730 0.075290 
#    y -0.001730 2.030650 -0.022410 
#    z 0.075290 -0.022410 2.202350 
# 
# From -- ./inp_files/480421.got.cif
#   From: 2010.05.17/outbox.cif.g08.bks.cpg/sg2_241_cif.got.tgz:480421.got - 2010.06.03 11:33:40.
