data_PCOD9052504
_publ_section_title
;
Structure prediction by ZEFSAII (Michael W. Deem and Ramdas Pophale) SiO2 
 PCOD9052504
Probable space group: P -1
;
_chemical_formula_sum "Si O2"
_cell_formula_units_Z 16
_cell_length_a 13.509093
_cell_length_b 9.771279
_cell_length_c 18.730287
_cell_angle_alpha 79.877136
_cell_angle_beta 45.156807
_cell_angle_gamma 40.630389
_cell_volume 716.572937
_symmetry_space_group_name_H-M "P -1"
_symmetry_group_IT_number 2
_symmetry_cell_setting 'triclinic'
loop_
_space_group_symop_operation_xyz
x,y,z
-x,-y,-z
loop_
_atom_site_type_symbol
_atom_site_label
_atom_site_fract_x
_atom_site_fract_y
_atom_site_fract_z
Si Si1 0.358884 0.192563 0.420028
Si Si2 0.375867 0.190258 0.191835
Si Si3 0.195393 0.641856 0.258434
Si Si4 0.006818 0.648666 0.222878
Si Si5 0.461328 0.181574 0.763222
Si Si6 0.859530 0.311295 0.554112
Si Si7 0.273954 0.637571 0.812528
Si Si8 0.254315 0.652953 0.993121
O O1 0.359904 0.349327 0.375656
O O2 0.986820 0.503109 0.611672
O O3 0.650500 0.914928 0.355119
O O4 0.440699 0.011011 0.332426
O O5 0.463786 0.269440 0.160664
O O6 0.263489 0.303007 0.156576
O O7 0.618265 0.849850 0.127743
O O8 0.056155 0.779852 0.396291
O O9 0.965783 0.794577 0.296975
O O10 0.384032 0.612065 0.146372
O O11 0.167641 0.589669 0.082095
O O12 0.237530 0.510956 0.818981
O O13 0.797279 0.963010 0.635604
O O14 0.634569 0.385740 0.637930
O O15 0.238425 0.659375 0.914815
O O16 0.011995 0.986222 0.884104
#
# Coordination Sequence:
#
# PCOD9052504 Si02
#       8
#     2   2   2   2   2   2   2   2
#     4  11  17  32  59  85 111 137 178 220 273 324
#     4   9  19  32  55  84 110 139 174 218 275 325
#     4   9  18  33  58  81 103 143 180 219 261 322
#     4  10  19  33  58  79 105 148 184 216 260 326
#     4  11  19  34  56  86 111 139 172 228 281 310
#     4  10  17  35  57  83 109 141 179 223 265 326
#     4  10  22  34  57  81 108 139 191 227 256 315
#     4  10  20  38  55  77 106 148 190 218 259 315
#
# _framework density 22.328499999999998
#
# number of rings (size 3 to 8) (size 9 to 14) (size 15 to 20)
#    0.750    1.250    3.750    1.875    0.000    0.000 
#    0.000    3.125    8.250    1.500    0.000    0.000 
#    0.000    0.000    0.000    0.000    0.000    0.000 
#
# Total GULP energy -89185.064684 kJ/mol
# GULP energy per Si atom -5574.066543 kJ/mol
# Density = 2.227768 g / cm^3
# Si number density = 22.328500 Si / 1000 Ang^3
#
#
#
# Elastic Constant Matrix: (Units=GPa)
#
#
# Indices 1 2 3 4 5 6 
#
# 1 50.7102 19.5843 6.3771 -7.5932 -7.3890 2.9302
# 2 19.5843 95.3089 16.9849 -9.7605 11.6680 15.9810
# 3 6.3771 16.9849 35.5465 -13.6360 -4.3379 1.7879
# 4 -7.5932 -9.7605 -13.6360 25.6092 5.2855 1.4318
# 5 -7.3890 11.6680 -4.3379 5.2855 17.6045 -1.7924
# 6 2.9302 15.9810 1.7879 1.4318 -1.7924 40.0699
#
#
#
# Elastic Compliance Matrix: (Units=1/GPa)
#
#
# Indices 1 2 3 4 5 6 
#
# 1 0.024767 -0.007276 0.001657 0.002243 0.015117 0.001613
# 2 -0.007276 0.017119 -0.006888 0.004860 -0.018267 -0.006979
# 3 0.001657 -0.006888 0.038554 0.016299 0.009946 0.000768
# 4 0.002243 0.004860 0.016299 0.053625 -0.014915 -0.005413
# 5 0.015117 -0.018267 0.009946 -0.014915 0.083202 0.009991
# 6 0.001613 -0.006979 0.000768 -0.005413 0.009991 0.028228
#
#
# Mechanical properties :
#
#
# Convention : Reuss Voigt Hill
#
# Bulk Modulus (GPa) = 18.04225 29.71758 23.87992
# Shear Modulus (GPa) = 17.30204 25.89799 21.60002
#
# Velocity S-wave (km/s) = 2.78670 3.40937 3.11364
# Velocity P-wave (km/s) = 4.29560 5.36997 4.86255
#
# Compressibility (1/GPa) = 0.05542545
#
# Stress axis : x y z
#
# Youngs Moduli (GPa) = 40.37681 58.41452 25.93779
#
# Poissons Ratio (x) = 0.42502 -0.04299
# Poissons Ratio (y) = 0.29378 0.17867
# Poissons Ratio (z) = -0.06692 0.40239
#
# Static dielectric constant tensor:
#      x y z
#    x 1.807360 0.012010 -0.002390 
#    y 0.012010 1.904630 0.023850 
#    z -0.002390 0.023850 1.877460 
# 
# From -- ./inp_files/205938.got.cif
#   From: 2010.05.17/outbox.cif.g08.bks.cpg/sg2_103_cif.got.tgz:205938.got - 2010.06.03 11:33:40.
