data_PCOD9052581
_publ_section_title
;
Structure prediction by ZEFSAII (Michael W. Deem and Ramdas Pophale) SiO2 
 PCOD9052581
Probable space group: P -1
;
_chemical_formula_sum "Si O2"
_cell_formula_units_Z 15
_cell_length_a 20.902675
_cell_length_b 9.548537
_cell_length_c 12.024861
_cell_angle_alpha 37.728571
_cell_angle_beta 36.498721
_cell_angle_gamma 29.381922
_cell_volume 665.908370
_symmetry_space_group_name_H-M "P -1"
_symmetry_group_IT_number 2
_symmetry_cell_setting 'triclinic'
loop_
_space_group_symop_operation_xyz
x,y,z
-x,-y,-z
loop_
_atom_site_type_symbol
_atom_site_label
_atom_site_fract_x
_atom_site_fract_y
_atom_site_fract_z
Si Si1 0.536138 0.726376 0.192923
Si Si2 0.514733 0.006537 0.670849
Si Si3 0.050379 0.654749 0.397326
Si Si4 0.846596 0.190561 0.031830
Si Si5 0.812238 0.710719 0.337678
Si Si6 0.110631 0.807326 0.565179
Si Si7 0.500000 0.500000 0.000000
Si Si8 0.409598 0.508458 0.355366
O O1 0.476121 0.854694 0.318185
O O2 0.705080 0.444073 0.139963
O O3 0.459020 0.626535 0.300410
O O4 0.500000 0.000000 0.000000
O O5 0.401153 0.283689 0.576531
O O6 0.655113 0.847495 0.501873
O O7 0.493241 0.775550 0.881416
O O8 0.106338 0.486346 0.541811
O O9 0.000000 0.500000 0.500000
O O10 0.156351 0.633536 0.179122
O O11 0.941644 0.005873 0.365001
O O12 0.829534 0.957390 0.156194
O O13 0.000000 0.000000 0.000000
O O14 0.864656 0.498418 0.290570
O O15 0.253286 0.748778 0.372601
O O16 0.000000 0.000000 0.500000
O O17 0.510055 0.384541 0.186691
#
# Coordination Sequence:
#
# PCOD9052581 Si02
#       8
#     2   2   2   2   2   2   1   2
#     4  12  27  46  76 113 150 197 254 314 372 451
#     4  12  26  46  75 109 148 192 249 310 375 442
#     4  11  25  44  74  98 146 196 238 300 368 435
#     4  12  27  45  72 110 143 194 249 301 370 438
#     4  11  24  48  69 104 147 183 247 305 366 442
#     4  10  26  47  71 106 145 196 239 303 377 445
#     4  12  26  46  72 106 148 192 238 312 378 442
#     4  12  26  46  75 105 149 189 252 302 375 445
#
# _framework density 22.525623
#
# number of rings (size 3 to 8) (size 9 to 14) (size 15 to 20)
#    0.000    0.533    5.333    1.600    5.600    0.533 
#    0.000    0.000    0.000    0.000    0.000    0.000 
#    0.000    0.000    0.000    0.000    0.000    0.000 
#
# Total GULP energy -83515.621167 kJ/mol
# GULP energy per Si atom -5567.708078 kJ/mol
# Density = 2.247435 g / cm^3
# Si number density = 22.525623 Si / 1000 Ang^3
#
#
#
# Elastic Constant Matrix: (Units=GPa)
#
#
# Indices 1 2 3 4 5 6 
#
# 1 127.5427 46.3563 11.5969 -0.7325 -5.0450 12.9002
# 2 46.3563 85.7481 6.3535 -1.6174 -20.4410 15.4536
# 3 11.5969 6.3535 90.8795 -24.8914 -5.1319 5.1239
# 4 -0.7325 -1.6174 -24.8914 23.4434 3.1643 4.1950
# 5 -5.0450 -20.4410 -5.1319 3.1643 35.8208 5.5358
# 6 12.9002 15.4536 5.1239 4.1950 5.5358 47.6016
#
#
#
# Elastic Compliance Matrix: (Units=1/GPa)
#
#
# Indices 1 2 3 4 5 6 
#
# 1 0.009987 -0.005698 -0.001257 -0.001091 -0.001865 -0.000408
# 2 -0.005698 0.018266 0.000798 0.001555 0.010499 -0.005830
# 3 -0.001257 0.000798 0.016218 0.017632 0.001569 -0.003400
# 4 -0.001091 0.001555 0.017632 0.062950 -0.001138 -0.007522
# 5 -0.001865 0.010499 0.001569 -0.001138 0.035060 -0.007049
# 6 -0.000408 -0.005830 -0.003400 -0.007522 -0.007049 0.024860
#
#
# Mechanical properties :
#
#
# Convention : Reuss Voigt Hill
#
# Bulk Modulus (GPa) = 31.09824 48.08708 39.59266
# Shear Modulus (GPa) = 26.26422 37.36405 31.81414
#
# Velocity S-wave (km/s) = 3.41834 4.07718 3.76221
# Velocity P-wave (km/s) = 5.42363 6.59989 6.04046
#
# Compressibility (1/GPa) = 0.03215616
#
# Stress axis : x y z
#
# Youngs Moduli (GPa) = 100.13131 54.74710 61.66031
#
# Poissons Ratio (x) = 0.31192 0.07752
# Poissons Ratio (y) = 0.57050 -0.04918
# Poissons Ratio (z) = 0.12589 -0.04366
#
# Static dielectric constant tensor:
#      x y z
#    x 1.799960 -0.002720 -0.045920 
#    y -0.002720 1.937750 0.031980 
#    z -0.045920 0.031980 1.810840 
# 
# From -- ./inp_files/469140.got.cif
#   From: 2010.05.17/outbox.cif.g08.bks.cpg/sg2_235_cif.got.tgz:469140.got - 2010.06.03 11:33:40.
