data_PCOD9052127
_publ_section_title
;
Structure prediction by ZEFSAII (Michael W. Deem and Ramdas Pophale) SiO2 
 PCOD9052127
Probable space group: P -1
;
_chemical_formula_sum "Si O2"
_cell_formula_units_Z 16
_cell_length_a 9.119687
_cell_length_b 14.927093
_cell_length_c 4.956440
_cell_angle_alpha 89.003218
_cell_angle_beta 75.864905
_cell_angle_gamma 107.089359
_cell_volume 622.504720
_symmetry_space_group_name_H-M "P -1"
_symmetry_group_IT_number 2
_symmetry_cell_setting 'triclinic'
loop_
_space_group_symop_operation_xyz
x,y,z
-x,-y,-z
loop_
_atom_site_type_symbol
_atom_site_label
_atom_site_fract_x
_atom_site_fract_y
_atom_site_fract_z
Si Si1 0.463595 0.082453 0.691077
Si Si2 0.292748 0.601879 0.675711
Si Si3 0.178685 0.853175 0.437588
Si Si4 0.910069 0.408748 0.719732
Si Si5 0.611092 0.737298 0.493901
Si Si6 0.894018 0.690397 0.621800
Si Si7 0.361386 0.432410 0.877789
Si Si8 0.852877 0.038963 0.042066
O O1 0.640632 0.142408 0.702478
O O2 0.395143 0.160156 0.582944
O O3 0.500000 0.000000 0.500000
O O4 0.321583 0.030515 0.963444
O O5 0.241870 0.630504 0.407892
O O6 0.444881 0.682994 0.713592
O O7 0.335271 0.504175 0.659871
O O8 0.152857 0.585020 0.956699
O O9 0.177264 0.934089 0.643397
O O10 0.058593 0.763056 0.642893
O O11 0.108222 0.874908 0.187260
O O12 0.000000 0.500000 0.500000
O O13 0.034378 0.350427 0.661344
O O14 0.767021 0.742094 0.593207
O O15 0.610756 0.660399 0.261420
O O16 0.794776 0.607750 0.864624
O O17 0.500000 0.500000 0.000000
O O18 0.000000 0.000000 0.000000
#
# Coordination Sequence:
#
# PCOD9052127 Si02
#       8
#     2   2   2   2   2   2   2   2
#     4  10  25  52  78 110 152 204 254 322 389 469
#     4  12  26  48  74 105 152 203 252 310 374 463
#     4  11  26  47  71 113 146 194 247 313 384 455
#     4  12  26  45  69 105 145 199 248 309 380 443
#     4  12  27  48  77 109 152 205 264 318 393 457
#     4  12  28  44  76 110 157 198 261 324 376 468
#     4  12  26  48  72 114 155 206 262 317 388 457
#     4  11  24  48  78 109 148 190 247 313 387 460
#
# _framework density 25.702614000000001
#
# number of rings (size 3 to 8) (size 9 to 14) (size 15 to 20)
#    0.000    0.500    2.500    4.500    5.250    3.000 
#    4.500    0.000    0.000    0.000    0.000    0.000 
#    0.000    0.000    0.000    0.000    0.000    0.000 
#
# Total GULP energy -89482.691701 kJ/mol
# GULP energy per Si atom -5592.668231 kJ/mol
# Density = 2.564411 g / cm^3
# Si number density = 25.702614 Si / 1000 Ang^3
#
#
#
# Elastic Constant Matrix: (Units=GPa)
#
#
# Indices 1 2 3 4 5 6 
#
# 1 117.4998 17.8377 19.2809 -8.2884 -16.4783 6.8720
# 2 17.8377 106.3524 21.9590 -17.4651 -6.6328 -8.0989
# 3 19.2809 21.9590 110.2919 -0.8596 -16.0187 2.6449
# 4 -8.2884 -17.4651 -0.8596 42.9902 4.5134 -8.4043
# 5 -16.4783 -6.6328 -16.0187 4.5134 54.6343 -15.3213
# 6 6.8720 -8.0989 2.6449 -8.4043 -15.3213 51.5337
#
#
#
# Elastic Compliance Matrix: (Units=1/GPa)
#
#
# Indices 1 2 3 4 5 6 
#
# 1 0.009249 -0.001077 -0.001076 0.000994 0.002104 -0.000560
# 2 -0.001077 0.011043 -0.001914 0.004735 0.000910 0.003020
# 3 -0.001076 -0.001914 0.009983 -0.001064 0.002424 -0.000123
# 4 0.000994 0.004735 -0.001064 0.026336 -0.000242 0.004889
# 5 0.002104 0.000910 0.002424 -0.000242 0.021486 0.006087
# 6 -0.000560 0.003020 -0.000123 0.004889 0.006087 0.022567
#
#
# Mechanical properties :
#
#
# Convention : Reuss Voigt Hill
#
# Bulk Modulus (GPa) = 45.16486 50.25547 47.71017
# Shear Modulus (GPa) = 43.03768 48.16939 45.60354
#
# Velocity S-wave (km/s) = 4.09644 4.33379 4.21679
# Velocity P-wave (km/s) = 6.32334 6.68112 6.50469
#
# Compressibility (1/GPa) = 0.02214111
#
# Stress axis : x y z
#
# Youngs Moduli (GPa) = 108.12413 90.55608 100.17509
#
# Poissons Ratio (x) = 0.09756 0.10774
# Poissons Ratio (y) = 0.11649 0.19169
# Poissons Ratio (z) = 0.11629 0.17329
#
# Static dielectric constant tensor:
#      x y z
#    x 2.124750 0.106710 -0.002660 
#    y 0.106710 2.144290 0.014060 
#    z -0.002660 0.014060 1.985940 
# 
# From -- ./inp_files/37865.got.cif
#   From: 2010.05.17/outbox.cif.g08.bks.cpg/sg2_19_cif.got.tgz:37865.got - 2010.06.03 11:33:40.
