data_PCOD9052988
_publ_section_title
;
Structure prediction by ZEFSAII (Michael W. Deem and Ramdas Pophale) SiO2 
 PCOD9052988
Probable space group: P -1
;
_chemical_formula_sum "Si O2"
_cell_formula_units_Z 16
_cell_length_a 17.900420
_cell_length_b 15.815333
_cell_length_c 6.305429
_cell_angle_alpha 65.975238
_cell_angle_beta 131.093735
_cell_angle_gamma 143.779667
_cell_volume 763.927822
_symmetry_space_group_name_H-M "P -1"
_symmetry_group_IT_number 2
_symmetry_cell_setting 'triclinic'
loop_
_space_group_symop_operation_xyz
x,y,z
-x,-y,-z
loop_
_atom_site_type_symbol
_atom_site_label
_atom_site_fract_x
_atom_site_fract_y
_atom_site_fract_z
Si Si1 0.792893 0.276390 0.921098
Si Si2 0.345789 0.950084 0.815415
Si Si3 0.287049 0.589070 0.899155
Si Si4 0.412891 0.175823 0.473682
Si Si5 0.923529 0.578551 0.948192
Si Si6 0.581702 0.616803 0.730413
Si Si7 0.297529 0.447691 0.706326
Si Si8 0.467958 0.832417 0.686418
O O1 0.853701 0.425604 0.913580
O O2 0.609842 0.152293 0.634766
O O3 0.793671 0.221501 0.200374
O O4 0.895714 0.297677 0.917080
O O5 0.320178 0.014995 0.536456
O O6 0.500000 0.000000 0.000000
O O7 0.393911 0.037860 0.031720
O O8 0.332897 0.541095 0.874586
O O9 0.313774 0.695263 0.685900
O O10 0.421554 0.702710 0.210810
O O11 0.127044 0.450796 0.870356
O O12 0.347293 0.229817 0.348147
O O13 0.462576 0.197675 0.300691
O O14 0.840261 0.599428 0.634300
O O15 0.500000 0.500000 0.500000
O O16 0.435467 0.531809 0.704942
O O17 0.710240 0.653800 0.072103
#
# Coordination Sequence:
#
# PCOD9052988 Si02
#       8
#     2   2   2   2   2   2   2   2
#     4  11  21  38  53  82 110 159 193 224 284 337
#     4  11  23  36  59  81 113 153 193 238 277 331
#     4  11  17  34  53  79 116 147 178 230 284 329
#     4  11  20  35  56  85 119 143 184 241 282 338
#     4  11  22  37  53  77 125 146 189 237 272 346
#     4  11  20  33  59  86 116 144 185 234 298 338
#     4  11  20  33  54  83 115 148 177 233 285 337
#     4  11  20  36  57  78 119 146 191 236 275 328
#
# _framework density 20.944386999999999
#
# number of rings (size 3 to 8) (size 9 to 14) (size 15 to 20)
#    0.000    1.000    7.500    1.125    0.000    0.500 
#    2.250    0.000    0.000    0.750    0.000    4.375 
#    0.000    0.000    0.000    0.000    0.000    0.000 
#
# Total GULP energy -89078.150880 kJ/mol
# GULP energy per Si atom -5567.384430 kJ/mol
# Density = 2.089672 g / cm^3
# Si number density = 20.944387 Si / 1000 Ang^3
#
#
#
# Elastic Constant Matrix: (Units=GPa)
#
#
# Indices 1 2 3 4 5 6 
#
# 1 104.5173 7.3081 28.7830 -5.2296 -17.0274 -9.0301
# 2 7.3081 39.9190 24.9534 -29.1811 10.2770 -4.8376
# 3 28.7830 24.9534 72.2545 -27.4519 5.3796 -10.2138
# 4 -5.2296 -29.1811 -27.4519 39.4143 -9.9811 -0.6970
# 5 -17.0274 10.2770 5.3796 -9.9811 42.0554 -5.8014
# 6 -9.0301 -4.8376 -10.2138 -0.6970 -5.8014 25.9369
#
#
#
# Elastic Compliance Matrix: (Units=1/GPa)
#
#
# Indices 1 2 3 4 5 6 
#
# 1 0.012212 -0.001011 -0.004804 -0.000871 0.006083 0.003509
# 2 -0.001011 0.058915 -0.002763 0.040877 -0.003387 0.009890
# 3 -0.004804 -0.002763 0.022767 0.013288 -0.000045 0.007125
# 4 -0.000871 0.040877 0.013288 0.066550 0.005914 0.015665
# 5 0.006083 -0.003387 -0.000045 0.005914 0.029616 0.008252
# 6 0.003509 0.009890 0.007125 0.015665 0.008252 0.046694
#
#
# Mechanical properties :
#
#
# Convention : Reuss Voigt Hill
#
# Bulk Modulus (GPa) = 13.03111 37.64222 25.33667
# Shear Modulus (GPa) = 17.88980 31.85773 24.87376
#
# Velocity S-wave (km/s) = 2.92577 3.90431 3.44991
# Velocity P-wave (km/s) = 4.20104 6.19163 5.29080
#
# Compressibility (1/GPa) = 0.07673945
#
# Stress axis : x y z
#
# Youngs Moduli (GPa) = 81.88738 16.97356 43.92316
#
# Poissons Ratio (x) = 0.01715 0.21099
# Poissons Ratio (y) = 0.08275 0.12137
# Poissons Ratio (z) = 0.39335 0.04690
#
# Static dielectric constant tensor:
#      x y z
#    x 1.772730 -0.024260 0.003570 
#    y -0.024260 1.899540 -0.075890 
#    z 0.003570 -0.075890 1.810000 
# 
# From -- ./inp_files/97821.got.cif
#   From: 2010.05.17/outbox.cif.g08.bks.cpg/sg2_49_cif.got.tgz:97821.got - 2010.06.03 11:33:40.
