data_PCOD9052925
_publ_section_title
;
Structure prediction by ZEFSAII (Michael W. Deem and Ramdas Pophale) SiO2 
 PCOD9052925
Probable space group: P -1
;
_chemical_formula_sum "Si O2"
_cell_formula_units_Z 13
_cell_length_a 13.310618
_cell_length_b 9.079874
_cell_length_c 9.924852
_cell_angle_alpha 148.321241
_cell_angle_beta 69.178508
_cell_angle_gamma 109.127448
_cell_volume 588.013632
_symmetry_space_group_name_H-M "P -1"
_symmetry_group_IT_number 2
_symmetry_cell_setting 'triclinic'
loop_
_space_group_symop_operation_xyz
x,y,z
-x,-y,-z
loop_
_atom_site_type_symbol
_atom_site_label
_atom_site_fract_x
_atom_site_fract_y
_atom_site_fract_z
Si Si1 0.627018 0.563986 0.010515
Si Si2 0.194138 0.221369 0.426236
Si Si3 0.053059 0.674923 0.986036
Si Si4 0.636488 0.937659 0.561763
Si Si5 0.541508 0.189419 0.254166
Si Si6 0.000000 0.000000 0.000000
Si Si7 0.748512 0.904573 0.983604
O O1 0.686521 0.718569 0.979454
O O2 0.673631 0.259357 0.771635
O O3 0.500000 0.500000 0.000000
O O4 0.640502 0.756664 0.285220
O O5 0.289729 0.192377 0.462013
O O6 0.237072 0.279222 0.300708
O O7 0.130518 0.919106 0.204994
O O8 0.115776 0.447561 0.694269
O O9 0.000000 0.500000 0.000000
O O10 0.984883 0.836265 0.030825
O O11 0.516797 0.925048 0.671701
O O12 0.500000 0.500000 0.500000
O O13 0.500000 0.000000 0.000000
O O14 0.668642 0.149667 0.173746
O O15 0.868720 0.001594 0.045109
#
# Coordination Sequence:
#
# PCOD9052925 Si02
#       7
#     2   2   2   2   2   1   2
#     4  12  27  47  71 113 155 200 256 324 403 465
#     4  11  26  47  78 108 149 198 268 318 398 473
#     4  11  26  51  76 113 153 212 269 333 390 476
#     4  12  26  45  74 110 146 198 255 318 396 468
#     4  12  26  44  78 111 151 201 256 327 393 464
#     4  10  28  48  78 114 160 208 268 322 404 476
#     4  11  27  50  76 114 161 207 260 334 395 480
#
# _framework density 22.108329000000001
#
# number of rings (size 3 to 8) (size 9 to 14) (size 15 to 20)
#    0.000    0.615    3.077    2.769    8.615    4.923 
#    0.000    0.000    0.000    0.000    0.000    0.000 
#    0.000    0.000    0.000    0.000    0.000    0.000 
#
# Total GULP energy -72486.469284 kJ/mol
# GULP energy per Si atom -5575.882253 kJ/mol
# Density = 2.205801 g / cm^3
# Si number density = 22.108329 Si / 1000 Ang^3
#
#
#
# Elastic Constant Matrix: (Units=GPa)
#
#
# Indices 1 2 3 4 5 6 
#
# 1 181.5839 58.4150 61.5393 -10.2880 4.6174 -11.3802
# 2 58.4150 185.8308 73.3772 -27.2252 -4.3931 2.0931
# 3 61.5393 73.3772 197.7697 -15.4214 2.9514 0.3852
# 4 -10.2880 -27.2252 -15.4214 42.6569 4.6414 1.4400
# 5 4.6174 -4.3931 2.9514 4.6414 32.5428 2.8860
# 6 -11.3802 2.0931 0.3852 1.4400 2.8860 32.9992
#
#
#
# Elastic Compliance Matrix: (Units=1/GPa)
#
#
# Indices 1 2 3 4 5 6 
#
# 1 0.006712 -0.001562 -0.001484 0.000138 -0.001273 0.002536
# 2 -0.001562 0.007171 -0.001918 0.003440 0.000980 -0.001207
# 3 -0.001484 -0.001918 0.006302 0.000786 -0.000693 -0.000437
# 4 0.000138 0.003440 0.000786 0.026350 -0.003292 -0.001042
# 5 -0.001273 0.000980 -0.000693 -0.003292 0.031852 -0.003135
# 6 0.002536 -0.001207 -0.000437 -0.001042 -0.003135 0.031580
#
#
# Mechanical properties :
#
#
# Convention : Reuss Voigt Hill
#
# Bulk Modulus (GPa) = 97.50825 105.76082 101.63454
# Shear Modulus (GPa) = 40.54686 46.42998 43.48842
#
# Velocity S-wave (km/s) = 4.28718 4.58767 4.43997
# Velocity P-wave (km/s) = 8.28897 8.71801 8.50620
#
# Compressibility (1/GPa) = 0.01025554
#
# Stress axis : x y z
#
# Youngs Moduli (GPa) = 148.99190 139.45831 158.66901
#
# Poissons Ratio (x) = 0.21787 0.23547
# Poissons Ratio (y) = 0.23277 0.30438
# Poissons Ratio (z) = 0.22111 0.26753
#
# Static dielectric constant tensor:
#      x y z
#    x 1.767540 0.045180 0.042720 
#    y 0.045180 1.814120 -0.021220 
#    z 0.042720 -0.021220 1.715700 
# 
# From -- ./inp_files/297154.got.cif
#   From: 2010.05.17/outbox.cif.g08.bks.cpg/sg2_149_cif.got.tgz:297154.got - 2010.06.03 11:33:40.
