data_PCOD9052099
_publ_section_title
;
Structure prediction by ZEFSAII (Michael W. Deem and Ramdas Pophale) SiO2 
 PCOD9052099
Probable space group: P -1
;
_chemical_formula_sum "Si O2"
_cell_formula_units_Z 16
_cell_length_a 13.841352
_cell_length_b 9.247596
_cell_length_c 8.430435
_cell_angle_alpha 49.097433
_cell_angle_beta 104.189145
_cell_angle_gamma 77.199440
_cell_volume 674.733729
_symmetry_space_group_name_H-M "P -1"
_symmetry_group_IT_number 2
_symmetry_cell_setting 'triclinic'
loop_
_space_group_symop_operation_xyz
x,y,z
-x,-y,-z
loop_
_atom_site_type_symbol
_atom_site_label
_atom_site_fract_x
_atom_site_fract_y
_atom_site_fract_z
Si Si1 0.070170 0.200271 0.485699
Si Si2 0.347976 0.189973 0.077292
Si Si3 0.462667 0.376120 0.195918
Si Si4 0.234395 0.721522 0.056852
Si Si5 0.071252 0.616591 0.251730
Si Si6 0.403346 0.746905 0.342444
Si Si7 0.162061 0.682438 0.559304
Si Si8 0.160227 0.122847 0.229990
O O1 0.086619 0.377264 0.465663
O O2 0.109993 0.221065 0.311676
O O3 0.934810 0.270785 0.380231
O O4 0.148888 0.953166 0.766297
O O5 0.442964 0.203400 0.211885
O O6 0.256575 0.169547 0.168314
O O7 0.399890 0.976699 0.133736
O O8 0.271753 0.431291 0.789370
O O9 0.340434 0.553810 0.105063
O O10 0.559860 0.272191 0.445497
O O11 0.500000 0.500000 0.000000
O O12 0.164552 0.607864 0.171751
O O13 0.287707 0.774472 0.196290
O O14 0.089644 0.717507 0.345302
O O15 0.945004 0.767930 0.015948
O O16 0.500000 0.500000 0.500000
O O17 0.199389 0.863753 0.451263
#
# Coordination Sequence:
#
# PCOD9052099 Si02
#       8
#     2   2   2   2   2   2   2   2
#     4  12  25  42  68 110 150 192 236 279 349 443
#     4  12  26  46  79 104 143 193 235 301 371 418
#     4  11  27  50  75 104 135 186 256 311 354 415
#     4  11  25  47  72 101 150 190 231 300 364 414
#     4  12  25  42  69 106 151 195 229 282 355 437
#     4  10  25  51  72  98 138 184 246 308 353 414
#     4  12  26  42  71 109 152 190 238 278 353 447
#     4  12  26  42  71 105 155 192 230 286 357 436
#
# _framework density 23.713058
#
# number of rings (size 3 to 8) (size 9 to 14) (size 15 to 20)
#    0.000    0.500    2.500    4.875    8.750    0.000 
#    4.500    1.250    0.000    0.000    0.000    0.000 
#    0.000    0.000    0.000    0.000    0.000    0.000 
#
# Total GULP energy -89596.292405 kJ/mol
# GULP energy per Si atom -5599.768275 kJ/mol
# Density = 2.365909 g / cm^3
# Si number density = 23.713058 Si / 1000 Ang^3
#
#
#
# Elastic Constant Matrix: (Units=GPa)
#
#
# Indices 1 2 3 4 5 6 
#
# 1 114.2490 31.2964 10.5084 -5.7757 -13.5167 16.8443
# 2 31.2964 93.7104 5.1108 -7.0473 6.9266 21.3160
# 3 10.5084 5.1108 88.4294 -6.9403 14.4006 6.1103
# 4 -5.7757 -7.0473 -6.9403 45.7449 5.0777 1.8639
# 5 -13.5167 6.9266 14.4006 5.0777 36.0097 -3.0088
# 6 16.8443 21.3160 6.1103 1.8639 -3.0088 45.0918
#
#
#
# Elastic Compliance Matrix: (Units=1/GPa)
#
#
# Indices 1 2 3 4 5 6 
#
# 1 0.010761 -0.003478 -0.001812 0.000035 0.005279 -0.001779
# 2 -0.003478 0.013671 0.001080 0.002645 -0.005222 -0.005767
# 3 -0.001812 0.001080 0.012898 0.002715 -0.006607 -0.002134
# 4 0.000035 0.002645 0.002715 0.023373 -0.005123 -0.002939
# 5 0.005279 -0.005222 -0.006607 -0.005123 0.034447 0.003902
# 6 -0.001779 -0.005767 -0.002134 -0.002939 0.003902 0.026239
#
#
# Mechanical properties :
#
#
# Convention : Reuss Voigt Hill
#
# Bulk Modulus (GPa) = 34.59102 43.35778 38.97440
# Shear Modulus (GPa) = 35.85669 42.00081 38.92875
#
# Velocity S-wave (km/s) = 3.89280 4.21314 4.05613
# Velocity P-wave (km/s) = 5.90120 6.48008 6.19740
#
# Compressibility (1/GPa) = 0.02890923
#
# Stress axis : x y z
#
# Youngs Moduli (GPa) = 92.92985 73.14993 77.53250
#
# Poissons Ratio (x) = 0.25440 0.14047
# Poissons Ratio (y) = 0.32319 -0.08371
# Poissons Ratio (z) = 0.16837 -0.07898
#
# Static dielectric constant tensor:
#      x y z
#    x 1.886390 -0.059220 -0.002140 
#    y -0.059220 1.946120 -0.017520 
#    z -0.002140 -0.017520 1.911930 
# 
# From -- ./inp_files/297533.got.cif
#   From: 2010.05.17/outbox.cif.g08.bks.cpg/sg2_149_cif.got.tgz:297533.got - 2010.06.03 11:33:40.
