data_PCOD9052651
_publ_section_title
;
Structure prediction by ZEFSAII (Michael W. Deem and Ramdas Pophale) SiO2 
 PCOD9052651
Probable space group: P -1
;
_chemical_formula_sum "Si O2"
_cell_formula_units_Z 15
_cell_length_a 9.330530
_cell_length_b 6.410593
_cell_length_c 11.834358
_cell_angle_alpha 72.000619
_cell_angle_beta 56.545328
_cell_angle_gamma 84.740772
_cell_volume 558.913958
_symmetry_space_group_name_H-M "P -1"
_symmetry_group_IT_number 2
_symmetry_cell_setting 'triclinic'
loop_
_space_group_symop_operation_xyz
x,y,z
-x,-y,-z
loop_
_atom_site_type_symbol
_atom_site_label
_atom_site_fract_x
_atom_site_fract_y
_atom_site_fract_z
Si Si1 0.316935 0.810109 0.151950
Si Si2 0.933582 0.608294 0.621982
Si Si3 0.624788 0.882350 0.712334
Si Si4 0.403080 0.431189 0.697034
Si Si5 0.867567 0.873486 0.988228
Si Si6 0.500000 0.500000 0.000000
Si Si7 0.861336 0.217022 0.287982
Si Si8 0.647289 0.785180 0.487240
O O1 0.190841 0.584832 0.234578
O O2 0.349622 0.920398 0.241440
O O3 0.225154 0.963508 0.080050
O O4 0.489372 0.716273 0.047873
O O5 0.816268 0.806380 0.623663
O O6 0.000000 0.500000 0.500000
O O7 0.079741 0.691425 0.631510
O O8 0.510638 0.676311 0.854780
O O9 0.572518 0.930143 0.598047
O O10 0.297669 0.647712 0.696552
O O11 0.599501 0.544447 0.610911
O O12 0.401199 0.301263 0.601927
O O13 0.282036 0.273861 0.856744
O O14 0.983554 0.739050 0.876522
O O15 0.000000 0.000000 0.000000
O O16 0.816438 0.952769 0.357792
#
# Coordination Sequence:
#
# PCOD9052651 Si02
#       8
#     2   2   2   2   2   1   2   2
#     4  11  25  47  72 111 147 197 255 315 384 445
#     4  11  24  40  72 108 150 190 247 314 379 447
#     4  11  24  44  72 106 147 195 251 313 374 445
#     4  11  26  48  70 108 151 203 251 302 376 451
#     4  12  25  46  77 108 152 198 249 313 370 454
#     4  10  26  48  70 106 146 198 250 312 378 458
#     4  12  24  45  73 107 148 197 253 309 373 441
#     4  11  26  46  73 105 151 198 252 308 372 453
#
# _framework density 26.837762000000001
#
# number of rings (size 3 to 8) (size 9 to 14) (size 15 to 20)
#    0.000    0.800    2.667    3.600    3.733    3.200 
#    4.800    0.000    0.000    0.000    0.000    0.000 
#    0.000    0.000    0.000    0.000    0.000    0.000 
#
# Total GULP energy -83560.308929 kJ/mol
# GULP energy per Si atom -5570.687262 kJ/mol
# Density = 2.677668 g / cm^3
# Si number density = 26.837762 Si / 1000 Ang^3
#
#
#
# Elastic Constant Matrix: (Units=GPa)
#
#
# Indices 1 2 3 4 5 6 
#
# 1 107.3704 66.9547 21.8178 9.3791 4.0882 17.7866
# 2 66.9547 138.6856 50.2138 29.7114 10.9105 7.3035
# 3 21.8178 50.2138 143.6973 8.6231 19.8628 13.3497
# 4 9.3791 29.7114 8.6231 78.7241 18.2613 -3.0064
# 5 4.0882 10.9105 19.8628 18.2613 22.3199 6.9930
# 6 17.7866 7.3035 13.3497 -3.0064 6.9930 59.1901
#
#
#
# Elastic Compliance Matrix: (Units=1/GPa)
#
#
# Indices 1 2 3 4 5 6 
#
# 1 0.014070 -0.006961 0.000440 0.000500 0.001146 -0.003578
# 2 -0.006961 0.012419 -0.003265 -0.003639 0.000768 0.001020
# 3 0.000440 -0.003265 0.009084 0.002008 -0.007982 -0.000733
# 4 0.000500 -0.003639 0.002008 0.017401 -0.015125 0.002517
# 5 0.001146 0.000768 -0.007982 -0.015125 0.065952 -0.007199
# 6 -0.003578 0.001020 -0.000733 0.002517 -0.007199 0.018988
#
#
# Mechanical properties :
#
#
# Convention : Reuss Voigt Hill
#
# Bulk Modulus (GPa) = 62.49563 74.19176 68.34369
# Shear Modulus (GPa) = 30.70858 48.76462 39.73660
#
# Velocity S-wave (km/s) = 3.38632 4.26727 3.85206
# Velocity P-wave (km/s) = 6.21502 7.20999 6.73092
#
# Compressibility (1/GPa) = 0.01600112
#
# Stress axis : x y z
#
# Youngs Moduli (GPa) = 71.07080 80.52119 110.08096
#
# Poissons Ratio (x) = 0.56052 -0.04846
# Poissons Ratio (y) = 0.49474 0.35946
# Poissons Ratio (z) = -0.03129 0.26293
#
# Static dielectric constant tensor:
#      x y z
#    x 2.343640 -0.082060 0.066410 
#    y -0.082060 2.042590 -0.033710 
#    z 0.066410 -0.033710 2.110050 
# 
# From -- ./inp_files/371129.got.cif
#   From: 2010.05.17/outbox.cif.g08.bks.cpg/sg2_186_cif.got.tgz:371129.got - 2010.06.03 11:33:40.
