data_PCOD9052081
_publ_section_title
;
Structure prediction by ZEFSAII (Michael W. Deem and Ramdas Pophale) SiO2 
 PCOD9052081
Probable space group: P -1
;
_chemical_formula_sum "Si O2"
_cell_formula_units_Z 15
_cell_length_a 17.020055
_cell_length_b 8.878638
_cell_length_c 11.553257
_cell_angle_alpha 99.380867
_cell_angle_beta 48.133956
_cell_angle_gamma 138.368330
_cell_volume 634.264078
_symmetry_space_group_name_H-M "P -1"
_symmetry_group_IT_number 2
_symmetry_cell_setting 'triclinic'
loop_
_space_group_symop_operation_xyz
x,y,z
-x,-y,-z
loop_
_atom_site_type_symbol
_atom_site_label
_atom_site_fract_x
_atom_site_fract_y
_atom_site_fract_z
Si Si1 0.677379 0.288773 0.071289
Si Si2 0.584747 0.756626 0.338956
Si Si3 0.551156 0.776059 0.871302
Si Si4 0.070238 0.604778 0.809708
Si Si5 0.000000 0.500000 0.500000
Si Si6 0.467077 0.606427 0.196565
Si Si7 0.218406 0.561216 0.474905
Si Si8 0.243066 0.348794 0.785116
O O1 0.637658 0.351863 0.009382
O O2 0.710010 0.438660 0.167492
O O3 0.461555 0.924187 0.258245
O O4 0.891137 0.455531 0.883155
O O5 0.621437 0.846288 0.181472
O O6 0.340641 0.483070 0.578582
O O7 0.628352 0.632651 0.288391
O O8 0.731544 0.029369 0.321035
O O9 0.542345 0.588838 0.817938
O O10 0.764838 0.125947 0.662614
O O11 0.542489 0.756567 0.016024
O O12 0.145430 0.544736 0.665904
O O13 0.000000 0.500000 0.000000
O O14 0.932357 0.559016 0.489516
O O15 0.244035 0.411798 0.417229
O O16 0.000000 0.000000 0.000000
#
# Coordination Sequence:
#
# PCOD9052081 Si02
#       8
#     2   2   2   2   1   2   2   2
#     4  11  23  46  72 101 146 195 243 305 357 446
#     4  11  24  42  70 109 146 183 247 295 364 446
#     4  10  25  50  77 107 142 196 252 306 375 434
#     4  12  27  42  73 109 149 194 241 303 371 437
#     4  10  26  46  76 104 142 196 256 298 362 446
#     4  11  25  47  74 107 154 187 238 321 367 434
#     4  11  27  45  70 108 147 191 246 304 363 444
#     4  11  22  42  70 104 141 196 237 295 367 432
#
# _framework density 23.649455
#
# number of rings (size 3 to 8) (size 9 to 14) (size 15 to 20)
#    0.000    1.067    4.000    0.800    7.467    2.667 
#    0.000    0.000    0.000    0.000    0.000    0.000 
#    0.000    0.000    0.000    0.000    0.000    0.000 
#
# Total GULP energy -83596.922763 kJ/mol
# GULP energy per Si atom -5573.128184 kJ/mol
# Density = 2.359563 g / cm^3
# Si number density = 23.649455 Si / 1000 Ang^3
#
#
#
# Elastic Constant Matrix: (Units=GPa)
#
#
# Indices 1 2 3 4 5 6 
#
# 1 131.2017 22.6086 34.0057 2.5374 -13.3845 6.0355
# 2 22.6086 68.1913 39.2214 5.7417 -13.9073 4.5753
# 3 34.0057 39.2214 100.2842 6.4842 -15.5043 -2.1815
# 4 2.5374 5.7417 6.4842 30.7474 -2.1224 -5.0392
# 5 -13.3845 -13.9073 -15.5043 -2.1224 30.4034 -1.5763
# 6 6.0355 4.5753 -2.1815 -5.0392 -1.5763 33.8777
#
#
#
# Elastic Compliance Matrix: (Units=1/GPa)
#
#
# Indices 1 2 3 4 5 6 
#
# 1 0.008665 -0.001053 -0.002222 -0.000144 0.002114 -0.001468
# 2 -0.001053 0.020329 -0.006718 -0.002453 0.005077 -0.003119
# 3 -0.002222 -0.006718 0.013941 -0.000926 0.003108 0.002208
# 4 -0.000144 -0.002453 -0.000926 0.034147 0.001007 0.005424
# 5 0.002114 0.005077 0.003108 0.001007 0.037853 0.001049
# 6 -0.001468 -0.003119 0.002208 0.005424 0.001049 0.031198
#
#
# Mechanical properties :
#
#
# Convention : Reuss Voigt Hill
#
# Bulk Modulus (GPa) = 43.57578 54.59429 49.08503
# Shear Modulus (GPa) = 28.77375 32.59514 30.68444
#
# Velocity S-wave (km/s) = 3.49187 3.71652 3.60595
# Velocity P-wave (km/s) = 5.89265 6.44606 6.17555
#
# Compressibility (1/GPa) = 0.02294853
#
# Stress axis : x y z
#
# Youngs Moduli (GPa) = 115.40376 49.19105 71.73093
#
# Poissons Ratio (x) = 0.05180 0.15941
# Poissons Ratio (y) = 0.12152 0.48189
# Poissons Ratio (z) = 0.25646 0.33046
#
# Static dielectric constant tensor:
#      x y z
#    x 2.177220 -0.290960 -0.320810 
#    y -0.290960 2.238510 0.413260 
#    z -0.320810 0.413260 2.440380 
# 
# From -- ./inp_files/462287.got.cif
#   From: 2010.05.17/outbox.cif.g08.bks.cpg/sg2_232_cif.got.tgz:462287.got - 2010.06.03 11:33:40.
