data_PCOD9052125
_publ_section_title
;
Structure prediction by ZEFSAII (Michael W. Deem and Ramdas Pophale) SiO2 
 PCOD9052125
Probable space group: P -1
;
_chemical_formula_sum "Si O2"
_cell_formula_units_Z 16
_cell_length_a 20.566477
_cell_length_b 24.144391
_cell_length_c 8.930725
_cell_angle_alpha 31.171951
_cell_angle_beta 150.372244
_cell_angle_gamma 161.179238
_cell_volume 692.113876
_symmetry_space_group_name_H-M "P -1"
_symmetry_group_IT_number 2
_symmetry_cell_setting 'triclinic'
loop_
_space_group_symop_operation_xyz
x,y,z
-x,-y,-z
loop_
_atom_site_type_symbol
_atom_site_label
_atom_site_fract_x
_atom_site_fract_y
_atom_site_fract_z
Si Si1 0.740937 0.170534 0.025635
Si Si2 0.990139 0.613848 0.656330
Si Si3 0.782068 0.885136 0.920158
Si Si4 0.913698 0.889088 0.731306
Si Si5 0.638161 0.186261 0.279573
Si Si6 0.665399 0.920208 0.323215
Si Si7 0.650885 0.501785 0.051514
Si Si8 0.768577 0.383951 0.365588
O O1 0.742242 0.285356 0.679973
O O2 0.899478 0.255872 0.284952
O O3 0.500000 0.000000 0.000000
O O4 0.796392 0.116401 0.137680
O O5 0.134352 0.710361 0.569777
O O6 0.756847 0.509790 0.389306
O O7 0.000000 0.500000 0.000000
O O8 0.653807 0.883288 0.560267
O O9 0.610212 0.676332 0.067862
O O10 0.000000 0.000000 0.000000
O O11 0.876616 0.993859 0.011943
O O12 0.771770 0.887892 0.532134
O O13 0.766152 0.691228 0.855137
O O14 0.000000 0.000000 0.500000
O O15 0.631613 0.265907 0.218108
O O16 0.500000 0.000000 0.500000
O O17 0.540584 0.178987 0.954065
O O18 0.725225 0.475419 0.122298
O O19 0.000000 0.500000 0.500000
#
# Coordination Sequence:
#
# PCOD9052125 Si02
#       8
#     2   2   2   2   2   2   2   2
#     4  12  22  42  72 108 150 200 248 310 379 462
#     4  12  23  43  71 114 153 193 251 312 393 468
#     4  10  25  52  77 108 146 201 266 323 378 456
#     4  11  29  50  76 111 150 207 262 318 389 455
#     4  12  24  42  71 109 155 199 248 311 383 469
#     4  11  24  45  74 105 148 196 257 308 382 457
#     4  12  26  47  80 108 161 197 262 323 385 461
#     4  12  25  42  66 110 155 191 243 311 388 452
#
# _framework density 23.117583
#
# number of rings (size 3 to 8) (size 9 to 14) (size 15 to 20)
#    0.000    0.500    5.000    2.250    5.250    2.500 
#    0.000    1.250    0.000    0.000    0.000    0.000 
#    0.000    0.000    0.000    0.000    0.000    0.000 
#
# Total GULP energy -89304.274938 kJ/mol
# GULP energy per Si atom -5581.517184 kJ/mol
# Density = 2.306497 g / cm^3
# Si number density = 23.117583 Si / 1000 Ang^3
#
#
#
# Elastic Constant Matrix: (Units=GPa)
#
#
# Indices 1 2 3 4 5 6 
#
# 1 123.0054 71.5920 39.6608 -8.7391 5.4983 -22.7212
# 2 71.5920 173.5435 50.0646 -5.4443 5.3205 -13.0795
# 3 39.6608 50.0646 86.9248 -10.9092 -1.2863 -5.3581
# 4 -8.7391 -5.4443 -10.9092 47.5477 -13.4241 -5.6278
# 5 5.4983 5.3205 -1.2863 -13.4241 46.6101 -5.9153
# 6 -22.7212 -13.0795 -5.3581 -5.6278 -5.9153 59.4744
#
#
#
# Elastic Compliance Matrix: (Units=1/GPa)
#
#
# Indices 1 2 3 4 5 6 
#
# 1 0.012072 -0.003817 -0.002900 0.001497 -0.000176 0.003635
# 2 -0.003817 0.008228 -0.003102 -0.000702 -0.000786 -0.000073
# 3 -0.002900 -0.003102 0.015042 0.003142 0.002024 0.000064
# 4 0.001497 -0.000702 0.003142 0.024519 0.007530 0.003770
# 5 -0.000176 -0.000786 0.002024 0.007530 0.024178 0.003060
# 6 0.003635 -0.000073 0.000064 0.003770 0.003060 0.018854
#
#
# Mechanical properties :
#
#
# Convention : Reuss Voigt Hill
#
# Bulk Modulus (GPa) = 63.67594 78.45649 71.06621
# Shear Modulus (GPa) = 39.13378 45.53687 42.33532
#
# Velocity S-wave (km/s) = 4.11885 4.44305 4.28402
# Velocity P-wave (km/s) = 7.08689 7.76741 7.43494
#
# Compressibility (1/GPa) = 0.01570452
#
# Stress axis : x y z
#
# Youngs Moduli (GPa) = 82.83436 121.53167 66.48000
#
# Poissons Ratio (x) = 0.46390 0.19281
# Poissons Ratio (y) = 0.31619 0.20620
# Poissons Ratio (z) = 0.24025 0.37695
#
# Static dielectric constant tensor:
#      x y z
#    x 1.284890 -0.352140 -0.119780 
#    y -0.352140 1.890850 -0.053090 
#    z -0.119780 -0.053090 1.876330 
# 
# From -- ./inp_files/349982.got.cif
#   From: 2010.05.17/outbox.cif.g08.bks.cpg/sg2_175_cif.got.tgz:349982.got - 2010.06.03 11:33:40.
