data_PCOD9052908
_publ_section_title
;
Structure prediction by ZEFSAII (Michael W. Deem and Ramdas Pophale) SiO2 
 PCOD9052908
Probable space group: P -1
;
_chemical_formula_sum "Si O2"
_cell_formula_units_Z 15
_cell_length_a 9.585163
_cell_length_b 13.014468
_cell_length_c 8.800343
_cell_angle_alpha 60.569708
_cell_angle_beta 112.997800
_cell_angle_gamma 135.909517
_cell_volume 663.981056
_symmetry_space_group_name_H-M "P -1"
_symmetry_group_IT_number 2
_symmetry_cell_setting 'triclinic'
loop_
_space_group_symop_operation_xyz
x,y,z
-x,-y,-z
loop_
_atom_site_type_symbol
_atom_site_label
_atom_site_fract_x
_atom_site_fract_y
_atom_site_fract_z
Si Si1 0.843516 0.455620 0.094755
Si Si2 0.271059 0.354199 0.465829
Si Si3 0.385423 0.980752 0.314061
Si Si4 0.144844 0.283989 0.116731
Si Si5 0.622974 0.766428 0.946134
Si Si6 0.500000 0.000000 0.000000
Si Si7 0.953606 0.358315 0.490644
Si Si8 0.228103 0.085676 0.787235
O O1 0.611725 0.352683 0.024771
O O2 0.848911 0.357985 0.295356
O O3 0.914844 0.622619 0.053814
O O4 0.000000 0.500000 0.000000
O O5 0.500000 0.500000 0.500000
O O6 0.212496 0.346252 0.271728
O O7 0.232292 0.195088 0.592072
O O8 0.136158 0.371137 0.500401
O O9 0.492777 0.023700 0.165721
O O10 0.190977 0.798999 0.360603
O O11 0.500000 0.000000 0.500000
O O12 0.331699 0.090331 0.229118
O O13 0.321585 0.314388 0.075749
O O14 0.961287 0.098133 0.173617
O O15 0.759583 0.841864 0.098395
O O16 0.584439 0.908402 0.138285
O O17 0.000000 0.500000 0.500000
#
# Coordination Sequence:
#
# PCOD9052908 Si02
#       8
#     2   2   2   2   2   1   2   2
#     4  12  27  48  74 110 153 196 258 310 383 458
#     4  12  29  48  74 109 157 201 256 314 384 459
#     4  11  25  48  78 112 151 192 261 310 390 453
#     4  12  27  47  76 106 154 201 251 317 390 455
#     4  11  26  48  76 109 148 199 252 321 382 462
#     4  10  28  44  80 114 152 194 250 322 384 454
#     4  12  30  47  76 109 152 200 256 319 379 459
#     4  11  27  45  78 109 150 194 261 312 390 453
#
# _framework density 22.591006
#
# number of rings (size 3 to 8) (size 9 to 14) (size 15 to 20)
#    0.000    0.533    2.667    2.800   16.800    0.000 
#    0.000    0.000    0.000    0.000    0.000    0.000 
#    0.000    0.000    0.000    0.000    0.000    0.000 
#
# Total GULP energy -83672.889021 kJ/mol
# GULP energy per Si atom -5578.192601 kJ/mol
# Density = 2.253959 g / cm^3
# Si number density = 22.591006 Si / 1000 Ang^3
#
#
#
# Elastic Constant Matrix: (Units=GPa)
#
#
# Indices 1 2 3 4 5 6 
#
# 1 129.5261 40.0012 24.8580 -3.2086 5.0266 -36.7685
# 2 40.0012 120.9513 15.4431 -21.4627 -1.6436 -0.3976
# 3 24.8580 15.4431 98.5219 -14.0616 19.6889 -8.4489
# 4 -3.2086 -21.4627 -14.0616 50.0438 -13.5745 3.2768
# 5 5.0266 -1.6436 19.6889 -13.5745 28.0613 0.1971
# 6 -36.7685 -0.3976 -8.4489 3.2768 0.1971 34.4828
#
#
#
# Elastic Compliance Matrix: (Units=1/GPa)
#
#
# Indices 1 2 3 4 5 6 
#
# 1 0.013708 -0.005022 -0.001177 -0.003584 -0.003761 0.014633
# 2 -0.005022 0.011202 -0.001230 0.005992 0.005360 -0.006127
# 3 -0.001177 -0.001230 0.012554 0.000519 -0.008431 0.001806
# 4 -0.003584 0.005992 0.000519 0.026541 0.013511 -0.006224
# 5 -0.003761 0.005360 -0.008431 0.013511 0.049129 -0.007578
# 6 0.014633 -0.006127 0.001806 -0.006224 -0.007578 0.045609
#
#
# Mechanical properties :
#
#
# Convention : Reuss Voigt Hill
#
# Bulk Modulus (GPa) = 44.23746 56.62266 50.43006
# Shear Modulus (GPa) = 27.60362 40.43073 34.01717
#
# Velocity S-wave (km/s) = 3.49934 4.23505 3.88465
# Velocity P-wave (km/s) = 5.99596 7.00235 6.51861
#
# Compressibility (1/GPa) = 0.02260528
#
# Stress axis : x y z
#
# Youngs Moduli (GPa) = 72.94890 89.27139 79.65880
#
# Poissons Ratio (x) = 0.44835 0.09373
# Poissons Ratio (y) = 0.36637 0.09800
# Poissons Ratio (z) = 0.08583 0.10982
#
# Static dielectric constant tensor:
#      x y z
#    x 1.975020 0.004050 0.070820 
#    y 0.004050 1.874210 -0.013950 
#    z 0.070820 -0.013950 1.880420 
# 
# From -- ./inp_files/185308.got.cif
#   From: 2010.05.17/outbox.cif.g08.bks.cpg/sg2_93_cif.got.tgz:185308.got - 2010.06.03 11:33:40.
