data_PCOD9052645
_publ_section_title
;
Structure prediction by ZEFSAII (Michael W. Deem and Ramdas Pophale) SiO2 
 PCOD9052645
Probable space group: P -1
;
_chemical_formula_sum "Si O2"
_cell_formula_units_Z 15
_cell_length_a 9.204013
_cell_length_b 9.553342
_cell_length_c 10.200214
_cell_angle_alpha 105.544638
_cell_angle_beta 108.182286
_cell_angle_gamma 47.464496
_cell_volume 625.798933
_symmetry_space_group_name_H-M "P -1"
_symmetry_group_IT_number 2
_symmetry_cell_setting 'triclinic'
loop_
_space_group_symop_operation_xyz
x,y,z
-x,-y,-z
loop_
_atom_site_type_symbol
_atom_site_label
_atom_site_fract_x
_atom_site_fract_y
_atom_site_fract_z
Si Si1 0.038645 0.575658 0.654172
Si Si2 0.000000 0.000000 0.500000
Si Si3 0.023010 0.230260 0.929505
Si Si4 0.308698 0.834940 0.009482
Si Si5 0.700077 0.973588 0.574394
Si Si6 0.314829 0.672117 0.693852
Si Si7 0.694619 0.292786 0.753714
Si Si8 0.237037 0.355067 0.911296
O O1 0.217538 0.577818 0.678633
O O2 0.107578 0.441906 0.764226
O O3 0.000000 0.500000 0.500000
O O4 0.837814 0.794268 0.666360
O O5 0.141499 0.060894 0.498639
O O6 0.199175 0.811109 0.575983
O O7 0.203798 0.219123 0.930234
O O8 0.926021 0.195307 0.772640
O O9 0.861321 0.452479 0.983526
O O10 0.122921 0.061167 0.021044
O O11 0.302453 0.714987 0.088832
O O12 0.528393 0.766053 0.071054
O O13 0.294109 0.779632 0.846105
O O14 0.640342 0.164105 0.668127
O O15 0.500000 0.000000 0.500000
O O16 0.549076 0.496066 0.697961
#
# Coordination Sequence:
#
# PCOD9052645 Si02
#       8
#     2   1   2   2   2   2   2   2
#     4  11  23  42  67  96 139 185 233 288 354 427
#     4  10  26  48  70 100 146 186 234 300 352 436
#     4  11  24  40  67 108 140 178 236 295 360 421
#     4  12  23  45  74 101 143 185 237 298 359 430
#     4  11  26  47  70 107 138 192 248 291 363 432
#     4  11  23  44  72 103 138 189 236 291 368 421
#     4  12  23  44  73 104 138 186 238 298 358 430
#     4  11  24  44  66 104 141 184 233 295 357 427
#
# _framework density 23.969360000000002
#
# number of rings (size 3 to 8) (size 9 to 14) (size 15 to 20)
#    0.000    0.800    2.667    5.200    0.000    5.867 
#    2.400    0.000    0.000    0.000    0.000    0.000 
#    0.000    0.000    0.000    0.000    0.000    0.000 
#
# Total GULP energy -83590.173741 kJ/mol
# GULP energy per Si atom -5572.678249 kJ/mol
# Density = 2.391480 g / cm^3
# Si number density = 23.969360 Si / 1000 Ang^3
#
#
#
# Elastic Constant Matrix: (Units=GPa)
#
#
# Indices 1 2 3 4 5 6 
#
# 1 104.4889 18.8253 21.0084 -8.6535 33.3093 2.1492
# 2 18.8253 140.5416 48.6288 -37.1289 11.6460 -7.5958
# 3 21.0084 48.6288 90.4350 -12.4073 28.5366 2.7570
# 4 -8.6535 -37.1289 -12.4073 45.4336 6.0512 6.5720
# 5 33.3093 11.6460 28.5366 6.0512 36.2740 -7.5665
# 6 2.1492 -7.5958 2.7570 6.5720 -7.5665 42.7684
#
#
#
# Elastic Compliance Matrix: (Units=1/GPa)
#
#
# Indices 1 2 3 4 5 6 
#
# 1 0.015993 -0.000163 0.003965 0.007531 -0.020224 -0.005824
# 2 -0.000163 0.010809 -0.004495 0.007558 -0.000856 0.000905
# 3 0.003965 -0.004495 0.020093 0.006294 -0.020491 -0.006885
# 4 0.007531 0.007558 0.006294 0.035552 -0.022062 -0.008808
# 5 -0.020224 -0.000856 -0.020491 -0.022062 0.069959 0.017952
# 6 -0.005824 0.000905 -0.006885 -0.008808 0.017952 0.028809
#
#
# Mechanical properties :
#
#
# Convention : Reuss Voigt Hill
#
# Bulk Modulus (GPa) = 21.97379 56.93228 39.45304
# Shear Modulus (GPa) = 25.28177 41.36205 33.32191
#
# Velocity S-wave (km/s) = 3.25122 4.15857 3.73257
# Velocity P-wave (km/s) = 4.82507 6.84558 5.92213
#
# Compressibility (1/GPa) = 0.04550877
#
# Stress axis : x y z
#
# Youngs Moduli (GPa) = 62.52648 92.51597 49.76902
#
# Poissons Ratio (x) = 0.01512 -0.19734
# Poissons Ratio (y) = 0.01022 0.22370
# Poissons Ratio (z) = -0.24792 0.41583
#
# Static dielectric constant tensor:
#      x y z
#    x 1.968210 0.014590 -0.070980 
#    y 0.014590 1.998030 0.020060 
#    z -0.070980 0.020060 2.092860 
# 
# From -- ./inp_files/296775.got.cif
#   From: 2010.05.17/outbox.cif.g08.bks.cpg/sg2_149_cif.got.tgz:296775.got - 2010.06.03 11:33:40.
