data_PCOD9052804
_publ_section_title
;
Structure prediction by ZEFSAII (Michael W. Deem and Ramdas Pophale) SiO2 
 PCOD9052804
Probable space group: P -1
;
_chemical_formula_sum "Si O2"
_cell_formula_units_Z 13
_cell_length_a 7.570442
_cell_length_b 8.855097
_cell_length_c 14.140119
_cell_angle_alpha 139.081512
_cell_angle_beta 115.768775
_cell_angle_gamma 57.247415
_cell_volume 521.579674
_symmetry_space_group_name_H-M "P -1"
_symmetry_group_IT_number 2
_symmetry_cell_setting 'triclinic'
loop_
_space_group_symop_operation_xyz
x,y,z
-x,-y,-z
loop_
_atom_site_type_symbol
_atom_site_label
_atom_site_fract_x
_atom_site_fract_y
_atom_site_fract_z
Si Si1 0.040900 0.582220 0.943675
Si Si2 0.213907 0.274074 0.443194
Si Si3 0.322253 0.927903 0.976489
Si Si4 0.500000 0.500000 0.500000
Si Si5 0.349789 0.828160 0.152103
Si Si6 0.848216 0.265891 0.627763
Si Si7 0.559820 0.649020 0.299467
O O1 0.992529 0.401470 0.773113
O O2 0.891713 0.855406 0.001735
O O3 0.000000 0.500000 0.000000
O O4 0.267523 0.603899 0.016156
O O5 0.395959 0.337023 0.461482
O O6 0.298764 0.241011 0.553965
O O7 0.000000 0.500000 0.500000
O O8 0.178797 0.052519 0.275367
O O9 0.369867 0.920984 0.096293
O O10 0.339750 0.651070 0.821478
O O11 0.500000 0.000000 0.000000
O O12 0.709493 0.414752 0.578531
O O13 0.530949 0.758338 0.239538
O O14 0.671512 0.283752 0.675488
O O15 0.000000 0.000000 0.500000
#
# Coordination Sequence:
#
# PCOD9052804 Si02
#       7
#     2   2   2   1   2   2   2
#     4  12  25  49  78 115 157 208 269 327 414 487
#     4  11  26  48  82 114 163 212 271 335 415 482
#     4  12  25  48  75 105 158 203 266 335 398 483
#     4  10  26  50  76 118 160 212 272 330 406 484
#     4  12  26  49  74 117 159 209 271 333 406 492
#     4  11  25  48  80 114 163 211 266 334 411 488
#     4  11  25  50  74 118 156 213 270 331 411 485
#
# _framework density 24.924284
#
# number of rings (size 3 to 8) (size 9 to 14) (size 15 to 20)
#    0.000    0.615    3.077    3.231    4.308    3.692 
#   16.615    0.000    0.000    0.000    0.000    0.000 
#    0.000    0.000    0.000    0.000    0.000    0.000 
#
# Total GULP energy -72564.731456 kJ/mol
# GULP energy per Si atom -5581.902420 kJ/mol
# Density = 2.486755 g / cm^3
# Si number density = 24.924284 Si / 1000 Ang^3
#
#
#
# Elastic Constant Matrix: (Units=GPa)
#
#
# Indices 1 2 3 4 5 6 
#
# 1 62.7885 48.8773 43.9130 -22.2865 4.3394 0.0074
# 2 48.8773 195.1101 86.7272 -40.0530 -9.7456 23.2885
# 3 43.9130 86.7272 213.1737 -12.8973 -7.7085 -7.5063
# 4 -22.2865 -40.0530 -12.8973 61.4698 -9.7120 -1.5091
# 5 4.3394 -9.7456 -7.7085 -9.7120 40.1565 -6.3177
# 6 0.0074 23.2885 -7.5063 -1.5091 -6.3177 38.9070
#
#
#
# Elastic Compliance Matrix: (Units=1/GPa)
#
#
# Indices 1 2 3 4 5 6 
#
# 1 0.022752 -0.003694 -0.002931 0.004864 -0.002518 0.001421
# 2 -0.003694 0.008818 -0.002689 0.004056 0.002172 -0.005286
# 3 -0.002931 -0.002689 0.006459 -0.001215 0.001080 0.002984
# 4 0.004864 0.004056 -0.001215 0.021217 0.005200 -0.000996
# 5 -0.002518 0.002172 0.001080 0.005200 0.027735 0.003614
# 6 0.001421 -0.005286 0.002984 -0.000996 0.003614 0.029990
#
#
# Mechanical properties :
#
#
# Convention : Reuss Voigt Hill
#
# Bulk Modulus (GPa) = 51.53957 92.23413 71.88685
# Shear Modulus (GPa) = 35.19523 47.54365 41.36944
#
# Velocity S-wave (km/s) = 3.76185 4.37226 4.07849
# Velocity P-wave (km/s) = 6.29222 7.91043 7.14727
#
# Compressibility (1/GPa) = 0.01940257
#
# Stress axis : x y z
#
# Youngs Moduli (GPa) = 43.95230 113.40704 154.81764
#
# Poissons Ratio (x) = 0.41889 0.45374
# Poissons Ratio (y) = 0.16234 0.41627
# Poissons Ratio (z) = 0.12881 0.30492
#
# Static dielectric constant tensor:
#      x y z
#    x 1.864660 -0.125080 -0.102700 
#    y -0.125080 2.073930 0.008370 
#    z -0.102700 0.008370 1.978310 
# 
# From -- ./inp_files/490231.got.cif
#   From: 2010.05.17/outbox.cif.g08.bks.cpg/sg2_246_cif.got.tgz:490231.got - 2010.06.03 11:33:40.
