data_PCOD9052671
_publ_section_title
;
Structure prediction by ZEFSAII (Michael W. Deem and Ramdas Pophale) SiO2 
 PCOD9052671
Probable space group: P -1
;
_chemical_formula_sum "Si O2"
_cell_formula_units_Z 12
_cell_length_a 10.553563
_cell_length_b 8.812886
_cell_length_c 7.545935
_cell_angle_alpha 126.830555
_cell_angle_beta 93.190182
_cell_angle_gamma 105.992080
_cell_volume 517.298641
_symmetry_space_group_name_H-M "P -1"
_symmetry_group_IT_number 2
_symmetry_cell_setting 'triclinic'
loop_
_space_group_symop_operation_xyz
x,y,z
-x,-y,-z
loop_
_atom_site_type_symbol
_atom_site_label
_atom_site_fract_x
_atom_site_fract_y
_atom_site_fract_z
Si Si1 0.284103 0.873629 0.875329
Si Si2 0.927079 0.987068 0.172584
Si Si3 0.325083 0.450999 0.133658
Si Si4 0.217362 0.064814 0.363056
Si Si5 0.635928 0.100844 0.462397
Si Si6 0.615780 0.468332 0.221925
O O1 0.392315 0.979014 0.798031
O O2 0.317931 0.681430 0.799518
O O3 0.145591 0.849764 0.737542
O O4 0.264330 0.977953 0.129167
O O5 0.807932 0.759907 0.020416
O O6 0.056726 0.023920 0.332570
O O7 0.000000 0.000000 0.000000
O O8 0.315323 0.652691 0.362121
O O9 0.454802 0.416468 0.203930
O O10 0.360874 0.514809 0.976332
O O11 0.303073 0.306040 0.537840
O O12 0.257791 0.969194 0.472725
O O13 0.500000 0.000000 0.500000
#
# Coordination Sequence:
#
# PCOD9052671 Si02
#       6
#     2   2   2   2   2   2
#     4  11  27  46  74 109 147 190 245 301 361 434
#     4  10  26  48  72 107 151 191 247 297 359 441
#     4  11  25  48  74 111 149 192 245 302 367 434
#     4  11  25  52  72 107 149 192 244 297 366 433
#     4  12  26  47  75 111 148 190 244 305 367 431
#     4  11  25  47  80 107 144 196 245 304 368 424
#
# _framework density 23.197431000000002
#
# number of rings (size 3 to 8) (size 9 to 14) (size 15 to 20)
#    0.000    1.000    3.333    1.000    7.000    8.667 
#    3.000    0.000    0.000    0.000    0.000    0.000 
#    0.000    0.000    0.000    0.000    0.000    0.000 
#
# Total GULP energy -67116.438834 kJ/mol
# GULP energy per Si atom -5593.036569 kJ/mol
# Density = 2.314463 g / cm^3
# Si number density = 23.197431 Si / 1000 Ang^3
#
#
#
# Elastic Constant Matrix: (Units=GPa)
#
#
# Indices 1 2 3 4 5 6 
#
# 1 143.8966 90.0861 63.8558 12.0642 17.2609 -39.0315
# 2 90.0861 148.1393 68.0919 -11.9957 -8.5702 -32.8199
# 3 63.8558 68.0919 130.9486 7.4142 -4.3009 -21.2772
# 4 12.0642 -11.9957 7.4142 32.7055 9.9856 -15.5396
# 5 17.2609 -8.5702 -4.3009 9.9856 46.7719 -1.5802
# 6 -39.0315 -32.8199 -21.2772 -15.5396 -1.5802 63.0871
#
#
#
# Elastic Compliance Matrix: (Units=1/GPa)
#
#
# Indices 1 2 3 4 5 6 
#
# 1 0.015087 -0.008035 -0.002638 -0.004609 -0.006198 0.002974
# 2 -0.008035 0.015467 -0.003892 0.010625 0.003324 0.004463
# 3 -0.002638 -0.003892 0.011106 -0.004020 0.002111 -0.000848
# 4 -0.004609 0.010625 -0.004020 0.044652 -0.005844 0.012172
# 5 -0.006198 0.003324 0.002111 -0.005844 0.025645 -0.002191
# 6 0.002974 0.004463 -0.000848 0.012172 -0.002191 0.022670
#
#
# Mechanical properties :
#
#
# Convention : Reuss Voigt Hill
#
# Bulk Modulus (GPa) = 79.80985 96.33912 88.07449
# Shear Modulus (GPa) = 29.77388 41.90962 35.84175
#
# Velocity S-wave (km/s) = 3.58648 4.25508 3.93501
# Velocity P-wave (km/s) = 7.18539 8.10933 7.66130
#
# Compressibility (1/GPa) = 0.01252978
#
# Stress axis : x y z
#
# Youngs Moduli (GPa) = 66.28218 64.65504 90.04262
#
# Poissons Ratio (x) = 0.51949 0.23757
# Poissons Ratio (y) = 0.53257 0.35041
# Poissons Ratio (z) = 0.17488 0.25161
#
# Static dielectric constant tensor:
#      x y z
#    x 1.972540 0.008740 -0.018410 
#    y 0.008740 1.885170 -0.080340 
#    z -0.018410 -0.080340 1.944860 
# 
# From -- ./inp_files/233007.got.cif
#   From: 2010.05.17/outbox.cif.g08.bks.cpg/sg2_117_cif.got.tgz:233007.got - 2010.06.03 11:33:40.
