data_PCOD9052388
_publ_section_title
;
Structure prediction by ZEFSAII (Michael W. Deem and Ramdas Pophale) SiO2 
 PCOD9052388
Probable space group: P -1
;
_chemical_formula_sum "Si O2"
_cell_formula_units_Z 16
_cell_length_a 21.758703
_cell_length_b 6.006905
_cell_length_c 14.061466
_cell_angle_alpha 100.986971
_cell_angle_beta 156.505458
_cell_angle_gamma 68.206671
_cell_volume 622.048001
_symmetry_space_group_name_H-M "P -1"
_symmetry_group_IT_number 2
_symmetry_cell_setting 'triclinic'
loop_
_space_group_symop_operation_xyz
x,y,z
-x,-y,-z
loop_
_atom_site_type_symbol
_atom_site_label
_atom_site_fract_x
_atom_site_fract_y
_atom_site_fract_z
Si Si1 0.128474 0.420358 0.948084
Si Si2 0.063718 0.032935 0.740500
Si Si3 0.146162 0.023609 0.316997
Si Si4 0.604427 0.464742 0.746819
Si Si5 0.388022 0.465315 0.620762
Si Si6 0.482034 0.062382 0.868808
Si Si7 0.862983 0.806263 0.340034
Si Si8 0.816235 0.761516 0.785715
O O1 0.001947 0.325850 0.712869
O O2 0.289217 0.378414 0.105279
O O3 0.206191 0.237924 0.135433
O O4 0.025077 0.719416 0.864533
O O5 0.135447 0.036150 0.737470
O O6 0.000000 0.500000 0.500000
O O7 0.923078 0.932004 0.521037
O O8 0.232107 0.827022 0.023838
O O9 0.201889 0.731296 0.400637
O O10 0.309115 0.054438 0.589969
O O11 0.160543 0.026137 0.222485
O O12 0.500000 0.500000 0.500000
O O13 0.491430 0.528331 0.689897
O O14 0.470252 0.324422 0.826461
O O15 0.342494 0.265816 0.486488
O O16 0.500000 0.000000 0.000000
O O17 0.670870 0.839003 0.080218
O O18 0.000000 0.500000 0.000000
#
# Coordination Sequence:
#
# PCOD9052388 Si02
#       8
#     2   2   2   2   2   2   2   2
#     4  11  25  45  71 112 149 196 257 296 371 451
#     4  11  27  46  78 106 150 194 250 310 380 452
#     4  10  26  45  74 105 151 195 244 308 370 450
#     4  12  26  44  75 112 150 200 251 315 369 452
#     4  11  24  49  71 109 148 196 252 305 388 435
#     4  11  27  50  73 106 142 189 250 317 376 450
#     4  11  26  52  78 105 147 194 250 313 384 445
#     4   9  21  43  66 103 149 199 238 301 362 437
#
# _framework density 25.721485000000001
#
# number of rings (size 3 to 8) (size 9 to 14) (size 15 to 20)
#    0.000    1.250    2.500    0.750    8.750    6.000 
#    0.000    0.000    0.000    0.000    0.000    0.000 
#    0.000    0.000    0.000    0.000    0.000    0.000 
#
# Total GULP energy -89402.668421 kJ/mol
# GULP energy per Si atom -5587.666776 kJ/mol
# Density = 2.566294 g / cm^3
# Si number density = 25.721485 Si / 1000 Ang^3
#
#
#
# Elastic Constant Matrix: (Units=GPa)
#
#
# Indices 1 2 3 4 5 6 
#
# 1 122.1973 56.7558 38.5006 -2.5140 -23.5630 38.5343
# 2 56.7558 102.6437 34.1990 -0.7826 -8.0309 3.9072
# 3 38.5006 34.1990 92.6917 -17.2767 -14.7155 16.5889
# 4 -2.5140 -0.7826 -17.2767 53.9279 9.8739 -0.3336
# 5 -23.5630 -8.0309 -14.7155 9.8739 41.9337 -2.5974
# 6 38.5343 3.9072 16.5889 -0.3336 -2.5974 48.9151
#
#
#
# Elastic Compliance Matrix: (Units=1/GPa)
#
#
# Indices 1 2 3 4 5 6 
#
# 1 0.017861 -0.008469 -0.001037 -0.001078 0.007521 -0.012650
# 2 -0.008469 0.015255 -0.003873 -0.000902 -0.002574 0.006624
# 3 -0.001037 -0.003873 0.014455 0.004033 0.002575 -0.003612
# 4 -0.001078 -0.000902 0.004033 0.020544 -0.004233 -0.000531
# 5 0.007521 -0.002574 0.002575 -0.004233 0.029166 -0.005072
# 6 -0.012650 0.006624 -0.003612 -0.000531 -0.005072 0.030832
#
#
# Mechanical properties :
#
#
# Convention : Reuss Voigt Hill
#
# Bulk Modulus (GPa) = 48.04601 64.04927 56.04764
# Shear Modulus (GPa) = 30.90079 41.49384 36.19732
#
# Velocity S-wave (km/s) = 3.46983 4.02082 3.75544
# Velocity P-wave (km/s) = 5.89685 6.81991 6.37511
#
# Compressibility (1/GPa) = 0.02081338
#
# Stress axis : x y z
#
# Youngs Moduli (GPa) = 55.98862 65.55155 69.18056
#
# Poissons Ratio (x) = 0.55514 0.07174
# Poissons Ratio (y) = 0.47415 0.26794
# Poissons Ratio (z) = 0.05806 0.25388
#
# Static dielectric constant tensor:
#      x y z
#    x 2.053800 0.004570 -0.053100 
#    y 0.004570 2.097530 0.007320 
#    z -0.053100 0.007320 2.046250 
# 
# From -- ./inp_files/579467.got.cif
#   From: 2010.05.17/outbox.cif.g08.bks.cpg/sg2_290_cif.got.tgz:579467.got - 2010.06.03 11:33:40.
