data_PCOD9052234
_publ_section_title
;
Structure prediction by ZEFSAII (Michael W. Deem and Ramdas Pophale) SiO2 
 PCOD9052234
Probable space group: P -1
;
_chemical_formula_sum "Si O2"
_cell_formula_units_Z 15
_cell_length_a 22.343967
_cell_length_b 11.739190
_cell_length_c 6.534940
_cell_angle_alpha 108.845570
_cell_angle_beta 113.918091
_cell_angle_gamma 25.722740
_cell_volume 676.203768
_symmetry_space_group_name_H-M "P -1"
_symmetry_group_IT_number 2
_symmetry_cell_setting 'triclinic'
loop_
_space_group_symop_operation_xyz
x,y,z
-x,-y,-z
loop_
_atom_site_type_symbol
_atom_site_label
_atom_site_fract_x
_atom_site_fract_y
_atom_site_fract_z
Si Si1 0.081913 0.491758 0.665020
Si Si2 0.567258 0.291132 0.819119
Si Si3 0.572593 0.645021 0.638483
Si Si4 0.104468 0.831681 0.240873
Si Si5 0.500000 0.000000 0.500000
Si Si6 0.098964 0.220696 0.046571
Si Si7 0.028244 0.757033 0.398856
Si Si8 0.397288 0.989833 0.001014
O O1 0.110456 0.529298 0.529163
O O2 0.233199 0.241524 0.844297
O O3 0.000000 0.500000 0.500000
O O4 0.971821 0.720415 0.814837
O O5 0.475428 0.403088 0.557480
O O6 0.733619 0.032567 0.832313
O O7 0.500000 0.500000 0.000000
O O8 0.573515 0.168025 0.903868
O O9 0.742071 0.376266 0.742110
O O10 0.529160 0.818976 0.519153
O O11 0.494679 0.807462 0.832740
O O12 0.112677 0.692918 0.302880
O O13 0.043136 0.028338 0.430347
O O14 0.000000 0.000000 0.000000
O O15 0.566467 0.949703 0.786042
O O16 0.000000 0.500000 0.000000
O O17 0.086049 0.142090 0.808095
#
# Coordination Sequence:
#
# PCOD9052234 Si02
#       8
#     2   2   2   2   1   2   2   2
#     4  12  24  42  73 110 146 185 247 307 372 432
#     4  11  25  46  71 103 152 192 242 305 371 443
#     4  11  26  44  72 103 142 189 244 299 375 435
#     4  11  27  49  70 104 145 196 245 299 366 447
#     4  10  26  44  66 102 142 184 238 292 370 430
#     4  12  23  43  72 108 143 190 243 304 368 436
#     4  11  26  44  73 104 145 187 246 300 364 435
#     4  11  25  44  70 106 144 191 243 307 370 439
#
# _framework density 22.182663999999999
#
# number of rings (size 3 to 8) (size 9 to 14) (size 15 to 20)
#    0.000    0.800    2.667    2.800    5.600    6.933 
#    0.000    0.000    0.000    0.000    0.000    0.000 
#    0.000    0.000    0.000    0.000    0.000    0.000 
#
# Total GULP energy -83501.112756 kJ/mol
# GULP energy per Si atom -5566.740850 kJ/mol
# Density = 2.213217 g / cm^3
# Si number density = 22.182664 Si / 1000 Ang^3
#
#
#
# Elastic Constant Matrix: (Units=GPa)
#
#
# Indices 1 2 3 4 5 6 
#
# 1 69.7233 65.6946 56.5562 -20.3363 27.3635 6.7010
# 2 65.6946 95.6092 86.6968 11.7372 7.4238 -51.4238
# 3 56.5562 86.6968 178.8583 -7.4621 37.0319 1.6763
# 4 -20.3363 11.7372 -7.4621 15.1674 12.8457 11.5927
# 5 27.3635 7.4238 37.0319 12.8457 29.5902 -11.1033
# 6 6.7010 -51.4238 1.6763 11.5927 -11.1033 18.5136
#
#
#
# Elastic Compliance Matrix: (Units=1/GPa)
#
#
# Indices 1 2 3 4 5 6 
#
# 1 0.012437 0.005085 -0.007067 -0.002577 0.002119 0.013146
# 2 0.005085 0.005485 -0.001098 0.014677 -0.012207 -0.003017
# 3 -0.007067 -0.001098 0.008270 -0.005185 -0.000692 0.001589
# 4 -0.002577 0.014677 -0.005185 0.031471 -0.000056 0.022429
# 5 0.002119 -0.012207 -0.000692 -0.000056 0.029441 -0.016919
# 6 0.013146 -0.003017 0.001589 0.022429 -0.016919 0.016541
#
#
# Mechanical properties :
#
#
# Convention : Reuss Voigt Hill
#
# Bulk Modulus (GPa) = 49.92253 84.67622 67.29937
# Shear Modulus (GPa) = 42.92474 21.67045 32.29760
#
# Velocity S-wave (km/s) = 4.40370 3.12895 3.81988
# Velocity P-wave (km/s) = 6.95779 7.16302 7.06115
#
# Compressibility (1/GPa) = 0.02003104
#
# Stress axis : x y z
#
# Youngs Moduli (GPa) = 80.40399 182.31834 120.91775
#
# Poissons Ratio (x) = -0.92700 0.85449
# Poissons Ratio (y) = -0.40882 0.13282
# Poissons Ratio (z) = 0.56819 0.20026
#
# Static dielectric constant tensor:
#      x y z
#    x 1.852750 0.049940 0.014220 
#    y 0.049940 1.825520 0.005710 
#    z 0.014220 0.005710 1.885060 
# 
# From -- ./inp_files/118802.got.cif
#   From: 2010.05.17/outbox.cif.g08.bks.cpg/sg2_60_cif.got.tgz:118802.got - 2010.06.03 11:33:40.
