data_PCOD9052343
_publ_section_title
;
Structure prediction by ZEFSAII (Michael W. Deem and Ramdas Pophale) SiO2 
 PCOD9052343
Probable space group: P -1
;
_chemical_formula_sum "Si O2"
_cell_formula_units_Z 15
_cell_length_a 5.670682
_cell_length_b 12.381476
_cell_length_c 12.464125
_cell_angle_alpha 135.713692
_cell_angle_beta 86.083164
_cell_angle_gamma 100.429830
_cell_volume 598.556076
_symmetry_space_group_name_H-M "P -1"
_symmetry_group_IT_number 2
_symmetry_cell_setting 'triclinic'
loop_
_space_group_symop_operation_xyz
x,y,z
-x,-y,-z
loop_
_atom_site_type_symbol
_atom_site_label
_atom_site_fract_x
_atom_site_fract_y
_atom_site_fract_z
Si Si1 0.031157 0.852499 0.818663
Si Si2 0.253541 0.478956 0.420201
Si Si3 0.834713 0.998480 0.288736
Si Si4 0.095965 0.792535 0.261127
Si Si5 0.347804 0.442409 0.857046
Si Si6 0.500000 0.000000 0.000000
Si Si7 0.622520 0.249696 0.567685
Si Si8 0.551196 0.222032 0.956393
O O1 0.997767 0.889869 0.721135
O O2 0.315589 0.863407 0.833813
O O3 0.831552 0.701552 0.747344
O O4 0.000000 0.000000 0.000000
O O5 0.500000 0.500000 0.500000
O O6 0.297324 0.607604 0.415843
O O7 0.000000 0.500000 0.500000
O O8 0.616892 0.087604 0.388886
O O9 0.973497 0.939625 0.340283
O O10 0.724299 0.839436 0.114214
O O11 0.908165 0.631218 0.142331
O O12 0.190297 0.778549 0.367095
O O13 0.293886 0.791974 0.163688
O O14 0.417551 0.301039 0.683452
O O15 0.500000 0.500000 0.000000
O O16 0.381910 0.594310 0.887452
O O17 0.586915 0.106285 0.967561
#
# Coordination Sequence:
#
# PCOD9052343 Si02
#       8
#     2   2   2   2   2   1   2   2
#     4  11  26  47  79 117 159 221 276 349 417 503
#     4  12  31  56  84 121 175 224 282 351 429 514
#     4  11  25  49  71 113 157 205 270 334 419 494
#     4  12  25  45  79 106 156 206 275 331 412 492
#     4  12  26  47  72 112 153 206 261 340 405 496
#     4  10  26  44  80 116 156 208 278 338 430 482
#     4  12  29  47  79 112 158 212 269 337 422 496
#     4  11  25  47  75 109 158 200 275 337 413 496
#
# _framework density 25.060310999999999
#
# number of rings (size 3 to 8) (size 9 to 14) (size 15 to 20)
#    0.000    0.533    4.000    1.600    9.333    4.267 
#    0.000    0.000    0.000    0.000    0.000    0.000 
#    0.000    0.000    0.000    0.000    0.000    0.000 
#
# Total GULP energy -83554.358195 kJ/mol
# GULP energy per Si atom -5570.290546 kJ/mol
# Density = 2.500327 g / cm^3
# Si number density = 25.060311 Si / 1000 Ang^3
#
#
#
# Elastic Constant Matrix: (Units=GPa)
#
#
# Indices 1 2 3 4 5 6 
#
# 1 71.3618 61.1212 32.6955 3.1275 1.5827 -0.2875
# 2 61.1212 201.4706 43.3848 -10.4846 17.4714 -12.8187
# 3 32.6955 43.3848 93.0220 8.9508 -4.8805 -11.3515
# 4 3.1275 -10.4846 8.9508 51.8768 -5.7019 4.9344
# 5 1.5827 17.4714 -4.8805 -5.7019 43.1933 2.4160
# 6 -0.2875 -12.8187 -11.3515 4.9344 2.4160 29.1010
#
#
#
# Elastic Compliance Matrix: (Units=1/GPa)
#
#
# Indices 1 2 3 4 5 6 
#
# 1 0.021334 -0.005778 -0.005168 -0.001039 0.001073 -0.004263
# 2 -0.005778 0.007537 -0.001461 0.001545 -0.002948 0.002676
# 3 -0.005168 -0.001461 0.014235 -0.002742 0.001737 0.005178
# 4 -0.001039 0.001545 -0.002742 0.020741 0.002070 -0.004088
# 5 0.001073 -0.002948 0.001737 0.002070 0.024944 -0.003032
# 6 -0.004263 0.002676 0.005178 -0.004088 -0.003032 0.038464
#
#
# Mechanical properties :
#
#
# Convention : Reuss Voigt Hill
#
# Bulk Modulus (GPa) = 54.66738 71.13971 62.90355
# Shear Modulus (GPa) = 31.61223 40.07776 35.84500
#
# Velocity S-wave (km/s) = 3.55554 4.00340 3.78610
# Velocity P-wave (km/s) = 6.22234 7.05824 6.65343
#
# Compressibility (1/GPa) = 0.01829244
#
# Stress axis : x y z
#
# Youngs Moduli (GPa) = 46.87365 132.67320 70.24929
#
# Poissons Ratio (x) = 0.76654 0.36303
# Poissons Ratio (y) = 0.27082 0.10267
# Poissons Ratio (z) = 0.24223 0.19389
#
# Static dielectric constant tensor:
#      x y z
#    x 2.012780 -0.104260 -0.127650 
#    y -0.104260 1.942260 0.034310 
#    z -0.127650 0.034310 2.149800 
# 
# From -- ./inp_files/365432.got.cif
#   From: 2010.05.17/outbox.cif.g08.bks.cpg/sg2_183_cif.got.tgz:365432.got - 2010.06.03 11:33:40.
