data_PCOD9052809
_publ_section_title
;
Structure prediction by ZEFSAII (Michael W. Deem and Ramdas Pophale) SiO2 
 PCOD9052809
Probable space group: P -1
;
_chemical_formula_sum "Si O2"
_cell_formula_units_Z 14
_cell_length_a 18.647876
_cell_length_b 15.760783
_cell_length_c 8.288478
_cell_angle_alpha 50.844648
_cell_angle_beta 138.099523
_cell_angle_gamma 156.618650
_cell_volume 633.190315
_symmetry_space_group_name_H-M "P -1"
_symmetry_group_IT_number 2
_symmetry_cell_setting 'triclinic'
loop_
_space_group_symop_operation_xyz
x,y,z
-x,-y,-z
loop_
_atom_site_type_symbol
_atom_site_label
_atom_site_fract_x
_atom_site_fract_y
_atom_site_fract_z
Si Si1 0.302525 0.031278 0.792383
Si Si2 0.687455 0.512472 0.866297
Si Si3 0.337317 0.921711 0.703110
Si Si4 0.116941 0.255859 0.410731
Si Si5 0.603344 0.313857 0.446223
Si Si6 0.425646 0.353719 0.912982
Si Si7 0.285302 0.681580 0.694685
O O1 0.122294 0.930661 0.712975
O O2 0.470317 0.268690 0.719414
O O3 0.208938 0.880168 0.668686
O O4 0.459227 0.099232 0.089839
O O5 0.831374 0.689390 0.757620
O O6 0.591665 0.501353 0.863073
O O7 0.799551 0.505478 0.142851
O O8 0.471221 0.120868 0.575733
O O9 0.216451 0.729078 0.618103
O O10 0.500000 0.000000 0.000000
O O11 0.249685 0.471494 0.464995
O O12 0.205022 0.215851 0.660512
O O13 0.448912 0.254654 0.149058
O O14 0.725052 0.343281 0.484373
O O15 0.500000 0.500000 0.000000
#
# Coordination Sequence:
#
# PCOD9052809 Si02
#       7
#     2   2   2   2   2   2   2
#     4   9  20  34  56  84 109 137 199 215 258 333
#     4   9  18  37  56  76 114 142 178 221 272 314
#     4  10  17  35  58  79 108 148 181 222 278 326
#     4  11  19  35  59  81 109 147 186 223 259 324
#     4  10  18  35  56  78 114 146 175 228 279 315
#     4   9  20  34  57  81 110 147 180 217 279 324
#     4   8  18  35  55  79 112 146 177 224 279 321
#
# _framework density 22.110256
#
# number of rings (size 3 to 8) (size 9 to 14) (size 15 to 20)
#    0.857    1.714    1.429    0.857    0.000    0.571 
#    0.000   12.143    0.000    0.000    0.000    0.000 
#    0.000    0.000    0.000    0.000    0.000    0.000 
#
# Total GULP energy -78017.794328 kJ/mol
# GULP energy per Si atom -5572.699595 kJ/mol
# Density = 2.205993 g / cm^3
# Si number density = 22.110256 Si / 1000 Ang^3
#
#
#
# Elastic Constant Matrix: (Units=GPa)
#
#
# Indices 1 2 3 4 5 6 
#
# 1 158.1540 24.1002 33.8376 0.1481 -16.0364 -21.9387
# 2 24.1002 51.0141 20.0323 -3.1186 -3.9674 -2.8917
# 3 33.8376 20.0323 57.7132 -11.8075 -10.7725 16.1855
# 4 0.1481 -3.1186 -11.8075 18.6416 0.8414 -8.5449
# 5 -16.0364 -3.9674 -10.7725 0.8414 28.5702 2.8430
# 6 -21.9387 -2.8917 16.1855 -8.5449 2.8430 47.2278
#
#
#
# Elastic Compliance Matrix: (Units=1/GPa)
#
#
# Indices 1 2 3 4 5 6 
#
# 1 0.008889 -0.001322 -0.006394 -0.001764 0.001869 0.005808
# 2 -0.001322 0.023820 -0.008753 0.000323 -0.001139 0.003971
# 3 -0.006394 -0.008753 0.031709 0.012538 0.008035 -0.012588
# 4 -0.001764 0.000323 0.012538 0.064583 0.001232 0.006515
# 5 0.001869 -0.001139 0.008035 0.001232 0.039294 -0.004098
# 6 0.005808 0.003971 -0.012588 0.006515 -0.004098 0.029855
#
#
# Mechanical properties :
#
#
# Convention : Reuss Voigt Hill
#
# Bulk Modulus (GPa) = 31.76521 46.98016 39.37269
# Shear Modulus (GPa) = 20.69687 31.48199 26.08943
#
# Velocity S-wave (km/s) = 3.06285 3.77751 3.43880
# Velocity P-wave (km/s) = 5.18710 6.34983 5.79769
#
# Compressibility (1/GPa) = 0.03148098
#
# Stress axis : x y z
#
# Youngs Moduli (GPa) = 112.49627 41.98068 31.53646
#
# Poissons Ratio (x) = 0.05550 0.20163
# Poissons Ratio (y) = 0.14872 0.27605
# Poissons Ratio (z) = 0.71926 0.36747
#
# Static dielectric constant tensor:
#      x y z
#    x 1.843200 -0.046830 0.025610 
#    y -0.046830 1.837020 0.049300 
#    z 0.025610 0.049300 1.832040 
# 
# From -- ./inp_files/334200.got.cif
#   From: 2010.05.17/outbox.cif.g08.bks.cpg/sg2_168_cif.got.tgz:334200.got - 2010.06.03 11:33:40.
