data_PCOD9052827
_publ_section_title
;
Structure prediction by ZEFSAII (Michael W. Deem and Ramdas Pophale) SiO2 
 PCOD9052827
Probable space group: P -1
;
_chemical_formula_sum "Si O2"
_cell_formula_units_Z 14
_cell_length_a 13.390999
_cell_length_b 13.733497
_cell_length_c 24.111509
_cell_angle_alpha 24.296118
_cell_angle_beta 158.395937
_cell_angle_gamma 158.812664
_cell_volume 556.051180
_symmetry_space_group_name_H-M "P -1"
_symmetry_group_IT_number 2
_symmetry_cell_setting 'triclinic'
loop_
_space_group_symop_operation_xyz
x,y,z
-x,-y,-z
loop_
_atom_site_type_symbol
_atom_site_label
_atom_site_fract_x
_atom_site_fract_y
_atom_site_fract_z
Si Si1 0.087855 0.616990 0.824322
Si Si2 0.153522 0.000722 0.521488
Si Si3 0.724069 0.053175 0.852757
Si Si4 0.694170 0.587410 0.857593
Si Si5 0.843313 0.624298 0.468347
Si Si6 0.559346 0.019009 0.586916
Si Si7 0.248418 0.082724 0.819591
O O1 0.886499 0.765359 0.651730
O O2 0.895103 0.345778 0.824484
O O3 0.443526 0.820121 0.871927
O O4 0.150667 0.534909 0.959839
O O5 0.501780 0.049381 0.689092
O O6 0.000000 0.000000 0.500000
O O7 0.890519 0.684618 0.525707
O O8 0.000000 0.000000 0.000000
O O9 0.344264 0.328795 0.787439
O O10 0.676886 0.814389 0.767797
O O11 0.910195 0.786882 0.813740
O O12 0.762703 0.333746 0.552453
O O13 0.662620 0.747867 0.279960
O O14 0.208376 0.868798 0.510659
O O15 0.500000 0.000000 0.500000
O O16 0.500000 0.000000 0.000000
#
# Coordination Sequence:
#
# PCOD9052827 Si02
#       7
#     2   2   2   2   2   2   2
#     4  11  25  48  75 105 148 198 244 306 381 439
#     4  10  26  51  77 107 146 195 254 311 367 441
#     4  11  25  48  75 110 146 187 254 317 373 440
#     4  12  25  44  70 103 153 187 236 304 364 444
#     4  12  25  44  75 104 143 193 243 298 367 432
#     4  12  24  46  70 106 147 190 239 296 369 437
#     4  12  24  42  69 105 144 190 243 297 360 446
#
# _framework density 25.177538999999999
#
# number of rings (size 3 to 8) (size 9 to 14) (size 15 to 20)
#    0.000    0.571    2.857    4.286    2.000    6.857 
#    0.000    0.000    0.000    0.000    0.000    0.000 
#    0.000    0.000    0.000    0.000    0.000    0.000 
#
# Total GULP energy -78258.790432 kJ/mol
# GULP energy per Si atom -5589.913602 kJ/mol
# Density = 2.512023 g / cm^3
# Si number density = 25.177539 Si / 1000 Ang^3
#
#
#
# Elastic Constant Matrix: (Units=GPa)
#
#
# Indices 1 2 3 4 5 6 
#
# 1 74.8673 58.6297 7.3928 -10.9568 0.9114 -20.1406
# 2 58.6297 105.1096 129.5601 2.7181 -1.9791 -40.0970
# 3 7.3928 129.5601 19.6579 -26.1703 4.1359 12.5975
# 4 -10.9568 2.7181 -26.1703 29.6101 1.8413 7.6333
# 5 0.9114 -1.9791 4.1359 1.8413 51.6904 1.3879
# 6 -20.1406 -40.0970 12.5975 7.6333 1.3879 55.3985
#
#
#
# Elastic Compliance Matrix: (Units=1/GPa)
#
#
# Indices 1 2 3 4 5 6 
#
# 1 0.016179 -0.000772 -0.004731 0.000242 -0.000116 0.006368
# 2 -0.000772 0.000530 0.006786 0.006296 -0.000672 -0.002291
# 3 -0.004731 0.006786 -0.001907 -0.005210 0.000565 0.004329
# 4 0.000242 0.006296 -0.005210 0.028200 -0.000403 0.001954
# 5 -0.000116 -0.000672 0.000565 -0.000403 0.019321 -0.001085
# 6 0.006368 -0.002291 0.004329 0.001954 -0.001085 0.017482
#
#
# Mechanical properties :
#
#
# Convention : Reuss Voigt Hill
#
# Bulk Modulus (GPa) = 57.57442 65.64445 61.60944
# Shear Modulus (GPa) = 60.22095 27.60995 43.91545
#
# Velocity S-wave (km/s) = 4.89596 3.31510 4.18093
# Velocity P-wave (km/s) = 7.40794 6.38611 6.91593
#
# Compressibility (1/GPa) = 0.01736882
#
# Stress axis : x y z
#
# Youngs Moduli (GPa) = 61.80943 1885.75553 -524.40028
#
# Poissons Ratio (x) = 1.45593 -2.48087
# Poissons Ratio (y) = 0.04772 3.55874
# Poissons Ratio (z) = 0.29241 -12.79730
#
# Static dielectric constant tensor:
#      x y z
#    x 1.794320 -0.195910 0.037780 
#    y -0.195910 1.742510 0.074670 
#    z 0.037780 0.074670 2.068210 
# 
# From -- ./inp_files/619630.got.cif
#   From: 2010.05.17/outbox.cif.g08.bks.cpg/sg2_310_cif.got.tgz:619630.got - 2010.06.03 11:33:40.
