data_PCOD9052774
_publ_section_title
;
Structure prediction by ZEFSAII (Michael W. Deem and Ramdas Pophale) SiO2 
 PCOD9052774
Probable space group: P -1
;
_chemical_formula_sum "Si O2"
_cell_formula_units_Z 16
_cell_length_a 5.300256
_cell_length_b 19.073682
_cell_length_c 15.497819
_cell_angle_alpha 154.267245
_cell_angle_beta 88.738268
_cell_angle_gamma 83.600333
_cell_volume 648.222118
_symmetry_space_group_name_H-M "P -1"
_symmetry_group_IT_number 2
_symmetry_cell_setting 'triclinic'
loop_
_space_group_symop_operation_xyz
x,y,z
-x,-y,-z
loop_
_atom_site_type_symbol
_atom_site_label
_atom_site_fract_x
_atom_site_fract_y
_atom_site_fract_z
Si Si1 0.359036 0.646799 0.006897
Si Si2 0.804417 0.707579 0.782375
Si Si3 0.293591 0.907397 0.432380
Si Si4 0.267142 0.938597 0.783171
Si Si5 0.954751 0.997662 0.688615
Si Si6 0.255480 0.293131 0.582770
Si Si7 0.670542 0.312170 0.350861
Si Si8 0.204338 0.498187 0.290607
O O1 0.266239 0.476942 0.821338
O O2 0.634113 0.593684 0.894240
O O3 0.377313 0.720465 0.183592
O O4 0.188236 0.814566 0.140177
O O5 0.589369 0.654685 0.667940
O O6 0.900965 0.617185 0.772528
O O7 0.064152 0.689144 0.703209
O O8 0.643931 0.897034 0.020465
O O9 0.231210 0.928326 0.556979
O O10 0.500000 0.000000 0.500000
O O11 0.000000 0.000000 0.500000
O O12 0.009757 0.003720 0.796516
O O13 0.477711 0.798885 0.571250
O O14 0.250376 0.865592 0.796265
O O15 0.815700 0.847821 0.512825
O O16 0.025648 0.345748 0.570607
O O17 0.615506 0.441051 0.575183
#
# Coordination Sequence:
#
# PCOD9052774 Si02
#       8
#     2   2   2   2   2   2   2   2
#     4  11  26  48  81 110 152 202 246 315 378 457
#     4  12  29  44  76 102 146 207 253 314 386 435
#     4  10  26  49  79 119 154 193 255 309 371 456
#     4  12  26  47  72 107 151 196 255 311 380 452
#     4  11  26  48  81 110 152 202 246 315 378 457
#     4  12  25  47  76 113 152 200 257 308 374 462
#     4  12  26  48  70 107 150 193 256 322 370 450
#     4  12  26  47  72 107 151 196 255 311 380 452
#
# _framework density 24.682896
#
# number of rings (size 3 to 8) (size 9 to 14) (size 15 to 20)
#    0.000    0.500    2.500    3.750   14.000    0.500 
#    0.000    2.500    0.000    0.000    0.000    0.000 
#    0.000    0.000    0.000    0.000    0.000    0.000 
#
# Total GULP energy -89441.795320 kJ/mol
# GULP energy per Si atom -5590.112207 kJ/mol
# Density = 2.462672 g / cm^3
# Si number density = 24.682896 Si / 1000 Ang^3
#
#
#
# Elastic Constant Matrix: (Units=GPa)
#
#
# Indices 1 2 3 4 5 6 
#
# 1 118.0857 37.2620 22.9621 8.3862 -2.3921 11.6657
# 2 37.2620 82.2804 2.7456 15.3273 -9.2998 10.6633
# 3 22.9621 2.7456 114.3543 26.4673 13.0985 1.4194
# 4 8.3862 15.3273 26.4673 30.6332 8.5851 6.7081
# 5 -2.3921 -9.2998 13.0985 8.5851 34.9620 4.3755
# 6 11.6657 10.6633 1.4194 6.7081 4.3755 44.2568
#
#
#
# Elastic Compliance Matrix: (Units=1/GPa)
#
#
# Indices 1 2 3 4 5 6 
#
# 1 0.010500 -0.004800 -0.002449 0.002021 0.000094 -0.001848
# 2 -0.004800 0.017181 0.002316 -0.010599 0.006222 -0.001957
# 3 -0.002449 0.002316 0.011784 -0.010553 -0.001558 0.001463
# 4 0.002021 -0.010599 -0.010553 0.050403 -0.010574 -0.004235
# 5 0.000094 0.006222 -0.001558 -0.010574 0.033847 -0.003217
# 6 -0.001848 -0.001957 0.001463 -0.004235 -0.003217 0.024467
#
#
# Mechanical properties :
#
#
# Convention : Reuss Voigt Hill
#
# Bulk Modulus (GPa) = 33.78396 48.96218 41.37307
# Shear Modulus (GPa) = 29.77720 38.75379 34.26549
#
# Velocity S-wave (km/s) = 3.47708 3.96671 3.72994
# Velocity P-wave (km/s) = 5.46233 6.39212 5.94543
#
# Compressibility (1/GPa) = 0.02959985
#
# Stress axis : x y z
#
# Youngs Moduli (GPa) = 95.23680 58.20334 84.86266
#
# Poissons Ratio (x) = 0.27936 0.20781
# Poissons Ratio (y) = 0.45711 -0.19654
# Poissons Ratio (z) = 0.23322 -0.13480
#
# Static dielectric constant tensor:
#      x y z
#    x 2.013230 -0.028060 0.108490 
#    y -0.028060 2.045910 0.036440 
#    z 0.108490 0.036440 2.032050 
# 
# From -- ./inp_files/485306.got.cif
#   From: 2010.05.17/outbox.cif.g08.bks.cpg/sg2_243_cif.got.tgz:485306.got - 2010.06.03 11:33:40.
