data_PCOD9052208
_publ_section_title
;
Structure prediction by ZEFSAII (Michael W. Deem and Ramdas Pophale) SiO2 
 PCOD9052208
Probable space group: P -1
;
_chemical_formula_sum "Si O2"
_cell_formula_units_Z 14
_cell_length_a 12.049745
_cell_length_b 12.179865
_cell_length_c 7.162740
_cell_angle_alpha 85.708875
_cell_angle_beta 76.364765
_cell_angle_gamma 143.574186
_cell_volume 539.129280
_symmetry_space_group_name_H-M "P -1"
_symmetry_group_IT_number 2
_symmetry_cell_setting 'triclinic'
loop_
_space_group_symop_operation_xyz
x,y,z
-x,-y,-z
loop_
_atom_site_type_symbol
_atom_site_label
_atom_site_fract_x
_atom_site_fract_y
_atom_site_fract_z
Si Si1 0.011935 0.603558 0.824893
Si Si2 0.665542 0.033893 0.900594
Si Si3 0.994050 0.027016 0.282998
Si Si4 0.587420 0.948656 0.508803
Si Si5 0.261943 0.457495 0.200392
Si Si6 0.303455 0.158110 0.885148
Si Si7 0.861945 0.502000 0.396093
O O1 0.084503 0.731157 0.190700
O O2 0.184527 0.844482 0.716231
O O3 0.781744 0.475847 0.929874
O O4 0.000000 0.500000 0.000000
O O5 0.643744 0.979118 0.700620
O O6 0.500000 0.000000 0.000000
O O7 0.768404 0.872889 0.292015
O O8 0.000000 0.000000 0.500000
O O9 0.139306 0.254210 0.190500
O O10 0.100261 0.018974 0.115616
O O11 0.922645 0.420383 0.374186
O O12 0.500000 0.000000 0.500000
O O13 0.383121 0.704728 0.565084
O O14 0.496054 0.608459 0.148975
O O15 0.165241 0.437247 0.426525
O O16 0.385629 0.104302 0.915944
#
# Coordination Sequence:
#
# PCOD9052208 Si02
#       7
#     2   2   2   2   2   2   2
#     4  11  26  45  70 114 163 211 252 319 400 486
#     4  12  27  46  76 115 161 205 255 325 402 482
#     4  11  28  57  79 108 156 204 275 332 392 465
#     4  10  26  43  66 104 161 206 254 307 385 473
#     4  12  26  47  79 108 153 205 263 328 396 469
#     4  11  29  49  82 117 151 208 267 328 402 476
#     4  11  26  43  70 108 160 206 259 307 398 473
#
# _framework density 25.967796
#
# number of rings (size 3 to 8) (size 9 to 14) (size 15 to 20)
#    0.000    0.857    1.429    2.571   18.000    0.571 
#    0.000    0.714    0.000    0.000    0.000    0.000 
#    0.000    0.000    0.000    0.000    0.000    0.000 
#
# Total GULP energy -78117.902519 kJ/mol
# GULP energy per Si atom -5579.850180 kJ/mol
# Density = 2.590869 g / cm^3
# Si number density = 25.967796 Si / 1000 Ang^3
#
#
#
# Elastic Constant Matrix: (Units=GPa)
#
#
# Indices 1 2 3 4 5 6 
#
# 1 162.4246 38.9175 39.5636 -1.4534 16.7495 23.5306
# 2 38.9175 141.0885 30.5590 6.7191 12.3480 43.4175
# 3 39.5636 30.5590 111.0043 -0.3003 21.1971 11.0530
# 4 -1.4534 6.7191 -0.3003 43.7492 8.7214 -8.8733
# 5 16.7495 12.3480 21.1971 8.7214 46.6999 11.4688
# 6 23.5306 43.4175 11.0530 -8.8733 11.4688 44.3622
#
#
#
# Elastic Compliance Matrix: (Units=1/GPa)
#
#
# Indices 1 2 3 4 5 6 
#
# 1 0.007258 -0.000776 -0.001959 0.000059 -0.000943 -0.002347
# 2 -0.000776 0.011367 -0.002074 -0.004517 0.001905 -0.011592
# 3 -0.001959 -0.002074 0.010954 0.001585 -0.004462 0.001811
# 4 0.000059 -0.004517 0.001585 0.027361 -0.007454 0.011394
# 5 -0.000943 0.001905 -0.004462 -0.007454 0.026795 -0.008670
# 6 -0.002347 -0.011592 0.001811 0.011394 -0.008670 0.039201
#
#
# Mechanical properties :
#
#
# Convention : Reuss Voigt Hill
#
# Bulk Modulus (GPa) = 50.10097 70.28861 60.19479
# Shear Modulus (GPa) = 35.91776 47.32741 41.62259
#
# Velocity S-wave (km/s) = 3.72313 4.27376 4.00791
# Velocity P-wave (km/s) = 6.14960 7.17493 6.68197
#
# Compressibility (1/GPa) = 0.01995969
#
# Stress axis : x y z
#
# Youngs Moduli (GPa) = 137.78778 87.97621 91.29095
#
# Poissons Ratio (x) = 0.06824 0.17886
# Poissons Ratio (y) = 0.10688 0.18937
# Poissons Ratio (z) = 0.26995 0.18250
#
# Static dielectric constant tensor:
#      x y z
#    x 2.178530 0.138210 -0.018480 
#    y 0.138210 2.248470 0.026540 
#    z -0.018480 0.026540 2.218620 
# 
# From -- ./inp_files/307970.got.cif
#   From: 2010.05.17/outbox.cif.g08.bks.cpg/sg2_154_cif.got.tgz:307970.got - 2010.06.03 11:33:40.
