data_PCOD9052522
_publ_section_title
;
Structure prediction by ZEFSAII (Michael W. Deem and Ramdas Pophale) SiO2 
 PCOD9052522
Probable space group: P -1
;
_chemical_formula_sum "Si O2"
_cell_formula_units_Z 15
_cell_length_a 5.587267
_cell_length_b 19.426183
_cell_length_c 7.603073
_cell_angle_alpha 108.582795
_cell_angle_beta 58.721083
_cell_angle_gamma 127.770920
_cell_volume 557.503127
_symmetry_space_group_name_H-M "P -1"
_symmetry_group_IT_number 2
_symmetry_cell_setting 'triclinic'
loop_
_space_group_symop_operation_xyz
x,y,z
-x,-y,-z
loop_
_atom_site_type_symbol
_atom_site_label
_atom_site_fract_x
_atom_site_fract_y
_atom_site_fract_z
Si Si1 0.422086 0.797804 0.336525
Si Si2 0.833825 0.094541 0.992214
Si Si3 0.469804 0.810961 0.739039
Si Si4 0.833802 0.090337 0.409315
Si Si5 0.369716 0.640134 0.728387
Si Si6 0.500000 0.500000 0.000000
Si Si7 0.804723 0.392381 0.861526
Si Si8 0.175204 0.429307 0.415925
O O1 0.372388 0.782537 0.552773
O O2 0.198848 0.837347 0.418180
O O3 0.319146 0.706839 0.213870
O O4 0.808124 0.872636 0.202663
O O5 0.762625 0.169460 0.045299
O O6 0.864812 0.098565 0.194370
O O7 0.500000 0.000000 0.000000
O O8 0.512355 0.741759 0.768179
O O9 0.829371 0.900697 0.653517
O O10 0.500000 0.000000 0.500000
O O11 0.663746 0.624890 0.633335
O O12 0.166535 0.613934 0.603655
O O13 0.097304 0.591516 0.953597
O O14 0.521611 0.413310 0.964260
O O15 0.584837 0.497826 0.755710
O O16 0.083639 0.450748 0.656191
#
# Coordination Sequence:
#
# PCOD9052522 Si02
#       8
#     2   2   2   2   2   1   2   2
#     4  11  24  43  70  99 138 192 241 296 373 438
#     4  11  25  41  64 100 138 185 239 300 369 436
#     4  11  24  42  68  99 142 185 241 311 358 441
#     4  11  24  42  64  98 141 184 243 301 365 441
#     4  11  26  44  76 108 146 185 255 298 365 451
#     4  10  26  46  76 108 152 188 250 308 368 454
#     4  11  24  46  74 105 145 194 246 301 379 434
#     4  11  25  49  72 109 146 194 236 313 370 441
#
# _framework density 26.905678999999999
#
# number of rings (size 3 to 8) (size 9 to 14) (size 15 to 20)
#    0.000    1.067    1.333    3.600    5.600   12.800 
#    0.000    4.000    0.000    0.000    0.000    0.000 
#    0.000    0.000    0.000    0.000    0.000    0.000 
#
# Total GULP energy -83777.430467 kJ/mol
# GULP energy per Si atom -5585.162031 kJ/mol
# Density = 2.684444 g / cm^3
# Si number density = 26.905679 Si / 1000 Ang^3
#
#
#
# Elastic Constant Matrix: (Units=GPa)
#
#
# Indices 1 2 3 4 5 6 
#
# 1 98.0520 13.3279 43.8881 13.9596 11.1698 -4.0781
# 2 13.3279 85.8303 30.9520 10.6799 5.8551 2.4285
# 3 43.8881 30.9520 168.4626 1.6660 5.0523 -2.7165
# 4 13.9596 10.6799 1.6660 51.0651 3.6031 -5.6702
# 5 11.1698 5.8551 5.0523 3.6031 57.0578 7.7861
# 6 -4.0781 2.4285 -2.7165 -5.6702 7.7861 48.2490
#
#
#
# Elastic Compliance Matrix: (Units=1/GPa)
#
#
# Indices 1 2 3 4 5 6 
#
# 1 0.012291 -0.000332 -0.003037 -0.002952 -0.002035 0.000866
# 2 -0.000332 0.012918 -0.002254 -0.002593 -0.000763 -0.000987
# 3 -0.003037 -0.002254 0.007134 0.001106 0.000073 0.000377
# 4 -0.002952 -0.002593 0.001106 0.021251 -0.000950 0.002594
# 5 -0.002035 -0.000763 0.000073 -0.000950 0.018496 -0.003226
# 6 0.000866 -0.000987 0.000377 0.002594 -0.003226 0.021695
#
#
# Mechanical properties :
#
#
# Convention : Reuss Voigt Hill
#
# Bulk Modulus (GPa) = 47.39951 58.74231 53.07091
# Shear Modulus (GPa) = 44.61682 48.88617 46.75149
#
# Velocity S-wave (km/s) = 4.07660 4.26719 4.17298
# Velocity P-wave (km/s) = 6.30979 6.79401 6.55637
#
# Compressibility (1/GPa) = 0.02109726
#
# Stress axis : x y z
#
# Youngs Moduli (GPa) = 81.35900 77.41117 140.16613
#
# Poissons Ratio (x) = 0.02569 0.42568
# Poissons Ratio (y) = 0.02699 0.31599
# Poissons Ratio (z) = 0.24708 0.17452
#
# Static dielectric constant tensor:
#      x y z
#    x 2.925650 0.324960 -0.604660 
#    y 0.324960 2.275700 -0.202180 
#    z -0.604660 -0.202180 2.493010 
# 
# From -- ./inp_files/124971.got.cif
#   From: 2010.05.17/outbox.cif.g08.bks.cpg/sg2_63_cif.got.tgz:124971.got - 2010.06.03 11:33:40.
