data_PCOD9052331
_publ_section_title
;
Structure prediction by ZEFSAII (Michael W. Deem and Ramdas Pophale) SiO2 
 PCOD9052331
Probable space group: P -1
;
_chemical_formula_sum "Si O2"
_cell_formula_units_Z 13
_cell_length_a 7.762089
_cell_length_b 10.855846
_cell_length_c 9.632801
_cell_angle_alpha 82.603834
_cell_angle_beta 62.637844
_cell_angle_gamma 45.368816
_cell_volume 488.204140
_symmetry_space_group_name_H-M "P -1"
_symmetry_group_IT_number 2
_symmetry_cell_setting 'triclinic'
loop_
_space_group_symop_operation_xyz
x,y,z
-x,-y,-z
loop_
_atom_site_type_symbol
_atom_site_label
_atom_site_fract_x
_atom_site_fract_y
_atom_site_fract_z
Si Si1 0.166415 0.168675 0.097863
Si Si2 0.933107 0.065048 0.858085
Si Si3 0.727949 0.502949 0.392959
Si Si4 0.500000 0.500000 0.000000
Si Si5 0.791797 0.445122 0.661779
Si Si6 0.153537 0.045538 0.511679
Si Si7 0.757432 0.738151 0.231208
O O1 0.115848 0.258995 0.953973
O O2 0.022205 0.317374 0.247651
O O3 0.500000 0.000000 0.000000
O O4 0.091363 0.062087 0.172764
O O5 0.168784 0.012164 0.676750
O O6 0.673374 0.285535 0.922448
O O7 0.000000 0.000000 0.000000
O O8 0.500000 0.500000 0.500000
O O9 0.744519 0.557212 0.532905
O O10 0.653561 0.643750 0.287769
O O11 0.498775 0.456706 0.170531
O O12 0.946936 0.259591 0.554541
O O13 0.980400 0.382468 0.739052
O O14 0.461467 0.937883 0.356003
O O15 0.000000 0.000000 0.500000
#
# Coordination Sequence:
#
# PCOD9052331 Si02
#       7
#     2   2   2   1   2   2   2
#     4  12  27  48  74 110 149 195 247 322 384 447
#     4  11  25  46  76 104 147 197 252 304 378 457
#     4  12  28  47  75 110 153 201 253 313 391 458
#     4  10  26  44  76 108 148 196 252 308 374 454
#     4  11  25  45  73 107 149 194 253 310 377 449
#     4  11  23  47  72 106 145 197 242 308 387 452
#     4  12  26  46  74 111 151 195 258 312 381 465
#
# _framework density 26.628205999999999
#
# number of rings (size 3 to 8) (size 9 to 14) (size 15 to 20)
#    0.000    0.615    0.000    7.846    8.615    2.462 
#    0.000    0.000    0.000    0.000    0.000    0.000 
#    0.000    0.000    0.000    0.000    0.000    0.000 
#
# Total GULP energy -72399.790987 kJ/mol
# GULP energy per Si atom -5569.214691 kJ/mol
# Density = 2.656760 g / cm^3
# Si number density = 26.628206 Si / 1000 Ang^3
#
#
#
# Elastic Constant Matrix: (Units=GPa)
#
#
# Indices 1 2 3 4 5 6 
#
# 1 62.6646 9.7691 10.5829 -15.6754 -7.1768 -6.6350
# 2 9.7691 121.4572 63.8222 -6.4887 0.1363 10.4745
# 3 10.5829 63.8222 237.8317 -30.2000 2.7147 -10.6933
# 4 -15.6754 -6.4887 -30.2000 59.5841 4.6256 -1.3766
# 5 -7.1768 0.1363 2.7147 4.6256 36.2619 -2.6889
# 6 -6.6350 10.4745 -10.6933 -1.3766 -2.6889 39.4134
#
#
#
# Elastic Compliance Matrix: (Units=1/GPa)
#
#
# Indices 1 2 3 4 5 6 
#
# 1 0.018121 -0.001770 0.000398 0.004615 0.003272 0.004013
# 2 -0.001770 0.010209 -0.002946 -0.000910 -0.000339 -0.003865
# 3 0.000398 -0.002946 0.005423 0.002624 -0.000474 0.002381
# 4 0.004615 -0.000910 0.002624 0.019404 -0.001584 0.002300
# 5 0.003272 -0.000339 -0.000474 -0.001584 0.028642 0.002411
# 6 0.004013 -0.003865 0.002381 0.002300 0.002411 0.027966
#
#
# Mechanical properties :
#
#
# Convention : Reuss Voigt Hill
#
# Bulk Modulus (GPa) = 39.81477 65.58909 52.70193
# Shear Modulus (GPa) = 39.44022 49.57053 44.50537
#
# Velocity S-wave (km/s) = 3.85274 4.31928 4.09266
# Velocity P-wave (km/s) = 5.89712 7.03988 6.49368
#
# Compressibility (1/GPa) = 0.02511631
#
# Stress axis : x y z
#
# Youngs Moduli (GPa) = 55.18539 97.95273 184.38922
#
# Poissons Ratio (x) = 0.17334 -0.07332
# Poissons Ratio (y) = 0.09766 0.54327
# Poissons Ratio (z) = -0.02194 0.28860
#
# Static dielectric constant tensor:
#      x y z
#    x 2.625110 0.142120 -0.019130 
#    y 0.142120 2.286600 -0.107770 
#    z -0.019130 -0.107770 2.058570 
# 
# From -- ./inp_files/186464.got.cif
#   From: 2010.05.17/outbox.cif.g08.bks.cpg/sg2_94_cif.got.tgz:186464.got - 2010.06.03 11:33:40.
