data_PCOD9052580
_publ_section_title
;
Structure prediction by ZEFSAII (Michael W. Deem and Ramdas Pophale) SiO2 
 PCOD9052580
Probable space group: P -1
;
_chemical_formula_sum "Si O2"
_cell_formula_units_Z 13
_cell_length_a 17.210622
_cell_length_b 9.302174
_cell_length_c 13.645212
_cell_angle_alpha 31.225077
_cell_angle_beta 25.444615
_cell_angle_gamma 40.412053
_cell_volume 485.982327
_symmetry_space_group_name_H-M "P -1"
_symmetry_group_IT_number 2
_symmetry_cell_setting 'triclinic'
loop_
_space_group_symop_operation_xyz
x,y,z
-x,-y,-z
loop_
_atom_site_type_symbol
_atom_site_label
_atom_site_fract_x
_atom_site_fract_y
_atom_site_fract_z
Si Si1 0.385526 0.763158 0.713847
Si Si2 0.568754 0.656924 0.927591
Si Si3 0.714611 0.121567 0.735747
Si Si4 0.627129 0.447971 0.475681
Si Si5 0.076559 0.251545 0.155343
Si Si6 0.000000 0.000000 0.000000
Si Si7 0.040215 0.169567 0.638601
O O1 0.539687 0.659367 0.526265
O O2 0.500000 0.000000 0.500000
O O3 0.348782 0.527580 0.973827
O O4 0.196576 0.861681 0.832174
O O5 0.741863 0.854308 0.589797
O O6 0.500000 0.500000 0.000000
O O7 0.389547 0.759547 0.123368
O O8 0.615130 0.165014 0.719114
O O9 0.896617 0.307421 0.389766
O O10 0.788280 0.838007 0.858790
O O11 0.500000 0.500000 0.500000
O O12 0.821695 0.522784 0.161485
O O13 0.031212 0.986203 0.288613
O O14 0.041688 0.968222 0.089667
O O15 0.000000 0.500000 0.500000
#
# Coordination Sequence:
#
# PCOD9052580 Si02
#       7
#     2   2   2   2   2   1   2
#     4  11  25  46  72 111 146 195 250 306 375 453
#     4  11  24  46  71 103 151 190 242 313 371 434
#     4  10  26  47  71 106 143 187 250 303 365 454
#     4  11  27  49  74 106 149 191 245 309 377 443
#     4  11  26  47  75 104 143 197 246 301 381 439
#     4  12  26  44  72 112 144 192 256 296 378 450
#     4  12  26  45  72 108 147 191 245 309 369 445
#
# _framework density 26.749943999999999
#
# number of rings (size 3 to 8) (size 9 to 14) (size 15 to 20)
#    0.000    0.923    1.538    3.231    6.462    9.846 
#    8.308    0.000    0.000    0.000    0.000    0.000 
#    0.000    0.000    0.000    0.000    0.000    0.000 
#
# Total GULP energy -72467.565653 kJ/mol
# GULP energy per Si atom -5574.428127 kJ/mol
# Density = 2.668906 g / cm^3
# Si number density = 26.749944 Si / 1000 Ang^3
#
#
#
# Elastic Constant Matrix: (Units=GPa)
#
#
# Indices 1 2 3 4 5 6 
#
# 1 152.3702 36.3552 38.0918 3.9030 20.1666 7.8096
# 2 36.3552 110.4507 45.6237 34.9764 4.9437 8.7306
# 3 38.0918 45.6237 157.2956 28.8706 36.8247 15.4620
# 4 3.9030 34.9764 28.8706 54.8059 1.2431 2.9673
# 5 20.1666 4.9437 36.8247 1.2431 55.8110 9.9278
# 6 7.8096 8.7306 15.4620 2.9673 9.9278 56.8257
#
#
#
# Elastic Compliance Matrix: (Units=1/GPa)
#
#
# Indices 1 2 3 4 5 6 
#
# 1 0.007624 -0.002536 -0.000946 0.001625 -0.001916 -0.000151
# 2 -0.002536 0.012983 -0.002129 -0.006965 0.001498 -0.000965
# 3 -0.000946 -0.002129 0.009112 -0.003204 -0.005243 -0.000939
# 4 0.001625 -0.006965 -0.003204 0.024218 0.001573 0.000179
# 5 -0.001916 0.001498 -0.005243 0.001573 0.022351 -0.002527
# 6 -0.000151 -0.000965 -0.000939 0.000179 -0.002527 0.018454
#
#
# Mechanical properties :
#
#
# Convention : Reuss Voigt Hill
#
# Bulk Modulus (GPa) = 54.06087 73.36197 63.71142
# Shear Modulus (GPa) = 44.59134 53.49157 49.04146
#
# Velocity S-wave (km/s) = 4.08728 4.47664 4.28638
# Velocity P-wave (km/s) = 6.52136 7.36241 6.95461
#
# Compressibility (1/GPa) = 0.01849767
#
# Stress axis : x y z
#
# Youngs Moduli (GPa) = 131.16342 77.02532 109.74587
#
# Poissons Ratio (x) = 0.19532 0.10380
# Poissons Ratio (y) = 0.33260 0.23365
# Poissons Ratio (z) = 0.12405 0.16399
#
# Static dielectric constant tensor:
#      x y z
#    x 2.070570 -0.088280 -0.148310 
#    y -0.088280 2.187290 -0.002740 
#    z -0.148310 -0.002740 2.176230 
# 
# From -- ./inp_files/446569.got.cif
#   From: 2010.05.17/outbox.cif.g08.bks.cpg/sg2_224_cif.got.tgz:446569.got - 2010.06.03 11:33:40.
