data_PCOD9052704
_publ_section_title
;
Structure prediction by ZEFSAII (Michael W. Deem and Ramdas Pophale) SiO2 
 PCOD9052704
Probable space group: P -1
;
_chemical_formula_sum "Si O2"
_cell_formula_units_Z 15
_cell_length_a 18.696825
_cell_length_b 15.873527
_cell_length_c 7.764907
_cell_angle_alpha 134.647863
_cell_angle_beta 137.161502
_cell_angle_gamma 22.216004
_cell_volume 589.880542
_symmetry_space_group_name_H-M "P -1"
_symmetry_group_IT_number 2
_symmetry_cell_setting 'triclinic'
loop_
_space_group_symop_operation_xyz
x,y,z
-x,-y,-z
loop_
_atom_site_type_symbol
_atom_site_label
_atom_site_fract_x
_atom_site_fract_y
_atom_site_fract_z
Si Si1 0.266892 0.978229 0.906267
Si Si2 0.833044 0.390257 0.883935
Si Si3 0.114866 0.616291 0.627367
Si Si4 0.518056 0.154832 0.570429
Si Si5 0.500000 0.500000 0.500000
Si Si6 0.325098 0.645798 0.028592
Si Si7 0.442699 0.119169 0.894212
Si Si8 0.275893 0.924297 0.482826
O O1 0.314756 0.842385 0.632614
O O2 0.035050 0.194158 0.847592
O O3 0.378631 0.869289 0.129738
O O4 0.367613 0.997131 0.023547
O O5 0.695006 0.407291 0.634624
O O6 0.893275 0.351444 0.136607
O O7 0.713889 0.627312 0.986149
O O8 0.896458 0.812956 0.448197
O O9 0.287369 0.361013 0.511754
O O10 0.199660 0.656812 0.758354
O O11 0.619137 0.929669 0.409147
O O12 0.551664 0.189139 0.497109
O O13 0.434148 0.522655 0.224893
O O14 0.201844 0.882063 0.185628
O O15 0.500000 0.500000 0.000000
O O16 0.500000 0.000000 0.000000
#
# Coordination Sequence:
#
# PCOD9052704 Si02
#       8
#     2   2   2   2   1   2   2   2
#     4  12  27  47  77 110 151 202 251 317 376 453
#     4  11  26  49  77 111 155 198 256 310 390 448
#     4  11  25  47  73 105 150 198 250 314 380 450
#     4  12  26  49  74 106 156 199 251 315 377 448
#     4  10  26  48  76 112 150 198 240 316 378 462
#     4  11  24  43  74 104 149 193 249 310 377 442
#     4  12  27  47  76 113 154 204 258 313 380 450
#     4  12  26  45  74 113 145 196 262 306 377 456
#
# _framework density 25.428875999999999
#
# number of rings (size 3 to 8) (size 9 to 14) (size 15 to 20)
#    0.000    0.533    5.333    1.600    5.600    2.133 
#    0.000    3.333    0.000    0.000    0.000    0.000 
#    0.000    0.000    0.000    0.000    0.000    0.000 
#
# Total GULP energy -83646.672515 kJ/mol
# GULP energy per Si atom -5576.444834 kJ/mol
# Density = 2.537100 g / cm^3
# Si number density = 25.428876 Si / 1000 Ang^3
#
#
#
# Elastic Constant Matrix: (Units=GPa)
#
#
# Indices 1 2 3 4 5 6 
#
# 1 131.8492 33.7802 1.7148 -3.7825 -29.3560 -28.4461
# 2 33.7802 111.2466 18.8750 -10.3920 -23.5276 -26.5257
# 3 1.7148 18.8750 95.5145 12.5770 -8.9174 -7.0845
# 4 -3.7825 -10.3920 12.5770 30.3831 6.9364 -6.8735
# 5 -29.3560 -23.5276 -8.9174 6.9364 38.5146 3.7365
# 6 -28.4461 -26.5257 -7.0845 -6.8735 3.7365 50.8664
#
#
#
# Elastic Compliance Matrix: (Units=1/GPa)
#
#
# Indices 1 2 3 4 5 6 
#
# 1 0.010469 -0.000528 0.000957 0.000230 0.007332 0.005205
# 2 -0.000528 0.012654 -0.002250 0.005439 0.005212 0.006342
# 3 0.000957 -0.002250 0.012044 -0.006406 0.003304 -0.000069
# 4 0.000230 0.005439 -0.006406 0.040656 -0.006085 0.008013
# 5 0.007332 0.005212 0.003304 -0.006085 0.036229 0.003795
# 6 0.005205 0.006342 -0.000069 0.008013 0.003795 0.026672
#
#
# Mechanical properties :
#
#
# Convention : Reuss Voigt Hill
#
# Bulk Modulus (GPa) = 31.72205 49.70560 40.71383
# Shear Modulus (GPa) = 32.70655 42.90218 37.80437
#
# Velocity S-wave (km/s) = 3.59025 4.11194 3.85992
# Velocity P-wave (km/s) = 5.44871 6.49103 5.99257
#
# Compressibility (1/GPa) = 0.03152381
#
# Stress axis : x y z
#
# Youngs Moduli (GPa) = 95.51641 79.02906 83.02943
#
# Poissons Ratio (x) = 0.04173 -0.07943
# Poissons Ratio (y) = 0.05043 0.18684
# Poissons Ratio (z) = -0.09138 0.17783
#
# Static dielectric constant tensor:
#      x y z
#    x 2.018410 0.012160 -0.025900 
#    y 0.012160 2.016390 -0.041570 
#    z -0.025900 -0.041570 2.011480 
# 
# From -- ./inp_files/348737.got.cif
#   From: 2010.05.17/outbox.cif.g08.bks.cpg/sg2_175_cif.got.tgz:348737.got - 2010.06.03 11:33:40.
