data_PCOD9052917
_publ_section_title
;
Structure prediction by ZEFSAII (Michael W. Deem and Ramdas Pophale) SiO2 
 PCOD9052917
Probable space group: P -1
;
_chemical_formula_sum "Si O2"
_cell_formula_units_Z 13
_cell_length_a 13.157592
_cell_length_b 9.099573
_cell_length_c 9.731918
_cell_angle_alpha 92.711813
_cell_angle_beta 109.793953
_cell_angle_gamma 32.760064
_cell_volume 524.781589
_symmetry_space_group_name_H-M "P -1"
_symmetry_group_IT_number 2
_symmetry_cell_setting 'triclinic'
loop_
_space_group_symop_operation_xyz
x,y,z
-x,-y,-z
loop_
_atom_site_type_symbol
_atom_site_label
_atom_site_fract_x
_atom_site_fract_y
_atom_site_fract_z
Si Si1 0.300940 0.624231 0.420379
Si Si2 0.694723 0.180236 0.157621
Si Si3 0.962334 0.643274 0.854343
Si Si4 0.342582 0.110479 0.820142
Si Si5 0.922627 0.241952 0.909751
Si Si6 0.541854 0.835128 0.388150
Si Si7 0.000000 0.000000 0.500000
O O1 0.500000 0.500000 0.500000
O O2 0.287921 0.547057 0.272185
O O3 0.287096 0.507795 0.524312
O O4 0.077927 0.974010 0.381492
O O5 0.616006 0.113260 0.166978
O O6 0.797271 0.144644 0.332619
O O7 0.500000 0.500000 0.000000
O O8 0.892645 0.922023 0.122693
O O9 0.084486 0.437379 0.767048
O O10 0.694630 0.967995 0.729192
O O11 0.000000 0.500000 0.000000
O O12 0.087368 0.638793 0.962317
O O13 0.386839 0.148956 0.704462
O O14 0.500000 0.000000 0.000000
O O15 0.000000 0.000000 0.000000
O O16 0.500000 0.000000 0.500000
#
# Coordination Sequence:
#
# PCOD9052917 Si02
#       7
#     2   2   2   2   2   2   1
#     4  11  27  48  73 109 148 197 251 315 385 446
#     4  11  27  48  77 110 151 202 257 322 388 462
#     4  12  24  48  75 106 152 195 254 307 377 462
#     4  12  28  48  79 112 152 204 258 313 392 467
#     4  11  25  46  75 110 145 197 252 314 378 464
#     4  12  29  47  75 111 154 197 246 318 386 451
#     4  10  28  46  74 108 154 188 268 308 382 460
#
# _framework density 24.772210999999999
#
# number of rings (size 3 to 8) (size 9 to 14) (size 15 to 20)
#    0.000    0.615    3.077    1.846   12.923    3.077 
#    0.000    0.000    0.000    0.000    0.000    0.000 
#    0.000    0.000    0.000    0.000    0.000    0.000 
#
# Total GULP energy -72503.019056 kJ/mol
# GULP energy per Si atom -5577.155312 kJ/mol
# Density = 2.471583 g / cm^3
# Si number density = 24.772211 Si / 1000 Ang^3
#
#
#
# Elastic Constant Matrix: (Units=GPa)
#
#
# Indices 1 2 3 4 5 6 
#
# 1 195.6376 44.5889 65.9396 7.7715 -3.3470 11.1821
# 2 44.5889 55.3782 20.5565 19.4537 -3.1198 -5.0282
# 3 65.9396 20.5565 125.5428 15.6679 10.4364 18.0517
# 4 7.7715 19.4537 15.6679 40.5448 -7.2739 -1.2294
# 5 -3.3470 -3.1198 10.4364 -7.2739 61.7969 5.9359
# 6 11.1821 -5.0282 18.0517 -1.2294 5.9359 58.7459
#
#
#
# Elastic Compliance Matrix: (Units=1/GPa)
#
#
# Indices 1 2 3 4 5 6 
#
# 1 0.007515 -0.005839 -0.003291 0.002799 0.001091 -0.000970
# 2 -0.005839 0.027333 -0.000365 -0.011859 -0.000595 0.003375
# 3 -0.003291 -0.000365 0.010788 -0.003840 -0.002223 -0.002575
# 4 0.002799 -0.011859 -0.003840 0.032012 0.003979 -0.000100
# 5 0.001091 -0.000595 -0.002223 0.003979 0.017173 -0.001227
# 6 -0.000970 0.003375 -0.002575 -0.000100 -0.001227 0.018409
#
#
# Mechanical properties :
#
#
# Convention : Reuss Voigt Hill
#
# Bulk Modulus (GPa) = 37.52866 70.96985 54.24925
# Shear Modulus (GPa) = 35.43545 48.58241 42.00893
#
# Velocity S-wave (km/s) = 3.78623 4.43331 4.12249
# Velocity P-wave (km/s) = 5.85632 7.41059 6.67882
#
# Compressibility (1/GPa) = 0.02664630
#
# Stress axis : x y z
#
# Youngs Moduli (GPa) = 133.07600 36.58586 92.69352
#
# Poissons Ratio (x) = 0.21361 0.30509
# Poissons Ratio (y) = 0.77699 0.03380
# Poissons Ratio (z) = 0.43800 0.01334
#
# Static dielectric constant tensor:
#      x y z
#    x 1.892010 -0.108870 -0.022820 
#    y -0.108870 1.726740 -0.077700 
#    z -0.022820 -0.077700 1.960770 
# 
# From -- ./inp_files/185895.got.cif
#   From: 2010.05.17/outbox.cif.g08.bks.cpg/sg2_93_cif.got.tgz:185895.got - 2010.06.03 11:33:40.
