data_PCOD9052975
_publ_section_title
;
Structure prediction by ZEFSAII (Michael W. Deem and Ramdas Pophale) SiO2 
 PCOD9052975
Probable space group: P -1
;
_chemical_formula_sum "Si O2"
_cell_formula_units_Z 12
_cell_length_a 8.069109
_cell_length_b 14.843753
_cell_length_c 7.501749
_cell_angle_alpha 49.080577
_cell_angle_beta 105.769021
_cell_angle_gamma 132.215478
_cell_volume 479.560407
_symmetry_space_group_name_H-M "P -1"
_symmetry_group_IT_number 2
_symmetry_cell_setting 'triclinic'
loop_
_space_group_symop_operation_xyz
x,y,z
-x,-y,-z
loop_
_atom_site_type_symbol
_atom_site_label
_atom_site_fract_x
_atom_site_fract_y
_atom_site_fract_z
Si Si1 0.748897 0.084550 0.546627
Si Si2 0.733139 0.910483 0.080665
Si Si3 0.105639 0.914716 0.757668
Si Si4 0.701345 0.584611 0.186582
Si Si5 0.967403 0.364198 0.026009
Si Si6 0.318948 0.545794 0.290479
O O1 0.863572 0.041687 0.498293
O O2 0.500000 0.000000 0.500000
O O3 0.918063 0.276593 0.314315
O O4 0.712982 0.019675 0.814928
O O5 0.540155 0.724513 0.206694
O O6 0.731018 0.937754 0.253794
O O7 0.000000 0.000000 0.000000
O O8 0.162032 0.797349 0.927319
O O9 0.839133 0.770249 0.931248
O O10 0.436873 0.500752 0.257644
O O11 0.790153 0.570629 0.417894
O O12 0.773929 0.525737 0.127910
O O13 0.834944 0.424878 0.886982
#
# Coordination Sequence:
#
# PCOD9052975 Si02
#       6
#     2   2   2   2   2   2
#     4   9  19  35  54  81 117 146 184 229 283 341
#     4  12  20  34  58  90 111 145 188 236 286 326
#     4   8  20  36  52  82 114 137 187 235 266 333
#     4   8  19  34  49  87 106 144 196 224 263 351
#     4   8  18  35  54  77 109 146 183 228 272 327
#     4  11  17  31  61  76 110 154 183 222 288 329
#
# _framework density 25.022915999999999
#
# number of rings (size 3 to 8) (size 9 to 14) (size 15 to 20)
#    2.000    0.333    3.333    0.500    0.000    3.333 
#    0.000    0.000    0.000    9.000    0.000    0.000 
#    0.000    0.000    0.000    0.000    0.000    0.000 
#
# Total GULP energy -66836.125366 kJ/mol
# GULP energy per Si atom -5569.677114 kJ/mol
# Density = 2.496596 g / cm^3
# Si number density = 25.022916 Si / 1000 Ang^3
#
#
#
# Elastic Constant Matrix: (Units=GPa)
#
#
# Indices 1 2 3 4 5 6 
#
# 1 51.8852 -0.8940 26.3387 -18.1512 10.9553 -4.7509
# 2 -0.8940 62.1396 -4.2445 -7.6422 -1.5375 -3.1375
# 3 26.3387 -4.2445 123.0272 -7.4599 9.9117 8.2596
# 4 -18.1512 -7.6422 -7.4599 27.5240 5.1591 -0.5998
# 5 10.9553 -1.5375 9.9117 5.1591 46.0061 -0.9369
# 6 -4.7509 -3.1375 8.2596 -0.5998 -0.9369 23.0824
#
#
#
# Elastic Compliance Matrix: (Units=1/GPa)
#
#
# Indices 1 2 3 4 5 6 
#
# 1 0.032870 0.003177 -0.005445 0.022962 -0.008932 0.009380
# 2 0.003177 0.017166 0.000220 0.007170 -0.000972 0.003055
# 3 -0.005445 0.000220 0.009618 -0.000880 -0.000763 -0.004586
# 4 0.022962 0.007170 -0.000880 0.055463 -0.011116 0.007006
# 5 -0.008932 -0.000972 -0.000763 -0.011116 0.025222 -0.000963
# 6 0.009380 0.003055 -0.004586 0.007006 -0.000963 0.047453
#
#
# Mechanical properties :
#
#
# Convention : Reuss Voigt Hill
#
# Bulk Modulus (GPa) = 17.99945 31.05026 24.52485
# Shear Modulus (GPa) = 23.76364 33.71261 28.73813
#
# Velocity S-wave (km/s) = 3.08502 3.67450 3.39259
# Velocity P-wave (km/s) = 4.46079 5.51709 5.01682
#
# Compressibility (1/GPa) = 0.05555726
#
# Stress axis : x y z
#
# Youngs Moduli (GPa) = 30.42304 58.25623 103.97586
#
# Poissons Ratio (x) = -0.18511 0.56618
# Poissons Ratio (y) = -0.09667 -0.02287
# Poissons Ratio (z) = 0.16566 -0.01281
#
# Static dielectric constant tensor:
#      x y z
#    x 2.207810 -0.069110 -0.060560 
#    y -0.069110 2.060790 0.055720 
#    z -0.060560 0.055720 2.033190 
# 
# From -- ./inp_files/43157.got.cif
#   From: 2010.05.17/outbox.cif.g08.bks.cpg/sg2_22_cif.got.tgz:43157.got - 2010.06.03 11:33:40.
