data_PCOD9052530
_publ_section_title
;
Structure prediction by ZEFSAII (Michael W. Deem and Ramdas Pophale) SiO2 
 PCOD9052530
Probable space group: P -1
;
_chemical_formula_sum "Si O2"
_cell_formula_units_Z 13
_cell_length_a 9.418046
_cell_length_b 8.834299
_cell_length_c 13.785264
_cell_angle_alpha 65.573068
_cell_angle_beta 65.072422
_cell_angle_gamma 31.895161
_cell_volume 545.834051
_symmetry_space_group_name_H-M "P -1"
_symmetry_group_IT_number 2
_symmetry_cell_setting 'triclinic'
loop_
_space_group_symop_operation_xyz
x,y,z
-x,-y,-z
loop_
_atom_site_type_symbol
_atom_site_label
_atom_site_fract_x
_atom_site_fract_y
_atom_site_fract_z
Si Si1 0.224234 0.230026 0.076468
Si Si2 0.868837 0.387324 0.667572
Si Si3 0.104676 0.998454 0.268101
Si Si4 0.312920 0.268260 0.554095
Si Si5 0.406675 0.450592 0.619276
Si Si6 0.587642 0.650029 0.872682
Si Si7 0.000000 0.000000 0.000000
O O1 0.133670 0.119795 0.151391
O O2 0.291577 0.281005 0.138705
O O3 0.000000 0.500000 0.000000
O O4 0.500000 0.000000 0.000000
O O5 0.794565 0.491029 0.549274
O O6 0.627869 0.609747 0.755248
O O7 0.079335 0.351078 0.637256
O O8 0.992543 0.095385 0.717227
O O9 0.899895 0.242808 0.343722
O O10 0.403272 0.704276 0.301313
O O11 0.447826 0.236310 0.615388
O O12 0.500000 0.000000 0.500000
O O13 0.500000 0.500000 0.500000
O O14 0.790200 0.333245 0.941271
O O15 0.276233 0.881419 0.929471
#
# Coordination Sequence:
#
# PCOD9052530 Si02
#       7
#     2   2   2   2   2   2   1
#     4  12  28  50  76 107 149 193 254 311 377 443
#     4  11  27  45  76 109 148 191 251 302 372 446
#     4  12  28  48  76 110 143 202 246 305 373 441
#     4  11  26  45  73 112 152 196 245 302 363 453
#     4  12  25  47  74 108 155 195 244 298 367 442
#     4  11  26  48  75 110 144 198 240 318 373 439
#     4  10  26  46  78 102 142 186 256 300 376 438
#
# _framework density 23.816762000000001
#
# number of rings (size 3 to 8) (size 9 to 14) (size 15 to 20)
#    0.000    0.615    1.538    4.154   15.077    0.000 
#    0.000    0.000    0.000    0.000    0.000    0.000 
#    0.000    0.000    0.000    0.000    0.000    0.000 
#
# Total GULP energy -72530.900796 kJ/mol
# GULP energy per Si atom -5579.300061 kJ/mol
# Density = 2.376255 g / cm^3
# Si number density = 23.816762 Si / 1000 Ang^3
#
#
#
# Elastic Constant Matrix: (Units=GPa)
#
#
# Indices 1 2 3 4 5 6 
#
# 1 107.8567 36.8432 48.1403 -1.2605 -12.8747 1.8981
# 2 36.8432 119.2851 37.5244 8.2608 -19.5413 -16.8748
# 3 48.1403 37.5244 118.7701 -5.3693 -39.9308 5.3035
# 4 -1.2605 8.2608 -5.3693 46.3122 7.0069 -0.2745
# 5 -12.8747 -19.5413 -39.9308 7.0069 38.4293 2.2188
# 6 1.8981 -16.8748 5.3035 -0.2745 2.2188 43.7637
#
#
#
# Elastic Compliance Matrix: (Units=1/GPa)
#
#
# Indices 1 2 3 4 5 6 
#
# 1 0.012085 -0.002801 -0.004738 0.000631 -0.002362 -0.000906
# 2 -0.002801 0.011098 -0.001580 -0.002713 0.003303 0.004408
# 3 -0.004738 -0.001580 0.015726 -0.000184 0.014158 -0.003028
# 4 0.000631 -0.002713 -0.000184 0.022900 -0.005498 -0.000629
# 5 -0.002362 0.003303 0.014158 -0.005498 0.042771 -0.002543
# 6 -0.000906 0.004408 -0.003028 -0.000629 -0.002543 0.025081
#
#
# Mechanical properties :
#
#
# Convention : Reuss Voigt Hill
#
# Bulk Modulus (GPa) = 48.37730 65.65860 57.01795
# Shear Modulus (GPa) = 32.30196 40.59466 36.44831
#
# Velocity S-wave (km/s) = 3.68675 4.13299 3.91623
# Velocity P-wave (km/s) = 6.20316 7.09954 6.66644
#
# Compressibility (1/GPa) = 0.02067085
#
# Stress axis : x y z
#
# Youngs Moduli (GPa) = 82.75018 90.10716 63.58771
#
# Poissons Ratio (x) = 0.25237 0.30130
# Poissons Ratio (y) = 0.23176 0.10046
# Poissons Ratio (z) = 0.39210 0.14236
#
# Static dielectric constant tensor:
#      x y z
#    x 1.931070 0.024900 0.016130 
#    y 0.024900 1.882460 -0.012150 
#    z 0.016130 -0.012150 1.878720 
# 
# From -- ./inp_files/494453.got.cif
#   From: 2010.05.17/outbox.cif.g08.bks.cpg/sg2_248_cif.got.tgz:494453.got - 2010.06.03 11:33:40.
