data_PCOD9052897
_publ_section_title
;
Structure prediction by ZEFSAII (Michael W. Deem and Ramdas Pophale) SiO2 
 PCOD9052897
Probable space group: P -1
;
_chemical_formula_sum "Si O2"
_cell_formula_units_Z 14
_cell_length_a 14.252117
_cell_length_b 13.788075
_cell_length_c 8.498345
_cell_angle_alpha 70.844920
_cell_angle_beta 110.519222
_cell_angle_gamma 160.288627
_cell_volume 527.516843
_symmetry_space_group_name_H-M "P -1"
_symmetry_group_IT_number 2
_symmetry_cell_setting 'triclinic'
loop_
_space_group_symop_operation_xyz
x,y,z
-x,-y,-z
loop_
_atom_site_type_symbol
_atom_site_label
_atom_site_fract_x
_atom_site_fract_y
_atom_site_fract_z
Si Si1 0.267249 0.504614 0.659083
Si Si2 0.946726 0.015525 0.805030
Si Si3 0.591901 0.810866 0.363255
Si Si4 0.310187 0.061779 0.089042
Si Si5 0.058102 0.185807 0.263908
Si Si6 0.908061 0.306980 0.346694
Si Si7 0.611953 0.095503 0.834801
O O1 0.210503 0.327182 0.720806
O O2 0.475616 0.715095 0.520374
O O3 0.363450 0.620322 0.833421
O O4 0.033574 0.364122 0.537608
O O5 0.799582 0.976376 0.807798
O O6 0.831848 0.817939 0.728698
O O7 0.000000 0.000000 0.000000
O O8 0.321520 0.512649 0.268937
O O9 0.741719 0.061736 0.278410
O O10 0.856461 0.988685 0.402318
O O11 0.259601 0.893684 0.124972
O O12 0.169136 0.987219 0.902386
O O13 0.154343 0.597166 0.239508
O O14 0.656616 0.146340 0.310359
O O15 0.500000 0.000000 0.000000
#
# Coordination Sequence:
#
# PCOD9052897 Si02
#       7
#     2   2   2   2   2   2   2
#     4  12  27  50  82 115 178 207 270 329 414 475
#     4  10  27  52  78 120 163 217 269 333 401 485
#     4  12  25  51  79 120 162 212 266 336 396 474
#     4  11  29  49  80 120 162 214 270 330 404 485
#     4  11  27  49  86 114 164 214 274 334 399 472
#     4  12  26  52  78 121 163 207 266 335 401 475
#     4  12  28  50  86 119 161 214 273 329 409 479
#
# _framework density 26.539438000000001
#
# number of rings (size 3 to 8) (size 9 to 14) (size 15 to 20)
#    0.000    0.571    2.857    2.143    8.000    4.571 
#    0.000    0.000    0.000    0.000    0.000    0.000 
#    0.000    0.000    0.000    0.000    0.000    0.000 
#
# Total GULP energy -78143.222915 kJ/mol
# GULP energy per Si atom -5581.658780 kJ/mol
# Density = 2.647903 g / cm^3
# Si number density = 26.539438 Si / 1000 Ang^3
#
#
#
# Elastic Constant Matrix: (Units=GPa)
#
#
# Indices 1 2 3 4 5 6 
#
# 1 158.1444 42.1343 52.5461 -3.4988 19.9384 -3.8419
# 2 42.1343 173.8602 72.8924 3.4310 16.1960 -16.9869
# 3 52.5461 72.8924 137.8741 11.9846 44.5365 -18.8175
# 4 -3.4988 3.4310 11.9846 35.0962 -8.9271 -7.6589
# 5 19.9384 16.1960 44.5365 -8.9271 28.6258 -8.7814
# 6 -3.8419 -16.9869 -18.8175 -7.6589 -8.7814 55.5933
#
#
#
# Elastic Compliance Matrix: (Units=1/GPa)
#
#
# Indices 1 2 3 4 5 6 
#
# 1 0.007432 -0.000839 -0.002255 0.001245 -0.000954 -0.000485
# 2 -0.000839 0.008120 -0.006733 0.003976 0.008320 0.002006
# 3 -0.002255 -0.006733 0.027749 -0.021193 -0.045288 -0.002894
# 4 0.001245 0.003976 -0.021193 0.049510 0.047909 0.008516
# 5 -0.000954 0.008320 -0.045288 0.047909 0.120198 0.012733
# 6 -0.000485 0.002006 -0.002894 0.008516 0.012733 0.020772
#
#
# Mechanical properties :
#
#
# Convention : Reuss Voigt Hill
#
# Bulk Modulus (GPa) = 42.28855 89.44714 65.86784
# Shear Modulus (GPa) = 19.13383 44.01678 31.57531
#
# Velocity S-wave (km/s) = 2.68798 4.07694 3.45302
# Velocity P-wave (km/s) = 5.05989 7.47921 6.38518
#
# Compressibility (1/GPa) = 0.02364706
#
# Stress axis : x y z
#
# Youngs Moduli (GPa) = 134.54974 123.14806 36.03784
#
# Poissons Ratio (x) = 0.10328 0.08128
# Poissons Ratio (y) = 0.11284 0.24264
# Poissons Ratio (z) = 0.30347 0.82915
#
# Static dielectric constant tensor:
#      x y z
#    x 2.127820 0.001740 -0.010070 
#    y 0.001740 1.930430 0.012850 
#    z -0.010070 0.012850 2.137050 
# 
# From -- ./inp_files/311313.got.cif
#   From: 2010.05.17/outbox.cif.g08.bks.cpg/sg2_156_cif.got.tgz:311313.got - 2010.06.03 11:33:40.
