data_PCOD9052107
_publ_section_title
;
Structure prediction by ZEFSAII (Michael W. Deem and Ramdas Pophale) SiO2 
 PCOD9052107
Probable space group: P -1
;
_chemical_formula_sum "Si O2"
_cell_formula_units_Z 14
_cell_length_a 11.227542
_cell_length_b 5.355947
_cell_length_c 15.315004
_cell_angle_alpha 94.210591
_cell_angle_beta 38.617125
_cell_angle_gamma 79.640435
_cell_volume 529.974674
_symmetry_space_group_name_H-M "P -1"
_symmetry_group_IT_number 2
_symmetry_cell_setting 'triclinic'
loop_
_space_group_symop_operation_xyz
x,y,z
-x,-y,-z
loop_
_atom_site_type_symbol
_atom_site_label
_atom_site_fract_x
_atom_site_fract_y
_atom_site_fract_z
Si Si1 0.844297 0.256372 0.339963
Si Si2 0.223626 0.022067 0.379109
Si Si3 0.400362 0.236578 0.133119
Si Si4 0.372306 0.511673 0.885467
Si Si5 0.906682 0.379233 0.801691
Si Si6 0.785897 0.146880 0.175323
Si Si7 0.536169 0.075527 0.584860
O O1 0.991291 0.943326 0.265860
O O2 0.810974 0.261561 0.256579
O O3 0.633430 0.298683 0.511776
O O4 0.942527 0.472546 0.308613
O O5 0.416568 0.745505 0.237387
O O6 0.296442 0.078639 0.435522
O O7 0.239923 0.214141 0.296485
O O8 0.000000 0.000000 0.500000
O O9 0.587615 0.247370 0.082320
O O10 0.284785 0.506267 0.150924
O O11 0.500000 0.000000 0.000000
O O12 0.329920 0.602976 0.814172
O O13 0.181483 0.501104 0.049097
O O14 0.666747 0.944678 0.255397
O O15 0.000000 0.000000 0.000000
O O16 0.500000 0.000000 0.500000
#
# Coordination Sequence:
#
# PCOD9052107 Si02
#       7
#     2   2   2   2   2   2   2
#     4  11  27  49  80 116 156 214 267 338 412 495
#     4  12  28  48  79 117 163 217 276 339 421 498
#     4  12  26  47  76 111 159 207 268 336 416 484
#     4  12  27  46  79 116 161 207 276 345 411 494
#     4  12  26  46  80 115 158 209 270 334 417 488
#     4  11  24  47  81 114 155 211 270 339 411 495
#     4  10  25  51  77 114 165 211 277 339 407 489
#
# _framework density 26.416354999999999
#
# number of rings (size 3 to 8) (size 9 to 14) (size 15 to 20)
#    0.000    0.571    4.286    2.143    6.000    5.714 
#    0.000    5.000    0.000    0.000    0.000    0.000 
#    0.000    0.000    0.000    0.000    0.000    0.000 
#
# Total GULP energy -78308.291546 kJ/mol
# GULP energy per Si atom -5593.449396 kJ/mol
# Density = 2.635623 g / cm^3
# Si number density = 26.416355 Si / 1000 Ang^3
#
#
#
# Elastic Constant Matrix: (Units=GPa)
#
#
# Indices 1 2 3 4 5 6 
#
# 1 141.9121 44.3387 56.8809 -12.1332 7.2928 -9.5602
# 2 44.3387 104.2408 56.7977 -6.8680 7.9714 -2.2451
# 3 56.8809 56.7977 224.5918 -30.8727 -9.2182 2.4827
# 4 -12.1332 -6.8680 -30.8727 57.7072 4.3623 -1.0042
# 5 7.2928 7.9714 -9.2182 4.3623 53.1000 -26.1269
# 6 -9.5602 -2.2451 2.4827 -1.0042 -26.1269 46.8851
#
#
#
# Elastic Compliance Matrix: (Units=1/GPa)
#
#
# Indices 1 2 3 4 5 6 
#
# 1 0.008678 -0.002815 -0.001408 0.000787 -0.000316 0.001550
# 2 -0.002815 0.012313 -0.002533 -0.000315 -0.002487 -0.001243
# 3 -0.001408 -0.002533 0.005841 0.002419 0.001462 0.000149
# 4 0.000787 -0.000315 0.002419 0.018848 -0.001353 -0.000333
# 5 -0.000316 -0.002487 0.001462 -0.001353 0.026827 0.014660
# 6 0.001550 -0.001243 0.000149 -0.000333 0.014660 0.029739
#
#
# Mechanical properties :
#
#
# Convention : Reuss Voigt Hill
#
# Bulk Modulus (GPa) = 75.06837 87.41993 81.24415
# Shear Modulus (GPa) = 41.59826 52.38695 46.99260
#
# Velocity S-wave (km/s) = 3.97257 4.45806 4.22230
# Velocity P-wave (km/s) = 7.03711 7.72425 7.38867
#
# Compressibility (1/GPa) = 0.01332119
#
# Stress axis : x y z
#
# Youngs Moduli (GPa) = 115.22912 81.21436 171.21810
#
# Poissons Ratio (x) = 0.22860 0.24107
# Poissons Ratio (y) = 0.32435 0.43364
# Poissons Ratio (z) = 0.16224 0.20569
#
# Static dielectric constant tensor:
#      x y z
#    x 2.091390 0.081100 -0.009760 
#    y 0.081100 2.451990 0.138080 
#    z -0.009760 0.138080 2.311520 
# 
# From -- ./inp_files/510872.got.cif
#   From: 2010.05.17/outbox.cif.g08.bks.cpg/sg2_256_cif.got.tgz:510872.got - 2010.06.03 11:33:40.
