data_PCOD9052902
_publ_section_title
;
Structure prediction by ZEFSAII (Michael W. Deem and Ramdas Pophale) SiO2 
 PCOD9052902
Probable space group: P -1
;
_chemical_formula_sum "Si O2"
_cell_formula_units_Z 15
_cell_length_a 10.862066
_cell_length_b 7.987279
_cell_length_c 10.569589
_cell_angle_alpha 124.364133
_cell_angle_beta 67.506159
_cell_angle_gamma 129.409464
_cell_volume 584.421391
_symmetry_space_group_name_H-M "P -1"
_symmetry_group_IT_number 2
_symmetry_cell_setting 'triclinic'
loop_
_space_group_symop_operation_xyz
x,y,z
-x,-y,-z
loop_
_atom_site_type_symbol
_atom_site_label
_atom_site_fract_x
_atom_site_fract_y
_atom_site_fract_z
Si Si1 0.664942 0.253651 0.516942
Si Si2 0.802024 0.768833 0.775076
Si Si3 0.145624 0.964057 0.663116
Si Si4 0.148158 0.599005 0.080001
Si Si5 0.522832 0.287478 0.355063
Si Si6 0.179842 0.974743 0.384949
Si Si7 0.500000 0.000000 0.000000
Si Si8 0.685955 0.685647 0.038131
O O1 0.689417 0.478239 0.683009
O O2 0.814216 0.232696 0.465908
O O3 0.663210 0.315224 0.395965
O O4 0.500000 0.000000 0.500000
O O5 0.802108 0.876408 0.685015
O O6 0.984743 0.859284 0.757387
O O7 0.748704 0.845675 0.953243
O O8 0.130522 0.046828 0.563478
O O9 0.286441 0.167640 0.781783
O O10 0.093586 0.698504 0.259260
O O11 0.205532 0.424920 0.030152
O O12 0.000000 0.500000 0.000000
O O13 0.314941 0.822675 0.050945
O O14 0.500000 0.500000 0.500000
O O15 0.360654 0.054605 0.372622
O O16 0.532875 0.225820 0.180536
O O17 0.500000 0.500000 0.000000
#
# Coordination Sequence:
#
# PCOD9052902 Si02
#       8
#     2   2   2   2   2   2   1   2
#     4  12  25  44  72 103 148 197 256 316 392 463
#     4  12  27  49  75 111 155 201 259 325 405 484
#     4  12  27  47  76 110 156 202 258 323 403 490
#     4  11  27  52  80 113 163 208 272 334 412 494
#     4  11  24  45  73 109 153 201 262 330 398 480
#     4  11  25  47  78 112 150 201 262 323 402 488
#     4  10  28  42  80 116 152 206 276 326 416 484
#     4  12  30  48  78 114 159 205 263 335 409 484
#
# _framework density 25.666412000000001
#
# number of rings (size 3 to 8) (size 9 to 14) (size 15 to 20)
#    0.000    0.533    2.667    3.600   11.200    2.133 
#    0.000    0.000    0.000    0.000    0.000    0.000 
#    0.000    0.000    0.000    0.000    0.000    0.000 
#
# Total GULP energy -83571.490744 kJ/mol
# GULP energy per Si atom -5571.432716 kJ/mol
# Density = 2.560799 g / cm^3
# Si number density = 25.666412 Si / 1000 Ang^3
#
#
#
# Elastic Constant Matrix: (Units=GPa)
#
#
# Indices 1 2 3 4 5 6 
#
# 1 91.4072 30.5799 35.3442 -12.0655 25.5869 0.3115
# 2 30.5799 56.3831 46.7246 -4.1383 4.4408 3.9976
# 3 35.3442 46.7246 209.4353 6.3198 13.2669 0.7461
# 4 -12.0655 -4.1383 6.3198 46.5482 8.1770 -5.0747
# 5 25.5869 4.4408 13.2669 8.1770 45.4233 -2.6767
# 6 0.3115 3.9976 0.7461 -5.0747 -2.6767 48.0562
#
#
#
# Elastic Compliance Matrix: (Units=1/GPa)
#
#
# Indices 1 2 3 4 5 6 
#
# 1 0.017244 -0.007565 -0.000779 0.005677 -0.009734 0.000587
# 2 -0.007565 0.025577 -0.004617 0.000221 0.002963 -0.001819
# 3 -0.000779 -0.004617 0.006015 -0.001306 -0.000624 0.000123
# 4 0.005677 0.000221 -0.001306 0.024643 -0.007146 0.002169
# 5 -0.009734 0.002963 -0.000624 -0.007146 0.028717 0.000671
# 6 0.000587 -0.001819 0.000123 0.002169 0.000671 0.021221
#
#
# Mechanical properties :
#
#
# Convention : Reuss Voigt Hill
#
# Bulk Modulus (GPa) = 43.64372 64.72478 54.18425
# Shear Modulus (GPa) = 31.85148 44.31068 38.08108
#
# Velocity S-wave (km/s) = 3.52658 4.15951 3.85605
# Velocity P-wave (km/s) = 5.79857 6.95278 6.40174
#
# Compressibility (1/GPa) = 0.02291281
#
# Stress axis : x y z
#
# Youngs Moduli (GPa) = 57.99021 39.09747 166.25473
#
# Poissons Ratio (x) = 0.29578 0.12954
# Poissons Ratio (y) = 0.43871 0.76766
# Poissons Ratio (z) = 0.04518 0.18053
#
# Static dielectric constant tensor:
#      x y z
#    x 2.120770 -0.078570 0.001520 
#    y -0.078570 2.078500 -0.002350 
#    z 0.001520 -0.002350 2.069050 
# 
# From -- ./inp_files/245455.got.cif
#   From: 2010.05.17/outbox.cif.g08.bks.cpg/sg2_123_cif.got.tgz:245455.got - 2010.06.03 11:33:40.
