data_PCOD9052025
_publ_section_title
;
Structure prediction by ZEFSAII (Michael W. Deem and Ramdas Pophale) SiO2 
 PCOD9052025
Probable space group: P -1
;
_chemical_formula_sum "Si O2"
_cell_formula_units_Z 16
_cell_length_a 14.717555
_cell_length_b 8.978002
_cell_length_c 8.826144
_cell_angle_alpha 146.991582
_cell_angle_beta 85.946375
_cell_angle_gamma 90.898697
_cell_volume 631.689103
_symmetry_space_group_name_H-M "P -1"
_symmetry_group_IT_number 2
_symmetry_cell_setting 'triclinic'
loop_
_space_group_symop_operation_xyz
x,y,z
-x,-y,-z
loop_
_atom_site_type_symbol
_atom_site_label
_atom_site_fract_x
_atom_site_fract_y
_atom_site_fract_z
Si Si1 0.638012 0.841500 0.921911
Si Si2 0.212569 0.205175 0.883062
Si Si3 0.335615 0.608258 0.729077
Si Si4 0.362744 0.159759 0.587904
Si Si5 0.863427 0.116783 0.023387
Si Si6 0.016610 0.969773 0.648260
Si Si7 0.501242 0.758231 0.111631
Si Si8 0.889225 0.503167 0.633662
O O1 0.716659 0.911475 0.094787
O O2 0.557535 0.710853 0.911333
O O3 0.606795 0.145144 0.124319
O O4 0.672011 0.620823 0.599833
O O5 0.263557 0.194629 0.707251
O O6 0.114812 0.084248 0.770483
O O7 0.185489 0.495354 0.219400
O O8 0.372274 0.430411 0.716863
O O9 0.238585 0.776511 0.924251
O O10 0.425886 0.082369 0.661004
O O11 0.403151 0.926070 0.269488
O O12 0.878746 0.315565 0.330289
O O13 0.118184 0.190427 0.171143
O O14 0.935632 0.122289 0.884625
O O15 0.023476 0.650738 0.426380
O O16 0.000000 0.000000 0.500000
O O17 0.500000 0.500000 0.000000
#
# Coordination Sequence:
#
# PCOD9052025 Si02
#       8
#     2   2   2   2   2   2   2   2
#     4  11  26  47  81 108 151 196 253 306 379 454
#     4  11  25  49  74 106 151 201 251 301 385 449
#     4  12  25  48  73 116 148 194 254 317 371 436
#     4  10  27  46  75 111 152 198 246 313 379 449
#     4  12  26  48  74 104 148 197 251 307 374 443
#     4  12  30  47  75 111 153 196 258 318 370 437
#     4  10  25  49  77 108 153 203 245 300 380 468
#     4  12  24  49  74 101 138 205 246 306 373 445
#
# _framework density 25.328917000000001
#
# number of rings (size 3 to 8) (size 9 to 14) (size 15 to 20)
#    0.000    0.750    3.750    0.750   10.500    4.500 
#    0.000    0.000    0.000    0.000    0.000    0.000 
#    0.000    0.000    0.000    0.000    0.000    0.000 
#
# Total GULP energy -89291.584706 kJ/mol
# GULP energy per Si atom -5580.724044 kJ/mol
# Density = 2.527127 g / cm^3
# Si number density = 25.328917 Si / 1000 Ang^3
#
#
#
# Elastic Constant Matrix: (Units=GPa)
#
#
# Indices 1 2 3 4 5 6 
#
# 1 95.3505 56.2086 55.8592 -23.5404 -25.0514 6.8100
# 2 56.2086 117.1654 77.7316 -2.8509 -18.5098 -2.5361
# 3 55.8592 77.7316 176.8205 6.0388 -25.9478 9.0855
# 4 -23.5404 -2.8509 6.0388 50.4394 4.1019 -6.6194
# 5 -25.0514 -18.5098 -25.9478 4.1019 46.5466 -13.7076
# 6 6.8100 -2.5361 9.0855 -6.6194 -13.7076 53.0747
#
#
#
# Elastic Compliance Matrix: (Units=1/GPa)
#
#
# Indices 1 2 3 4 5 6 
#
# 1 0.019522 -0.006365 -0.002840 0.008658 0.005696 0.000228
# 2 -0.006365 0.014629 -0.004381 -0.001380 0.000744 0.002286
# 3 -0.002840 -0.004381 0.008874 -0.002936 0.001542 -0.001332
# 4 0.008658 -0.001380 -0.002936 0.024398 0.001106 0.002654
# 5 0.005696 0.000744 0.001542 0.001106 0.027454 0.006269
# 6 0.000228 0.002286 -0.001332 0.002654 0.006269 0.021099
#
#
# Mechanical properties :
#
#
# Convention : Reuss Voigt Hill
#
# Bulk Modulus (GPa) = 63.09011 85.43726 74.26369
# Shear Modulus (GPa) = 33.68524 43.31461 38.49992
#
# Velocity S-wave (km/s) = 3.65075 4.13980 3.90295
# Velocity P-wave (km/s) = 6.53705 7.52695 7.04940
#
# Compressibility (1/GPa) = 0.01585034
#
# Stress axis : x y z
#
# Youngs Moduli (GPa) = 51.22513 68.35882 112.69196
#
# Poissons Ratio (x) = 0.43513 0.32008
# Poissons Ratio (y) = 0.32607 0.49372
# Poissons Ratio (z) = 0.14549 0.29949
#
# Static dielectric constant tensor:
#      x y z
#    x 2.197730 0.029150 0.080060 
#    y 0.029150 2.018580 -0.007370 
#    z 0.080060 -0.007370 2.090730 
# 
# From -- ./inp_files/299824.got.cif
#   From: 2010.05.17/outbox.cif.g08.bks.cpg/sg2_150_cif.got.tgz:299824.got - 2010.06.03 11:33:40.
