data_PCOD9052344
_publ_section_title
;
Structure prediction by ZEFSAII (Michael W. Deem and Ramdas Pophale) SiO2 
 PCOD9052344
Probable space group: P -1
;
_chemical_formula_sum "Si O2"
_cell_formula_units_Z 14
_cell_length_a 5.220322
_cell_length_b 13.910985
_cell_length_c 9.097051
_cell_angle_alpha 111.195985
_cell_angle_beta 103.779311
_cell_angle_gamma 83.506170
_cell_volume 597.942340
_symmetry_space_group_name_H-M "P -1"
_symmetry_group_IT_number 2
_symmetry_cell_setting 'triclinic'
loop_
_space_group_symop_operation_xyz
x,y,z
-x,-y,-z
loop_
_atom_site_type_symbol
_atom_site_label
_atom_site_fract_x
_atom_site_fract_y
_atom_site_fract_z
Si Si1 0.011817 0.667392 0.516929
Si Si2 0.529108 0.400849 0.054381
Si Si3 0.448178 0.242305 0.290931
Si Si4 0.032437 0.152264 0.968521
Si Si5 0.273268 0.939895 0.855234
Si Si6 0.065095 0.485219 0.213958
Si Si7 0.079734 0.297419 0.799029
O O1 0.766054 0.701663 0.602837
O O2 0.966256 0.730952 0.391949
O O3 0.292202 0.690646 0.638256
O O4 0.028954 0.550582 0.393841
O O5 0.342295 0.430245 0.184243
O O6 0.836312 0.402141 0.135308
O O7 0.500000 0.500000 0.000000
O O8 0.385479 0.311404 0.895636
O O9 0.589751 0.130706 0.289708
O O10 0.288559 0.206767 0.104871
O O11 0.953321 0.223771 0.859847
O O12 0.077395 0.036010 0.845947
O O13 0.856501 0.133045 0.079052
O O14 0.500000 0.000000 0.000000
O O15 0.030104 0.583106 0.150007
#
# Coordination Sequence:
#
# PCOD9052344 Si02
#       7
#     2   2   2   2   2   2   2
#     4  10  22  35  61  88 122 152 198 233 301 353
#     4  10  17  35  56  88 117 157 190 241 287 345
#     4  11  20  41  59  86 117 165 189 230 303 366
#     4  10  20  42  63  90 113 153 205 248 278 353
#     4   9  20  39  66  80 117 159 201 229 300 354
#     4   9  20  35  58  87 120 155 191 238 294 345
#     4   9  21  35  62  96 114 147 206 254 278 334
#
# _framework density 23.413629
#
# number of rings (size 3 to 8) (size 9 to 14) (size 15 to 20)
#    0.857    1.429    1.429    2.571    0.000    0.000 
#   20.571    1.429    0.000    5.143    0.000    0.000 
#    0.000    0.000    0.000    0.000    0.000    0.000 
#
# Total GULP energy -77980.636561 kJ/mol
# GULP energy per Si atom -5570.045469 kJ/mol
# Density = 2.336034 g / cm^3
# Si number density = 23.413629 Si / 1000 Ang^3
#
#
#
# Elastic Constant Matrix: (Units=GPa)
#
#
# Indices 1 2 3 4 5 6 
#
# 1 175.7193 44.0127 51.5441 1.3620 -10.9902 -1.8398
# 2 44.0127 94.4033 46.1291 -33.0591 -0.0993 18.8835
# 3 51.5441 46.1291 83.8703 -7.5681 -9.9481 3.3731
# 4 1.3620 -33.0591 -7.5681 29.7520 6.6944 -6.3025
# 5 -10.9902 -0.0993 -9.9481 6.6944 31.6312 16.0573
# 6 -1.8398 18.8835 3.3731 -6.3025 16.0573 28.7951
#
#
#
# Elastic Compliance Matrix: (Units=1/GPa)
#
#
# Indices 1 2 3 4 5 6 
#
# 1 0.007974 -0.005406 -0.002264 -0.007458 0.003146 0.000933
# 2 -0.005406 0.032283 -0.012121 0.033248 -0.008534 -0.008060
# 3 -0.002264 -0.012121 0.020112 -0.010516 0.008548 -0.001620
# 4 -0.007458 0.033248 -0.010516 0.076858 -0.027779 0.011264
# 5 0.003146 -0.008534 0.008548 -0.027779 0.058445 -0.033875
# 6 0.000933 -0.008060 -0.001620 0.011264 -0.033875 0.061619
#
#
# Mechanical properties :
#
#
# Convention : Reuss Voigt Hill
#
# Bulk Modulus (GPa) = 48.11234 70.81833 59.46533
# Shear Modulus (GPa) = 16.45818 32.18944 24.32381
#
# Velocity S-wave (km/s) = 2.65416 3.71187 3.22665
# Velocity P-wave (km/s) = 5.47597 6.97732 6.27173
#
# Compressibility (1/GPa) = 0.02078469
#
# Stress axis : x y z
#
# Youngs Moduli (GPa) = 125.41525 30.97642 49.72260
#
# Poissons Ratio (x) = 0.16747 0.11258
# Poissons Ratio (y) = 0.67803 0.60269
# Poissons Ratio (z) = 0.28396 0.37547
#
# Static dielectric constant tensor:
#      x y z
#    x 1.970520 -0.044210 0.000890 
#    y -0.044210 1.981190 -0.055150 
#    z 0.000890 -0.055150 1.926230 
# 
# From -- ./inp_files/135577.got.cif
#   From: 2010.05.17/outbox.cif.g08.bks.cpg/sg2_68_cif.got.tgz:135577.got - 2010.06.03 11:33:40.
