data_PCOD9052759
_publ_section_title
;
Structure prediction by ZEFSAII (Michael W. Deem and Ramdas Pophale) SiO2 
 PCOD9052759
Probable space group: P -1
;
_chemical_formula_sum "Si O2"
_cell_formula_units_Z 14
_cell_length_a 17.348095
_cell_length_b 9.631192
_cell_length_c 4.742771
_cell_angle_alpha 76.605929
_cell_angle_beta 87.872272
_cell_angle_gamma 132.940324
_cell_volume 542.781042
_symmetry_space_group_name_H-M "P -1"
_symmetry_group_IT_number 2
_symmetry_cell_setting 'triclinic'
loop_
_space_group_symop_operation_xyz
x,y,z
-x,-y,-z
loop_
_atom_site_type_symbol
_atom_site_label
_atom_site_fract_x
_atom_site_fract_y
_atom_site_fract_z
Si Si1 0.162295 0.984067 0.192229
Si Si2 0.899217 0.791374 0.770752
Si Si3 0.360543 0.111941 0.441219
Si Si4 0.963253 0.289565 0.145309
Si Si5 0.497200 0.367978 0.838514
Si Si6 0.308593 0.564911 0.375193
Si Si7 0.620983 0.169853 0.266370
O O1 0.144388 0.887083 0.941044
O O2 0.151190 0.140090 0.086168
O O3 0.272025 0.086231 0.292885
O O4 0.067745 0.789857 0.492680
O O5 0.810245 0.622612 0.638122
O O6 0.000000 0.000000 0.500000
O O7 0.948141 0.715647 0.951024
O O8 0.419275 0.269607 0.621112
O O9 0.323060 0.910288 0.657897
O O10 0.447542 0.187469 0.146589
O O11 0.000000 0.500000 0.000000
O O12 0.613819 0.468755 0.668034
O O13 0.500000 0.500000 0.000000
O O14 0.315018 0.624528 0.664973
O O15 0.364255 0.763504 0.088232
O O16 0.500000 0.000000 0.500000
#
# Coordination Sequence:
#
# PCOD9052759 Si02
#       7
#     2   2   2   2   2   2   2
#     4  11  25  46  70  99 141 185 232 293 361 418
#     4  10  26  49  74 103 142 187 244 298 358 419
#     4  12  25  42  69 100 146 182 229 291 351 428
#     4  11  25  45  71 102 135 179 242 300 355 417
#     4  12  24  42  67 102 141 185 233 284 347 432
#     4  12  25  43  72 102 140 190 233 292 356 423
#     4  12  24  44  68 102 145 186 233 286 360 424
#
# _framework density 25.793088999999998
#
# number of rings (size 3 to 8) (size 9 to 14) (size 15 to 20)
#    0.000    0.571    2.857    4.286    4.000    5.714 
#    0.000    0.000    0.000    0.000    0.000    0.000 
#    0.000    0.000    0.000    0.000    0.000    0.000 
#
# Total GULP energy -78420.767982 kJ/mol
# GULP energy per Si atom -5601.483427 kJ/mol
# Density = 2.573438 g / cm^3
# Si number density = 25.793089 Si / 1000 Ang^3
#
#
#
# Elastic Constant Matrix: (Units=GPa)
#
#
# Indices 1 2 3 4 5 6 
#
# 1 161.2411 71.6074 21.1576 5.8061 28.1668 -11.7810
# 2 71.6074 160.8367 17.6959 23.4859 16.7618 2.4628
# 3 21.1576 17.6959 101.7869 17.1010 15.5797 -4.8599
# 4 5.8061 23.4859 17.1010 51.5388 -1.5604 8.6589
# 5 28.1668 16.7618 15.5797 -1.5604 39.6428 -5.0518
# 6 -11.7810 2.4628 -4.8599 8.6589 -5.0518 48.6756
#
#
#
# Elastic Compliance Matrix: (Units=1/GPa)
#
#
# Indices 1 2 3 4 5 6 
#
# 1 0.008649 -0.003425 -0.000527 0.000345 -0.004258 0.001711
# 2 -0.003425 0.008383 -0.000019 -0.003334 -0.001337 -0.000801
# 3 -0.000527 -0.000019 0.011294 -0.004020 -0.004049 0.001296
# 4 0.000345 -0.003334 -0.004020 0.022969 0.003150 -0.003908
# 5 -0.004258 -0.001337 -0.004049 0.003150 0.030692 0.001258
# 6 0.001711 -0.000801 0.001296 -0.003908 0.001258 0.021954
#
#
# Mechanical properties :
#
#
# Convention : Reuss Voigt Hill
#
# Bulk Modulus (GPa) = 49.05878 71.64295 60.35087
# Shear Modulus (GPa) = 42.13114 48.86503 45.49809
#
# Velocity S-wave (km/s) = 4.04595 4.35731 4.20451
# Velocity P-wave (km/s) = 6.39435 7.29049 6.85707
#
# Compressibility (1/GPa) = 0.02038371
#
# Stress axis : x y z
#
# Youngs Moduli (GPa) = 115.62538 119.28928 88.54020
#
# Poissons Ratio (x) = 0.40861 0.04664
# Poissons Ratio (y) = 0.39606 0.00168
# Poissons Ratio (z) = 0.06091 0.00226
#
# Static dielectric constant tensor:
#      x y z
#    x 2.084260 -0.011030 -0.032080 
#    y -0.011030 2.054510 -0.113540 
#    z -0.032080 -0.113540 2.045890 
# 
# From -- ./inp_files/104983.got.cif
#   From: 2010.05.17/outbox.cif.g08.bks.cpg/sg2_53_cif.got.tgz:104983.got - 2010.06.03 11:33:40.
