data_PCOD9052656
_publ_section_title
;
Structure prediction by ZEFSAII (Michael W. Deem and Ramdas Pophale) SiO2 
 PCOD9052656
Probable space group: P -1
;
_chemical_formula_sum "Si O2"
_cell_formula_units_Z 14
_cell_length_a 12.250926
_cell_length_b 8.952800
_cell_length_c 5.233286
_cell_angle_alpha 76.909986
_cell_angle_beta 76.351471
_cell_angle_gamma 82.207329
_cell_volume 541.235122
_symmetry_space_group_name_H-M "P -1"
_symmetry_group_IT_number 2
_symmetry_cell_setting 'triclinic'
loop_
_space_group_symop_operation_xyz
x,y,z
-x,-y,-z
loop_
_atom_site_type_symbol
_atom_site_label
_atom_site_fract_x
_atom_site_fract_y
_atom_site_fract_z
Si Si1 0.897110 0.501905 0.859182
Si Si2 0.564511 0.838276 0.447453
Si Si3 0.018348 0.753905 0.432199
Si Si4 0.569342 0.334096 0.744373
Si Si5 0.854463 0.046126 0.382612
Si Si6 0.706135 0.026573 0.973425
Si Si7 0.660168 0.601079 0.856837
O O1 0.902762 0.337880 0.779777
O O2 0.770412 0.557856 0.982508
O O3 0.927352 0.634534 0.592497
O O4 0.000000 0.500000 0.000000
O O5 0.469960 0.719925 0.490720
O O6 0.649348 0.757319 0.637064
O O7 0.500000 0.000000 0.500000
O O8 0.635186 0.883968 0.142858
O O9 0.952626 0.912496 0.319387
O O10 0.089357 0.800764 0.620051
O O11 0.652096 0.464094 0.704783
O O12 0.622014 0.174945 0.898304
O O13 0.450917 0.391811 0.914156
O O14 0.773794 0.059571 0.180426
O O15 0.788737 0.002600 0.694597
#
# Coordination Sequence:
#
# PCOD9052656 Si02
#       7
#     2   2   2   2   2   2   2
#     4  11  26  46  76 106 153 201 259 314 382 455
#     4  12  25  46  74 110 155 197 255 312 382 460
#     4  10  26  48  70 111 146 203 262 320 375 453
#     4  11  26  45  74 111 153 202 247 313 380 473
#     4  11  27  46  80 111 152 201 257 320 386 446
#     4  12  26  45  80 116 156 199 253 319 390 459
#     4  11  26  48  72 110 152 203 252 311 389 452
#
# _framework density 25.866762000000001
#
# number of rings (size 3 to 8) (size 9 to 14) (size 15 to 20)
#    0.000    0.857    1.429    3.429   10.000    3.429 
#    2.571    0.000    0.000    0.000    0.000    0.000 
#    0.000    0.000    0.000    0.000    0.000    0.000 
#
# Total GULP energy -78449.909911 kJ/mol
# GULP energy per Si atom -5603.564994 kJ/mol
# Density = 2.580789 g / cm^3
# Si number density = 25.866762 Si / 1000 Ang^3
#
#
#
# Elastic Constant Matrix: (Units=GPa)
#
#
# Indices 1 2 3 4 5 6 
#
# 1 141.4042 53.2036 36.1967 3.1370 31.7494 -26.1447
# 2 53.2036 144.3676 32.0628 12.9450 13.0586 -4.9325
# 3 36.1967 32.0628 93.0293 -1.3449 13.2700 -11.5911
# 4 3.1370 12.9450 -1.3449 30.6899 8.6989 2.6970
# 5 31.7494 13.0586 13.2700 8.6989 55.5572 -4.2115
# 6 -26.1447 -4.9325 -11.5911 2.6970 -4.2115 54.1678
#
#
#
# Elastic Compliance Matrix: (Units=1/GPa)
#
#
# Indices 1 2 3 4 5 6 
#
# 1 0.010421 -0.002967 -0.001857 0.001086 -0.004685 0.003944
# 2 -0.002967 0.008720 -0.002101 -0.003573 0.000642 -0.000860
# 3 -0.001857 -0.002101 0.012635 0.001981 -0.001668 0.001388
# 4 0.001086 -0.003573 0.001981 0.035911 -0.006001 -0.001632
# 5 -0.004685 0.000642 -0.001668 -0.006001 0.021821 -0.000565
# 6 0.003944 -0.000860 0.001388 -0.001632 -0.000565 0.020621
#
#
# Mechanical properties :
#
#
# Convention : Reuss Voigt Hill
#
# Bulk Modulus (GPa) = 55.78394 69.08082 62.43238
# Shear Modulus (GPa) = 38.47526 45.23884 41.85705
#
# Velocity S-wave (km/s) = 3.86092 4.18654 4.02702
# Velocity P-wave (km/s) = 6.44114 7.08053 6.76839
#
# Compressibility (1/GPa) = 0.01792631
#
# Stress axis : x y z
#
# Youngs Moduli (GPa) = 95.96451 114.68235 79.14271
#
# Poissons Ratio (x) = 0.34024 0.14694
# Poissons Ratio (y) = 0.28471 0.16630
# Poissons Ratio (z) = 0.17817 0.24098
#
# Static dielectric constant tensor:
#      x y z
#    x 2.037960 0.049780 -0.000390 
#    y 0.049780 2.035980 0.021880 
#    z -0.000390 0.021880 2.062050 
# 
# From -- ./inp_files/27502.got.cif
#   From: 2010.05.17/outbox.cif.g08.bks.cpg/sg2_14_cif.got.tgz:27502.got - 2010.06.03 11:33:40.
