data_PCOD9052607
_publ_section_title
;
Structure prediction by ZEFSAII (Michael W. Deem and Ramdas Pophale) SiO2 
 PCOD9052607
Probable space group: P -1
;
_chemical_formula_sum "Si O2"
_cell_formula_units_Z 16
_cell_length_a 26.594663
_cell_length_b 26.648397
_cell_length_c 5.111667
_cell_angle_alpha 109.209559
_cell_angle_beta 70.064605
_cell_angle_gamma 169.510149
_cell_volume 619.613711
_symmetry_space_group_name_H-M "P -1"
_symmetry_group_IT_number 2
_symmetry_cell_setting 'triclinic'
loop_
_space_group_symop_operation_xyz
x,y,z
-x,-y,-z
loop_
_atom_site_type_symbol
_atom_site_label
_atom_site_fract_x
_atom_site_fract_y
_atom_site_fract_z
Si Si1 0.084614 0.261825 0.663696
Si Si2 0.458726 0.549205 0.170462
Si Si3 0.769354 0.113705 0.689466
Si Si4 0.764085 0.759357 0.296563
Si Si5 0.758943 0.266958 0.812513
Si Si6 0.334821 0.608500 0.524915
Si Si7 0.545925 0.731584 0.999271
Si Si8 0.355037 0.942520 0.693650
O O1 0.250559 0.373942 0.444030
O O2 0.188608 0.415914 0.595669
O O3 0.224788 0.406912 0.945233
O O4 0.757794 0.937975 0.734528
O O5 0.693824 0.739298 0.193075
O O6 0.260244 0.319108 0.950666
O O7 0.615903 0.749874 0.086951
O O8 0.803200 0.185239 0.000925
O O9 0.069808 0.385222 0.534943
O O10 0.551933 0.856201 0.723373
O O11 0.632651 0.007629 0.495219
O O12 0.500000 0.500000 0.500000
O O13 0.000000 0.000000 0.500000
O O14 0.000000 0.500000 0.000000
O O15 0.221144 0.758542 0.492247
O O16 0.500000 0.000000 0.000000
O O17 0.649617 0.212640 0.761257
O O18 0.530535 0.772893 0.238780
#
# Coordination Sequence:
#
# PCOD9052607 Si02
#       8
#     2   2   2   2   2   2   2   2
#     4  11  25  47  77 107 147 200 253 319 383 462
#     4  10  26  47  74 114 150 193 260 304 386 462
#     4  12  28  47  78 114 162 207 266 330 402 474
#     4  11  26  47  73 108 153 197 240 315 379 462
#     4  11  26  50  79 115 161 210 267 329 392 475
#     4  11  28  47  74 112 150 203 260 321 390 472
#     4  11  25  47  77 107 147 200 253 319 383 462
#     4  11  28  50  78 120 160 214 266 327 400 474
#
# _framework density 25.822538999999999
#
# number of rings (size 3 to 8) (size 9 to 14) (size 15 to 20)
#    0.000    1.000    1.250    2.250    7.000   15.000 
#    0.000    1.875    0.000    0.000    0.000    0.000 
#    0.000    0.000    0.000    0.000    0.000    0.000 
#
# Total GULP energy -89588.740652 kJ/mol
# GULP energy per Si atom -5599.296291 kJ/mol
# Density = 2.576377 g / cm^3
# Si number density = 25.822539 Si / 1000 Ang^3
#
#
#
# Elastic Constant Matrix: (Units=GPa)
#
#
# Indices 1 2 3 4 5 6 
#
# 1 95.7685 23.4859 60.2024 10.3757 -21.4176 0.9319
# 2 23.4859 162.2685 39.9079 17.5592 -12.2111 8.7474
# 3 60.2024 39.9079 135.0269 23.8205 -10.0602 1.9818
# 4 10.3757 17.5592 23.8205 52.7660 -0.5429 9.4836
# 5 -21.4176 -12.2111 -10.0602 -0.5429 41.0724 0.3669
# 6 0.9319 8.7474 1.9818 9.4836 0.3669 20.9308
#
#
#
# Elastic Compliance Matrix: (Units=1/GPa)
#
#
# Indices 1 2 3 4 5 6 
#
# 1 0.016183 -0.000189 -0.006650 -0.000027 0.006754 -0.000118
# 2 -0.000189 0.006951 -0.001622 -0.001121 0.001576 -0.002263
# 3 -0.006650 -0.001622 0.011366 -0.003573 -0.001227 0.001538
# 4 -0.000027 -0.001121 -0.003573 0.022629 -0.000839 -0.009430
# 5 0.006754 0.001576 -0.001227 -0.000839 0.028035 -0.000955
# 6 -0.000118 -0.002263 0.001538 -0.009430 -0.000955 0.052871
#
#
# Mechanical properties :
#
#
# Convention : Reuss Voigt Hill
#
# Bulk Modulus (GPa) = 56.88605 71.13960 64.01283
# Shear Modulus (GPa) = 31.09138 40.91833 36.00486
#
# Velocity S-wave (km/s) = 3.47369 3.98502 3.73811
# Velocity P-wave (km/s) = 6.17788 6.98449 6.59353
#
# Compressibility (1/GPa) = 0.01757900
#
# Stress axis : x y z
#
# Youngs Moduli (GPa) = 61.79321 143.87079 87.97897
#
# Poissons Ratio (x) = 0.02724 0.58503
# Poissons Ratio (y) = 0.01170 0.14266
# Poissons Ratio (z) = 0.41090 0.23329
#
# Static dielectric constant tensor:
#      x y z
#    x 2.159990 -0.073480 0.004130 
#    y -0.073480 2.018450 0.002450 
#    z 0.004130 0.002450 2.042940 
# 
# From -- ./inp_files/127770.got.cif
#   From: 2010.05.17/outbox.cif.g08.bks.cpg/sg2_64_cif.got.tgz:127770.got - 2010.06.03 11:33:40.
