data_PCOD9052729
_publ_section_title
;
Structure prediction by ZEFSAII (Michael W. Deem and Ramdas Pophale) SiO2 
 PCOD9052729
Probable space group: P -1
;
_chemical_formula_sum "Si O2"
_cell_formula_units_Z 16
_cell_length_a 11.197102
_cell_length_b 14.445112
_cell_length_c 7.141410
_cell_angle_alpha 104.053831
_cell_angle_beta 92.505342
_cell_angle_gamma 31.676859
_cell_volume 557.493199
_symmetry_space_group_name_H-M "P -1"
_symmetry_group_IT_number 2
_symmetry_cell_setting 'triclinic'
loop_
_space_group_symop_operation_xyz
x,y,z
-x,-y,-z
loop_
_atom_site_type_symbol
_atom_site_label
_atom_site_fract_x
_atom_site_fract_y
_atom_site_fract_z
Si Si1 0.594908 0.090354 0.743822
Si Si2 0.490279 0.578976 0.814659
Si Si3 0.075839 0.557738 0.500583
Si Si4 0.308670 0.912001 0.841348
Si Si5 0.985261 0.123887 0.593537
Si Si6 0.873291 0.489354 0.956747
Si Si7 0.546923 0.936743 0.759772
Si Si8 0.265366 0.549230 0.833621
O O1 0.798165 0.977063 0.556129
O O2 0.438274 0.099821 0.712314
O O3 0.707159 0.031985 0.927486
O O4 0.375803 0.317036 0.856383
O O5 0.403339 0.737829 0.790748
O O6 0.285795 0.641436 0.799412
O O7 0.544731 0.565614 0.032555
O O8 0.735951 0.352933 0.656588
O O9 0.816437 0.778832 0.643132
O O10 0.000000 0.500000 0.500000
O O11 0.257524 0.486647 0.616644
O O12 0.135180 0.526021 0.269890
O O13 0.481629 0.869986 0.721348
O O14 0.065553 0.075442 0.790393
O O15 0.000000 0.000000 0.500000
O O16 0.959195 0.339730 0.007337
O O17 0.000000 0.500000 0.000000
O O18 0.500000 0.000000 0.000000
#
# Coordination Sequence:
#
# PCOD9052729 Si02
#       8
#     2   2   2   2   2   2   2   2
#     4  11  27  52  76 122 170 215 280 360 425 504
#     4  11  28  57  86 122 172 233 287 355 426 512
#     4  12  26  46  82 118 157 226 281 343 438 508
#     4  11  27  56  82 117 177 216 284 357 422 512
#     4  12  31  52  86 125 166 228 289 347 432 514
#     4  12  26  47  82 118 166 217 285 352 427 517
#     4  10  26  48  78 121 166 216 277 356 433 496
#     4  11  27  52  81 120 170 213 297 351 413 522
#
# _framework density 28.699901000000001
#
# number of rings (size 3 to 8) (size 9 to 14) (size 15 to 20)
#    0.000    0.750    2.500    2.250    8.750    5.500 
#    0.000    3.125    0.000    0.000    0.000    0.000 
#    0.000    0.000    0.000    0.000    0.000    0.000 
#
# Total GULP energy -89347.216324 kJ/mol
# GULP energy per Si atom -5584.201020 kJ/mol
# Density = 2.863458 g / cm^3
# Si number density = 28.699901 Si / 1000 Ang^3
#
#
#
# Elastic Constant Matrix: (Units=GPa)
#
#
# Indices 1 2 3 4 5 6 
#
# 1 272.3441 84.2009 78.0968 -15.7254 31.0953 54.6055
# 2 84.2009 142.5214 71.7060 -6.1564 11.8983 25.9482
# 3 78.0968 71.7060 184.8495 -20.3693 2.0858 7.8142
# 4 -15.7254 -6.1564 -20.3693 45.8446 -2.5100 3.4239
# 5 31.0953 11.8983 2.0858 -2.5100 54.4912 4.4683
# 6 54.6055 25.9482 7.8142 3.4239 4.4683 65.0365
#
#
#
# Elastic Compliance Matrix: (Units=1/GPa)
#
#
# Indices 1 2 3 4 5 6 
#
# 1 0.005740 -0.001706 -0.001434 0.001256 -0.002473 -0.003862
# 2 -0.001706 0.010040 -0.003132 -0.000523 -0.000951 -0.002104
# 3 -0.001434 -0.003132 0.007418 0.002349 0.001215 0.001355
# 4 0.001256 -0.000523 0.002349 0.023428 0.000584 -0.002401
# 5 -0.002473 -0.000951 0.001215 0.000584 0.019876 0.000914
# 6 -0.003862 -0.002104 0.001355 -0.002401 0.000914 0.019359
#
#
# Mechanical properties :
#
#
# Convention : Reuss Voigt Hill
#
# Bulk Modulus (GPa) = 93.85135 118.63584 106.24359
# Shear Modulus (GPa) = 49.04075 57.45522 53.24799
#
# Velocity S-wave (km/s) = 4.13818 4.47915 4.31204
# Velocity P-wave (km/s) = 7.45685 8.25692 7.86706
#
# Compressibility (1/GPa) = 0.01065515
#
# Stress axis : x y z
#
# Youngs Moduli (GPa) = 174.22687 99.60306 134.80115
#
# Poissons Ratio (x) = 0.16989 0.19327
# Poissons Ratio (y) = 0.29717 0.42219
# Poissons Ratio (z) = 0.24979 0.31195
#
# Static dielectric constant tensor:
#      x y z
#    x 2.318220 0.075020 -0.087850 
#    y 0.075020 2.914550 0.650110 
#    z -0.087850 0.650110 2.941880 
# 
# From -- ./inp_files/431577.got.cif
#   From: 2010.05.17/outbox.cif.g08.bks.cpg/sg2_216_cif.got.tgz:431577.got - 2010.06.03 11:33:40.
