data_PCOD9052874
_publ_section_title
;
Structure prediction by ZEFSAII (Michael W. Deem and Ramdas Pophale) SiO2 
 PCOD9052874
Probable space group: P -1
;
_chemical_formula_sum "Si O2"
_cell_formula_units_Z 16
_cell_length_a 11.459176
_cell_length_b 9.139014
_cell_length_c 11.167065
_cell_angle_alpha 48.721174
_cell_angle_beta 118.793629
_cell_angle_gamma 91.178934
_cell_volume 687.334255
_symmetry_space_group_name_H-M "P -1"
_symmetry_group_IT_number 2
_symmetry_cell_setting 'triclinic'
loop_
_space_group_symop_operation_xyz
x,y,z
-x,-y,-z
loop_
_atom_site_type_symbol
_atom_site_label
_atom_site_fract_x
_atom_site_fract_y
_atom_site_fract_z
Si Si1 0.437714 0.123100 0.777378
Si Si2 0.624796 0.085141 0.547775
Si Si3 0.439592 0.348633 0.985817
Si Si4 0.859300 0.567468 0.643943
Si Si5 0.824744 0.672176 0.009445
Si Si6 0.899248 0.956038 0.579931
Si Si7 0.531784 0.423100 0.751741
Si Si8 0.837779 0.352534 0.982137
O O1 0.266280 0.304780 0.584054
O O2 0.527998 0.266746 0.729910
O O3 0.500000 0.000000 0.000000
O O4 0.467263 0.917001 0.817521
O O5 0.526775 0.321530 0.428103
O O6 0.500000 0.000000 0.500000
O O7 0.736038 0.918992 0.789718
O O8 0.735363 0.092259 0.490723
O O9 0.422962 0.411119 0.805897
O O10 0.500000 0.500000 0.000000
O O11 0.281763 0.401559 0.933438
O O12 0.876960 0.760798 0.615310
O O13 0.808860 0.442135 0.784646
O O14 0.029890 0.390485 0.804214
O O15 0.852139 0.535630 0.972625
O O16 0.000000 0.000000 0.500000
O O17 0.015407 0.864832 0.797308
O O18 0.690941 0.325409 0.950443
#
# Coordination Sequence:
#
# PCOD9052874 Si02
#       8
#     2   2   2   2   2   2   2   2
#     4  10  27  48  66  98 141 185 231 288 356 423
#     4  12  22  41  68 105 143 182 234 293 342 413
#     4  11  23  42  73 102 132 174 236 287 345 416
#     4  11  23  43  68  92 144 185 222 282 361 415
#     4  11  22  40  66 107 136 175 230 296 341 410
#     4  11  25  37  68 109 140 179 237 297 356 408
#     4  11  25  42  68  99 143 179 234 288 355 412
#     4  11  21  42  65 100 145 174 226 291 357 415
#
# _framework density 23.278338000000002
#
# number of rings (size 3 to 8) (size 9 to 14) (size 15 to 20)
#    0.000    1.000    5.000    0.750   12.250    0.500 
#    0.000    4.375    0.000    0.000    0.000    0.000 
#    0.000    0.000    0.000    0.000    0.000    0.000 
#
# Total GULP energy -89099.329528 kJ/mol
# GULP energy per Si atom -5568.708096 kJ/mol
# Density = 2.322536 g / cm^3
# Si number density = 23.278338 Si / 1000 Ang^3
#
#
#
# Elastic Constant Matrix: (Units=GPa)
#
#
# Indices 1 2 3 4 5 6 
#
# 1 125.0645 20.8234 41.1466 10.7322 3.8905 -5.6381
# 2 20.8234 103.2942 49.2046 -13.4208 5.1480 22.1719
# 3 41.1466 49.2046 152.8438 19.0210 34.4523 11.2915
# 4 10.7322 -13.4208 19.0210 35.0445 3.4103 -4.9729
# 5 3.8905 5.1480 34.4523 3.4103 42.4513 5.8129
# 6 -5.6381 22.1719 11.2915 -4.9729 5.8129 26.1780
#
#
#
# Elastic Compliance Matrix: (Units=1/GPa)
#
#
# Indices 1 2 3 4 5 6 
#
# 1 0.009359 -0.002100 -0.002043 -0.002037 0.000651 0.004144
# 2 -0.002100 0.015920 -0.005553 0.007861 0.003623 -0.010852
# 3 -0.002043 -0.005553 0.011565 -0.007051 -0.007917 -0.000307
# 4 -0.002037 0.007861 -0.007051 0.036175 0.001716 0.002435
# 5 0.000651 0.003623 -0.007917 0.001716 0.030150 -0.005882
# 6 0.004144 -0.010852 -0.000307 0.002435 -0.005882 0.050185
#
#
# Mechanical properties :
#
#
# Convention : Reuss Voigt Hill
#
# Bulk Modulus (GPa) = 57.30080 67.06129 62.18104
# Shear Modulus (GPa) = 28.00140 38.73665 33.36902
#
# Velocity S-wave (km/s) = 3.47204 4.08372 3.79024
# Velocity P-wave (km/s) = 6.38297 7.14889 6.77676
#
# Compressibility (1/GPa) = 0.01745176
#
# Stress axis : x y z
#
# Youngs Moduli (GPa) = 106.84871 62.81495 86.46938
#
# Poissons Ratio (x) = 0.13193 0.17664
# Poissons Ratio (y) = 0.22441 0.48015
# Poissons Ratio (z) = 0.21827 0.34880
#
# Static dielectric constant tensor:
#      x y z
#    x 2.023660 -0.024120 0.002290 
#    y -0.024120 1.949560 -0.014390 
#    z 0.002290 -0.014390 1.952540 
# 
# From -- ./inp_files/418968.got.cif
#   From: 2010.05.17/outbox.cif.g08.bks.cpg/sg2_210_cif.got.tgz:418968.got - 2010.06.03 11:33:40.
