data_PCOD9052940
_publ_section_title
;
Structure prediction by ZEFSAII (Michael W. Deem and Ramdas Pophale) SiO2 
 PCOD9052940
Probable space group: P -1
;
_chemical_formula_sum "Si O2"
_cell_formula_units_Z 12
_cell_length_a 6.977019
_cell_length_b 15.937181
_cell_length_c 15.343181
_cell_angle_alpha 24.880974
_cell_angle_beta 135.983391
_cell_angle_gamma 132.064060
_cell_volume 497.875660
_symmetry_space_group_name_H-M "P -1"
_symmetry_group_IT_number 2
_symmetry_cell_setting 'triclinic'
loop_
_space_group_symop_operation_xyz
x,y,z
-x,-y,-z
loop_
_atom_site_type_symbol
_atom_site_label
_atom_site_fract_x
_atom_site_fract_y
_atom_site_fract_z
Si Si1 0.438623 0.915893 0.200958
Si Si2 0.957725 0.549582 0.072762
Si Si3 0.295652 0.766467 0.123137
Si Si4 0.392822 0.774506 0.662723
Si Si5 0.777931 0.112127 0.267566
Si Si6 0.199589 0.950861 0.267238
O O1 0.458052 0.123551 0.956381
O O2 0.715985 0.964537 0.302272
O O3 0.211087 0.885347 0.231370
O O4 0.406152 0.744848 0.278233
O O5 0.672871 0.661208 0.868954
O O6 0.141825 0.595983 0.175849
O O7 0.132713 0.665401 0.945202
O O8 0.836525 0.323588 0.254712
O O9 0.058508 0.926504 0.906976
O O10 0.500000 0.000000 0.500000
O O11 0.262439 0.778162 0.519082
O O12 0.472244 0.104166 0.215126
O O13 0.000000 0.000000 0.500000
#
# Coordination Sequence:
#
# PCOD9052940 Si02
#       6
#     2   2   2   2   2   2
#     4   8  19  31  57  86 116 150 191 243 290 338
#     4  10  20  35  58  82 120 154 191 240 295 346
#     4  10  17  35  58  84 112 156 192 237 297 338
#     4  11  21  35  57  87 115 156 195 240 295 345
#     4   9  17  33  56  84 120 146 189 245 282 339
#     4  10  19  32  61  82 114 154 194 235 288 349
#
# _framework density 24.102402999999999
#
# number of rings (size 3 to 8) (size 9 to 14) (size 15 to 20)
#    1.000    1.333    3.333    0.500    0.000    0.000 
#    0.000    1.667    7.333    9.000    0.000    0.000 
#    0.000    0.000    0.000    0.000    0.000    0.000 
#
# Total GULP energy -66836.580777 kJ/mol
# GULP energy per Si atom -5569.715065 kJ/mol
# Density = 2.404754 g / cm^3
# Si number density = 24.102403 Si / 1000 Ang^3
#
#
#
# Elastic Constant Matrix: (Units=GPa)
#
#
# Indices 1 2 3 4 5 6 
#
# 1 89.8786 14.4581 40.4303 -2.2051 -32.6865 9.8861
# 2 14.4581 121.3524 50.7992 11.4621 -16.9331 6.2915
# 3 40.4303 50.7992 82.3078 0.1513 -21.1050 5.2138
# 4 -2.2051 11.4621 0.1513 44.1632 1.3318 -17.4303
# 5 -32.6865 -16.9331 -21.1050 1.3318 45.8078 3.8421
# 6 9.8861 6.2915 5.2138 -17.4303 3.8421 43.0498
#
#
#
# Elastic Compliance Matrix: (Units=1/GPa)
#
#
# Indices 1 2 3 4 5 6 
#
# 1 0.019035 0.003256 -0.007981 -0.002574 0.011684 -0.005965
# 2 0.003256 0.012361 -0.008049 -0.004617 0.003635 -0.003773
# 3 -0.007981 -0.008049 0.021198 0.002060 0.000937 0.001192
# 4 -0.002574 -0.004617 0.002060 0.029046 -0.004544 0.013182
# 5 0.011684 0.003635 0.000937 -0.004544 0.032753 -0.008091
# 6 -0.005965 -0.003773 0.001192 0.013182 -0.008091 0.031065
#
#
# Mechanical properties :
#
#
# Convention : Reuss Voigt Hill
#
# Bulk Modulus (GPa) = 36.97389 56.10153 46.53771
# Shear Modulus (GPa) = 27.77468 39.12758 33.45113
#
# Velocity S-wave (km/s) = 3.39833 4.03350 3.72946
# Velocity P-wave (km/s) = 5.54723 6.70962 6.15593
#
# Compressibility (1/GPa) = 0.02704611
#
# Stress axis : x y z
#
# Youngs Moduli (GPa) = 52.53606 80.90206 47.17405
#
# Poissons Ratio (x) = -0.26340 0.37649
# Poissons Ratio (y) = -0.17104 0.37968
# Poissons Ratio (z) = 0.41928 0.65114
#
# Static dielectric constant tensor:
#      x y z
#    x 1.987330 -0.099820 -0.064740 
#    y -0.099820 2.085130 0.110490 
#    z -0.064740 0.110490 1.970930 
# 
# From -- ./inp_files/336667.got.cif
#   From: 2010.05.17/outbox.cif.g08.bks.cpg/sg2_169_cif.got.tgz:336667.got - 2010.06.03 11:33:40.
