data_PCOD9052999
_publ_section_title
;
Structure prediction by ZEFSAII (Michael W. Deem and Ramdas Pophale) SiO2 
 PCOD9052999
Probable space group: P -1
;
_chemical_formula_sum "Si O2"
_cell_formula_units_Z 14
_cell_length_a 11.350724
_cell_length_b 23.387719
_cell_length_c 15.351352
_cell_angle_alpha 24.335442
_cell_angle_beta 152.497209
_cell_angle_gamma 154.636445
_cell_volume 670.939353
_symmetry_space_group_name_H-M "P -1"
_symmetry_group_IT_number 2
_symmetry_cell_setting 'triclinic'
loop_
_space_group_symop_operation_xyz
x,y,z
-x,-y,-z
loop_
_atom_site_type_symbol
_atom_site_label
_atom_site_fract_x
_atom_site_fract_y
_atom_site_fract_z
Si Si1 0.839198 0.741471 0.470004
Si Si2 0.232475 0.470065 0.533878
Si Si3 0.560701 0.319656 0.275964
Si Si4 0.035331 0.529741 0.085143
Si Si5 0.330109 0.194095 0.900776
Si Si6 0.444975 0.985990 0.587449
Si Si7 0.529970 0.476832 0.198101
O O1 0.929479 0.619361 0.653807
O O2 0.837883 0.851850 0.237502
O O3 0.520412 0.624553 0.466734
O O4 0.099690 0.849182 0.557895
O O5 0.915527 0.440970 0.337286
O O6 0.252503 0.312720 0.738782
O O7 0.236804 0.459990 0.072305
O O8 0.257165 0.487582 0.630271
O O9 0.477857 0.329173 0.308385
O O10 0.498466 0.149753 0.436785
O O11 0.389997 0.381073 0.016326
O O12 0.336928 0.690154 0.074592
O O13 0.000000 0.500000 0.000000
O O14 0.349788 0.068091 0.151668
O O15 0.500000 0.000000 0.500000
#
# Coordination Sequence:
#
# PCOD9052999 Si02
#       7
#     2   2   2   2   2   2   2
#     4  11  22  37  64  94 119 155 207 254 301 352
#     4  11  20  40  64  89 116 159 208 248 294 360
#     4  11  26  38  61  91 124 163 200 246 306 366
#     4  11  17  37  66  92 116 157 205 253 295 348
#     4  11  21  35  63  92 121 155 204 258 297 352
#     4  12  24  40  57  91 129 160 199 251 312 358
#     4  11  21  41  62  87 124 160 202 251 300 361
#
# _framework density 20.866268000000002
#
# number of rings (size 3 to 8) (size 9 to 14) (size 15 to 20)
#    0.000    0.857    4.286    6.429    0.000    3.429 
#    0.000    2.857    0.000    5.143    0.000    0.000 
#    0.000    0.000    0.000    0.000    0.000    0.000 
#
# Total GULP energy -78214.744647 kJ/mol
# GULP energy per Si atom -5586.767475 kJ/mol
# Density = 2.081878 g / cm^3
# Si number density = 20.866268 Si / 1000 Ang^3
#
#
#
# Elastic Constant Matrix: (Units=GPa)
#
#
# Indices 1 2 3 4 5 6 
#
# 1 84.1056 41.6101 12.0931 -3.2976 7.7864 -13.5678
# 2 41.6101 96.7500 47.6911 6.2024 -2.7448 -14.3177
# 3 12.0931 47.6911 128.4149 14.4804 -14.3796 -19.3788
# 4 -3.2976 6.2024 14.4804 39.1793 -7.5386 -1.8107
# 5 7.7864 -2.7448 -14.3796 -7.5386 24.5612 5.6878
# 6 -13.5678 -14.3177 -19.3788 -1.8107 5.6878 46.7612
#
#
#
# Elastic Compliance Matrix: (Units=1/GPa)
#
#
# Indices 1 2 3 4 5 6 
#
# 1 0.016561 -0.007256 0.000885 0.001228 -0.006030 0.003731
# 2 -0.007256 0.016106 -0.004998 -0.001155 0.000674 0.000628
# 3 0.000885 -0.004998 0.010653 -0.002156 0.004145 0.002553
# 4 0.001228 -0.001155 -0.002156 0.027911 0.006938 -0.000654
# 5 -0.006030 0.000674 0.004145 0.006938 0.048522 -0.005459
# 6 0.003731 0.000628 0.002553 -0.000654 -0.005459 0.024357
#
#
# Mechanical properties :
#
#
# Convention : Reuss Voigt Hill
#
# Bulk Modulus (GPa) = 48.58837 56.89545 52.74191
# Shear Modulus (GPa) = 28.78378 35.95876 32.37127
#
# Velocity S-wave (km/s) = 3.71811 4.15576 3.94301
# Velocity P-wave (km/s) = 6.46287 7.09599 6.78681
#
# Compressibility (1/GPa) = 0.02058106
#
# Stress axis : x y z
#
# Youngs Moduli (GPa) = 60.38357 62.08751 93.87378
#
# Poissons Ratio (x) = 0.45052 -0.08304
# Poissons Ratio (y) = 0.43815 0.46916
# Poissons Ratio (z) = -0.05341 0.31030
#
# Static dielectric constant tensor:
#      x y z
#    x 1.800850 0.016730 -0.032660 
#    y 0.016730 1.760600 0.040840 
#    z -0.032660 0.040840 1.819360 
# 
# From -- ./inp_files/435400.got.cif
#   From: 2010.05.17/outbox.cif.g08.bks.cpg/sg2_218_cif.got.tgz:435400.got - 2010.06.03 11:33:40.
