data_PCOD9052052
_publ_section_title
;
Structure prediction by ZEFSAII (Michael W. Deem and Ramdas Pophale) SiO2 
 PCOD9052052
Probable space group: P -1
;
_chemical_formula_sum "Si O2"
_cell_formula_units_Z 13
_cell_length_a 14.624954
_cell_length_b 6.732229
_cell_length_c 7.859307
_cell_angle_alpha 122.396277
_cell_angle_beta 57.229193
_cell_angle_gamma 93.229376
_cell_volume 518.782679
_symmetry_space_group_name_H-M "P -1"
_symmetry_group_IT_number 2
_symmetry_cell_setting 'triclinic'
loop_
_space_group_symop_operation_xyz
x,y,z
-x,-y,-z
loop_
_atom_site_type_symbol
_atom_site_label
_atom_site_fract_x
_atom_site_fract_y
_atom_site_fract_z
Si Si1 0.305613 0.805574 0.603144
Si Si2 0.546951 0.636341 0.163068
Si Si3 0.048814 0.692251 0.263088
Si Si4 0.931067 0.843553 0.089677
Si Si5 0.268625 0.330966 0.261503
Si Si6 0.000000 0.500000 0.500000
Si Si7 0.279516 0.805943 0.026975
O O1 0.430021 0.823351 0.443567
O O2 0.302044 0.530871 0.434484
O O3 0.274581 0.844048 0.848342
O O4 0.202896 0.002526 0.694611
O O5 0.609983 0.424050 0.137389
O O6 0.500000 0.500000 0.000000
O O7 0.643631 0.722761 0.012024
O O8 0.982660 0.754866 0.181786
O O9 0.985953 0.781613 0.543994
O O10 0.054588 0.399575 0.157963
O O11 0.170947 0.725369 0.150607
O O12 0.000000 0.000000 0.000000
O O13 0.137529 0.462145 0.397372
O O14 0.281455 0.068921 0.219171
#
# Coordination Sequence:
#
# PCOD9052052 Si02
#       7
#     2   2   2   2   2   1   2
#     4  11  25  47  78 104 145 197 239 296 371 426
#     4  10  25  50  69 107 147 189 248 295 355 442
#     4  11  26  43  73 108 150 189 243 301 364 438
#     4  11  23  47  71 108 147 185 248 304 354 438
#     4  11  27  46  71 109 145 188 245 299 357 438
#     4  12  24  44  68 104 148 190 236 292 370 418
#     4  12  25  49  73 107 147 188 240 308 357 434
#
# _framework density 25.058664
#
# number of rings (size 3 to 8) (size 9 to 14) (size 15 to 20)
#    0.000    0.923    3.077    2.308    4.308    6.154 
#    2.769    0.000    0.000    0.000    0.000    0.000 
#    0.000    0.000    0.000    0.000    0.000    0.000 
#
# Total GULP energy -72676.803048 kJ/mol
# GULP energy per Si atom -5590.523311 kJ/mol
# Density = 2.500163 g / cm^3
# Si number density = 25.058664 Si / 1000 Ang^3
#
#
#
# Elastic Constant Matrix: (Units=GPa)
#
#
# Indices 1 2 3 4 5 6 
#
# 1 111.5503 55.6873 34.5775 -7.0950 -27.4481 8.4364
# 2 55.6873 105.8378 54.0161 -14.3129 -13.5991 21.4681
# 3 34.5775 54.0161 112.9921 -5.5858 -26.1309 26.1400
# 4 -7.0950 -14.3129 -5.5858 53.2610 6.6574 3.4552
# 5 -27.4481 -13.5991 -26.1309 6.6574 63.3089 -2.9414
# 6 8.4364 21.4681 26.1400 3.4552 -2.9414 50.1636
#
#
#
# Elastic Compliance Matrix: (Units=1/GPa)
#
#
# Indices 1 2 3 4 5 6 
#
# 1 0.013289 -0.006646 -0.000132 -0.000642 0.004393 0.000980
# 2 -0.006646 0.016629 -0.005401 0.003506 -0.002072 -0.003547
# 3 -0.000132 -0.005401 0.013438 -0.000293 0.004155 -0.004405
# 4 -0.000642 0.003506 -0.000293 0.020013 -0.001878 -0.002728
# 5 0.004393 -0.002072 0.004155 -0.001878 0.019132 -0.000766
# 6 0.000980 -0.003547 -0.004405 -0.002728 -0.000766 0.023727
#
#
# Mechanical properties :
#
#
# Convention : Reuss Voigt Hill
#
# Bulk Modulus (GPa) = 52.63680 68.77134 60.70407
# Shear Modulus (GPa) = 36.51789 45.75330 41.13560
#
# Velocity S-wave (km/s) = 3.82160 4.27763 4.05603
# Velocity P-wave (km/s) = 6.36583 7.20425 6.79798
#
# Compressibility (1/GPa) = 0.01899811
#
# Stress axis : x y z
#
# Youngs Moduli (GPa) = 75.24930 60.13511 74.41488
#
# Poissons Ratio (x) = 0.39965 0.00984
# Poissons Ratio (y) = 0.50010 0.40192
# Poissons Ratio (z) = 0.00995 0.32479
#
# Static dielectric constant tensor:
#      x y z
#    x 1.320050 0.586740 -0.487740 
#    y 0.586740 1.590480 0.487700 
#    z -0.487740 0.487700 1.957410 
# 
# From -- ./inp_files/28627.got.cif
#   From: 2010.05.17/outbox.cif.g08.bks.cpg/sg2_15_cif.got.tgz:28627.got - 2010.06.03 11:33:40.
