data_PCOD9052136
_publ_section_title
;
Structure prediction by ZEFSAII (Michael W. Deem and Ramdas Pophale) SiO2 
 PCOD9052136
Probable space group: P -1
;
_chemical_formula_sum "Si O2"
_cell_formula_units_Z 10
_cell_length_a 4.945238
_cell_length_b 16.805173
_cell_length_c 6.302812
_cell_angle_alpha 53.535915
_cell_angle_beta 72.016820
_cell_angle_gamma 101.236534
_cell_volume 348.232365
_symmetry_space_group_name_H-M "P -1"
_symmetry_group_IT_number 2
_symmetry_cell_setting 'triclinic'
loop_
_space_group_symop_operation_xyz
x,y,z
-x,-y,-z
loop_
_atom_site_type_symbol
_atom_site_label
_atom_site_fract_x
_atom_site_fract_y
_atom_site_fract_z
Si Si1 0.375349 0.194329 0.825410
Si Si2 0.657623 0.018261 0.675795
Si Si3 0.781508 0.440805 0.942475
Si Si4 0.805976 0.612613 0.332562
Si Si5 0.065676 0.233374 0.461664
O O1 0.251621 0.081444 0.171056
O O2 0.302209 0.294031 0.756638
O O3 0.760180 0.238282 0.633119
O O4 0.192313 0.165860 0.689423
O O5 0.500000 0.000000 0.500000
O O6 0.915480 0.151088 0.428054
O O7 0.500000 0.000000 0.000000
O O8 0.875493 0.550777 0.606078
O O9 0.390047 0.357736 0.172709
O O10 0.900789 0.357374 0.946915
O O11 0.000000 0.500000 0.000000
O O12 0.500000 0.500000 0.500000
#
# Coordination Sequence:
#
# PCOD9052136 Si02
#       5
#     2   2   2   2   2
#     4  11  27  54  90 133 180 242 310 388 470 565
#     4  10  25  62  93 139 188 244 317 399 479 568
#     4  11  28  56  84 129 187 246 304 383 466 562
#     4  11  28  54  83 127 186 237 311 379 466 559
#     4  11  27  54  91 131 181 246 309 386 473 562
#
# _framework density 28.716457999999999
#
# number of rings (size 3 to 8) (size 9 to 14) (size 15 to 20)
#    0.000    1.200    0.000    1.800   11.200    2.400 
#   36.000    9.000    0.000    0.000    0.000    0.000 
#    0.000    0.000    0.000    0.000    0.000    0.000 
#
# Total GULP energy -55869.790639 kJ/mol
# GULP energy per Si atom -5586.979064 kJ/mol
# Density = 2.865110 g / cm^3
# Si number density = 28.716458 Si / 1000 Ang^3
#
#
#
# Elastic Constant Matrix: (Units=GPa)
#
#
# Indices 1 2 3 4 5 6 
#
# 1 216.1730 85.6331 74.6644 -4.1725 1.8090 -3.0023
# 2 85.6331 232.7077 88.3286 -25.7433 1.6625 -3.1384
# 3 74.6644 88.3286 187.9976 -16.4216 31.9104 2.2017
# 4 -4.1725 -25.7433 -16.4216 45.8901 -1.6551 9.5094
# 5 1.8090 1.6625 31.9104 -1.6551 72.1361 8.7436
# 6 -3.0023 -3.1384 2.2017 9.5094 8.7436 83.6336
#
#
#
# Elastic Compliance Matrix: (Units=1/GPa)
#
#
# Indices 1 2 3 4 5 6 
#
# 1 0.005848 -0.001594 -0.001771 -0.001025 0.000620 0.000249
# 2 -0.001594 0.005948 -0.002094 0.002508 0.000906 -0.000159
# 3 -0.001771 -0.002094 0.007677 0.001326 -0.003254 -0.000155
# 4 -0.001025 0.002508 0.001326 0.024159 0.000269 -0.002753
# 5 0.000620 0.000906 -0.003254 0.000269 0.015454 -0.001504
# 6 0.000249 -0.000159 -0.000155 -0.002753 -0.001504 0.012434
#
#
# Mechanical properties :
#
#
# Convention : Reuss Voigt Hill
#
# Bulk Modulus (GPa) = 116.92058 126.01449 121.46754
# Shear Modulus (GPa) = 58.62410 66.21543 62.41977
#
# Velocity S-wave (km/s) = 4.52318 4.80712 4.66731
# Velocity P-wave (km/s) = 8.25123 8.64805 8.45197
#
# Compressibility (1/GPa) = 0.00855281
#
# Stress axis : x y z
#
# Youngs Moduli (GPa) = 171.01013 168.13753 130.26745
#
# Poissons Ratio (x) = 0.26802 0.23073
# Poissons Ratio (y) = 0.27260 0.27280
# Poissons Ratio (z) = 0.30289 0.35211
#
# Static dielectric constant tensor:
#      x y z
#    x 2.307290 -0.033230 -0.074500 
#    y -0.033230 2.431000 0.332040 
#    z -0.074500 0.332040 2.596000 
# 
# From -- ./inp_files/3023.got.cif
#   From: 2010.05.17/outbox.cif.g08.bks.cpg/sg2_2_cif.got.tgz:3023.got - 2010.06.03 11:33:40.
