data_PCOD9052680
_publ_section_title
;
Structure prediction by ZEFSAII (Michael W. Deem and Ramdas Pophale) SiO2 
 PCOD9052680
Probable space group: P -1
;
_chemical_formula_sum "Si O2"
_cell_formula_units_Z 12
_cell_length_a 8.727537
_cell_length_b 15.227659
_cell_length_c 4.885039
_cell_angle_alpha 90.493446
_cell_angle_beta 97.860487
_cell_angle_gamma 54.922506
_cell_volume 524.350093
_symmetry_space_group_name_H-M "P -1"
_symmetry_group_IT_number 2
_symmetry_cell_setting 'triclinic'
loop_
_space_group_symop_operation_xyz
x,y,z
-x,-y,-z
loop_
_atom_site_type_symbol
_atom_site_label
_atom_site_fract_x
_atom_site_fract_y
_atom_site_fract_z
Si Si1 0.321674 0.533123 0.634376
Si Si2 0.287439 0.307783 0.330383
Si Si3 0.587460 0.066783 0.546999
Si Si4 0.428753 0.669157 0.924569
Si Si5 0.209188 0.924411 0.918273
Si Si6 0.037904 0.406879 0.794340
O O1 0.500000 0.500000 0.500000
O O2 0.294554 0.631082 0.809731
O O3 0.150073 0.572635 0.383619
O O4 0.409362 0.427273 0.842872
O O5 0.412475 0.189182 0.469968
O O6 0.436342 0.333262 0.275495
O O7 0.156375 0.384449 0.546666
O O8 0.170186 0.311019 0.038267
O O9 0.749625 0.051428 0.376297
O O10 0.500000 0.000000 0.500000
O O11 0.665883 0.052648 0.867098
O O12 0.298800 0.796166 0.975019
O O13 0.000000 0.000000 0.000000
O O14 0.000000 0.500000 0.000000
#
# Coordination Sequence:
#
# PCOD9052680 Si02
#       6
#     2   2   2   2   2   2
#     4  11  27  46  70 106 152 189 241 298 358 436
#     4  11  26  47  73 103 142 195 238 294 364 431
#     4  11  25  49  75 107 146 187 241 309 368 430
#     4  10  26  48  73 104 148 196 239 296 369 426
#     4  11  25  47  79 107 143 194 244 304 368 439
#     4  12  28  43  72 106 143 189 245 291 354 436
#
# _framework density 22.885473999999999
#
# number of rings (size 3 to 8) (size 9 to 14) (size 15 to 20)
#    0.000    1.000    0.000    4.500   18.667    1.333 
#    3.000    0.000    0.000    0.000    0.000    0.000 
#    0.000    0.000    0.000    0.000    0.000    0.000 
#
# Total GULP energy -66973.132731 kJ/mol
# GULP energy per Si atom -5581.094394 kJ/mol
# Density = 2.283339 g / cm^3
# Si number density = 22.885474 Si / 1000 Ang^3
#
#
#
# Elastic Constant Matrix: (Units=GPa)
#
#
# Indices 1 2 3 4 5 6 
#
# 1 120.6731 71.4647 42.8584 4.4188 20.3651 -3.4732
# 2 71.4647 122.7574 19.3226 13.5675 -8.4114 -6.5521
# 3 42.8584 19.3226 116.5204 21.8563 18.8895 0.3185
# 4 4.4188 13.5675 21.8563 28.0842 2.5111 -2.3400
# 5 20.3651 -8.4114 18.8895 2.5111 63.2806 6.7335
# 6 -3.4732 -6.5521 0.3185 -2.3400 6.7335 45.8157
#
#
#
# Elastic Compliance Matrix: (Units=1/GPa)
#
#
# Indices 1 2 3 4 5 6 
#
# 1 0.016635 -0.009982 -0.004776 0.006510 -0.005622 0.001025
# 2 -0.009982 0.014844 0.001805 -0.007424 0.004915 0.000252
# 3 -0.004776 0.001805 0.012029 -0.009396 -0.001392 -0.000463
# 4 0.006510 -0.007424 -0.009396 0.045872 -0.002330 0.002182
# 5 -0.005622 0.004915 -0.001392 -0.002330 0.019053 -0.002633
# 6 0.001025 0.000252 -0.000463 0.002182 -0.002633 0.022442
#
#
# Mechanical properties :
#
#
# Convention : Reuss Voigt Hill
#
# Bulk Modulus (GPa) = 56.81191 69.69358 63.25274
# Shear Modulus (GPa) = 30.74133 42.52310 36.63222
#
# Velocity S-wave (km/s) = 3.66904 4.31522 4.00518
# Velocity P-wave (km/s) = 6.54427 7.43959 7.00625
#
# Compressibility (1/GPa) = 0.01760194
#
# Stress axis : x y z
#
# Youngs Moduli (GPa) = 60.11557 67.36709 83.13423
#
# Poissons Ratio (x) = 0.67248 0.39702
# Poissons Ratio (y) = 0.60009 -0.15008
# Poissons Ratio (z) = 0.28709 -0.12161
#
# Static dielectric constant tensor:
#      x y z
#    x 2.149520 0.315730 -0.055190 
#    y 0.315730 2.339350 -0.061110 
#    z -0.055190 -0.061110 1.943240 
# 
# From -- ./inp_files/35169.got.cif
#   From: 2010.05.17/outbox.cif.g08.bks.cpg/sg2_18_cif.got.tgz:35169.got - 2010.06.03 11:33:40.
