data_PCOD9052923
_publ_section_title
;
Structure prediction by ZEFSAII (Michael W. Deem and Ramdas Pophale) SiO2 
 PCOD9052923
Probable space group: P -1
;
_chemical_formula_sum "Si O2"
_cell_formula_units_Z 16
_cell_length_a 26.413504
_cell_length_b 8.618100
_cell_length_c 5.436453
_cell_angle_alpha 87.350324
_cell_angle_beta 91.653679
_cell_angle_gamma 31.850499
_cell_volume 646.877497
_symmetry_space_group_name_H-M "P -1"
_symmetry_group_IT_number 2
_symmetry_cell_setting 'triclinic'
loop_
_space_group_symop_operation_xyz
x,y,z
-x,-y,-z
loop_
_atom_site_type_symbol
_atom_site_label
_atom_site_fract_x
_atom_site_fract_y
_atom_site_fract_z
Si Si1 0.077305 0.649545 0.314731
Si Si2 0.496598 0.855409 0.849042
Si Si3 0.177747 0.272169 0.859379
Si Si4 0.397902 0.697459 0.879776
Si Si5 0.101431 0.929233 0.446221
Si Si6 0.806219 0.084613 0.886037
Si Si7 0.706189 0.555255 0.208344
Si Si8 0.635275 0.438685 0.502156
O O1 0.119578 0.487201 0.071777
O O2 0.069744 0.856791 0.304518
O O3 0.139539 0.432513 0.579211
O O4 0.972266 0.855422 0.354356
O O5 0.534318 0.756322 0.585426
O O6 0.385741 0.090541 0.839317
O O7 0.580188 0.530986 0.996082
O O8 0.500000 0.000000 0.000000
O O9 0.167148 0.111169 0.888174
O O10 0.290775 0.025412 0.920492
O O11 0.385431 0.680206 0.594436
O O12 0.500000 0.500000 0.000000
O O13 0.112291 0.050200 0.263003
O O14 0.205628 0.620000 0.601361
O O15 0.731254 0.184420 0.700977
O O16 0.748427 0.382677 0.970625
O O17 0.665475 0.507520 0.337341
#
# Coordination Sequence:
#
# PCOD9052923 Si02
#       8
#     2   2   2   2   2   2   2   2
#     4  11  29  51  78 106 156 191 246 309 391 441
#     4  12  22  40  67  99 135 195 242 297 363 434
#     4  12  26  51  75 109 151 202 238 311 375 449
#     4  12  28  42  66 104 150 190 245 295 372 447
#     4  10  28  48  75 111 138 196 245 318 362 453
#     4  11  23  44  77 104 148 187 256 300 370 438
#     4  11  23  40  72 102 138 187 249 303 359 435
#     4  11  20  43  65  97 147 188 238 312 352 435
#
# _framework density 24.734203000000001
#
# number of rings (size 3 to 8) (size 9 to 14) (size 15 to 20)
#    0.000    0.750    5.000    1.125    7.000    3.500 
#    0.000    0.000    0.000    0.000    0.000    0.000 
#    0.000    0.000    0.000    0.000    0.000    0.000 
#
# Total GULP energy -89310.741367 kJ/mol
# GULP energy per Si atom -5581.921335 kJ/mol
# Density = 2.467791 g / cm^3
# Si number density = 24.734203 Si / 1000 Ang^3
#
#
#
# Elastic Constant Matrix: (Units=GPa)
#
#
# Indices 1 2 3 4 5 6 
#
# 1 101.2709 17.5645 14.8542 11.5840 -11.5954 -27.0333
# 2 17.5645 108.5128 29.3993 21.0639 -11.7005 -22.3448
# 3 14.8542 29.3993 72.6473 18.6812 -0.4031 -6.8279
# 4 11.5840 21.0639 18.6812 64.4167 2.1248 -4.7947
# 5 -11.5954 -11.7005 -0.4031 2.1248 14.6645 -1.8383
# 6 -27.0333 -22.3448 -6.8279 -4.7947 -1.8383 29.4034
#
#
#
# Elastic Compliance Matrix: (Units=1/GPa)
#
#
# Indices 1 2 3 4 5 6 
#
# 1 0.017436 0.004817 -0.002735 -0.003117 0.020493 0.019829
# 2 0.004817 0.015818 -0.004734 -0.004108 0.018883 0.015860
# 3 -0.002735 -0.004734 0.016653 -0.002836 -0.005454 -0.003049
# 4 -0.003117 -0.004108 -0.002836 0.018232 -0.008993 -0.004236
# 5 0.020493 0.018883 -0.005454 -0.008993 0.105258 0.037038
# 6 0.019829 0.015860 -0.003049 -0.004236 0.037038 0.065210
#
#
# Mechanical properties :
#
#
# Convention : Reuss Voigt Hill
#
# Bulk Modulus (GPa) = 22.42101 45.11855 33.76978
# Shear Modulus (GPa) = 19.32139 36.40446 27.86293
#
# Velocity S-wave (km/s) = 2.79796 3.84060 3.35997
# Velocity P-wave (km/s) = 4.41843 6.16019 5.36053
#
# Compressibility (1/GPa) = 0.04460103
#
# Stress axis : x y z
#
# Youngs Moduli (GPa) = 57.35113 63.21935 60.04953
#
# Poissons Ratio (x) = -0.30451 0.16426
# Poissons Ratio (y) = -0.27624 0.28430
# Poissons Ratio (z) = 0.15688 0.29930
#
# Static dielectric constant tensor:
#      x y z
#    x 1.476230 -0.387420 -2.097060 
#    y -0.387420 1.699040 -1.684680 
#    z -2.097060 -1.684680 -5.787710 
# 
# From -- ./inp_files/126442.got.cif
#   From: 2010.05.17/outbox.cif.g08.bks.cpg/sg2_64_cif.got.tgz:126442.got - 2010.06.03 11:33:40.
