data_PCOD9052019
_publ_section_title
;
Structure prediction by ZEFSAII (Michael W. Deem and Ramdas Pophale) SiO2 
 PCOD9052019
Probable space group: P -1
;
_chemical_formula_sum "Si O2"
_cell_formula_units_Z 16
_cell_length_a 23.441798
_cell_length_b 5.209054
_cell_length_c 12.568041
_cell_angle_alpha 100.218619
_cell_angle_beta 25.083312
_cell_angle_gamma 104.619319
_cell_volume 624.620320
_symmetry_space_group_name_H-M "P -1"
_symmetry_group_IT_number 2
_symmetry_cell_setting 'triclinic'
loop_
_space_group_symop_operation_xyz
x,y,z
-x,-y,-z
loop_
_atom_site_type_symbol
_atom_site_label
_atom_site_fract_x
_atom_site_fract_y
_atom_site_fract_z
Si Si1 0.066532 0.558168 0.632229
Si Si2 0.760620 0.229964 0.156120
Si Si3 0.061615 0.801660 0.455072
Si Si4 0.271142 0.282671 0.123163
Si Si5 0.329089 0.250025 0.571786
Si Si6 0.536954 0.749298 0.032677
Si Si7 0.727186 0.053667 0.558281
Si Si8 0.596566 0.360710 0.251468
O O1 0.033659 0.786255 0.626016
O O2 0.173684 0.419806 0.374489
O O3 0.143329 0.708278 0.616186
O O4 0.219315 0.961389 0.190167
O O5 0.699354 0.459634 0.334618
O O6 0.671458 0.194304 0.194288
O O7 0.747626 0.966838 0.228766
O O8 0.922339 0.353093 0.874460
O O9 0.000000 0.500000 0.500000
O O10 0.000000 0.000000 0.500000
O O11 0.416369 0.335775 0.940279
O O12 0.289339 0.415925 0.986606
O O13 0.487617 0.233643 0.334033
O O14 0.262246 0.170685 0.562205
O O15 0.398928 0.851473 0.276706
O O16 0.500000 0.500000 0.000000
O O17 0.663072 0.944857 0.772961
O O18 0.500000 0.500000 0.500000
#
# Coordination Sequence:
#
# PCOD9052019 Si02
#       8
#     2   2   2   2   2   2   2   2
#     4  12  27  48  74 116 154 202 255 316 388 462
#     4  11  28  49  76 109 156 201 265 311 381 460
#     4  12  26  45  70 107 152 198 246 306 377 454
#     4  12  25  46  79 113 155 200 253 325 391 447
#     4  11  27  50  78 110 151 209 254 320 380 454
#     4  11  23  42  73 110 154 193 254 316 382 451
#     4  11  26  44  72 113 154 200 259 315 384 462
#     4  10  25  49  76 111 150 201 258 319 380 459
#
# _framework density 25.615562000000001
#
# number of rings (size 3 to 8) (size 9 to 14) (size 15 to 20)
#    0.000    0.750    3.750    1.875    8.750    3.000 
#    0.000    0.000    0.000    0.000    0.000    0.000 
#    0.000    0.000    0.000    0.000    0.000    0.000 
#
# Total GULP energy -89494.257802 kJ/mol
# GULP energy per Si atom -5593.391113 kJ/mol
# Density = 2.555726 g / cm^3
# Si number density = 25.615562 Si / 1000 Ang^3
#
#
#
# Elastic Constant Matrix: (Units=GPa)
#
#
# Indices 1 2 3 4 5 6 
#
# 1 146.3771 25.1382 28.0583 -2.3278 5.9561 9.6124
# 2 25.1382 97.8675 16.8920 -10.0284 5.4624 5.8674
# 3 28.0583 16.8920 87.9735 -15.8745 -9.9819 4.5569
# 4 -2.3278 -10.0284 -15.8745 50.2167 5.1323 7.7158
# 5 5.9561 5.4624 -9.9819 5.1323 20.0550 -4.7224
# 6 9.6124 5.8674 4.5569 7.7158 -4.7224 49.1827
#
#
#
# Elastic Compliance Matrix: (Units=1/GPa)
#
#
# Indices 1 2 3 4 5 6 
#
# 1 0.007786 -0.001280 -0.002589 -0.000126 -0.003562 -0.001451
# 2 -0.001280 0.011472 -0.001797 0.002415 -0.004676 -0.001780
# 3 -0.002589 -0.001797 0.013972 0.003252 0.007290 -0.000384
# 4 -0.000126 0.002415 0.003252 0.022747 -0.005930 -0.004703
# 5 -0.003562 -0.004676 0.007290 -0.005930 0.059030 0.007177
# 6 -0.001451 -0.001780 -0.000384 -0.004703 0.007177 0.022291
#
#
# Mechanical properties :
#
#
# Convention : Reuss Voigt Hill
#
# Bulk Modulus (GPa) = 45.66851 52.48834 49.07843
# Shear Modulus (GPa) = 32.06572 41.36618 36.71595
#
# Velocity S-wave (km/s) = 3.54193 4.02292 3.79006
# Velocity P-wave (km/s) = 5.88168 6.48952 6.19306
#
# Compressibility (1/GPa) = 0.02189693
#
# Stress axis : x y z
#
# Youngs Moduli (GPa) = 128.43454 87.16851 71.57291
#
# Poissons Ratio (x) = 0.11159 0.18532
# Poissons Ratio (y) = 0.16441 0.12862
# Poissons Ratio (z) = 0.33255 0.15665
#
# Static dielectric constant tensor:
#      x y z
#    x 2.071840 0.078850 -0.062760 
#    y 0.078850 2.160070 -0.029910 
#    z -0.062760 -0.029910 2.151100 
# 
# From -- ./inp_files/473441.got.cif
#   From: 2010.05.17/outbox.cif.g08.bks.cpg/sg2_237_cif.got.tgz:473441.got - 2010.06.03 11:33:40.
