data_PCOD9052987
_publ_section_title
;
Structure prediction by ZEFSAII (Michael W. Deem and Ramdas Pophale) SiO2 
 PCOD9052987
Probable space group: P -1
;
_chemical_formula_sum "Si O2"
_cell_formula_units_Z 16
_cell_length_a 16.654315
_cell_length_b 11.852038
_cell_length_c 17.007941
_cell_angle_alpha 146.419744
_cell_angle_beta 25.623263
_cell_angle_gamma 147.193830
_cell_volume 744.903279
_symmetry_space_group_name_H-M "P -1"
_symmetry_group_IT_number 2
_symmetry_cell_setting 'triclinic'
loop_
_space_group_symop_operation_xyz
x,y,z
-x,-y,-z
loop_
_atom_site_type_symbol
_atom_site_label
_atom_site_fract_x
_atom_site_fract_y
_atom_site_fract_z
Si Si1 0.752502 0.094363 0.153852
Si Si2 0.317324 0.882219 0.388842
Si Si3 0.335076 0.404196 0.844206
Si Si4 0.886118 0.063452 0.240320
Si Si5 0.962399 0.692573 0.100618
Si Si6 0.907326 0.466188 0.735201
Si Si7 0.758113 0.566372 0.489176
Si Si8 0.327283 0.260586 0.494285
O O1 0.754982 0.331275 0.320044
O O2 0.531685 0.917900 0.257611
O O3 0.832086 0.146507 0.024431
O O4 0.920877 0.004488 0.982814
O O5 0.176230 0.915295 0.601659
O O6 0.203346 0.654169 0.314496
O O7 0.384235 0.064311 0.364704
O O8 0.197669 0.388561 0.877734
O O9 0.564702 0.520479 0.687138
O O10 0.294730 0.151184 0.754147
O O11 0.248640 0.508919 0.049737
O O12 0.936067 0.293687 0.288037
O O13 0.864311 0.783244 0.307415
O O14 0.000000 0.500000 0.000000
O O15 0.037138 0.342500 0.590018
O O16 0.735040 0.717587 0.526676
O O17 0.500000 0.500000 0.500000
#
# Coordination Sequence:
#
# PCOD9052987 Si02
#       8
#     2   2   2   2   2   2   2   2
#     4  11  21  38  69  95 120 168 223 259 314 381
#     4  12  25  44  66 100 130 169 218 272 326 382
#     4  11  22  41  63 100 127 166 223 259 316 395
#     4  11  23  45  70  93 126 176 228 260 313 400
#     4  11  17  33  66  95 122 160 218 265 302 372
#     4  12  28  43  62  98 141 165 212 281 329 369
#     4  12  23  40  69  99 130 172 214 265 331 379
#     4  12  19  39  71  97 125 168 221 265 303 403
#
# _framework density 21.479298
#
# number of rings (size 3 to 8) (size 9 to 14) (size 15 to 20)
#    0.000    0.500   10.000    0.750    0.000    3.500 
#    0.000    0.625    0.000    0.000    0.000    0.000 
#    0.000    0.000    0.000    0.000    0.000    0.000 
#
# Total GULP energy -89283.062072 kJ/mol
# GULP energy per Si atom -5580.191379 kJ/mol
# Density = 2.143041 g / cm^3
# Si number density = 21.479298 Si / 1000 Ang^3
#
#
#
# Elastic Constant Matrix: (Units=GPa)
#
#
# Indices 1 2 3 4 5 6 
#
# 1 60.8891 18.3057 24.9585 -6.9715 7.8023 -13.3513
# 2 18.3057 36.4132 21.5768 -11.7153 6.7873 -15.1077
# 3 24.9585 21.5768 126.3341 -30.8175 17.4378 7.2990
# 4 -6.9715 -11.7153 -30.8175 26.4447 -3.5336 2.4296
# 5 7.8023 6.7873 17.4378 -3.5336 28.6701 -0.7390
# 6 -13.3513 -15.1077 7.2990 2.4296 -0.7390 35.6983
#
#
#
# Elastic Compliance Matrix: (Units=1/GPa)
#
#
# Indices 1 2 3 4 5 6 
#
# 1 0.021198 -0.006237 -0.003778 -0.002431 -0.002135 0.006182
# 2 -0.006237 0.044121 -0.003851 0.011306 -0.004593 0.016262
# 3 -0.003778 -0.003851 0.013583 0.013100 -0.004882 -0.006813
# 4 -0.002431 0.011306 0.013100 0.057304 -0.002991 -0.002765
# 5 -0.002135 -0.004593 -0.004882 -0.002991 0.039130 -0.000730
# 6 0.006182 0.016262 -0.006813 -0.002765 -0.000730 0.038773
#
#
# Mechanical properties :
#
#
# Convention : Reuss Voigt Hill
#
# Bulk Modulus (GPa) = 19.54298 39.25760 29.40029
# Shear Modulus (GPa) = 19.31273 28.74897 24.03085
#
# Velocity S-wave (km/s) = 3.00181 3.66245 3.34846
# Velocity P-wave (km/s) = 4.59703 6.01676 5.35416
#
# Compressibility (1/GPa) = 0.05116926
#
# Stress axis : x y z
#
# Youngs Moduli (GPa) = 47.17449 22.66505 73.62260
#
# Poissons Ratio (x) = 0.14137 0.27816
# Poissons Ratio (y) = 0.29424 0.28351
# Poissons Ratio (z) = 0.17823 0.08728
#
# Static dielectric constant tensor:
#      x y z
#    x 1.882000 -0.034140 -0.007890 
#    y -0.034140 1.803820 -0.014230 
#    z -0.007890 -0.014230 1.590620 
# 
# From -- ./inp_files/532013.got.cif
#   From: 2010.05.17/outbox.cif.g08.bks.cpg/sg2_267_cif.got.tgz:532013.got - 2010.06.03 11:33:40.
