data_PCOD9052271
_publ_section_title
;
Structure prediction by ZEFSAII (Michael W. Deem and Ramdas Pophale) SiO2 
 PCOD9052271
Probable space group: P -1
;
_chemical_formula_sum "Si O2"
_cell_formula_units_Z 13
_cell_length_a 9.964227
_cell_length_b 5.386594
_cell_length_c 18.983491
_cell_angle_alpha 90.997814
_cell_angle_beta 144.360626
_cell_angle_gamma 77.672751
_cell_volume 557.777493
_symmetry_space_group_name_H-M "P -1"
_symmetry_group_IT_number 2
_symmetry_cell_setting 'triclinic'
loop_
_space_group_symop_operation_xyz
x,y,z
-x,-y,-z
loop_
_atom_site_type_symbol
_atom_site_label
_atom_site_fract_x
_atom_site_fract_y
_atom_site_fract_z
Si Si1 0.925348 0.276145 0.928304
Si Si2 0.028753 0.190154 0.574392
Si Si3 0.681081 0.952364 0.642945
Si Si4 0.500000 0.500000 0.000000
Si Si5 0.585353 0.651727 0.347942
Si Si6 0.076124 0.440690 0.855523
Si Si7 0.839673 0.971737 0.213367
O O1 0.637363 0.390696 0.788311
O O2 0.053466 0.253758 0.906602
O O3 0.000000 0.500000 0.000000
O O4 0.000000 0.000000 0.000000
O O5 0.231714 0.302382 0.631510
O O6 0.117302 0.056849 0.685772
O O7 0.762515 0.414353 0.469128
O O8 0.000000 0.000000 0.500000
O O9 0.538082 0.105676 0.650670
O O10 0.900498 0.052250 0.711605
O O11 0.500000 0.000000 0.500000
O O12 0.818976 0.647088 0.721695
O O13 0.258365 0.595490 0.952470
O O14 0.360004 0.755144 0.890630
O O15 0.223697 0.274936 0.849551
#
# Coordination Sequence:
#
# PCOD9052271 Si02
#       7
#     2   2   2   1   2   2   2
#     4  12  29  47  78 112 155 209 260 325 395 467
#     4  11  27  45  74 107 150 202 249 324 395 461
#     4  11  23  42  76 106 143 191 246 320 387 462
#     4  10  26  44  70 102 148 194 250 314 368 464
#     4  11  26  48  69 111 151 195 264 314 396 470
#     4  11  25  46  72 107 143 194 260 308 391 451
#     4  11  24  45  71 104 141 192 248 310 381 450
#
# _framework density 23.306787
#
# number of rings (size 3 to 8) (size 9 to 14) (size 15 to 20)
#    0.000    0.923    1.538    3.231   10.769    6.154 
#    0.000    0.000    0.000    0.000    0.000    0.000 
#    0.000    0.000    0.000    0.000    0.000    0.000 
#
# Total GULP energy -72532.721227 kJ/mol
# GULP energy per Si atom -5579.440094 kJ/mol
# Density = 2.325374 g / cm^3
# Si number density = 23.306787 Si / 1000 Ang^3
#
#
#
# Elastic Constant Matrix: (Units=GPa)
#
#
# Indices 1 2 3 4 5 6 
#
# 1 104.2140 29.6572 69.6835 -13.7055 -23.3896 5.7659
# 2 29.6572 106.8480 70.5499 -22.6815 -29.4369 -9.6359
# 3 69.6835 70.5499 196.3573 -28.7024 -14.7610 -6.0311
# 4 -13.7055 -22.6815 -28.7024 51.2028 9.2279 -4.2020
# 5 -23.3896 -29.4369 -14.7610 9.2279 52.1634 -0.9546
# 6 5.7659 -9.6359 -6.0311 -4.2020 -0.9546 32.4471
#
#
#
# Elastic Compliance Matrix: (Units=1/GPa)
#
#
# Indices 1 2 3 4 5 6 
#
# 1 0.014032 0.000441 -0.004841 0.000063 0.005103 -0.003104
# 2 0.000441 0.015231 -0.004468 0.003450 0.006997 0.004267
# 3 -0.004841 -0.004468 0.008568 0.002108 -0.002616 0.001322
# 4 0.000063 0.003450 0.002108 0.022863 -0.001394 0.004325
# 5 0.005103 0.006997 -0.002616 -0.001394 0.024936 0.001238
# 6 -0.003104 0.004267 0.001322 0.004325 0.001238 0.033481
#
#
# Mechanical properties :
#
#
# Convention : Reuss Voigt Hill
#
# Bulk Modulus (GPa) = 49.75997 83.02231 66.39114
# Shear Modulus (GPa) = 34.83228 42.99790 38.91509
#
# Velocity S-wave (km/s) = 3.87009 4.29985 4.09062
# Velocity P-wave (km/s) = 6.43167 7.76856 7.13151
#
# Compressibility (1/GPa) = 0.02009648
#
# Stress axis : x y z
#
# Youngs Moduli (GPa) = 71.26424 65.65382 116.71505
#
# Poissons Ratio (x) = -0.02893 0.56497
# Poissons Ratio (y) = -0.03140 0.52144
# Poissons Ratio (z) = 0.34496 0.29332
#
# Static dielectric constant tensor:
#      x y z
#    x 1.783150 -0.464640 -0.298980 
#    y -0.464640 -0.664120 -1.893550 
#    z -0.298980 -1.893550 0.381040 
# 
# From -- ./inp_files/26313.got.cif
#   From: 2010.05.17/outbox.cif.g08.bks.cpg/sg2_14_cif.got.tgz:26313.got - 2010.06.03 11:33:40.
