data_PCOD9052038
_publ_section_title
;
Structure prediction by ZEFSAII (Michael W. Deem and Ramdas Pophale) SiO2 
 PCOD9052038
Probable space group: P -1
;
_chemical_formula_sum "Si O2"
_cell_formula_units_Z 9
_cell_length_a 5.679265
_cell_length_b 5.213561
_cell_length_c 11.488116
_cell_angle_alpha 82.449251
_cell_angle_beta 87.883274
_cell_angle_gamma 87.371319
_cell_volume 336.685394
_symmetry_space_group_name_H-M "P -1"
_symmetry_group_IT_number 2
_symmetry_cell_setting 'triclinic'
loop_
_space_group_symop_operation_xyz
x,y,z
-x,-y,-z
loop_
_atom_site_type_symbol
_atom_site_label
_atom_site_fract_x
_atom_site_fract_y
_atom_site_fract_z
Si Si1 0.248193 0.869951 0.699719
Si Si2 0.759361 0.350602 0.526661
Si Si3 0.526717 0.335238 0.757610
Si Si4 0.926647 0.767196 0.925192
Si Si5 0.500000 0.000000 0.000000
O O1 0.218874 0.866354 0.561400
O O2 0.437167 0.631089 0.730294
O O3 0.041351 0.795746 0.796034
O O4 0.327724 0.146396 0.724423
O O5 0.500000 0.500000 0.500000
O O6 0.740000 0.277291 0.667047
O O7 0.000000 0.500000 0.500000
O O8 0.560208 0.235880 0.892593
O O9 0.649441 0.802307 0.926829
O O10 0.000000 0.500000 0.000000
O O11 0.000000 0.000000 0.000000
#
# Coordination Sequence:
#
# PCOD9052038 Si02
#       5
#     2   2   2   2   1
#     4  11  23  49  74 109 159 200 261 330 394 471
#     4  10  25  49  79 113 156 207 266 330 397 476
#     4  11  25  46  75 115 151 206 262 322 398 475
#     4  12  25  45  69 108 153 195 256 316 386 466
#     4  12  26  44  78 110 154 204 262 314 400 466
#
# _framework density 26.731186000000001
#
# number of rings (size 3 to 8) (size 9 to 14) (size 15 to 20)
#    0.000    0.889    4.444    0.667    0.000   12.444 
#    0.000   10.000    0.000    0.000    0.000    0.000 
#    0.000    0.000    0.000    0.000    0.000    0.000 
#
# Total GULP energy -50124.337730 kJ/mol
# GULP energy per Si atom -5569.370859 kJ/mol
# Density = 2.667034 g / cm^3
# Si number density = 26.731186 Si / 1000 Ang^3
#
#
#
# Elastic Constant Matrix: (Units=GPa)
#
#
# Indices 1 2 3 4 5 6 
#
# 1 89.7455 29.2244 57.9038 11.2485 -20.6304 -0.4283
# 2 29.2244 115.0946 14.0498 8.2948 29.8257 -3.9836
# 3 57.9038 14.0498 198.0727 15.0035 -67.0793 2.3934
# 4 11.2485 8.2948 15.0035 56.4324 -3.3775 0.4425
# 5 -20.6304 29.8257 -67.0793 -3.3775 64.9167 0.7756
# 6 -0.4283 -3.9836 2.3934 0.4425 0.7756 40.3335
#
#
#
# Elastic Compliance Matrix: (Units=1/GPa)
#
#
# Indices 1 2 3 4 5 6 
#
# 1 0.015516 -0.004610 -0.002668 -0.001452 0.004219 -0.000197
# 2 -0.004610 0.013219 -0.003264 -0.000826 -0.010974 0.001670
# 3 -0.002668 -0.003264 0.009774 -0.000937 0.010716 -0.001126
# 4 -0.001452 -0.000826 -0.000937 0.018377 -0.000091 -0.000241
# 5 0.004219 -0.010974 0.010716 -0.000091 0.032883 -0.002306
# 6 -0.000197 0.001670 -0.001126 -0.000241 -0.002306 0.025070
#
#
# Mechanical properties :
#
#
# Convention : Reuss Voigt Hill
#
# Bulk Modulus (GPa) = 57.38806 67.25208 62.32007
# Shear Modulus (GPa) = 35.27876 52.45217 43.86546
#
# Velocity S-wave (km/s) = 3.63679 4.43449 4.05530
# Velocity P-wave (km/s) = 6.25701 7.17167 6.72990
#
# Compressibility (1/GPa) = 0.01742523
#
# Stress axis : x y z
#
# Youngs Moduli (GPa) = 64.45075 75.65127 102.31617
#
# Poissons Ratio (x) = 0.34872 0.27295
# Poissons Ratio (y) = 0.29709 0.33397
# Poissons Ratio (z) = 0.17193 0.24693
#
# Static dielectric constant tensor:
#      x y z
#    x 3.180820 0.126260 0.654020 
#    y 0.126260 2.082520 0.033240 
#    z 0.654020 0.033240 2.470420 
# 
# From -- ./inp_files/359165.got.cif
#   From: 2010.05.17/outbox.cif.g08.bks.cpg/sg2_180_cif.got.tgz:359165.got - 2010.06.03 11:33:40.
