data_PCOD9052485
_publ_section_title
;
Structure prediction by ZEFSAII (Michael W. Deem and Ramdas Pophale) SiO2 
 PCOD9052485
Probable space group: P -1
;
_chemical_formula_sum "Si O2"
_cell_formula_units_Z 13
_cell_length_a 12.335589
_cell_length_b 9.343360
_cell_length_c 8.585805
_cell_angle_alpha 47.969455
_cell_angle_beta 125.325219
_cell_angle_gamma 90.644921
_cell_volume 470.420539
_symmetry_space_group_name_H-M "P -1"
_symmetry_group_IT_number 2
_symmetry_cell_setting 'triclinic'
loop_
_space_group_symop_operation_xyz
x,y,z
-x,-y,-z
loop_
_atom_site_type_symbol
_atom_site_label
_atom_site_fract_x
_atom_site_fract_y
_atom_site_fract_z
Si Si1 0.239232 0.291078 0.148282
Si Si2 0.272344 0.371611 0.445069
Si Si3 0.180777 0.919584 0.266001
Si Si4 0.542616 0.535177 0.835885
Si Si5 0.033052 0.945945 0.747048
Si Si6 0.500000 0.500000 0.500000
Si Si7 0.090502 0.310099 0.571480
O O1 0.262347 0.235519 0.391019
O O2 0.379355 0.319421 0.188534
O O3 0.224154 0.106058 0.177831
O O4 0.056544 0.552270 0.781419
O O5 0.446310 0.326634 0.605788
O O6 0.241685 0.298262 0.637050
O O7 0.123571 0.667664 0.081890
O O8 0.347864 0.689473 0.490319
O O9 0.153953 0.881685 0.452367
O O10 0.000000 0.000000 0.000000
O O11 0.625546 0.381143 0.858515
O O12 0.500000 0.500000 0.000000
O O13 0.126138 0.054488 0.811888
O O14 0.000000 0.000000 0.500000
O O15 0.000000 0.500000 0.500000
#
# Coordination Sequence:
#
# PCOD9052485 Si02
#       7
#     2   2   2   2   2   1   2
#     4  11  23  45  71 101 142 197 238 304 380 441
#     4  11  24  48  69 101 148 191 247 303 375 443
#     4  12  25  45  73 105 147 193 249 310 378 450
#     4  11  26  46  73 106 146 196 251 309 373 460
#     4  12  24  41  70 102 138 188 242 299 367 438
#     4  10  26  46  72  96 152 198 232 318 376 434
#     4  12  25  40  69 109 142 184 249 309 365 448
#
# _framework density 27.63485
#
# number of rings (size 3 to 8) (size 9 to 14) (size 15 to 20)
#    0.000    0.615    3.077    4.615    6.462    0.000 
#    0.000    0.769    0.000    0.000    0.000    0.000 
#    0.000    0.000    0.000    0.000    0.000    0.000 
#
# Total GULP energy -72439.485526 kJ/mol
# GULP energy per Si atom -5572.268117 kJ/mol
# Density = 2.757195 g / cm^3
# Si number density = 27.634850 Si / 1000 Ang^3
#
#
#
# Elastic Constant Matrix: (Units=GPa)
#
#
# Indices 1 2 3 4 5 6 
#
# 1 162.1072 16.7230 10.4063 5.3615 -5.8949 34.1519
# 2 16.7230 169.8146 9.1557 15.5137 -6.9938 23.1214
# 3 10.4063 9.1557 39.1865 12.5650 -3.0045 9.1672
# 4 5.3615 15.5137 12.5650 48.0915 -0.6680 3.8404
# 5 -5.8949 -6.9938 -3.0045 -0.6680 49.5458 5.4516
# 6 34.1519 23.1214 9.1672 3.8404 5.4516 39.2165
#
#
#
# Elastic Compliance Matrix: (Units=1/GPa)
#
#
# Indices 1 2 3 4 5 6 
#
# 1 0.007710 0.000313 -0.000240 -0.000311 0.001719 -0.007051
# 2 0.000313 0.006657 0.000048 -0.001838 0.001420 -0.004226
# 3 -0.000240 0.000048 0.029537 -0.007166 0.002372 -0.006352
# 4 -0.000311 -0.001838 -0.007166 0.023220 -0.000509 0.000826
# 5 0.001719 0.001420 0.002372 -0.000509 0.021364 -0.005809
# 6 -0.007051 -0.004226 -0.006352 0.000826 -0.005809 0.036343
#
#
# Mechanical properties :
#
#
# Convention : Reuss Voigt Hill
#
# Bulk Modulus (GPa) = 22.65125 49.29758 35.97441
# Shear Modulus (GPa) = 35.89250 49.69232 42.79241
#
# Velocity S-wave (km/s) = 3.60781 4.24509 3.93936
# Velocity P-wave (km/s) = 5.05663 6.47344 5.80839
#
# Compressibility (1/GPa) = 0.04414768
#
# Stress axis : x y z
#
# Youngs Moduli (GPa) = 129.69845 150.21410 33.85597
#
# Poissons Ratio (x) = -0.04701 0.00811
# Poissons Ratio (y) = -0.04059 -0.00164
# Poissons Ratio (z) = 0.03107 -0.00726
#
# Static dielectric constant tensor:
#      x y z
#    x -0.286970 1.431460 -0.193330 
#    y 1.431460 1.265640 0.095680 
#    z -0.193330 0.095680 2.443470 
# 
# From -- ./inp_files/242321.got.cif
#   From: 2010.05.17/outbox.cif.g08.bks.cpg/sg2_122_cif.got.tgz:242321.got - 2010.06.03 11:33:40.
