data_PCOD9052625
_publ_section_title
;
Structure prediction by ZEFSAII (Michael W. Deem and Ramdas Pophale) SiO2 
 PCOD9052625
Probable space group: P -1
;
_chemical_formula_sum "Si O2"
_cell_formula_units_Z 16
_cell_length_a 23.915726
_cell_length_b 5.235535
_cell_length_c 24.222521
_cell_angle_alpha 87.143099
_cell_angle_beta 168.619902
_cell_angle_gamma 91.754597
_cell_volume 595.140032
_symmetry_space_group_name_H-M "P -1"
_symmetry_group_IT_number 2
_symmetry_cell_setting 'triclinic'
loop_
_space_group_symop_operation_xyz
x,y,z
-x,-y,-z
loop_
_atom_site_type_symbol
_atom_site_label
_atom_site_fract_x
_atom_site_fract_y
_atom_site_fract_z
Si Si1 0.259362 0.926172 0.543965
Si Si2 0.236184 0.697864 0.231434
Si Si3 0.641063 0.423392 0.185290
Si Si4 0.076933 0.844684 0.621618
Si Si5 0.819424 0.698648 0.627127
Si Si6 0.404623 0.975271 0.497347
Si Si7 0.716260 0.886405 0.075503
Si Si8 0.353353 0.379470 0.169145
O O1 0.469410 0.003581 0.794447
O O2 0.101532 0.154918 0.352624
O O3 0.471545 0.770789 0.708291
O O4 0.002503 0.779480 0.321713
O O5 0.500000 0.500000 0.500000
O O6 0.348065 0.861124 0.287882
O O7 0.000000 0.500000 0.000000
O O8 0.768248 0.119288 0.721193
O O9 0.896644 0.136830 0.429389
O O10 0.859263 0.623009 0.414322
O O11 0.437640 0.315765 0.034695
O O12 0.390894 0.667320 0.911775
O O13 0.173370 0.917597 0.775857
O O14 0.813062 0.863261 0.674595
O O15 0.491213 0.648688 0.301482
O O16 0.022508 0.439895 0.836014
O O17 0.563907 0.752879 0.691400
#
# Coordination Sequence:
#
# PCOD9052625 Si02
#       8
#     2   2   2   2   2   2   2   2
#     4  11  27  48  73 111 152 194 255 325 388 461
#     4  11  26  47  73 116 169 208 253 311 385 447
#     4  11  25  43  73 107 143 190 246 295 367 463
#     4  11  24  45  70 105 146 192 241 300 367 455
#     4  11  25  49  79 109 147 203 262 320 391 447
#     4  10  26  47  79 117 156 209 263 317 371 462
#     4  12  25  47  75 107 153 196 242 315 385 456
#     4  11  25  49  79 109 151 198 264 324 385 449
#
# _framework density 26.884428
#
# number of rings (size 3 to 8) (size 9 to 14) (size 15 to 20)
#    0.000    1.000    1.250    3.375    3.500   12.000 
#    2.250    1.875    0.000    0.000    0.000    0.000 
#    0.000    0.000    0.000    0.000    0.000    0.000 
#
# Total GULP energy -89599.884331 kJ/mol
# GULP energy per Si atom -5599.992771 kJ/mol
# Density = 2.682324 g / cm^3
# Si number density = 26.884428 Si / 1000 Ang^3
#
#
#
# Elastic Constant Matrix: (Units=GPa)
#
#
# Indices 1 2 3 4 5 6 
#
# 1 141.7931 54.0431 45.8644 10.0602 1.5094 38.0831
# 2 54.0431 113.2774 36.7092 28.3166 10.1986 14.5427
# 3 45.8644 36.7092 167.6868 17.8616 14.5898 21.3705
# 4 10.0602 28.3166 17.8616 66.0276 -6.1145 4.7314
# 5 1.5094 10.1986 14.5898 -6.1145 22.5702 0.4085
# 6 38.0831 14.5427 21.3705 4.7314 0.4085 32.0352
#
#
#
# Elastic Compliance Matrix: (Units=1/GPa)
#
#
# Indices 1 2 3 4 5 6 
#
# 1 0.012247 -0.004527 -0.001228 0.001508 0.002645 -0.011942
# 2 -0.004527 0.013033 -0.000544 -0.005426 -0.006718 0.000715
# 3 -0.001228 -0.000544 0.007410 -0.001831 -0.004906 -0.002904
# 4 0.001508 -0.005426 -0.001831 0.018602 0.008591 -0.000966
# 5 0.002645 -0.006718 -0.004906 0.008591 0.052641 0.001238
# 6 -0.011942 0.000715 -0.002904 -0.000966 0.001238 0.047152
#
#
# Mechanical properties :
#
#
# Convention : Reuss Voigt Hill
#
# Bulk Modulus (GPa) = 49.76605 77.33230 63.54918
# Shear Modulus (GPa) = 29.34600 43.20264 36.27432
#
# Velocity S-wave (km/s) = 3.30746 4.01306 3.67722
# Velocity P-wave (km/s) = 5.75648 7.09225 6.45899
#
# Compressibility (1/GPa) = 0.02009402
#
# Stress axis : x y z
#
# Youngs Moduli (GPa) = 81.65044 76.72619 134.94901
#
# Poissons Ratio (x) = 0.34736 0.16566
# Poissons Ratio (y) = 0.36965 0.07336
# Poissons Ratio (z) = 0.10023 0.04171
#
# Static dielectric constant tensor:
#      x y z
#    x 2.209780 -0.060310 0.065360 
#    y -0.060310 2.164280 -0.161570 
#    z 0.065360 -0.161570 2.103520 
# 
# From -- ./inp_files/621063.got.cif
#   From: 2010.05.17/outbox.cif.g08.bks.cpg/sg2_311_cif.got.tgz:621063.got - 2010.06.03 11:33:40.
