data_PCOD9052117
_publ_section_title
;
Structure prediction by ZEFSAII (Michael W. Deem and Ramdas Pophale) SiO2 
 PCOD9052117
Probable space group: P -1
;
_chemical_formula_sum "Si O2"
_cell_formula_units_Z 16
_cell_length_a 22.358206
_cell_length_b 22.432397
_cell_length_c 5.419966
_cell_angle_alpha 83.691550
_cell_angle_beta 84.071593
_cell_angle_gamma 13.461603
_cell_volume 628.913241
_symmetry_space_group_name_H-M "P -1"
_symmetry_group_IT_number 2
_symmetry_cell_setting 'triclinic'
loop_
_space_group_symop_operation_xyz
x,y,z
-x,-y,-z
loop_
_atom_site_type_symbol
_atom_site_label
_atom_site_fract_x
_atom_site_fract_y
_atom_site_fract_z
Si Si1 0.149541 0.574388 0.396213
Si Si2 0.094067 0.971869 0.577044
Si Si3 0.403796 0.530687 0.137528
Si Si4 0.244330 0.258065 0.832449
Si Si5 0.096373 0.098988 0.304571
Si Si6 0.247034 0.122357 0.773522
Si Si7 0.417608 0.387330 0.995910
Si Si8 0.435557 0.200378 0.703955
O O1 0.238236 0.445898 0.641229
O O2 0.952992 0.815467 0.466189
O O3 0.019149 0.655657 0.218958
O O4 0.386315 0.381290 0.265235
O O5 0.060960 0.062919 0.387582
O O6 0.896523 0.174646 0.797593
O O7 0.000000 0.000000 0.500000
O O8 0.398188 0.671257 0.630111
O O9 0.460320 0.416660 0.007358
O O10 0.500000 0.500000 0.000000
O O11 0.211524 0.228552 0.710228
O O12 0.288638 0.279727 0.685241
O O13 0.000000 0.500000 0.000000
O O14 0.500000 0.000000 0.000000
O O15 0.862982 0.344468 0.121004
O O16 0.362723 0.850378 0.165979
O O17 0.381625 0.971192 0.533050
O O18 0.411281 0.951228 0.031913
#
# Coordination Sequence:
#
# PCOD9052117 Si02
#       8
#     2   2   2   2   2   2   2   2
#     4  12  32  49  80 116 172 210 286 326 422 506
#     4  12  24  46  76 112 152 198 265 336 408 489
#     4  12  24  46  76 112 152 198 265 336 408 489
#     4  10  25  51  83 119 164 208 276 347 417 490
#     4  12  29  51  78 112 160 211 266 336 410 491
#     4  11  29  52  83 120 163 217 277 344 419 499
#     4  12  29  51  78 112 160 211 266 336 410 491
#     4  11  29  52  83 120 163 217 277 344 419 499
#
# _framework density 25.440712999999999
#
# number of rings (size 3 to 8) (size 9 to 14) (size 15 to 20)
#    0.000    0.500    1.250    4.125   14.000    0.500 
#    0.000    0.000    0.000    0.000    0.000    0.000 
#    0.000    0.000    0.000    0.000    0.000    0.000 
#
# Total GULP energy -89682.711910 kJ/mol
# GULP energy per Si atom -5605.169494 kJ/mol
# Density = 2.538281 g / cm^3
# Si number density = 25.440713 Si / 1000 Ang^3
#
#
#
# Elastic Constant Matrix: (Units=GPa)
#
#
# Indices 1 2 3 4 5 6 
#
# 1 186.2154 30.9383 33.3564 0.9157 -14.3903 4.9984
# 2 30.9383 98.5081 28.7829 9.5957 -21.1213 -3.7799
# 3 33.3564 28.7829 93.3372 4.9259 -13.0248 -5.6134
# 4 0.9157 9.5957 4.9259 54.2283 -3.8927 -1.4775
# 5 -14.3903 -21.1213 -13.0248 -3.8927 42.3945 -4.7713
# 6 4.9984 -3.7799 -5.6134 -1.4775 -4.7713 31.9118
#
#
#
# Elastic Compliance Matrix: (Units=1/GPa)
#
#
# Indices 1 2 3 4 5 6 
#
# 1 0.005985 -0.001294 -0.001729 0.000304 0.000741 -0.001270
# 2 -0.001294 0.012624 -0.002511 -0.001561 0.005155 0.001955
# 3 -0.001729 -0.002511 0.012598 -0.000439 0.002274 0.002509
# 4 0.000304 -0.001561 -0.000439 0.018843 0.001001 0.000712
# 5 0.000741 0.005155 0.002274 0.001001 0.027772 0.005093
# 6 -0.001270 0.001955 0.002509 0.000712 0.005093 0.033003
#
#
# Mechanical properties :
#
#
# Convention : Reuss Voigt Hill
#
# Bulk Modulus (GPa) = 49.65669 62.69064 56.17366
# Shear Modulus (GPa) = 38.87910 44.70579 41.79244
#
# Velocity S-wave (km/s) = 3.91349 4.19651 4.05747
# Velocity P-wave (km/s) = 6.32309 6.94091 6.63919
#
# Compressibility (1/GPa) = 0.02013828
#
# Stress axis : x y z
#
# Youngs Moduli (GPa) = 167.09543 79.21442 79.38073
#
# Poissons Ratio (x) = 0.10250 0.13723
# Poissons Ratio (y) = 0.21621 0.19934
# Poissons Ratio (z) = 0.28887 0.19892
#
# Static dielectric constant tensor:
#      x y z
#    x 2.019830 -0.006030 -0.006340 
#    y -0.006030 2.068890 -0.023540 
#    z -0.006340 -0.023540 2.119600 
# 
# From -- ./inp_files/127777.got.cif
#   From: 2010.05.17/outbox.cif.g08.bks.cpg/sg2_64_cif.got.tgz:127777.got - 2010.06.03 11:33:40.
