data_PCOD9052672
_publ_section_title
;
Structure prediction by ZEFSAII (Michael W. Deem and Ramdas Pophale) SiO2 
 PCOD9052672
Probable space group: P -1
;
_chemical_formula_sum "Si O2"
_cell_formula_units_Z 15
_cell_length_a 5.396804
_cell_length_b 12.212057
_cell_length_c 12.722192
_cell_angle_alpha 42.622046
_cell_angle_beta 108.031465
_cell_angle_gamma 110.375704
_cell_volume 530.369150
_symmetry_space_group_name_H-M "P -1"
_symmetry_group_IT_number 2
_symmetry_cell_setting 'triclinic'
loop_
_space_group_symop_operation_xyz
x,y,z
-x,-y,-z
loop_
_atom_site_type_symbol
_atom_site_label
_atom_site_fract_x
_atom_site_fract_y
_atom_site_fract_z
Si Si1 0.893206 0.907140 0.156038
Si Si2 0.065084 0.772331 0.472635
Si Si3 0.449140 0.435817 0.703176
Si Si4 0.329825 0.132859 0.470554
Si Si5 0.311632 0.474560 0.892111
Si Si6 0.119834 0.767336 0.761036
Si Si7 0.000000 0.500000 0.500000
Si Si8 0.809845 0.223765 0.997302
O O1 0.802247 0.715155 0.248756
O O2 0.082392 0.890156 0.289770
O O3 0.717625 0.031227 0.094971
O O4 0.000000 0.000000 0.000000
O O5 0.361503 0.805494 0.528363
O O6 0.963069 0.589040 0.544941
O O7 0.841465 0.811636 0.494663
O O8 0.445908 0.498852 0.778488
O O9 0.337064 0.557849 0.522370
O O10 0.675862 0.326824 0.822420
O O11 0.179207 0.193835 0.307425
O O12 0.279543 0.936368 0.615178
O O13 0.124852 0.605987 0.805786
O O14 0.500000 0.500000 0.000000
O O15 0.124017 0.295677 0.982410
O O16 0.235910 0.747190 0.905958
#
# Coordination Sequence:
#
# PCOD9052672 Si02
#       8
#     2   2   2   2   2   2   1   2
#     4  11  24  45  73 106 140 190 249 306 368 440
#     4  11  26  49  76 105 151 194 247 311 371 444
#     4  11  25  47  71 104 139 193 238 309 369 442
#     4  11  27  48  75 106 149 201 243 307 369 446
#     4  12  26  43  71 107 147 185 244 303 378 434
#     4  11  26  45  71 109 142 195 245 302 367 450
#     4  10  26  48  72 108 144 192 250 308 374 448
#     4  12  25  45  73 104 144 192 242 309 368 443
#
# _framework density 28.282191000000001
#
# number of rings (size 3 to 8) (size 9 to 14) (size 15 to 20)
#    0.000    0.800    4.000    1.600    5.600    5.867 
#    0.000    0.000    0.000    0.000    0.000    0.000 
#    0.000    0.000    0.000    0.000    0.000    0.000 
#
# Total GULP energy -83663.293644 kJ/mol
# GULP energy per Si atom -5577.552910 kJ/mol
# Density = 2.821782 g / cm^3
# Si number density = 28.282191 Si / 1000 Ang^3
#
#
#
# Elastic Constant Matrix: (Units=GPa)
#
#
# Indices 1 2 3 4 5 6 
#
# 1 71.6289 25.1664 10.4373 21.5729 24.1147 -4.7038
# 2 25.1664 143.9956 -12.7168 8.0915 15.8944 -32.5953
# 3 10.4373 -12.7168 114.7735 25.0986 25.6695 2.4805
# 4 21.5729 8.0915 25.0986 62.5396 11.9178 15.9218
# 5 24.1147 15.8944 25.6695 11.9178 42.0549 9.9798
# 6 -4.7038 -32.5953 2.4805 15.9218 9.9798 43.1424
#
#
#
# Elastic Compliance Matrix: (Units=1/GPa)
#
#
# Indices 1 2 3 4 5 6 
#
# 1 0.020959 0.000486 0.002766 -0.007988 -0.013668 0.008603
# 2 0.000486 0.011006 0.003749 -0.004512 -0.008230 0.011722
# 3 0.002766 0.003749 0.012443 -0.006250 -0.010526 0.007160
# 4 -0.007988 -0.004512 -0.006250 0.024237 0.006650 -0.014404
# 5 -0.013668 -0.008230 -0.010526 0.006650 0.043947 -0.019723
# 6 0.008603 0.011722 0.007160 -0.014404 -0.019723 0.042440
#
#
# Mechanical properties :
#
#
# Convention : Reuss Voigt Hill
#
# Bulk Modulus (GPa) = 17.12005 41.79688 29.45847
# Shear Modulus (GPa) = 31.15259 50.04813 40.60036
#
# Velocity S-wave (km/s) = 3.32247 4.21122 3.79297
# Velocity P-wave (km/s) = 4.55904 6.20133 5.44249
#
# Compressibility (1/GPa) = 0.05841103
#
# Stress axis : x y z
#
# Youngs Moduli (GPa) = 47.71124 90.85753 80.36775
#
# Poissons Ratio (x) = -0.04418 -0.22227
# Poissons Ratio (y) = -0.02320 -0.30133
# Poissons Ratio (z) = -0.13196 -0.34066
#
# Static dielectric constant tensor:
#      x y z
#    x 2.481820 -0.041830 -0.112860 
#    y -0.041830 2.243970 -0.109310 
#    z -0.112860 -0.109310 1.756290 
# 
# From -- ./inp_files/93313.got.cif
#   From: 2010.05.17/outbox.cif.g08.bks.cpg/sg2_47_cif.got.tgz:93313.got - 2010.06.03 11:33:40.
