data_PCOD9052532
_publ_section_title
;
Structure prediction by ZEFSAII (Michael W. Deem and Ramdas Pophale) SiO2 
 PCOD9052532
Probable space group: P -1
;
_chemical_formula_sum "Si O2"
_cell_formula_units_Z 13
_cell_length_a 7.985658
_cell_length_b 14.942248
_cell_length_c 14.954905
_cell_angle_alpha 161.258825
_cell_angle_beta 76.956109
_cell_angle_gamma 111.186206
_cell_volume 492.479121
_symmetry_space_group_name_H-M "P -1"
_symmetry_group_IT_number 2
_symmetry_cell_setting 'triclinic'
loop_
_space_group_symop_operation_xyz
x,y,z
-x,-y,-z
loop_
_atom_site_type_symbol
_atom_site_label
_atom_site_fract_x
_atom_site_fract_y
_atom_site_fract_z
Si Si1 0.453437 0.919597 0.756393
Si Si2 0.752367 0.420112 0.714801
Si Si3 0.000000 0.000000 0.500000
Si Si4 0.756621 0.736545 0.608872
Si Si5 0.159291 0.467460 0.768820
Si Si6 0.344956 0.203042 0.790294
Si Si7 0.167248 0.780438 0.801492
O O1 0.305879 0.684565 0.478281
O O2 0.554128 0.743822 0.631838
O O3 0.327119 0.997646 0.915693
O O4 0.634997 0.217228 0.970611
O O5 0.972688 0.508332 0.799393
O O6 0.622157 0.097284 0.481402
O O7 0.696346 0.683134 0.001898
O O8 0.860652 0.657993 0.246815
O O9 0.848753 0.912350 0.353840
O O10 0.834901 0.776611 0.535837
O O11 0.749392 0.411639 0.331785
O O12 0.879591 0.007571 0.923222
O O13 0.500000 0.500000 0.000000
O O14 0.000000 0.500000 0.500000
#
# Coordination Sequence:
#
# PCOD9052532 Si02
#       7
#     2   2   1   2   2   2   2
#     4  12  28  46  82 107 159 199 252 311 384 450
#     4  11  28  45  72 108 147 193 250 308 374 445
#     4  10  26  46  78 106 150 200 254 312 376 438
#     4  12  27  49  76 110 155 196 252 312 381 450
#     4  11  27  50  74 113 152 202 257 315 377 452
#     4  11  25  46  72 106 146 191 255 312 373 442
#     4  12  28  50  78 117 152 199 252 312 380 460
#
# _framework density 26.397058999999999
#
# number of rings (size 3 to 8) (size 9 to 14) (size 15 to 20)
#    0.000    0.615    1.538    3.692   10.769    2.462 
#    0.000    0.000    0.000    0.000    0.000    0.000 
#    0.000    0.000    0.000    0.000    0.000    0.000 
#
# Total GULP energy -72631.127952 kJ/mol
# GULP energy per Si atom -5587.009842 kJ/mol
# Density = 2.633698 g / cm^3
# Si number density = 26.397059 Si / 1000 Ang^3
#
#
#
# Elastic Constant Matrix: (Units=GPa)
#
#
# Indices 1 2 3 4 5 6 
#
# 1 64.1728 12.8796 24.9546 -0.7027 5.5847 -9.2786
# 2 12.8796 77.1463 8.9809 16.7829 3.1308 -17.7338
# 3 24.9546 8.9809 123.5235 4.3136 -4.2819 -7.5824
# 4 -0.7027 16.7829 4.3136 49.2288 5.1895 15.1866
# 5 5.5847 3.1308 -4.2819 5.1895 41.3129 -6.4547
# 6 -9.2786 -17.7338 -7.5824 15.1866 -6.4547 40.6002
#
#
#
# Elastic Compliance Matrix: (Units=1/GPa)
#
#
# Indices 1 2 3 4 5 6 
#
# 1 0.017863 -0.002362 -0.003466 0.001139 -0.002491 0.001581
# 2 -0.002362 0.018033 0.000285 -0.009945 0.002017 0.011431
# 3 -0.003466 0.000285 0.009024 -0.001748 0.001910 0.001975
# 4 0.001139 -0.009945 -0.001748 0.029548 -0.005854 -0.016393
# 5 -0.002491 0.002017 0.001910 -0.005854 0.026426 0.007060
# 6 0.001581 0.011431 0.001975 -0.016393 0.007060 0.037608
#
#
# Mechanical properties :
#
#
# Convention : Reuss Voigt Hill
#
# Bulk Modulus (GPa) = 29.55648 39.83033 34.69340
# Shear Modulus (GPa) = 31.08218 40.76354 35.92286
#
# Velocity S-wave (km/s) = 3.43517 3.93395 3.69299
# Velocity P-wave (km/s) = 5.19183 5.97966 5.59962
#
# Compressibility (1/GPa) = 0.03383353
#
# Stress axis : x y z
#
# Youngs Moduli (GPa) = 55.98273 55.45428 110.82018
#
# Poissons Ratio (x) = 0.13097 0.38410
# Poissons Ratio (y) = 0.13222 -0.03158
# Poissons Ratio (z) = 0.19404 -0.01580
#
# Static dielectric constant tensor:
#      x y z
#    x 2.051720 0.061960 0.024580 
#    y 0.061960 2.092060 0.057390 
#    z 0.024580 0.057390 2.101410 
# 
# From -- ./inp_files/504802.got.cif
#   From: 2010.05.17/outbox.cif.g08.bks.cpg/sg2_253_cif.got.tgz:504802.got - 2010.06.03 11:33:40.
