data_PCOD9052101
_publ_section_title
;
Structure prediction by ZEFSAII (Michael W. Deem and Ramdas Pophale) SiO2 
 PCOD9052101
Probable space group: P -1
;
_chemical_formula_sum "Si O2"
_cell_formula_units_Z 13
_cell_length_a 9.909192
_cell_length_b 14.037930
_cell_length_c 17.738669
_cell_angle_alpha 20.798301
_cell_angle_beta 45.398010
_cell_angle_gamma 56.273284
_cell_volume 571.685850
_symmetry_space_group_name_H-M "P -1"
_symmetry_group_IT_number 2
_symmetry_cell_setting 'triclinic'
loop_
_space_group_symop_operation_xyz
x,y,z
-x,-y,-z
loop_
_atom_site_type_symbol
_atom_site_label
_atom_site_fract_x
_atom_site_fract_y
_atom_site_fract_z
Si Si1 0.735982 0.422684 0.859234
Si Si2 0.132100 0.784446 0.905310
Si Si3 0.351169 0.220752 0.683815
Si Si4 0.706635 0.800823 0.103104
Si Si5 0.000000 0.500000 0.000000
Si Si6 0.482197 0.722973 0.661933
Si Si7 0.093697 0.588427 0.481278
O O1 0.550143 0.510665 0.843791
O O2 0.931548 0.599388 0.598762
O O3 0.799181 0.442574 0.907204
O O4 0.683251 0.088288 0.107483
O O5 0.321591 0.104755 0.596373
O O6 0.935335 0.803433 0.009520
O O7 0.064553 0.665336 0.935558
O O8 0.548163 0.480922 0.377911
O O9 0.367226 0.179107 0.798011
O O10 0.172895 0.341306 0.655990
O O11 0.729103 0.086115 0.836002
O O12 0.749378 0.427966 0.166278
O O13 0.500000 0.000000 0.500000
O O14 0.000000 0.500000 0.500000
#
# Coordination Sequence:
#
# PCOD9052101 Si02
#       7
#     2   2   2   2   1   2   2
#     4  12  24  43  76 106 144 195 243 300 369 433
#     4  11  24  47  75 105 143 192 245 303 370 437
#     4  11  25  41  65 113 150 191 242 291 348 445
#     4  11  23  43  67 105 154 192 239 291 358 436
#     4  10  26  50  74 100 138 180 250 314 370 430
#     4  10  25  51  74 104 138 187 249 311 376 434
#     4  12  22  40  68 102 146 197 234 287 352 434
#
# _framework density 22.739763
#
# number of rings (size 3 to 8) (size 9 to 14) (size 15 to 20)
#    0.000    0.923    4.615    1.846    2.154    2.462 
#   11.077    3.846    0.000    0.000    0.000    0.000 
#    0.000    0.000    0.000    0.000    0.000    0.000 
#
# Total GULP energy -72389.378231 kJ/mol
# GULP energy per Si atom -5568.413710 kJ/mol
# Density = 2.268801 g / cm^3
# Si number density = 22.739763 Si / 1000 Ang^3
#
#
#
# Elastic Constant Matrix: (Units=GPa)
#
#
# Indices 1 2 3 4 5 6 
#
# 1 146.9354 36.5313 61.2750 2.1768 -13.9825 -12.0286
# 2 36.5313 70.8922 41.0872 2.3458 -4.8714 -10.1817
# 3 61.2750 41.0872 138.3613 -4.6600 -8.5264 -7.9293
# 4 2.1768 2.3458 -4.6600 16.2312 -14.3086 -7.5736
# 5 -13.9825 -4.8714 -8.5264 -14.3086 44.2639 3.7917
# 6 -12.0286 -10.1817 -7.9293 -7.5736 3.7917 36.0805
#
#
#
# Elastic Compliance Matrix: (Units=1/GPa)
#
#
# Indices 1 2 3 4 5 6 
#
# 1 0.009005 -0.002575 -0.002966 0.000969 0.002166 0.001600
# 2 -0.002575 0.018377 -0.004302 -0.002930 -0.000811 0.002852
# 3 -0.002966 -0.004302 0.010289 0.006935 0.002708 0.001230
# 4 0.000969 -0.002930 0.006935 0.101309 0.032451 0.018875
# 5 0.002166 -0.000811 0.002708 0.032451 0.033826 0.004345
# 6 0.001600 0.002852 0.001230 0.018875 0.004345 0.032830
#
#
# Mechanical properties :
#
#
# Convention : Reuss Voigt Hill
#
# Bulk Modulus (GPa) = 55.59836 70.44176 63.02006
# Shear Modulus (GPa) = 21.61529 33.80148 27.70838
#
# Velocity S-wave (km/s) = 3.08644 3.85963 3.49449
# Velocity P-wave (km/s) = 6.09954 7.13491 6.63745
#
# Compressibility (1/GPa) = 0.01798614
#
# Stress axis : x y z
#
# Youngs Moduli (GPa) = 111.04403 54.41553 97.18931
#
# Poissons Ratio (x) = 0.14013 0.28823
# Poissons Ratio (y) = 0.28597 0.41810
# Poissons Ratio (z) = 0.32932 0.23409
#
# Static dielectric constant tensor:
#      x y z
#    x 1.888890 -0.008540 -0.007370 
#    y -0.008540 1.928600 0.014400 
#    z -0.007370 0.014400 1.881740 
# 
# From -- ./inp_files/561036.got.cif
#   From: 2010.05.17/outbox.cif.g08.bks.cpg/sg2_281_cif.got.tgz:561036.got - 2010.06.03 11:33:40.
