data_PCOD9052256
_publ_section_title
;
Structure prediction by ZEFSAII (Michael W. Deem and Ramdas Pophale) SiO2 
 PCOD9052256
Probable space group: P -1
;
_chemical_formula_sum "Si O2"
_cell_formula_units_Z 16
_cell_length_a 9.715441
_cell_length_b 24.063257
_cell_length_c 9.715440
_cell_angle_alpha 27.600088
_cell_angle_beta 120.401081
_cell_angle_gamma 133.375217
_cell_volume 728.543954
_symmetry_space_group_name_H-M "P -1"
_symmetry_group_IT_number 2
_symmetry_cell_setting 'triclinic'
loop_
_space_group_symop_operation_xyz
x,y,z
-x,-y,-z
loop_
_atom_site_type_symbol
_atom_site_label
_atom_site_fract_x
_atom_site_fract_y
_atom_site_fract_z
Si Si1 0.666415 0.562196 0.332733
Si Si2 0.920538 0.176827 0.902634
Si Si3 0.887390 0.809570 0.303039
Si Si4 0.836553 0.382845 0.780602
Si Si5 0.747355 0.000000 0.747354
Si Si6 0.105073 0.562196 0.771390
Si Si7 0.346990 0.946374 0.706636
Si Si8 0.427459 0.525744 0.046799
O O1 0.500000 0.500000 0.500000
O O2 0.871377 0.710698 0.160824
O O3 0.689023 0.429415 0.613141
O O4 0.603689 0.602481 0.075474
O O5 0.970827 0.124927 0.904246
O O6 0.871520 0.289301 0.582075
O O7 0.757175 0.065123 0.177702
O O8 0.744640 0.631817 0.623543
O O9 0.748074 0.864877 0.103715
O O10 0.031407 0.864877 0.387050
O O11 0.000000 0.500000 0.500000
O O12 0.957446 0.429416 0.881561
O O13 0.745018 0.219733 0.035249
O O14 0.579944 0.016325 0.685567
O O15 0.701892 0.983676 0.596268
O O16 0.322047 0.602481 0.793832
O O17 0.000000 0.500000 0.000000
O O18 0.500000 0.500000 0.000000
#
# Coordination Sequence:
#
# PCOD9052256 Si02
#       8
#     2   2   2   2   2   2   2   2
#     4  11  21  38  56  99 127 162 191 245 323 382
#     4  11  24  40  66  88 132 161 204 260 310 371
#     4  11  23  47  63  91 127 165 207 267 302 361
#     4  11  20  37  66  90 127 160 196 252 317 374
#     4  10  26  44  68  86 120 170 222 254 302 356
#     4  11  21  38  56  99 127 162 191 245 323 382
#     4  11  23  44  65  94 119 168 215 254 304 373
#     4  12  24  35  65  98 130 157 199 251 319 376
#
# _framework density 21.961613
#
# number of rings (size 3 to 8) (size 9 to 14) (size 15 to 20)
#    0.000    1.000    5.000    3.000    3.500    1.000 
#    0.000    0.000    0.000    0.000    0.000    0.000 
#    0.000    0.000    0.000    0.000    0.000    0.000 
#
# Total GULP energy -89435.862640 kJ/mol
# GULP energy per Si atom -5589.741415 kJ/mol
# Density = 2.191163 g / cm^3
# Si number density = 21.961613 Si / 1000 Ang^3
#
#
#
# Elastic Constant Matrix: (Units=GPa)
#
#
# Indices 1 2 3 4 5 6 
#
# 1 134.3128 21.5255 15.4033 35.1593 -11.2964 11.1189
# 2 21.5255 77.0318 18.1890 36.7016 14.1295 14.8685
# 3 15.4033 18.1890 56.5366 29.3980 -1.6300 9.9679
# 4 35.1593 36.7016 29.3980 45.8717 -0.6881 1.9548
# 5 -11.2964 14.1295 -1.6300 -0.6881 46.1686 13.7619
# 6 11.1189 14.8685 9.9679 1.9548 13.7619 37.6732
#
#
#
# Elastic Compliance Matrix: (Units=1/GPa)
#
#
# Indices 1 2 3 4 5 6 
#
# 1 0.010577 0.002404 0.003774 -0.012152 0.003510 -0.005720
# 2 0.002404 0.026136 0.006215 -0.026399 -0.004732 -0.009570
# 3 0.003774 0.006215 0.030871 -0.027113 0.003126 -0.011470
# 4 -0.012152 -0.026399 -0.027113 0.068859 -0.000082 0.017636
# 5 0.003510 -0.004732 0.003126 -0.000082 0.027015 -0.009860
# 6 -0.005720 -0.009570 -0.011470 0.017636 -0.009860 0.037731
#
#
# Mechanical properties :
#
#
# Convention : Reuss Voigt Hill
#
# Bulk Modulus (GPa) = 10.82632 42.01298 26.41965
# Shear Modulus (GPa) = 24.13200 40.12694 32.12947
#
# Velocity S-wave (km/s) = 3.31845 4.27914 3.82905
# Velocity P-wave (km/s) = 4.42981 6.60200 5.62182
#
# Compressibility (1/GPa) = 0.09236746
#
# Stress axis : x y z
#
# Youngs Moduli (GPa) = 94.54351 38.26207 32.39289
#
# Poissons Ratio (x) = -0.09196 -0.12224
# Poissons Ratio (y) = -0.22724 -0.20131
# Poissons Ratio (z) = -0.35677 -0.23779
#
# Static dielectric constant tensor:
#      x y z
#    x 1.812450 -0.011520 0.001400 
#    y -0.011520 1.797690 0.011490 
#    z 0.001400 0.011490 1.782070 
# 
# From -- ./inp_files/178203.got.cif
#   From: 2010.05.17/outbox.cif.g08.bks.cpg/sg2_90_cif.got.tgz:178203.got - 2010.06.03 11:33:40.
