data_PCOD9052819
_publ_section_title
;
Structure prediction by ZEFSAII (Michael W. Deem and Ramdas Pophale) SiO2 
 PCOD9052819
Probable space group: P -1
;
_chemical_formula_sum "Si O2"
_cell_formula_units_Z 12
_cell_length_a 9.641985
_cell_length_b 4.669395
_cell_length_c 17.667939
_cell_angle_alpha 105.709171
_cell_angle_beta 35.048912
_cell_angle_gamma 94.402707
_cell_volume 424.373005
_symmetry_space_group_name_H-M "P -1"
_symmetry_group_IT_number 2
_symmetry_cell_setting 'triclinic'
loop_
_space_group_symop_operation_xyz
x,y,z
-x,-y,-z
loop_
_atom_site_type_symbol
_atom_site_label
_atom_site_fract_x
_atom_site_fract_y
_atom_site_fract_z
Si Si1 0.101022 0.892234 0.293096
Si Si2 0.449501 0.245102 0.107645
Si Si3 0.449796 0.296229 0.699009
Si Si4 0.987005 0.113776 0.928529
Si Si5 0.791025 0.746730 0.564711
Si Si6 0.301269 0.818268 0.634473
O O1 0.290380 0.565418 0.167616
O O2 0.419863 0.441374 0.363119
O O3 0.946747 0.826049 0.429115
O O4 0.903398 0.041143 0.327567
O O5 0.274349 0.128772 0.238016
O O6 0.500000 0.000000 0.000000
O O7 0.706761 0.251933 0.033551
O O8 0.165814 0.343245 0.855351
O O9 0.615022 0.095449 0.678267
O O10 0.449127 0.066387 0.612084
O O11 0.120254 0.832542 0.790473
O O12 0.000000 0.000000 0.000000
O O13 0.000000 0.500000 0.500000
O O14 0.500000 0.500000 0.500000
#
# Coordination Sequence:
#
# PCOD9052819 Si02
#       6
#     2   2   2   2   2   2
#     4  12  29  48  85 119 167 223 291 355 434 516
#     4  12  26  51  83 120 169 226 285 353 434 536
#     4  10  27  49  78 117 166 216 287 349 434 515
#     4  10  26  50  87 122 173 223 288 357 444 516
#     4  12  28  49  77 118 167 221 280 359 440 520
#     4  10  26  52  84 128 169 224 297 357 441 516
#
# _framework density 28.277010000000001
#
# number of rings (size 3 to 8) (size 9 to 14) (size 15 to 20)
#    1.000    0.000    1.667    2.000    9.333    5.333 
#    0.000    1.667    3.667    0.000    0.000    0.000 
#    0.000    0.000    0.000    0.000    0.000    0.000 
#
# Total GULP energy -67254.143716 kJ/mol
# GULP energy per Si atom -5604.511976 kJ/mol
# Density = 2.821265 g / cm^3
# Si number density = 28.277010 Si / 1000 Ang^3
#
#
#
# Elastic Constant Matrix: (Units=GPa)
#
#
# Indices 1 2 3 4 5 6 
#
# 1 188.1849 62.7564 89.4991 -14.2375 -50.8299 -34.3215
# 2 62.7564 203.9200 92.1859 -19.4682 -21.9115 -14.3188
# 3 89.4991 92.1859 209.9572 -1.7774 -38.3330 -12.5095
# 4 -14.2375 -19.4682 -1.7774 81.1807 2.4775 -8.6165
# 5 -50.8299 -21.9115 -38.3330 2.4775 64.5774 -6.5497
# 6 -34.3215 -14.3188 -12.5095 -8.6165 -6.5497 64.8547
#
#
#
# Elastic Compliance Matrix: (Units=1/GPa)
#
#
# Indices 1 2 3 4 5 6 
#
# 1 0.009403 -0.000662 -0.002235 0.001809 0.006316 0.005277
# 2 -0.000662 0.006431 -0.002436 0.001452 0.000242 0.000817
# 3 -0.002235 -0.002436 0.007051 -0.000905 0.001602 -0.000319
# 4 0.001809 0.001452 -0.000905 0.013245 0.001174 0.002982
# 5 0.006316 0.000242 0.001602 0.001174 0.022062 0.006089
# 6 0.005277 0.000817 -0.000319 0.002982 0.006089 0.019342
#
#
# Mechanical properties :
#
#
# Convention : Reuss Voigt Hill
#
# Bulk Modulus (GPa) = 81.83873 121.21608 101.52740
# Shear Modulus (GPa) = 54.18788 65.96391 60.07589
#
# Velocity S-wave (km/s) = 4.38233 4.83512 4.61428
# Velocity P-wave (km/s) = 7.38993 8.60997 8.02318
#
# Compressibility (1/GPa) = 0.01221915
#
# Stress axis : x y z
#
# Youngs Moduli (GPa) = 106.35431 155.49771 141.82119
#
# Poissons Ratio (x) = 0.10286 0.31694
# Poissons Ratio (y) = 0.07035 0.34554
# Poissons Ratio (z) = 0.23768 0.37886
#
# Static dielectric constant tensor:
#      x y z
#    x 2.406790 -0.026930 0.183880 
#    y -0.026930 2.167560 0.020770 
#    z 0.183880 0.020770 2.313010 
# 
# From -- ./inp_files/553693.got.cif
#   From: 2010.05.17/outbox.cif.g08.bks.cpg/sg2_277_cif.got.tgz:553693.got - 2010.06.03 11:33:40.
