data_PCOD9052569
_publ_section_title
;
Structure prediction by ZEFSAII (Michael W. Deem and Ramdas Pophale) SiO2 
 PCOD9052569
Probable space group: P -1
;
_chemical_formula_sum "Si O2"
_cell_formula_units_Z 12
_cell_length_a 16.386601
_cell_length_b 5.212112
_cell_length_c 8.068547
_cell_angle_alpha 112.583823
_cell_angle_beta 61.967048
_cell_angle_gamma 79.560752
_cell_volume 503.296954
_symmetry_space_group_name_H-M "P -1"
_symmetry_group_IT_number 2
_symmetry_cell_setting 'triclinic'
loop_
_space_group_symop_operation_xyz
x,y,z
-x,-y,-z
loop_
_atom_site_type_symbol
_atom_site_label
_atom_site_fract_x
_atom_site_fract_y
_atom_site_fract_z
Si Si1 0.570989 0.435074 0.575414
Si Si2 0.924373 0.723588 0.989519
Si Si3 0.234627 0.352054 0.110965
Si Si4 0.126670 0.649838 0.636799
Si Si5 0.638350 0.278884 0.981930
Si Si6 0.688480 0.856684 0.511128
O O1 0.500000 0.500000 0.500000
O O2 0.633165 0.637782 0.547856
O O3 0.643406 0.071957 0.447843
O O4 0.483085 0.568663 0.832724
O O5 0.849019 0.616151 0.939491
O O6 0.005864 0.734603 0.777643
O O7 0.000000 0.500000 0.000000
O O8 0.866307 0.056174 0.215517
O O9 0.177086 0.544262 0.380897
O O10 0.313755 0.479224 0.004117
O O11 0.298611 0.995164 0.016367
O O12 0.191997 0.368789 0.630124
O O13 0.661569 0.109803 0.742784
#
# Coordination Sequence:
#
# PCOD9052569 Si02
#       6
#     2   2   2   2   2   2
#     4  12  26  43  71 109 142 183 231 296 348 418
#     4  11  27  44  75 104 146 182 240 298 354 425
#     4  11  26  47  74 103 147 185 238 289 350 430
#     4  10  26  47  70 108 135 196 233 292 362 410
#     4  11  25  47  71 104 137 192 234 284 352 417
#     4  11  24  46  73  96 146 186 235 285 348 428
#
# _framework density 23.842782
#
# number of rings (size 3 to 8) (size 9 to 14) (size 15 to 20)
#    0.000    1.000    0.000    5.000   14.000    0.667 
#    0.000    0.000    0.000    0.000    0.000    0.000 
#    0.000    0.000    0.000    0.000    0.000    0.000 
#
# Total GULP energy -67234.782226 kJ/mol
# GULP energy per Si atom -5602.898519 kJ/mol
# Density = 2.378852 g / cm^3
# Si number density = 23.842782 Si / 1000 Ang^3
#
#
#
# Elastic Constant Matrix: (Units=GPa)
#
#
# Indices 1 2 3 4 5 6 
#
# 1 132.7644 50.1630 24.4177 -0.9784 -5.3625 0.8343
# 2 50.1630 148.4771 27.6954 8.7054 -0.6835 -7.0970
# 3 24.4177 27.6954 94.8022 11.5656 -5.1118 -13.1102
# 4 -0.9784 8.7054 11.5656 31.3028 2.0463 -13.9288
# 5 -5.3625 -0.6835 -5.1118 2.0463 36.2521 -8.8432
# 6 0.8343 -7.0970 -13.1102 -13.9288 -8.8432 52.6907
#
#
#
# Elastic Compliance Matrix: (Units=1/GPa)
#
#
# Indices 1 2 3 4 5 6 
#
# 1 0.008950 -0.002812 -0.001670 0.001440 0.000853 -0.000412
# 2 -0.002812 0.008057 -0.001402 -0.001661 -0.000297 0.000292
# 3 -0.001670 -0.001402 0.012237 -0.003264 0.002220 0.002392
# 4 0.001440 -0.001661 -0.003264 0.037610 -0.000245 0.008842
# 5 0.000853 -0.000297 0.002220 -0.000245 0.029339 0.005358
# 6 -0.000412 0.000292 0.002392 0.008842 0.005358 0.022856
#
#
# Mechanical properties :
#
#
# Convention : Reuss Voigt Hill
#
# Bulk Modulus (GPa) = 57.22916 64.51063 60.86990
# Shear Modulus (GPa) = 36.59189 42.30029 39.44609
#
# Velocity S-wave (km/s) = 3.92179 4.21662 4.07187
# Velocity P-wave (km/s) = 6.67549 7.12895 6.90594
#
# Compressibility (1/GPa) = 0.01747361
#
# Stress axis : x y z
#
# Youngs Moduli (GPa) = 111.73748 124.11994 81.72061
#
# Poissons Ratio (x) = 0.34906 0.13648
# Poissons Ratio (y) = 0.31423 0.11460
# Poissons Ratio (z) = 0.18662 0.17406
#
# Static dielectric constant tensor:
#      x y z
#    x 1.865810 0.002930 -0.031530 
#    y 0.002930 2.077610 -0.203920 
#    z -0.031530 -0.203920 2.085260 
# 
# From -- ./inp_files/88448.got.cif
#   From: 2010.05.17/outbox.cif.g08.bks.cpg/sg2_45_cif.got.tgz:88448.got - 2010.06.03 11:33:40.
