data_PCOD9052308
_publ_section_title
;
Structure prediction by ZEFSAII (Michael W. Deem and Ramdas Pophale) SiO2 
 PCOD9052308
Probable space group: P -1
;
_chemical_formula_sum "Si O2"
_cell_formula_units_Z 15
_cell_length_a 8.944650
_cell_length_b 9.324562
_cell_length_c 17.091294
_cell_angle_alpha 110.122024
_cell_angle_beta 63.248268
_cell_angle_gamma 148.288439
_cell_volume 666.800096
_symmetry_space_group_name_H-M "P -1"
_symmetry_group_IT_number 2
_symmetry_cell_setting 'triclinic'
loop_
_space_group_symop_operation_xyz
x,y,z
-x,-y,-z
loop_
_atom_site_type_symbol
_atom_site_label
_atom_site_fract_x
_atom_site_fract_y
_atom_site_fract_z
Si Si1 0.781240 0.782823 0.441579
Si Si2 0.465102 0.474027 0.839870
Si Si3 0.289184 0.958136 0.586754
Si Si4 0.833057 0.945455 0.954424
Si Si5 0.741705 0.395572 0.685600
Si Si6 0.500000 0.000000 0.000000
Si Si7 0.645064 0.315187 0.173360
Si Si8 0.898511 0.246988 0.730273
O O1 0.500000 0.500000 0.500000
O O2 0.919431 0.758069 0.347873
O O3 0.715998 0.884601 0.426246
O O4 0.000000 0.000000 0.500000
O O5 0.638247 0.451643 0.777090
O O6 0.510246 0.637460 0.793821
O O7 0.109707 0.178391 0.872780
O O8 0.596467 0.646499 0.919754
O O9 0.963133 0.637513 0.615099
O O10 0.500000 0.000000 0.500000
O O11 0.445213 0.104288 0.660713
O O12 0.669338 0.984856 0.004835
O O13 0.000000 0.000000 0.000000
O O14 0.907601 0.388565 0.692098
O O15 0.361726 0.771628 0.925131
O O16 0.965836 0.590701 0.188634
O O17 0.440013 0.062022 0.231975
#
# Coordination Sequence:
#
# PCOD9052308 Si02
#       8
#     2   2   2   2   2   1   2   2
#     4  12  24  43  68  98 135 173 224 274 335 406
#     4  11  24  44  65  97 131 176 222 285 338 411
#     4  12  24  43  67  96 137 179 223 279 340 404
#     4  11  25  43  69  99 135 175 232 280 350 415
#     4  12  25  42  67  98 135 176 227 278 344 406
#     4  10  26  44  72  98 140 182 232 292 358 416
#     4  11  24  44  66  96 133 175 229 280 347 406
#     4  12  25  41  68  98 132 177 226 281 338 413
#
# _framework density 22.495498000000001
#
# number of rings (size 3 to 8) (size 9 to 14) (size 15 to 20)
#    0.000    0.533    0.000    8.800    3.733    4.800 
#    0.000    0.000    0.000    0.000    0.000    0.000 
#    0.000    0.000    0.000    0.000    0.000    0.000 
#
# Total GULP energy -83722.235347 kJ/mol
# GULP energy per Si atom -5581.482356 kJ/mol
# Density = 2.244430 g / cm^3
# Si number density = 22.495498 Si / 1000 Ang^3
#
#
#
# Elastic Constant Matrix: (Units=GPa)
#
#
# Indices 1 2 3 4 5 6 
#
# 1 169.5972 7.6923 35.3106 20.1688 -9.4064 -24.2133
# 2 7.6923 91.3912 0.6940 -1.6155 -2.9665 -3.4286
# 3 35.3106 0.6940 54.3695 22.9058 -17.2779 -12.3421
# 4 20.1688 -1.6155 22.9058 38.8426 -3.3688 6.3646
# 5 -9.4064 -2.9665 -17.2779 -3.3688 44.5066 8.4868
# 6 -24.2133 -3.4286 -12.3421 6.3646 8.4868 37.4023
#
#
#
# Elastic Compliance Matrix: (Units=1/GPa)
#
#
# Indices 1 2 3 4 5 6 
#
# 1 0.007468 -0.000512 -0.002686 -0.003116 -0.000606 0.004569
# 2 -0.000512 0.011034 0.000319 0.000507 0.000686 0.000544
# 3 -0.002686 0.000319 0.033542 -0.019330 0.008989 0.010608
# 4 -0.003116 0.000507 -0.019330 0.041023 -0.002196 -0.014832
# 5 -0.000606 0.000686 0.008989 -0.002196 0.026272 -0.002951
# 6 0.004569 0.000544 0.010608 -0.014832 -0.002951 0.036438
#
#
# Mechanical properties :
#
#
# Convention : Reuss Voigt Hill
#
# Bulk Modulus (GPa) = 21.60404 44.75019 33.17712
# Shear Modulus (GPa) = 28.25449 42.26104 35.25776
#
# Velocity S-wave (km/s) = 3.54786 4.33904 3.96324
# Velocity P-wave (km/s) = 5.13884 6.71112 5.97690
#
# Compressibility (1/GPa) = 0.04628764
#
# Stress axis : x y z
#
# Youngs Moduli (GPa) = 133.90296 90.62712 29.81375
#
# Poissons Ratio (x) = 0.04636 0.08008
# Poissons Ratio (y) = 0.06849 -0.00952
# Poissons Ratio (z) = 0.35967 -0.02895
#
# Static dielectric constant tensor:
#      x y z
#    x 1.830120 -0.027620 0.061000 
#    y -0.027620 1.822990 -0.032260 
#    z 0.061000 -0.032260 1.829170 
# 
# From -- ./inp_files/216908.got.cif
#   From: 2010.05.17/outbox.cif.g08.bks.cpg/sg2_109_cif.got.tgz:216908.got - 2010.06.03 11:33:40.
