data_PCOD9052802
_publ_section_title
;
Structure prediction by ZEFSAII (Michael W. Deem and Ramdas Pophale) SiO2 
 PCOD9052802
Probable space group: P -1
;
_chemical_formula_sum "Si O2"
_cell_formula_units_Z 12
_cell_length_a 8.078679
_cell_length_b 12.119236
_cell_length_c 6.473272
_cell_angle_alpha 107.064245
_cell_angle_beta 80.395187
_cell_angle_gamma 128.920992
_cell_volume 471.251938
_symmetry_space_group_name_H-M "P -1"
_symmetry_group_IT_number 2
_symmetry_cell_setting 'triclinic'
loop_
_space_group_symop_operation_xyz
x,y,z
-x,-y,-z
loop_
_atom_site_type_symbol
_atom_site_label
_atom_site_fract_x
_atom_site_fract_y
_atom_site_fract_z
Si Si1 0.728653 0.041310 0.433118
Si Si2 0.106438 0.284676 0.279938
Si Si3 0.431649 0.440796 0.744818
Si Si4 0.688917 0.830482 0.627813
Si Si5 0.524830 0.134973 0.966566
Si Si6 0.998857 0.361614 0.911791
O O1 0.785007 0.984173 0.583350
O O2 0.670932 0.937326 0.189804
O O3 0.500000 0.000000 0.500000
O O4 0.898302 0.209347 0.424353
O O5 0.616426 0.710975 0.397735
O O6 0.147477 0.166876 0.256249
O O7 0.039696 0.309010 0.088639
O O8 0.652774 0.567644 0.654098
O O9 0.203300 0.409104 0.760878
O O10 0.500000 0.500000 0.000000
O O11 0.497616 0.785305 0.795937
O O12 0.748871 0.234079 0.858477
O O13 0.500000 0.000000 0.000000
O O14 0.000000 0.500000 0.000000
#
# Coordination Sequence:
#
# PCOD9052802 Si02
#       6
#     2   2   2   2   2   2
#     4  12  27  48  77 114 152 199 247 308 375 444
#     4  11  25  48  74 111 149 194 252 306 372 443
#     4  10  26  50  76 109 147 199 251 307 372 440
#     4  12  27  48  78 113 150 198 250 308 376 440
#     4  12  26  51  76 113 155 195 251 306 374 445
#     4  11  25  48  78 108 148 199 249 309 371 444
#
# _framework density 25.464085000000001
#
# number of rings (size 3 to 8) (size 9 to 14) (size 15 to 20)
#    0.000    0.667    3.333    2.000   11.667    2.000 
#    0.000    5.000    0.000    0.000    0.000    0.000 
#    0.000    0.000    0.000    0.000    0.000    0.000 
#
# Total GULP energy -66985.487955 kJ/mol
# GULP energy per Si atom -5582.123996 kJ/mol
# Density = 2.540613 g / cm^3
# Si number density = 25.464085 Si / 1000 Ang^3
#
#
#
# Elastic Constant Matrix: (Units=GPa)
#
#
# Indices 1 2 3 4 5 6 
#
# 1 131.1596 58.5845 65.5600 -6.8079 -8.6357 24.5714
# 2 58.5845 136.3580 63.0331 -20.8871 -9.0074 33.7965
# 3 65.5600 63.0331 150.3670 -15.0865 -31.7900 5.9523
# 4 -6.8079 -20.8871 -15.0865 62.0665 3.1726 0.9282
# 5 -8.6357 -9.0074 -31.7900 3.1726 69.8545 -14.6540
# 6 24.5714 33.7965 5.9523 0.9282 -14.6540 69.4184
#
#
#
# Elastic Compliance Matrix: (Units=1/GPa)
#
#
# Indices 1 2 3 4 5 6 
#
# 1 0.011117 -0.002386 -0.004068 -0.000464 -0.001330 -0.002699
# 2 -0.002386 0.011608 -0.003686 0.002905 -0.001630 -0.004874
# 3 -0.004068 -0.003686 0.010886 0.000674 0.004631 0.003270
# 4 -0.000464 0.002905 0.000674 0.017253 -0.000505 -0.001645
# 5 -0.001330 -0.001630 0.004631 -0.000505 0.017008 0.004464
# 6 -0.002699 -0.004874 0.003270 -0.001645 0.004464 0.018418
#
#
# Mechanical properties :
#
#
# Convention : Reuss Voigt Hill
#
# Bulk Modulus (GPa) = 75.00574 88.02667 81.51621
# Shear Modulus (GPa) = 45.03973 55.64834 50.34404
#
# Velocity S-wave (km/s) = 4.21022 4.67986 4.45124
# Velocity P-wave (km/s) = 7.29068 7.99034 7.64851
#
# Compressibility (1/GPa) = 0.01333231
#
# Stress axis : x y z
#
# Youngs Moduli (GPa) = 89.94957 86.14903 91.85768
#
# Poissons Ratio (x) = 0.20555 0.37366
# Poissons Ratio (y) = 0.21461 0.33858
# Poissons Ratio (z) = 0.36590 0.31753
#
# Static dielectric constant tensor:
#      x y z
#    x 2.103350 -0.087050 -0.070880 
#    y -0.087050 2.247300 0.226220 
#    z -0.070880 0.226220 2.416580 
# 
# From -- ./inp_files/179009.got.cif
#   From: 2010.05.17/outbox.cif.g08.bks.cpg/sg2_90_cif.got.tgz:179009.got - 2010.06.03 11:33:40.
