data_PCOD9052018
_publ_section_title
;
Structure prediction by ZEFSAII (Michael W. Deem and Ramdas Pophale) SiO2 
 PCOD9052018
Probable space group: P -1
;
_chemical_formula_sum "Si O2"
_cell_formula_units_Z 16
_cell_length_a 21.461563
_cell_length_b 8.494786
_cell_length_c 11.056399
_cell_angle_alpha 61.764321
_cell_angle_beta 144.404400
_cell_angle_gamma 141.654066
_cell_volume 647.854166
_symmetry_space_group_name_H-M "P -1"
_symmetry_group_IT_number 2
_symmetry_cell_setting 'triclinic'
loop_
_space_group_symop_operation_xyz
x,y,z
-x,-y,-z
loop_
_atom_site_type_symbol
_atom_site_label
_atom_site_fract_x
_atom_site_fract_y
_atom_site_fract_z
Si Si1 0.161014 0.313651 0.590115
Si Si2 0.187844 0.078561 0.254997
Si Si3 0.697002 0.040386 0.873211
Si Si4 0.859581 0.611328 0.034068
Si Si5 0.485390 0.178351 0.099575
Si Si6 0.350600 0.957353 0.467653
Si Si7 0.833749 0.396815 0.310567
Si Si8 0.981491 0.703673 0.833957
O O1 0.359484 0.521848 0.831699
O O2 0.153785 0.498696 0.576853
O O3 0.125985 0.282200 0.404158
O O4 0.000000 0.000000 0.500000
O O5 0.335918 0.125759 0.454035
O O6 0.227168 0.333014 0.189538
O O7 0.065447 0.892392 0.243855
O O8 0.049070 0.851837 0.014075
O O9 0.595431 0.944358 0.622818
O O10 0.586478 0.827757 0.888574
O O11 0.786734 0.336884 0.957823
O O12 0.853074 0.117185 0.052461
O O13 0.819492 0.539994 0.138557
O O14 0.553558 0.073611 0.297495
O O15 0.332477 0.938749 0.853289
O O16 0.154145 0.633232 0.256687
O O17 0.000000 0.500000 0.500000
#
# Coordination Sequence:
#
# PCOD9052018 Si02
#       8
#     2   2   2   2   2   2   2   2
#     4  11  23  41  63  89 123 163 213 268 312 359
#     4  10  18  32  57  93 122 156 199 255 311 371
#     4  10  17  35  55  90 119 162 196 254 300 385
#     4  10  19  32  57  90 122 155 211 248 308 364
#     4  10  23  37  64  92 124 164 218 255 312 373
#     4  10  18  33  59  90 125 158 200 251 313 374
#     4  11  24  43  64  87 123 175 217 256 304 376
#     4  10  18  34  60  86 119 161 210 244 308 373
#
# _framework density 24.696918
#
# number of rings (size 3 to 8) (size 9 to 14) (size 15 to 20)
#    0.000    1.750    2.500    3.750    1.750    0.000 
#    0.000    5.000    0.000    6.000    0.000    0.000 
#    0.000    0.000    0.000    0.000    0.000    0.000 
#
# Total GULP energy -89404.754328 kJ/mol
# GULP energy per Si atom -5587.797145 kJ/mol
# Density = 2.464071 g / cm^3
# Si number density = 24.696918 Si / 1000 Ang^3
#
#
#
# Elastic Constant Matrix: (Units=GPa)
#
#
# Indices 1 2 3 4 5 6 
#
# 1 90.4863 14.6183 14.2279 17.9383 10.0754 7.7904
# 2 14.6183 73.9928 20.7203 17.4820 5.8838 12.3979
# 3 14.2279 20.7203 103.8098 23.2494 8.5783 -0.8532
# 4 17.9383 17.4820 23.2494 34.2352 6.4450 13.3230
# 5 10.0754 5.8838 8.5783 6.4450 32.7735 -2.3192
# 6 7.7904 12.3979 -0.8532 13.3230 -2.3192 30.5352
#
#
#
# Elastic Compliance Matrix: (Units=1/GPa)
#
#
# Indices 1 2 3 4 5 6 
#
# 1 0.012626 -0.000860 -0.000167 -0.005244 -0.002708 -0.000794
# 2 -0.000860 0.016183 -0.002054 -0.004311 -0.001584 -0.004648
# 3 -0.000167 -0.002054 0.012175 -0.008993 -0.000638 0.005092
# 4 -0.005244 -0.004311 -0.008993 0.048797 -0.006195 -0.018925
# 5 -0.002708 -0.001584 -0.000638 -0.006195 0.033479 0.006562
# 6 -0.000794 -0.004648 0.005092 -0.018925 0.006562 0.043737
#
#
# Mechanical properties :
#
#
# Convention : Reuss Voigt Hill
#
# Bulk Modulus (GPa) = 28.71799 40.82467 34.77133
# Shear Modulus (GPa) = 27.06113 34.09028 30.57571
#
# Velocity S-wave (km/s) = 3.31377 3.71933 3.52239
# Velocity P-wave (km/s) = 5.12785 5.91699 5.53650
#
# Compressibility (1/GPa) = 0.03482138
#
# Stress axis : x y z
#
# Youngs Moduli (GPa) = 79.20039 61.79197 82.13880
#
# Poissons Ratio (x) = 0.05316 0.01372
# Poissons Ratio (y) = 0.06813 0.16871
# Poissons Ratio (z) = 0.01323 0.12692
#
# Static dielectric constant tensor:
#      x y z
#    x 1.965390 0.035380 0.030200 
#    y 0.035380 2.066520 -0.021110 
#    z 0.030200 -0.021110 1.988030 
# 
# From -- ./inp_files/242915.got.cif
#   From: 2010.05.17/outbox.cif.g08.bks.cpg/sg2_122_cif.got.tgz:242915.got - 2010.06.03 11:33:40.
