data_PCOD9052626
_publ_section_title
;
Structure prediction by ZEFSAII (Michael W. Deem and Ramdas Pophale) SiO2 
 PCOD9052626
Probable space group: P -1
;
_chemical_formula_sum "Si O2"
_cell_formula_units_Z 14
_cell_length_a 22.840762
_cell_length_b 5.782908
_cell_length_c 13.107860
_cell_angle_alpha 95.101495
_cell_angle_beta 24.008621
_cell_angle_gamma 108.839049
_cell_volume 563.230567
_symmetry_space_group_name_H-M "P -1"
_symmetry_group_IT_number 2
_symmetry_cell_setting 'triclinic'
loop_
_space_group_symop_operation_xyz
x,y,z
-x,-y,-z
loop_
_atom_site_type_symbol
_atom_site_label
_atom_site_fract_x
_atom_site_fract_y
_atom_site_fract_z
Si Si1 0.978571 0.430217 0.909397
Si Si2 0.654239 0.975035 0.707924
Si Si3 0.863460 0.811168 0.481101
Si Si4 0.633824 0.290572 0.984873
Si Si5 0.689867 0.684186 0.084525
Si Si6 0.118493 0.831435 0.360276
Si Si7 0.372520 0.679410 0.637955
O O1 0.152702 0.723466 0.596606
O O2 0.009580 0.200866 0.802395
O O3 0.000000 0.500000 0.000000
O O4 0.794197 0.360346 0.155481
O O5 0.700300 0.777804 0.679943
O O6 0.500000 0.000000 0.000000
O O7 0.568344 0.855382 0.729445
O O8 0.767648 0.543687 0.702182
O O9 0.948414 0.088252 0.432069
O O10 0.694173 0.085144 0.889867
O O11 0.671522 0.436702 0.038415
O O12 0.512875 0.669198 0.347934
O O13 0.691977 0.583146 0.190592
O O14 0.839131 0.981508 0.800679
O O15 0.000000 0.500000 0.500000
O O16 0.500000 0.000000 0.500000
#
# Coordination Sequence:
#
# PCOD9052626 Si02
#       7
#     2   2   2   2   2   2   2
#     4  12  31  48  79 117 159 209 270 327 400 492
#     4  12  25  47  78 110 156 206 262 331 400 482
#     4  11  25  47  75 112 158 204 261 328 409 466
#     4  11  24  43  77 112 148 202 262 333 395 479
#     4  10  26  47  81 107 157 211 267 330 414 468
#     4  11  25  45  77 119 151 201 274 340 404 477
#     4  11  27  52  76 113 162 215 268 332 401 485
#
# _framework density 24.856604999999998
#
# number of rings (size 3 to 8) (size 9 to 14) (size 15 to 20)
#    0.000    0.857    2.857    1.286    6.000   12.000 
#    0.000    2.143    0.000    0.000    0.000    0.000 
#    0.000    0.000    0.000    0.000    0.000    0.000 
#
# Total GULP energy -78211.360372 kJ/mol
# GULP energy per Si atom -5586.525741 kJ/mol
# Density = 2.480003 g / cm^3
# Si number density = 24.856605 Si / 1000 Ang^3
#
#
#
# Elastic Constant Matrix: (Units=GPa)
#
#
# Indices 1 2 3 4 5 6 
#
# 1 139.7122 52.6733 71.4416 17.2958 -25.1503 -11.9756
# 2 52.6733 89.9759 51.1895 20.8829 -4.7080 14.0292
# 3 71.4416 51.1895 170.3830 29.2353 -21.6406 -4.1719
# 4 17.2958 20.8829 29.2353 61.5264 -3.1161 -6.7632
# 5 -25.1503 -4.7080 -21.6406 -3.1161 58.5910 9.2200
# 6 -11.9756 14.0292 -4.1719 -6.7632 9.2200 46.6233
#
#
#
# Elastic Compliance Matrix: (Units=1/GPa)
#
#
# Indices 1 2 3 4 5 6 
#
# 1 0.011527 -0.005807 -0.002730 0.000612 0.002879 0.003983
# 2 -0.005807 0.018083 -0.002602 -0.004153 -0.001031 -0.007564
# 3 -0.002730 -0.002602 0.008382 -0.002231 0.001565 0.000198
# 4 0.000612 -0.004153 -0.002231 0.018971 -0.000526 0.004063
# 5 0.002879 -0.001031 0.001565 -0.000526 0.019192 -0.002682
# 6 0.003983 -0.007564 0.000198 0.004063 -0.002682 0.025885
#
#
# Mechanical properties :
#
#
# Convention : Reuss Voigt Hill
#
# Bulk Modulus (GPa) = 63.63758 83.40889 73.52323
# Shear Modulus (GPa) = 38.59313 48.33259 43.46286
#
# Velocity S-wave (km/s) = 3.94462 4.41438 4.18610
# Velocity P-wave (km/s) = 6.81206 7.72083 7.28064
#
# Compressibility (1/GPa) = 0.01571399
#
# Stress axis : x y z
#
# Youngs Moduli (GPa) = 86.75263 55.30053 119.30236
#
# Poissons Ratio (x) = 0.32114 0.32574
# Poissons Ratio (y) = 0.50378 0.31037
# Poissons Ratio (z) = 0.23687 0.14387
#
# Static dielectric constant tensor:
#      x y z
#    x 2.068850 0.029270 -0.071520 
#    y 0.029270 2.075010 0.002800 
#    z -0.071520 0.002800 2.054690 
# 
# From -- ./inp_files/542166.got.cif
#   From: 2010.05.17/outbox.cif.g08.bks.cpg/sg2_272_cif.got.tgz:542166.got - 2010.06.03 11:33:40.
