data_PCOD9052282
_publ_section_title
;
Structure prediction by ZEFSAII (Michael W. Deem and Ramdas Pophale) SiO2 
 PCOD9052282
Probable space group: P -1
;
_chemical_formula_sum "Si O2"
_cell_formula_units_Z 16
_cell_length_a 22.415257
_cell_length_b 8.901507
_cell_length_c 15.702849
_cell_angle_alpha 117.223083
_cell_angle_beta 17.899750
_cell_angle_gamma 115.573850
_cell_volume 856.247007
_symmetry_space_group_name_H-M "P -1"
_symmetry_group_IT_number 2
_symmetry_cell_setting 'triclinic'
loop_
_space_group_symop_operation_xyz
x,y,z
-x,-y,-z
loop_
_atom_site_type_symbol
_atom_site_label
_atom_site_fract_x
_atom_site_fract_y
_atom_site_fract_z
Si Si1 0.223351 0.531341 0.685398
Si Si2 0.265233 0.884854 0.041526
Si Si3 0.788730 0.184405 0.547593
Si Si4 0.697805 0.397638 0.223560
Si Si5 0.087428 0.888898 0.454644
Si Si6 0.639775 0.849239 0.622676
Si Si7 0.114770 0.548983 0.653683
Si Si8 0.641337 0.789487 0.799936
O O1 0.302221 0.638890 0.684561
O O2 0.312965 0.341963 0.517375
O O3 0.225395 0.599568 0.604147
O O4 0.000000 0.500000 0.000000
O O5 0.159312 0.801159 0.246816
O O6 0.281485 0.763267 0.907297
O O7 0.479129 0.918465 0.794369
O O8 0.132844 0.046579 0.240555
O O9 0.876843 0.200385 0.526916
O O10 0.876518 0.309809 0.393070
O O11 0.806468 0.988818 0.441533
O O12 0.556439 0.220577 0.881067
O O13 0.500000 0.500000 0.500000
O O14 0.892945 0.503241 0.965778
O O15 0.216628 0.059917 0.327515
O O16 0.572638 0.831174 0.807378
O O17 0.229960 0.380664 0.422059
#
# Coordination Sequence:
#
# PCOD9052282 Si02
#       8
#     2   2   2   2   2   2   2   2
#     4   9  20  37  58  80 101 145 197 232 266 322
#     4  11  19  34  59  85 107 148 195 221 269 329
#     4  11  20  35  56  87 118 145 178 235 282 328
#     4  11  21  37  62  79 107 150 196 232 268 331
#     4  10  20  34  59  84 117 146 188 221 269 346
#     4  10  18  33  60  82 109 144 193 223 268 335
#     4  10  22  37  56  86 113 143 188 234 287 322
#     4  10  17  35  56  85 112 153 184 220 267 345
#
# _framework density 18.686197
#
# number of rings (size 3 to 8) (size 9 to 14) (size 15 to 20)
#    0.000    1.750    5.000    1.125    1.750    0.000 
#    0.000    4.375    0.000    1.500    0.000    0.000 
#    0.000    0.000    0.000    0.000    0.000    0.000 
#
# Total GULP energy -89157.374606 kJ/mol
# GULP energy per Si atom -5572.335913 kJ/mol
# Density = 1.864367 g / cm^3
# Si number density = 18.686197 Si / 1000 Ang^3
#
#
#
# Elastic Constant Matrix: (Units=GPa)
#
#
# Indices 1 2 3 4 5 6 
#
# 1 123.3602 35.4231 21.7403 11.1256 5.0820 3.0752
# 2 35.4231 39.1404 4.9568 5.7857 17.0863 -1.3649
# 3 21.7403 4.9568 56.2433 11.8744 -6.3220 0.0148
# 4 11.1256 5.7857 11.8744 22.0811 1.8438 9.6231
# 5 5.0820 17.0863 -6.3220 1.8438 32.4558 4.1663
# 6 3.0752 -1.3649 0.0148 9.6231 4.1663 34.5459
#
#
#
# Elastic Compliance Matrix: (Units=1/GPa)
#
#
# Indices 1 2 3 4 5 6 
#
# 1 0.012146 -0.012479 -0.002927 -0.000826 0.004385 -0.001872
# 2 -0.012479 0.049107 -0.000641 -0.007743 -0.024633 0.008179
# 3 -0.002927 -0.000641 0.022100 -0.011959 0.005407 0.002905
# 4 -0.000826 -0.007743 -0.011959 0.061739 0.000615 -0.017499
# 5 0.004385 -0.024633 0.005407 0.000615 0.045005 -0.006965
# 6 -0.001872 0.008179 0.002905 -0.017499 -0.006965 0.035150
#
#
# Mechanical properties :
#
#
# Convention : Reuss Voigt Hill
#
# Bulk Modulus (GPa) = 19.50877 38.10937 28.80907
# Shear Modulus (GPa) = 18.21972 28.25814 23.23893
#
# Velocity S-wave (km/s) = 3.12594 3.89298 3.53036
# Velocity P-wave (km/s) = 4.84681 6.37540 5.66292
#
# Compressibility (1/GPa) = 0.05125900
#
# Stress axis : x y z
#
# Youngs Moduli (GPa) = 82.33034 20.36360 45.24935
#
# Poissons Ratio (x) = 0.25412 0.13246
# Poissons Ratio (y) = 1.02741 0.02899
# Poissons Ratio (z) = 0.24101 0.01304
#
# Static dielectric constant tensor:
#      x y z
#    x 1.665760 -0.030130 -0.056710 
#    y -0.030130 1.529180 -0.059500 
#    z -0.056710 -0.059500 1.598610 
# 
# From -- ./inp_files/176109.got.cif
#   From: 2010.05.17/outbox.cif.g08.bks.cpg/sg2_89_cif.got.tgz:176109.got - 2010.06.03 11:33:40.
