data_PCOD9052225
_publ_section_title
;
Structure prediction by ZEFSAII (Michael W. Deem and Ramdas Pophale) SiO2 
 PCOD9052225
Probable space group: P -1
;
_chemical_formula_sum "Si O2"
_cell_formula_units_Z 9
_cell_length_a 9.391835
_cell_length_b 8.983542
_cell_length_c 8.421352
_cell_angle_alpha 95.211972
_cell_angle_beta 94.052232
_cell_angle_gamma 29.873550
_cell_volume 352.393750
_symmetry_space_group_name_H-M "P -1"
_symmetry_group_IT_number 2
_symmetry_cell_setting 'triclinic'
loop_
_space_group_symop_operation_xyz
x,y,z
-x,-y,-z
loop_
_atom_site_type_symbol
_atom_site_label
_atom_site_fract_x
_atom_site_fract_y
_atom_site_fract_z
Si Si1 0.000000 0.000000 0.500000
Si Si2 0.667270 0.695989 0.931272
Si Si3 0.537666 0.350604 0.316887
Si Si4 0.044844 0.327295 0.224253
Si Si5 0.491566 0.176294 0.577522
O O1 0.236176 0.694471 0.373522
O O2 0.200907 0.775255 0.654636
O O3 0.478730 0.736663 0.846656
O O4 0.857135 0.589386 0.790419
O O5 0.874526 0.449794 0.061418
O O6 0.500000 0.000000 0.000000
O O7 0.629381 0.161005 0.457516
O O8 0.834802 0.507116 0.372454
O O9 0.323648 0.982944 0.262238
O O10 0.500000 0.000000 0.500000
#
# Coordination Sequence:
#
# PCOD9052225 Si02
#       5
#     1   2   2   2   2
#     4  10  26  44  62  94 114 194 214 258 282 378
#     4  11  23  39  64 100 133 168 197 267 329 391
#     4  11  24  43  70  87 133 160 232 250 310 378
#     4  11  23  35  57 102 132 156 196 244 365 367
#     4  12  22  37  63  99 130 161 196 281 326 371
#
# _framework density 25.539615000000001
#
# number of rings (size 3 to 8) (size 9 to 14) (size 15 to 20)
#    0.000    0.889    4.444    2.000    9.333    0.000 
#    0.000    0.000    0.000   26.667    0.000    0.000 
#    0.000    0.000    0.000    0.000    0.000    0.000 
#
# Total GULP energy -50107.940106 kJ/mol
# GULP energy per Si atom -5567.548901 kJ/mol
# Density = 2.548149 g / cm^3
# Si number density = 25.539615 Si / 1000 Ang^3
#
#
#
# Elastic Constant Matrix: (Units=GPa)
#
#
# Indices 1 2 3 4 5 6 
#
# 1 70.9722 -2.4203 22.6306 11.8963 17.3368 19.6102
# 2 -2.4203 145.6564 22.2580 9.7060 14.8642 -5.5461
# 3 22.6306 22.2580 71.9018 -12.6145 25.1411 1.8596
# 4 11.8963 9.7060 -12.6145 38.9422 3.8081 7.6006
# 5 17.3368 14.8642 25.1411 3.8081 59.6816 -3.2091
# 6 19.6102 -5.5461 1.8596 7.6006 -3.2091 22.9538
#
#
#
# Elastic Compliance Matrix: (Units=1/GPa)
#
#
# Indices 1 2 3 4 5 6 
#
# 1 0.023376 0.001617 -0.006661 -0.005733 -0.004981 -0.017838
# 2 0.001617 0.007816 -0.003450 -0.003888 -0.000608 0.001989
# 3 -0.006661 -0.003450 0.021459 0.010813 -0.007013 -0.001442
# 4 -0.005733 -0.003888 0.010813 0.034074 -0.004571 -0.008839
# 5 -0.004981 -0.000608 -0.007013 -0.004571 0.022099 0.009279
# 6 -0.017838 0.001989 -0.001442 -0.008839 0.009279 0.063627
#
#
# Mechanical properties :
#
#
# Convention : Reuss Voigt Hill
#
# Bulk Modulus (GPa) = 28.03927 41.49634 34.76780
# Shear Modulus (GPa) = 24.83544 40.71964 32.77754
#
# Velocity S-wave (km/s) = 3.12176 3.99729 3.58634
# Velocity P-wave (km/s) = 4.89861 6.13087 5.54905
#
# Compressibility (1/GPa) = 0.03566426
#
# Stress axis : x y z
#
# Youngs Moduli (GPa) = 42.77978 127.93604 46.60116
#
# Poissons Ratio (x) = -0.20692 0.31041
# Poissons Ratio (y) = -0.06919 0.16076
# Poissons Ratio (z) = 0.28495 0.44133
#
# Static dielectric constant tensor:
#      x y z
#    x 1.487890 0.259830 -0.126910 
#    y 0.259830 1.879250 0.048610 
#    z -0.126910 0.048610 1.996570 
# 
# From -- ./inp_files/249419.got.cif
#   From: 2010.05.17/outbox.cif.g08.bks.cpg/sg2_125_cif.got.tgz:249419.got - 2010.06.03 11:33:40.
