data_PCOD9052678
_publ_section_title
;
Structure prediction by ZEFSAII (Michael W. Deem and Ramdas Pophale) SiO2 
 PCOD9052678
Probable space group: P -1
;
_chemical_formula_sum "Si O2"
_cell_formula_units_Z 16
_cell_length_a 9.371351
_cell_length_b 18.572642
_cell_length_c 21.700167
_cell_angle_alpha 17.732583
_cell_angle_beta 36.043241
_cell_angle_gamma 39.516227
_cell_volume 676.847975
_symmetry_space_group_name_H-M "P -1"
_symmetry_group_IT_number 2
_symmetry_cell_setting 'triclinic'
loop_
_space_group_symop_operation_xyz
x,y,z
-x,-y,-z
loop_
_atom_site_type_symbol
_atom_site_label
_atom_site_fract_x
_atom_site_fract_y
_atom_site_fract_z
Si Si1 0.862803 0.928624 0.045488
Si Si2 0.861947 0.349945 0.021749
Si Si3 0.581592 0.267999 0.563133
Si Si4 0.646444 0.236272 0.771861
Si Si5 0.273702 0.598841 0.111041
Si Si6 0.015533 0.823112 0.407429
Si Si7 0.805472 0.205252 0.416071
Si Si8 0.279351 0.570387 0.860399
O O1 0.620163 0.809497 0.253793
O O2 0.044715 0.761343 0.079205
O O3 0.788920 0.163429 0.842615
O O4 0.000000 0.000000 0.000000
O O5 0.718905 0.389037 0.975756
O O6 0.038733 0.571460 0.793685
O O7 0.723212 0.318622 0.160841
O O8 0.991090 0.096689 0.176462
O O9 0.532530 0.543280 0.342646
O O10 0.829549 0.208257 0.559475
O O11 0.608339 0.153536 0.579828
O O12 0.837451 0.289908 0.608126
O O13 0.500000 0.000000 0.000000
O O14 0.526274 0.640479 0.024910
O O15 0.217112 0.332843 0.370856
O O16 0.669163 0.273473 0.344858
O O17 0.000000 0.000000 0.500000
O O18 0.000000 0.500000 0.000000
#
# Coordination Sequence:
#
# PCOD9052678 Si02
#       8
#     2   2   2   2   2   2   2   2
#     4  12  29  44  70 109 153 197 242 305 376 439
#     4  11  24  47  76 107 143 193 246 305 367 437
#     4  12  25  44  75 104 153 194 243 298 366 442
#     4  12  23  43  73 108 147 196 246 292 367 443
#     4  12  25  48  72 109 147 190 251 308 367 443
#     4  12  23  42  76 111 143 189 247 305 363 431
#     4  11  25  48  74 108 146 194 245 302 374 438
#     4  10  26  48  73 101 145 191 249 306 372 435
#
# _framework density 23.638985000000002
#
# number of rings (size 3 to 8) (size 9 to 14) (size 15 to 20)
#    0.000    0.500    5.000    3.000    1.750    5.000 
#    4.500    0.000    0.000    0.000    0.000    0.000 
#    0.000    0.000    0.000    0.000    0.000    0.000 
#
# Total GULP energy -89423.910184 kJ/mol
# GULP energy per Si atom -5588.994387 kJ/mol
# Density = 2.358518 g / cm^3
# Si number density = 23.638985 Si / 1000 Ang^3
#
#
#
# Elastic Constant Matrix: (Units=GPa)
#
#
# Indices 1 2 3 4 5 6 
#
# 1 155.4451 30.1740 40.3903 6.5804 53.7943 4.5781
# 2 30.1740 130.3543 41.6681 7.3371 20.9139 12.2125
# 3 40.3903 41.6681 91.0369 -19.0618 23.0327 1.1755
# 4 6.5804 7.3371 -19.0618 41.5062 3.3297 12.7603
# 5 53.7943 20.9139 23.0327 3.3297 44.6357 9.8237
# 6 4.5781 12.2125 1.1755 12.7603 9.8237 41.7029
#
#
#
# Elastic Compliance Matrix: (Units=1/GPa)
#
#
# Indices 1 2 3 4 5 6 
#
# 1 0.011678 0.000125 -0.002515 -0.002806 -0.013225 0.002726
# 2 0.000125 0.009760 -0.004786 -0.003409 -0.001716 -0.001290
# 3 -0.002515 -0.004786 0.017449 0.009854 -0.004285 -0.000820
# 4 -0.002806 -0.003409 0.009854 0.032402 -0.000599 -0.008745
# 5 -0.013225 -0.001716 -0.004285 -0.000599 0.043142 -0.007904
# 6 0.002726 -0.001290 -0.000820 -0.008745 -0.007904 0.028618
#
#
# Mechanical properties :
#
#
# Convention : Reuss Voigt Hill
#
# Bulk Modulus (GPa) = 40.75678 66.81126 53.78402
# Shear Modulus (GPa) = 30.19706 43.20920 36.70313
#
# Velocity S-wave (km/s) = 3.57799 4.28001 3.94465
# Velocity P-wave (km/s) = 5.86072 7.26286 6.59914
#
# Compressibility (1/GPa) = 0.02453579
#
# Stress axis : x y z
#
# Youngs Moduli (GPa) = 85.63391 102.45621 57.31040
#
# Poissons Ratio (x) = -0.01282 0.14413
# Poissons Ratio (y) = -0.01072 0.27427
# Poissons Ratio (z) = 0.21536 0.49033
#
# Static dielectric constant tensor:
#      x y z
#    x 1.985700 -0.132700 -0.052790 
#    y -0.132700 2.043810 0.001750 
#    z -0.052790 0.001750 1.878570 
# 
# From -- ./inp_files/591159.got.cif
#   From: 2010.05.17/outbox.cif.g08.bks.cpg/sg2_296_cif.got.tgz:591159.got - 2010.06.03 11:33:40.
