data_PCOD9052138
_publ_section_title
;
Structure prediction by ZEFSAII (Michael W. Deem and Ramdas Pophale) SiO2 
 PCOD9052138
Probable space group: P -1
;
_chemical_formula_sum "Si O2"
_cell_formula_units_Z 16
_cell_length_a 7.385931
_cell_length_b 13.666469
_cell_length_c 7.728070
_cell_angle_alpha 81.554845
_cell_angle_beta 113.622418
_cell_angle_gamma 122.414925
_cell_volume 601.012274
_symmetry_space_group_name_H-M "P -1"
_symmetry_group_IT_number 2
_symmetry_cell_setting 'triclinic'
loop_
_space_group_symop_operation_xyz
x,y,z
-x,-y,-z
loop_
_atom_site_type_symbol
_atom_site_label
_atom_site_fract_x
_atom_site_fract_y
_atom_site_fract_z
Si Si1 0.540356 0.152841 0.198938
Si Si2 0.353093 0.740405 0.138647
Si Si3 0.105934 0.257995 0.934441
Si Si4 0.816225 0.923040 0.183826
Si Si5 0.035057 0.272670 0.395862
Si Si6 0.197863 0.514201 0.336188
Si Si7 0.252196 0.168882 0.345951
Si Si8 0.801396 0.552541 0.295525
O O1 0.782833 0.159350 0.292530
O O2 0.478726 0.174021 0.360198
O O3 0.613410 0.255739 0.058412
O O4 0.304812 0.054403 0.038422
O O5 0.139060 0.752180 0.114911
O O6 0.594500 0.860450 0.243181
O O7 0.322868 0.622734 0.230344
O O8 0.108394 0.166434 0.825924
O O9 0.274568 0.389806 0.893312
O O10 0.192915 0.226523 0.147388
O O11 0.040975 0.036758 0.306355
O O12 0.223436 0.237520 0.471905
O O13 0.122567 0.386293 0.277122
O O14 0.027415 0.329313 0.558287
O O15 0.330879 0.528512 0.567575
O O16 0.957985 0.507777 0.289655
#
# Coordination Sequence:
#
# PCOD9052138 Si02
#       8
#     2   2   2   2   2   2   2   2
#     4   9  19  32  53  86 108 141 179 228 270 324
#     4   9  18  33  57  83 104 142 188 214 276 316
#     4  10  17  35  56  80 106 147 178 225 264 331
#     4   9  21  34  54  84 112 143 185 230 263 327
#     4  10  19  36  57  82 112 144 177 230 276 324
#     4   8  17  37  58  80 109 148 179 222 271 340
#     4  11  20  36  57  82 114 141 186 230 271 313
#     4   8  18  36  60  78 110 148 182 214 284 327
#
# _framework density 26.621752999999998
#
# number of rings (size 3 to 8) (size 9 to 14) (size 15 to 20)
#    1.500    1.250    1.250    1.500    0.000    3.500 
#    0.000    6.875    0.000    9.000    0.000    0.000 
#    0.000    0.000    0.000    0.000    0.000    0.000 
#
# Total GULP energy -89176.291545 kJ/mol
# GULP energy per Si atom -5573.518222 kJ/mol
# Density = 2.656116 g / cm^3
# Si number density = 26.621753 Si / 1000 Ang^3
#
#
#
# Elastic Constant Matrix: (Units=GPa)
#
#
# Indices 1 2 3 4 5 6 
#
# 1 118.2224 38.3218 5.7936 7.6522 -18.4083 11.4426
# 2 38.3218 77.8404 2.1222 10.3833 -5.9307 3.7862
# 3 5.7936 2.1222 45.7504 -16.6126 -11.8955 8.1133
# 4 7.6522 10.3833 -16.6126 24.7708 -1.5066 -3.0449
# 5 -18.4083 -5.9307 -11.8955 -1.5066 37.9290 -1.6962
# 6 11.4426 3.7862 8.1133 -3.0449 -1.6962 38.3703
#
#
#
# Elastic Compliance Matrix: (Units=1/GPa)
#
#
# Indices 1 2 3 4 5 6 
#
# 1 0.011060 -0.004764 -0.000120 -0.001569 0.004401 -0.002733
# 2 -0.004764 0.016204 -0.003118 -0.007496 -0.001061 -0.000161
# 3 -0.000120 -0.003118 0.034691 0.024728 0.011113 -0.004538
# 4 -0.001569 -0.007496 0.024728 0.061234 0.008308 0.001205
# 5 0.004401 -0.001061 0.011113 0.008308 0.032084 -0.001480
# 6 -0.002733 -0.000161 -0.004538 0.001205 -0.001480 0.027882
#
#
# Mechanical properties :
#
#
# Convention : Reuss Voigt Hill
#
# Bulk Modulus (GPa) = 21.76247 37.14315 29.45281
# Shear Modulus (GPa) = 23.31255 33.25242 28.28249
#
# Velocity S-wave (km/s) = 2.96243 3.53805 3.26296
# Velocity P-wave (km/s) = 4.46024 5.53831 5.02825
#
# Compressibility (1/GPa) = 0.04595067
#
# Stress axis : x y z
#
# Youngs Moduli (GPa) = 90.41491 61.71259 28.82606
#
# Poissons Ratio (x) = 0.29402 0.00347
# Poissons Ratio (y) = 0.43076 0.08987
# Poissons Ratio (z) = 0.01088 0.19239
#
# Static dielectric constant tensor:
#      x y z
#    x 2.048760 0.048260 -0.002700 
#    y 0.048260 2.077040 0.037170 
#    z -0.002700 0.037170 2.380610 
# 
# From -- ./inp_files/200900.got.cif
#   From: 2010.05.17/outbox.cif.g08.bks.cpg/sg2_101_cif.got.tgz:200900.got - 2010.06.03 11:33:40.
