data_PCOD9052716
_publ_section_title
;
Structure prediction by ZEFSAII (Michael W. Deem and Ramdas Pophale) SiO2 
 PCOD9052716
Probable space group: P -1
;
_chemical_formula_sum "Si O2"
_cell_formula_units_Z 16
_cell_length_a 17.892144
_cell_length_b 9.337942
_cell_length_c 8.551675
_cell_angle_alpha 64.202621
_cell_angle_beta 133.700441
_cell_angle_gamma 131.690206
_cell_volume 770.575649
_symmetry_space_group_name_H-M "P -1"
_symmetry_group_IT_number 2
_symmetry_cell_setting 'triclinic'
loop_
_space_group_symop_operation_xyz
x,y,z
-x,-y,-z
loop_
_atom_site_type_symbol
_atom_site_label
_atom_site_fract_x
_atom_site_fract_y
_atom_site_fract_z
Si Si1 0.326881 0.248136 0.834747
Si Si2 0.497293 0.903806 0.803685
Si Si3 0.597572 0.387687 0.447002
Si Si4 0.063423 0.994743 0.437118
Si Si5 0.363124 0.720399 0.005465
Si Si6 0.646892 0.648026 0.822027
Si Si7 0.930062 0.587245 0.281407
Si Si8 0.159802 0.307443 0.166484
O O1 0.378382 0.447594 0.723258
O O2 0.205095 0.079016 0.651466
O O3 0.421646 0.184329 0.007354
O O4 0.301918 0.274729 0.966099
O O5 0.426987 0.797439 0.593275
O O6 0.404824 0.835764 0.848847
O O7 0.586178 0.131998 0.846946
O O8 0.469794 0.332007 0.376738
O O9 0.725290 0.501546 0.675053
O O10 0.082571 0.139935 0.258999
O O11 0.000000 0.000000 0.500000
O O12 0.981351 0.779915 0.360199
O O13 0.215886 0.576235 0.845328
O O14 0.409476 0.578860 0.151206
O O15 0.760978 0.737092 0.820190
O O16 0.000000 0.500000 0.500000
O O17 0.933986 0.654501 0.076535
#
# Coordination Sequence:
#
# PCOD9052716 Si02
#       8
#     2   2   2   2   2   2   2   2
#     4  10  18  33  58  91 117 156 207 249 304 361
#     4  10  18  32  57  89 121 157 204 245 307 377
#     4  10  18  33  58  90 125 153 197 255 310 364
#     4  11  23  40  67  89 122 165 215 261 304 364
#     4  10  19  32  58  87 119 161 208 243 305 369
#     4  10  17  35  57  92 125 155 192 259 311 369
#     4  11  24  43  61  86 126 168 213 257 309 363
#     4  10  23  37  64  92 125 161 215 257 312 366
#
# _framework density 20.763697000000001
#
# number of rings (size 3 to 8) (size 9 to 14) (size 15 to 20)
#    0.000    1.750    2.500    3.750    1.750    0.000 
#    0.000    3.125    0.000    7.500    0.000    0.000 
#    0.000    0.000    0.000    0.000    0.000    0.000 
#
# Total GULP energy -89249.712734 kJ/mol
# GULP energy per Si atom -5578.107046 kJ/mol
# Density = 2.071644 g / cm^3
# Si number density = 20.763697 Si / 1000 Ang^3
#
#
#
# Elastic Constant Matrix: (Units=GPa)
#
#
# Indices 1 2 3 4 5 6 
#
# 1 70.1031 42.8614 32.4977 -1.6964 -21.4487 7.3068
# 2 42.8614 133.4436 43.8617 24.3634 -18.0821 -12.0870
# 3 32.4977 43.8617 125.5847 10.7472 -17.7761 -19.5702
# 4 -1.6964 24.3634 10.7472 34.6955 2.1405 -13.8684
# 5 -21.4487 -18.0821 -17.7761 2.1405 22.4051 0.8730
# 6 7.3068 -12.0870 -19.5702 -13.8684 0.8730 35.2160
#
#
#
# Elastic Compliance Matrix: (Units=1/GPa)
#
#
# Indices 1 2 3 4 5 6 
#
# 1 0.025910 -0.005916 -0.003799 0.001854 0.017197 -0.009214
# 2 -0.005916 0.011852 -0.001192 -0.007895 0.003654 0.001433
# 3 -0.003799 -0.001192 0.010911 -0.000510 0.003867 0.006145
# 4 0.001854 -0.007895 -0.000510 0.040274 -0.009345 0.012714
# 5 0.017197 0.003654 0.003867 -0.009345 0.068222 -0.005536
# 6 -0.009214 0.001433 0.006145 0.012714 -0.005536 0.039359
#
#
# Mechanical properties :
#
#
# Convention : Reuss Voigt Hill
#
# Bulk Modulus (GPa) = 37.23217 63.06366 50.14791
# Shear Modulus (GPa) = 21.99788 32.45735 27.22762
#
# Velocity S-wave (km/s) = 3.25843 3.95799 3.62513
# Velocity P-wave (km/s) = 5.66805 7.16419 6.45958
#
# Compressibility (1/GPa) = 0.02685850
#
# Stress axis : x y z
#
# Youngs Moduli (GPa) = 38.59561 84.37053 91.65146
#
# Poissons Ratio (x) = 0.49916 0.34815
# Poissons Ratio (y) = 0.22834 0.10928
# Poissons Ratio (z) = 0.14661 0.10060
#
# Static dielectric constant tensor:
#      x y z
#    x 1.774400 0.019230 -0.036760 
#    y 0.019230 1.792030 -0.035460 
#    z -0.036760 -0.035460 1.829580 
# 
# From -- ./inp_files/208199.got.cif
#   From: 2010.05.17/outbox.cif.g08.bks.cpg/sg2_105_cif.got.tgz:208199.got - 2010.06.03 11:33:40.
