data_PCOD9052609
_publ_section_title
;
Structure prediction by ZEFSAII (Michael W. Deem and Ramdas Pophale) SiO2 
 PCOD9052609
Probable space group: P -1
;
_chemical_formula_sum "Si O2"
_cell_formula_units_Z 14
_cell_length_a 11.146670
_cell_length_b 11.295856
_cell_length_c 12.471658
_cell_angle_alpha 40.137306
_cell_angle_beta 102.424122
_cell_angle_gamma 71.297106
_cell_volume 629.972909
_symmetry_space_group_name_H-M "P -1"
_symmetry_group_IT_number 2
_symmetry_cell_setting 'triclinic'
loop_
_space_group_symop_operation_xyz
x,y,z
-x,-y,-z
loop_
_atom_site_type_symbol
_atom_site_label
_atom_site_fract_x
_atom_site_fract_y
_atom_site_fract_z
Si Si1 0.083627 0.158668 0.170348
Si Si2 0.791171 0.354423 0.157634
Si Si3 0.720175 0.086200 0.188666
Si Si4 0.066733 0.632548 0.429800
Si Si5 0.576601 0.951560 0.665657
Si Si6 0.805509 0.568543 0.635123
Si Si7 0.706845 0.434159 0.320597
O O1 0.230361 0.153351 0.226741
O O2 0.942208 0.276625 0.160731
O O3 0.221394 0.822511 0.419462
O O4 0.956755 0.354542 0.906805
O O5 0.723283 0.241849 0.170748
O O6 0.837400 0.280706 0.343192
O O7 0.620228 0.700045 0.892995
O O8 0.783728 0.814082 0.436965
O O9 0.514524 0.319987 0.927409
O O10 0.884971 0.946603 0.229195
O O11 0.132891 0.602740 0.343634
O O12 0.237829 0.457535 0.670178
O O13 0.000000 0.500000 0.500000
O O14 0.500000 0.000000 0.500000
O O15 0.406995 0.243283 0.496991
#
# Coordination Sequence:
#
# PCOD9052609 Si02
#       7
#     2   2   2   2   2   2   2
#     4  12  28  43  72 107 147 185 230 290 368 415
#     4  12  25  45  75 106 143 181 239 295 354 418
#     4  11  25  48  76 105 142 184 242 296 349 422
#     4  10  26  47  75 102 142 188 244 291 344 420
#     4  12  26  44  70 109 149 183 231 294 362 425
#     4  11  27  48  72 103 146 187 238 288 356 417
#     4  12  26  45  75 109 139 189 239 295 352 419
#
# _framework density 22.223178000000001
#
# number of rings (size 3 to 8) (size 9 to 14) (size 15 to 20)
#    0.000    0.571    4.286    2.143    6.000    4.000 
#    0.000    1.429    0.000    0.000    0.000    0.000 
#    0.000    0.000    0.000    0.000    0.000    0.000 
#
# Total GULP energy -78275.684574 kJ/mol
# GULP energy per Si atom -5591.120327 kJ/mol
# Density = 2.217260 g / cm^3
# Si number density = 22.223178 Si / 1000 Ang^3
#
#
#
# Elastic Constant Matrix: (Units=GPa)
#
#
# Indices 1 2 3 4 5 6 
#
# 1 92.8864 51.9901 60.4822 21.8687 19.0467 6.8826
# 2 51.9901 130.3840 50.5980 31.9518 11.8224 -9.7714
# 3 60.4822 50.5980 165.4631 17.7973 13.7944 3.0174
# 4 21.8687 31.9518 17.7973 31.0813 9.7064 0.9799
# 5 19.0467 11.8224 13.7944 9.7064 32.0697 -3.6003
# 6 6.8826 -9.7714 3.0174 0.9799 -3.6003 50.4301
#
#
#
# Elastic Compliance Matrix: (Units=1/GPa)
#
#
# Indices 1 2 3 4 5 6 
#
# 1 0.018700 -0.004455 -0.004432 -0.003802 -0.006807 -0.003562
# 2 -0.004455 0.012391 -0.001358 -0.009537 0.001932 0.003413
# 3 -0.004432 -0.001358 0.008114 -0.000010 -0.000374 -0.000170
# 4 -0.003802 -0.009537 -0.000010 0.047540 -0.008935 -0.002890
# 5 -0.006807 0.001932 -0.000374 -0.008935 0.037849 0.004201
# 6 -0.003562 0.003413 -0.000170 -0.002890 0.004201 0.021343
#
#
# Mechanical properties :
#
#
# Convention : Reuss Voigt Hill
#
# Bulk Modulus (GPa) = 53.43210 79.43046 66.43128
# Shear Modulus (GPa) = 28.95790 37.76044 33.35917
#
# Velocity S-wave (km/s) = 3.61369 4.12654 3.87860
# Velocity P-wave (km/s) = 6.44262 7.65011 7.07218
#
# Compressibility (1/GPa) = 0.01871534
#
# Stress axis : x y z
#
# Youngs Moduli (GPa) = 53.47680 80.70569 123.23997
#
# Poissons Ratio (x) = 0.35951 0.54617
# Poissons Ratio (y) = 0.23822 0.16739
# Poissons Ratio (z) = 0.23700 0.10962
#
# Static dielectric constant tensor:
#      x y z
#    x 1.868230 -0.020960 -0.016670 
#    y -0.020960 1.837590 -0.026830 
#    z -0.016670 -0.026830 1.708870 
# 
# From -- ./inp_files/427411.got.cif
#   From: 2010.05.17/outbox.cif.g08.bks.cpg/sg2_214_cif.got.tgz:427411.got - 2010.06.03 11:33:40.
