data_PCOD9052270
_publ_section_title
;
Structure prediction by ZEFSAII (Michael W. Deem and Ramdas Pophale) SiO2 
 PCOD9052270
Probable space group: P -1
;
_chemical_formula_sum "Si O2"
_cell_formula_units_Z 13
_cell_length_a 13.468485
_cell_length_b 5.886360
_cell_length_c 9.001728
_cell_angle_alpha 72.357289
_cell_angle_beta 120.872083
_cell_angle_gamma 122.105955
_cell_volume 518.414020
_symmetry_space_group_name_H-M "P -1"
_symmetry_group_IT_number 2
_symmetry_cell_setting 'triclinic'
loop_
_space_group_symop_operation_xyz
x,y,z
-x,-y,-z
loop_
_atom_site_type_symbol
_atom_site_label
_atom_site_fract_x
_atom_site_fract_y
_atom_site_fract_z
Si Si1 0.000000 0.000000 0.000000
Si Si2 0.569402 0.216072 0.642543
Si Si3 0.353631 0.435520 0.877017
Si Si4 0.039278 0.822872 0.447297
Si Si5 0.845277 0.545412 0.110727
Si Si6 0.331809 0.248465 0.571064
Si Si7 0.197314 0.876009 0.028572
O O1 0.088306 0.843459 0.066211
O O2 0.861521 0.709469 0.940121
O O3 0.452965 0.179071 0.672961
O O4 0.630971 0.518140 0.567526
O O5 0.685036 0.172440 0.810189
O O6 0.500000 0.000000 0.500000
O O7 0.288234 0.602302 0.869799
O O8 0.324984 0.385616 0.692936
O O9 0.500000 0.500000 0.000000
O O10 0.270814 0.170568 0.960074
O O11 0.000000 0.500000 0.500000
O O12 0.958339 0.797875 0.237265
O O13 0.192064 0.991622 0.499161
O O14 0.000000 0.000000 0.500000
O O15 0.873465 0.305766 0.132772
#
# Coordination Sequence:
#
# PCOD9052270 Si02
#       7
#     1   2   2   2   2   2   2
#     4  10  26  44  70 102 144 186 248 310 378 446
#     4  11  27  46  73 111 150 204 255 321 393 465
#     4  11  23  44  72 102 142 192 253 314 372 461
#     4  12  28  47  77 113 155 203 257 324 399 476
#     4  11  25  44  71 102 144 192 252 306 387 452
#     4  11  26  47  72 109 154 197 257 317 396 463
#     4  11  25  46  74 106 146 198 257 315 386 459
#
# _framework density 25.076481000000001
#
# number of rings (size 3 to 8) (size 9 to 14) (size 15 to 20)
#    0.000    0.923    1.538    3.231    8.615    7.385 
#    0.000    0.000    0.000    0.000    0.000    0.000 
#    0.000    0.000    0.000    0.000    0.000    0.000 
#
# Total GULP energy -72383.750067 kJ/mol
# GULP energy per Si atom -5567.980774 kJ/mol
# Density = 2.501941 g / cm^3
# Si number density = 25.076481 Si / 1000 Ang^3
#
#
#
# Elastic Constant Matrix: (Units=GPa)
#
#
# Indices 1 2 3 4 5 6 
#
# 1 244.3890 60.4706 45.6117 6.2023 5.3179 12.9886
# 2 60.4706 99.0438 19.4133 10.0209 5.8354 22.9700
# 3 45.6117 19.4133 62.5527 16.0493 18.5576 4.2170
# 4 6.2023 10.0209 16.0493 38.1486 -0.8074 -0.9968
# 5 5.3179 5.8354 18.5576 -0.8074 34.0103 3.6641
# 6 12.9886 22.9700 4.2170 -0.9968 3.6641 53.3057
#
#
#
# Elastic Compliance Matrix: (Units=1/GPa)
#
#
# Indices 1 2 3 4 5 6 
#
# 1 0.005470 -0.002840 -0.004092 0.001621 0.001891 0.000115
# 2 -0.002840 0.013501 -0.000731 -0.002931 -0.000999 -0.005054
# 3 -0.004092 -0.000731 0.025879 -0.010318 -0.013601 0.000006
# 4 0.001621 -0.002931 -0.010318 0.031244 0.006424 0.001827
# 5 0.001891 -0.000999 -0.013601 0.006424 0.037001 -0.001377
# 6 0.000115 -0.005054 0.000006 0.001827 -0.001377 0.021038
#
#
# Mechanical properties :
#
#
# Convention : Reuss Voigt Hill
#
# Bulk Modulus (GPa) = 33.86861 72.99740 53.43301
# Shear Modulus (GPa) = 31.38781 43.79225 37.59003
#
# Velocity S-wave (km/s) = 3.54175 4.18347 3.87591
# Velocity P-wave (km/s) = 5.50098 7.24626 6.43308
#
# Compressibility (1/GPa) = 0.02952587
#
# Stress axis : x y z
#
# Youngs Moduli (GPa) = 182.82518 74.06920 38.64183
#
# Poissons Ratio (x) = 0.21032 0.15811
# Poissons Ratio (y) = 0.51914 0.02823
# Poissons Ratio (z) = 0.74806 0.05411
#
# Static dielectric constant tensor:
#      x y z
#    x 3.070180 -0.170840 0.214620 
#    y -0.170840 2.030700 0.093310 
#    z 0.214620 0.093310 1.745100 
# 
# From -- ./inp_files/67516.got.cif
#   From: 2010.05.17/outbox.cif.g08.bks.cpg/sg2_34_cif.got.tgz:67516.got - 2010.06.03 11:33:40.
