data_PCOD9052085
_publ_section_title
;
Structure prediction by ZEFSAII (Michael W. Deem and Ramdas Pophale) SiO2 
 PCOD9052085
Probable space group: P -1
;
_chemical_formula_sum "Si O2"
_cell_formula_units_Z 14
_cell_length_a 9.277105
_cell_length_b 11.077035
_cell_length_c 8.460097
_cell_angle_alpha 69.124638
_cell_angle_beta 47.566177
_cell_angle_gamma 73.787307
_cell_volume 598.586773
_symmetry_space_group_name_H-M "P -1"
_symmetry_group_IT_number 2
_symmetry_cell_setting 'triclinic'
loop_
_space_group_symop_operation_xyz
x,y,z
-x,-y,-z
loop_
_atom_site_type_symbol
_atom_site_label
_atom_site_fract_x
_atom_site_fract_y
_atom_site_fract_z
Si Si1 0.747638 0.735506 0.777583
Si Si2 0.463721 0.127192 0.866030
Si Si3 0.766851 0.322746 0.154871
Si Si4 0.211704 0.685911 0.506660
Si Si5 0.107555 0.126408 0.908891
Si Si6 0.215283 0.530299 0.264762
Si Si7 0.586569 0.859392 0.556900
O O1 0.684358 0.608618 0.790251
O O2 0.651936 0.854482 0.692031
O O3 0.982247 0.725364 0.627165
O O4 0.649343 0.755683 0.009423
O O5 0.662026 0.187329 0.633079
O O6 0.301187 0.090539 0.879605
O O7 0.500000 0.000000 0.000000
O O8 0.764573 0.384336 0.305391
O O9 0.576942 0.239901 0.314725
O O10 0.788622 0.399334 0.936963
O O11 0.956032 0.223143 0.062381
O O12 0.286622 0.606845 0.330658
O O13 0.205983 0.186095 0.655217
O O14 0.000000 0.000000 0.000000
O O15 0.000000 0.500000 0.500000
O O16 0.500000 0.000000 0.500000
#
# Coordination Sequence:
#
# PCOD9052085 Si02
#       7
#     2   2   2   2   2   2   2
#     4  11  26  48  74 102 149 196 246 310 375 432
#     4  12  27  43  71 109 148 193 250 300 370 453
#     4  12  25  47  75 106 153 191 250 312 366 443
#     4  11  25  48  74 112 147 194 251 307 372 443
#     4  12  25  43  68 105 147 194 241 298 373 437
#     4  10  25  50  78 108 147 197 254 308 373 440
#     4  12  25  44  71 109 145 195 244 299 376 447
#
# _framework density 23.388421000000001
#
# number of rings (size 3 to 8) (size 9 to 14) (size 15 to 20)
#    0.000    0.571    4.286    3.429    4.000    5.143 
#    2.571    1.429    0.000    0.000    0.000    0.000 
#    0.000    0.000    0.000    0.000    0.000    0.000 
#
# Total GULP energy -78156.747004 kJ/mol
# GULP energy per Si atom -5582.624786 kJ/mol
# Density = 2.333519 g / cm^3
# Si number density = 23.388421 Si / 1000 Ang^3
#
#
#
# Elastic Constant Matrix: (Units=GPa)
#
#
# Indices 1 2 3 4 5 6 
#
# 1 165.4981 43.6710 63.8113 -9.1741 9.3649 16.6446
# 2 43.6710 79.0808 41.5715 3.8329 11.7691 5.3864
# 3 63.8113 41.5715 100.0791 -3.6945 10.5252 12.6956
# 4 -9.1741 3.8329 -3.6945 42.8184 3.3662 2.4702
# 5 9.3649 11.7691 10.5252 3.3662 57.1274 0.5003
# 6 16.6446 5.3864 12.6956 2.4702 0.5003 24.3393
#
#
#
# Elastic Compliance Matrix: (Units=1/GPa)
#
#
# Indices 1 2 3 4 5 6 
#
# 1 0.008719 -0.002556 -0.003949 0.001981 -0.000261 -0.003533
# 2 -0.002556 0.017339 -0.005599 -0.002492 -0.001985 0.001125
# 3 -0.003949 -0.005599 0.015544 0.001330 -0.001104 -0.004280
# 4 0.001981 -0.002492 0.001330 0.024459 -0.001463 -0.003949
# 5 -0.000261 -0.001985 -0.001104 -0.001463 0.018238 0.000967
# 6 -0.003533 0.001125 -0.004280 -0.003949 0.000967 0.045867
#
#
# Mechanical properties :
#
#
# Convention : Reuss Voigt Hill
#
# Bulk Modulus (GPa) = 57.48705 71.41840 64.45273
# Shear Modulus (GPa) = 31.21638 37.89729 34.55683
#
# Velocity S-wave (km/s) = 3.65731 4.02972 3.84802
# Velocity P-wave (km/s) = 6.51669 7.22866 6.88189
#
# Compressibility (1/GPa) = 0.01739522
#
# Stress axis : x y z
#
# Youngs Moduli (GPa) = 114.68826 57.67214 64.33315
#
# Poissons Ratio (x) = 0.14738 0.25407
# Poissons Ratio (y) = 0.29309 0.36020
# Poissons Ratio (z) = 0.45293 0.32291
#
# Static dielectric constant tensor:
#      x y z
#    x 7.544400 1.541090 4.719230 
#    y 1.541090 2.303870 1.241560 
#    z 4.719230 1.241560 5.702180 
# 
# From -- ./inp_files/175728.got.cif
#   From: 2010.05.17/outbox.cif.g08.bks.cpg/sg2_88_cif.got.tgz:175728.got - 2010.06.03 11:33:40.
