data_PCOD9052313
_publ_section_title
;
Structure prediction by ZEFSAII (Michael W. Deem and Ramdas Pophale) SiO2 
 PCOD9052313
Probable space group: P -1
;
_chemical_formula_sum "Si O2"
_cell_formula_units_Z 16
_cell_length_a 9.003945
_cell_length_b 9.183583
_cell_length_c 12.232989
_cell_angle_alpha 64.726713
_cell_angle_beta 111.602737
_cell_angle_gamma 71.418659
_cell_volume 701.145811
_symmetry_space_group_name_H-M "P -1"
_symmetry_group_IT_number 2
_symmetry_cell_setting 'triclinic'
loop_
_space_group_symop_operation_xyz
x,y,z
-x,-y,-z
loop_
_atom_site_type_symbol
_atom_site_label
_atom_site_fract_x
_atom_site_fract_y
_atom_site_fract_z
Si Si1 0.216582 0.027201 0.125609
Si Si2 0.920347 0.371157 0.058508
Si Si3 0.117362 0.275813 0.563875
Si Si4 0.885651 0.753899 0.192588
Si Si5 0.332296 0.595009 0.331735
Si Si6 0.497898 0.374916 0.219961
Si Si7 0.530400 0.994401 0.380322
Si Si8 0.854863 0.390431 0.271854
O O1 0.344538 0.054765 0.238220
O O2 0.000552 0.187613 0.059340
O O3 0.285356 0.806649 0.222388
O O4 0.216503 0.091308 0.981858
O O5 0.970224 0.301093 0.219115
O O6 0.690343 0.514192 0.942428
O O7 0.000000 0.500000 0.000000
O O8 0.180051 0.159096 0.731450
O O9 0.000000 0.500000 0.500000
O O10 0.971825 0.263764 0.450265
O O11 0.298299 0.212552 0.555952
O O12 0.836760 0.593949 0.212004
O O13 0.119580 0.644651 0.286859
O O14 0.500000 0.500000 0.500000
O O15 0.419440 0.456925 0.294096
O O16 0.584526 0.146941 0.318615
O O17 0.652551 0.416541 0.211410
O O18 0.500000 0.000000 0.500000
#
# Coordination Sequence:
#
# PCOD9052313 Si02
#       8
#     2   2   2   2   2   2   2   2
#     4  12  26  44  78 112 145 203 254 315 377 458
#     4  12  22  46  73 107 151 198 250 314 387 447
#     4  10  26  44  74 105 150 201 250 309 385 439
#     4  11  24  48  72 105 153 195 250 313 381 452
#     4  12  27  46  75 109 149 199 257 312 381 456
#     4  12  26  44  72 110 148 196 254 312 381 449
#     4  12  27  46  76 113 151 199 259 309 382 460
#     4  11  24  44  73 104 152 198 246 314 382 450
#
# _framework density 22.819787999999999
#
# number of rings (size 3 to 8) (size 9 to 14) (size 15 to 20)
#    0.000    0.500    3.750    3.000   10.500    2.000 
#    2.250    0.000    0.000    0.000    0.000    0.000 
#    0.000    0.000    0.000    0.000    0.000    0.000 
#
# Total GULP energy -89533.737258 kJ/mol
# GULP energy per Si atom -5595.858579 kJ/mol
# Density = 2.276785 g / cm^3
# Si number density = 22.819788 Si / 1000 Ang^3
#
#
#
# Elastic Constant Matrix: (Units=GPa)
#
#
# Indices 1 2 3 4 5 6 
#
# 1 131.8555 21.0493 47.7506 12.3016 5.9885 10.6392
# 2 21.0493 81.5753 41.1679 3.0189 -15.6815 -7.6102
# 3 47.7506 41.1679 152.4253 20.0029 -13.4885 2.6874
# 4 12.3016 3.0189 20.0029 48.1796 -8.3683 -8.9376
# 5 5.9885 -15.6815 -13.4885 -8.3683 36.2290 7.4193
# 6 10.6392 -7.6102 2.6874 -8.9376 7.4193 45.7904
#
#
#
# Elastic Compliance Matrix: (Units=1/GPa)
#
#
# Indices 1 2 3 4 5 6 
#
# 1 0.009291 -0.001988 -0.002329 -0.002277 -0.003327 -0.002258
# 2 -0.001988 0.015849 -0.003519 0.002524 0.005880 0.002842
# 3 -0.002329 -0.003519 0.008788 -0.002783 0.001776 -0.001390
# 4 -0.002277 0.002524 -0.002783 0.024129 0.004979 0.005015
# 5 -0.003327 0.005880 0.001776 0.004979 0.033069 -0.002740
# 6 -0.002258 0.002842 -0.001390 0.005015 -0.002740 0.024340
#
#
# Mechanical properties :
#
#
# Convention : Reuss Voigt Hill
#
# Bulk Modulus (GPa) = 54.77833 65.08797 59.93315
# Shear Modulus (GPa) = 36.43680 43.09904 39.76792
#
# Velocity S-wave (km/s) = 4.00023 4.35060 4.17909
# Velocity P-wave (km/s) = 6.73741 7.33631 7.04323
#
# Compressibility (1/GPa) = 0.01825539
#
# Stress axis : x y z
#
# Youngs Moduli (GPa) = 107.63472 63.09370 113.79690
#
# Poissons Ratio (x) = 0.12541 0.26508
# Poissons Ratio (y) = 0.21394 0.40046
# Poissons Ratio (z) = 0.25073 0.22203
#
# Static dielectric constant tensor:
#      x y z
#    x 1.860990 -0.008090 0.012440 
#    y -0.008090 1.851320 0.006570 
#    z 0.012440 0.006570 1.942150 
# 
# From -- ./inp_files/381752.got.cif
#   From: 2010.05.17/outbox.cif.g08.bks.cpg/sg2_191_cif.got.tgz:381752.got - 2010.06.03 11:33:40.
