data_PCOD9052838
_publ_section_title
;
Structure prediction by ZEFSAII (Michael W. Deem and Ramdas Pophale) SiO2 
 PCOD9052838
Probable space group: P -1
;
_chemical_formula_sum "Si O2"
_cell_formula_units_Z 16
_cell_length_a 8.846951
_cell_length_b 8.592999
_cell_length_c 16.485130
_cell_angle_alpha 77.349845
_cell_angle_beta 139.254604
_cell_angle_gamma 110.554492
_cell_volume 763.639661
_symmetry_space_group_name_H-M "P -1"
_symmetry_group_IT_number 2
_symmetry_cell_setting 'triclinic'
loop_
_space_group_symop_operation_xyz
x,y,z
-x,-y,-z
loop_
_atom_site_type_symbol
_atom_site_label
_atom_site_fract_x
_atom_site_fract_y
_atom_site_fract_z
Si Si1 0.624990 0.560056 0.960181
Si Si2 0.870495 0.950961 0.038760
Si Si3 0.117031 0.529727 0.171040
Si Si4 0.565326 0.146038 0.825613
Si Si5 0.454381 0.612444 0.628029
Si Si6 0.756442 0.312525 0.618392
Si Si7 0.235249 0.367354 0.700563
Si Si8 0.387973 0.011379 0.307462
O O1 0.428081 0.505859 0.816688
O O2 0.500000 0.500000 0.000000
O O3 0.742634 0.755773 0.999223
O O4 0.836672 0.473320 0.042251
O O5 0.324789 0.946138 0.049864
O O6 0.097351 0.990458 0.187199
O O7 0.000000 0.000000 0.000000
O O8 0.235308 0.688053 0.144087
O O9 0.282580 0.408722 0.242737
O O10 0.146254 0.592008 0.269263
O O11 0.338849 0.209002 0.751440
O O12 0.524655 0.034266 0.739949
O O13 0.400033 0.602986 0.511557
O O14 0.260252 0.463414 0.613575
O O15 0.466111 0.799851 0.635677
O O16 0.601684 0.129191 0.606951
O O17 0.983815 0.316451 0.652093
#
# Coordination Sequence:
#
# PCOD9052838 Si02
#       8
#     2   2   2   2   2   2   2   2
#     4  12  21  38  60  88 123 151 182 247 301 344
#     4  10  17  35  58  80 115 153 184 231 290 341
#     4  10  21  39  61  88 116 153 198 238 290 346
#     4   9  20  36  60  86 118 154 190 238 288 353
#     4  11  24  37  65  86 112 159 205 235 280 347
#     4  11  21  44  57  84 123 156 191 246 288 336
#     4  11  23  37  61  91 119 148 196 241 295 344
#     4  10  20  39  58  83 116 157 199 234 285 346
#
# _framework density 20.952290000000001
#
# number of rings (size 3 to 8) (size 9 to 14) (size 15 to 20)
#    0.000    1.500    5.000    2.625    1.750    1.000 
#    2.250    1.875    0.000    0.000    0.000    0.000 
#    0.000    0.000    0.000    0.000    0.000    0.000 
#
# Total GULP energy -89318.745113 kJ/mol
# GULP energy per Si atom -5582.421570 kJ/mol
# Density = 2.090460 g / cm^3
# Si number density = 20.952290 Si / 1000 Ang^3
#
#
#
# Elastic Constant Matrix: (Units=GPa)
#
#
# Indices 1 2 3 4 5 6 
#
# 1 66.3071 22.1580 -5.5116 -0.9757 4.2382 -0.8892
# 2 22.1580 68.3223 6.0080 -3.1405 -4.6569 0.2916
# 3 -5.5116 6.0080 50.6029 -9.7605 -5.8022 -0.0933
# 4 -0.9757 -3.1405 -9.7605 29.9207 2.7031 -8.4142
# 5 4.2382 -4.6569 -5.8022 2.7031 34.3939 -3.4647
# 6 -0.8892 0.2916 -0.0933 -8.4142 -3.4647 24.6290
#
#
#
# Elastic Compliance Matrix: (Units=1/GPa)
#
#
# Indices 1 2 3 4 5 6 
#
# 1 0.017499 -0.006022 0.002565 0.001223 -0.002557 0.000771
# 2 -0.006022 0.016996 -0.002244 0.000666 0.002630 0.000170
# 3 0.002565 -0.002244 0.022128 0.007722 0.002833 0.003239
# 4 0.001223 0.000666 0.007722 0.039932 -0.000523 0.013634
# 5 -0.002557 0.002630 0.002833 -0.000523 0.030670 0.004023
# 6 0.000771 0.000170 0.003239 0.013634 0.004023 0.045865
#
#
# Mechanical properties :
#
#
# Convention : Reuss Voigt Hill
#
# Bulk Modulus (GPa) = 22.11352 25.61568 23.86460
# Shear Modulus (GPa) = 25.05466 28.62725 26.84095
#
# Velocity S-wave (km/s) = 3.46178 3.70037 3.58306
# Velocity P-wave (km/s) = 5.15322 5.52352 5.34158
#
# Compressibility (1/GPa) = 0.04522120
#
# Stress axis : x y z
#
# Youngs Moduli (GPa) = 57.14696 58.83751 45.19244
#
# Poissons Ratio (x) = 0.35432 -0.11592
# Poissons Ratio (y) = 0.34414 0.10139
# Poissons Ratio (z) = -0.14658 0.13200
#
# Static dielectric constant tensor:
#      x y z
#    x 1.754490 -0.037880 0.002330 
#    y -0.037880 1.747650 -0.045410 
#    z 0.002330 -0.045410 1.826330 
# 
# From -- ./inp_files/347227.got.cif
#   From: 2010.05.17/outbox.cif.g08.bks.cpg/sg2_174_cif.got.tgz:347227.got - 2010.06.03 11:33:40.
