data_PCOD9052464
_publ_section_title
;
Structure prediction by ZEFSAII (Michael W. Deem and Ramdas Pophale) SiO2 
 PCOD9052464
Probable space group: P -1
;
_chemical_formula_sum "Si O2"
_cell_formula_units_Z 16
_cell_length_a 7.648697
_cell_length_b 8.848069
_cell_length_c 14.209041
_cell_angle_alpha 109.363272
_cell_angle_beta 41.911517
_cell_angle_gamma 100.798241
_cell_volume 603.310507
_symmetry_space_group_name_H-M "P -1"
_symmetry_group_IT_number 2
_symmetry_cell_setting 'triclinic'
loop_
_space_group_symop_operation_xyz
x,y,z
-x,-y,-z
loop_
_atom_site_type_symbol
_atom_site_label
_atom_site_fract_x
_atom_site_fract_y
_atom_site_fract_z
Si Si1 0.270500 0.197417 0.562699
Si Si2 0.514129 0.381160 0.653057
Si Si3 0.759510 0.782195 0.819504
Si Si4 0.092843 0.472138 0.565171
Si Si5 0.918165 0.740250 0.011855
Si Si6 0.311481 0.568732 0.955126
Si Si7 0.024679 0.905077 0.569873
Si Si8 0.196421 0.917348 0.787526
O O1 0.297167 0.299651 0.665994
O O2 0.089821 0.304458 0.582969
O O3 0.551540 0.141802 0.389297
O O4 0.136869 0.042637 0.615604
O O5 0.605374 0.501360 0.562658
O O6 0.466286 0.479750 0.787038
O O7 0.741118 0.237383 0.553194
O O8 0.487229 0.712748 0.944690
O O9 0.955351 0.618873 0.708057
O O10 0.780078 0.846088 0.715407
O O11 0.909307 0.905394 0.848841
O O12 0.000000 0.500000 0.500000
O O13 0.766221 0.595643 0.995922
O O14 0.767460 0.908020 0.144099
O O15 0.052266 0.657732 0.032553
O O16 0.151121 0.794270 0.864891
O O17 0.000000 0.000000 0.500000
#
# Coordination Sequence:
#
# PCOD9052464 Si02
#       8
#     2   2   2   2   2   2   2   2
#     4  12  23  39  70 103 140 175 219 279 348 421
#     4  11  22  38  68  99 135 170 220 277 346 414
#     4  11  25  42  68  99 142 177 224 283 341 412
#     4  11  21  38  61 105 137 174 210 266 357 421
#     4  10  26  46  71  96 127 190 237 284 329 394
#     4  11  24  46  71  94 137 179 231 284 335 397
#     4  11  25  39  60 106 144 179 214 270 361 420
#     4  11  24  46  70  98 136 178 235 280 339 397
#
# _framework density 26.520343
#
# number of rings (size 3 to 8) (size 9 to 14) (size 15 to 20)
#    0.000    1.000    3.750    3.750    5.250    1.000 
#    0.000    0.000    0.000    0.000    0.000    0.000 
#    0.000    0.000    0.000    0.000    0.000    0.000 
#
# Total GULP energy -89303.310734 kJ/mol
# GULP energy per Si atom -5581.456921 kJ/mol
# Density = 2.645998 g / cm^3
# Si number density = 26.520343 Si / 1000 Ang^3
#
#
#
# Elastic Constant Matrix: (Units=GPa)
#
#
# Indices 1 2 3 4 5 6 
#
# 1 99.4946 34.6999 4.5839 -10.3950 8.7113 -6.7088
# 2 34.6999 186.7137 29.7787 -20.9847 -1.8617 2.3074
# 3 4.5839 29.7787 55.0778 -15.7725 6.9815 -10.4693
# 4 -10.3950 -20.9847 -15.7725 33.5659 4.1922 -11.3652
# 5 8.7113 -1.8617 6.9815 4.1922 20.2072 -5.2632
# 6 -6.7088 2.3074 -10.4693 -11.3652 -5.2632 44.5242
#
#
#
# Elastic Compliance Matrix: (Units=1/GPa)
#
#
# Indices 1 2 3 4 5 6 
#
# 1 0.012154 -0.002248 0.003486 0.006051 -0.006999 0.003485
# 2 -0.002248 0.006487 -0.003463 0.001132 0.002286 -0.000930
# 3 0.003486 -0.003463 0.028186 0.017184 -0.012456 0.010246
# 4 0.006051 0.001132 0.017184 0.047417 -0.014291 0.015308
# 5 -0.006999 0.002286 -0.012456 -0.014291 0.059806 -0.000680
# 6 0.003485 -0.000930 0.010246 0.015308 -0.000680 0.029269
#
#
# Mechanical properties :
#
#
# Convention : Reuss Voigt Hill
#
# Bulk Modulus (GPa) = 23.59691 53.26791 38.43241
# Shear Modulus (GPa) = 24.76549 37.80770 31.28660
#
# Velocity S-wave (km/s) = 3.05918 3.77982 3.43843
# Velocity P-wave (km/s) = 4.62548 6.25929 5.50335
#
# Compressibility (1/GPa) = 0.04237842
#
# Stress axis : x y z
#
# Youngs Moduli (GPa) = 82.27762 154.14801 35.47908
#
# Poissons Ratio (x) = 0.34645 -0.12368
# Poissons Ratio (y) = 0.18492 0.12285
# Poissons Ratio (z) = -0.28681 0.53376
#
# Static dielectric constant tensor:
#      x y z
#    x 2.444160 0.100880 0.066520 
#    y 0.100880 2.141850 -0.108640 
#    z 0.066520 -0.108640 2.162410 
# 
# From -- ./inp_files/557354.got.cif
#   From: 2010.05.17/outbox.cif.g08.bks.cpg/sg2_279_cif.got.tgz:557354.got - 2010.06.03 11:33:40.
