data_PCOD9052486
_publ_section_title
;
Structure prediction by ZEFSAII (Michael W. Deem and Ramdas Pophale) SiO2 
 PCOD9052486
Probable space group: P -1
;
_chemical_formula_sum "Si O2"
_cell_formula_units_Z 16
_cell_length_a 18.361283
_cell_length_b 16.727898
_cell_length_c 7.756856
_cell_angle_alpha 43.029119
_cell_angle_beta 135.331652
_cell_angle_gamma 156.385671
_cell_volume 643.723863
_symmetry_space_group_name_H-M "P -1"
_symmetry_group_IT_number 2
_symmetry_cell_setting 'triclinic'
loop_
_space_group_symop_operation_xyz
x,y,z
-x,-y,-z
loop_
_atom_site_type_symbol
_atom_site_label
_atom_site_fract_x
_atom_site_fract_y
_atom_site_fract_z
Si Si1 0.618521 0.851214 0.869385
Si Si2 0.901737 0.156593 0.149405
Si Si3 0.696107 0.431326 0.754292
Si Si4 0.386521 0.968656 0.004064
Si Si5 0.056084 0.858129 0.247842
Si Si6 0.506183 0.491079 0.233843
Si Si7 0.255240 0.611272 0.488984
Si Si8 0.915686 0.946490 0.698597
O O1 0.418795 0.716178 0.716206
O O2 0.585162 0.686590 0.125965
O O3 0.727260 0.959900 0.698399
O O4 0.759700 0.042796 0.935332
O O5 0.106100 0.395928 0.096789
O O6 0.927702 0.042926 0.405678
O O7 0.794181 0.117498 0.192850
O O8 0.624500 0.496174 0.503572
O O9 0.720399 0.410709 0.631341
O O10 0.543197 0.208896 0.939576
O O11 0.296348 0.787118 0.263337
O O12 0.500000 0.000000 0.000000
O O13 0.934793 0.627775 0.397290
O O14 0.009006 0.907993 0.938511
O O15 0.008334 0.893718 0.276478
O O16 0.297641 0.276687 0.274824
O O17 0.500000 0.500000 0.000000
#
# Coordination Sequence:
#
# PCOD9052486 Si02
#       8
#     2   2   2   2   2   2   2   2
#     4  12  27  41  68 104 143 175 218 280 348 400
#     4  12  27  45  65 106 141 171 222 288 343 396
#     4  11  22  43  73 100 135 176 227 279 333 397
#     4  10  26  46  72  99 129 178 236 285 328 395
#     4  11  22  40  69 103 133 178 224 272 334 403
#     4  12  20  40  71 102 136 178 222 267 332 410
#     4  11  23  44  70  95 129 184 234 275 323 404
#     4  11  21  40  70  98 138 176 222 274 330 408
#
# _framework density 24.855377000000001
#
# number of rings (size 3 to 8) (size 9 to 14) (size 15 to 20)
#    0.000    0.750    6.250    0.750    1.750    7.000 
#    0.000    1.250    0.000    0.000    0.000    0.000 
#    0.000    0.000    0.000    0.000    0.000    0.000 
#
# Total GULP energy -89450.377304 kJ/mol
# GULP energy per Si atom -5590.648581 kJ/mol
# Density = 2.479881 g / cm^3
# Si number density = 24.855377 Si / 1000 Ang^3
#
#
#
# Elastic Constant Matrix: (Units=GPa)
#
#
# Indices 1 2 3 4 5 6 
#
# 1 50.8832 20.8721 17.5206 -8.0202 9.8445 -4.4846
# 2 20.8721 185.2876 87.5058 -10.5977 22.6392 22.4747
# 3 17.5206 87.5058 11.0324 -65.2624 -1.8076 -36.7152
# 4 -8.0202 -10.5977 -65.2624 39.5747 -14.4783 -12.7078
# 5 9.8445 22.6392 -1.8076 -14.4783 37.3822 -3.1119
# 6 -4.4846 22.4747 -36.7152 -12.7078 -3.1119 37.1014
#
#
#
# Elastic Compliance Matrix: (Units=1/GPa)
#
#
# Indices 1 2 3 4 5 6 
#
# 1 0.022032 -0.001770 -0.001061 0.001793 -0.003839 0.002978
# 2 -0.001770 0.004580 0.002472 0.005356 -0.000006 0.001292
# 3 -0.001061 0.002472 -0.002695 -0.008338 -0.005208 -0.007585
# 4 0.001793 0.005356 -0.008338 0.010604 -0.000653 -0.007702
# 5 -0.003839 -0.000006 -0.005208 -0.000653 0.026962 -0.003577
# 6 0.002978 0.001292 -0.007585 -0.007702 -0.003577 0.016087
#
#
# Mechanical properties :
#
#
# Convention : Reuss Voigt Hill
#
# Bulk Modulus (GPa) = 43.10804 55.44448 49.27626
# Shear Modulus (GPa) = 58.12409 30.89863 44.51136
#
# Velocity S-wave (km/s) = 4.84104 3.52964 4.23639
# Velocity P-wave (km/s) = 6.97343 6.24231 6.61797
#
# Compressibility (1/GPa) = 0.02319753
#
# Stress axis : x y z
#
# Youngs Moduli (GPa) = 45.38821 218.36356 -371.11050
#
# Poissons Ratio (x) = 0.38658 -0.39376
# Poissons Ratio (y) = 0.08035 0.91724
# Poissons Ratio (z) = 0.04816 -0.53971
#
# Static dielectric constant tensor:
#      x y z
#    x 2.105950 -0.037430 -0.033160 
#    y -0.037430 1.906930 0.028320 
#    z -0.033160 0.028320 2.026260 
# 
# From -- ./inp_files/207172.got.cif
#   From: 2010.05.17/outbox.cif.g08.bks.cpg/sg2_104_cif.got.tgz:207172.got - 2010.06.03 11:33:40.
