data_PCOD9052126
_publ_section_title
;
Structure prediction by ZEFSAII (Michael W. Deem and Ramdas Pophale) SiO2 
 PCOD9052126
Probable space group: P -1
;
_chemical_formula_sum "Si O2"
_cell_formula_units_Z 16
_cell_length_a 8.871326
_cell_length_b 13.063002
_cell_length_c 9.076049
_cell_angle_alpha 100.916098
_cell_angle_beta 98.682708
_cell_angle_gamma 139.114424
_cell_volume 601.048187
_symmetry_space_group_name_H-M "P -1"
_symmetry_group_IT_number 2
_symmetry_cell_setting 'triclinic'
loop_
_space_group_symop_operation_xyz
x,y,z
-x,-y,-z
loop_
_atom_site_type_symbol
_atom_site_label
_atom_site_fract_x
_atom_site_fract_y
_atom_site_fract_z
Si Si1 0.924763 0.292593 0.667133
Si Si2 0.027001 0.456554 0.195891
Si Si3 0.793988 0.674256 0.531854
Si Si4 0.897232 0.162846 0.075093
Si Si5 0.532000 0.229091 0.191785
Si Si6 0.622951 0.938710 0.588699
Si Si7 0.360298 0.223732 0.653686
Si Si8 0.345803 0.312334 0.986178
O O1 0.662761 0.172642 0.504346
O O2 0.973263 0.420604 0.812609
O O3 0.129586 0.366716 0.595518
O O4 0.835377 0.143137 0.707039
O O5 0.893716 0.281873 0.058893
O O6 0.835532 0.367387 0.283636
O O7 0.328413 0.592629 0.277780
O O8 0.500000 0.500000 0.500000
O O9 0.783541 0.778727 0.477435
O O10 0.991779 0.776433 0.724952
O O11 0.110891 0.220347 0.026310
O O12 0.630222 0.953874 0.958901
O O13 0.407448 0.163667 0.316654
O O14 0.507946 0.690644 0.889982
O O15 0.687852 0.920566 0.439764
O O16 0.285774 0.214067 0.803729
O O17 0.500000 0.500000 0.000000
#
# Coordination Sequence:
#
# PCOD9052126 Si02
#       8
#     2   2   2   2   2   2   2   2
#     4  10  26  47  82 113 155 199 269 318 375 455
#     4  11  25  50  77 114 149 207 255 318 378 466
#     4  12  25  46  82 110 149 202 259 320 381 454
#     4  12  27  51  74 118 156 201 259 316 390 462
#     4  12  29  48  80 109 162 203 251 322 392 458
#     4  10  25  52  77 116 154 203 260 322 381 453
#     4  11  26  47  81 113 150 201 264 313 390 452
#     4  12  27  52  75 114 157 201 255 319 390 466
#
# _framework density 26.620162000000001
#
# number of rings (size 3 to 8) (size 9 to 14) (size 15 to 20)
#    0.000    0.750    2.500    2.250    8.750    2.500 
#    6.750    0.000    0.000    0.000    0.000    0.000 
#    0.000    0.000    0.000    0.000    0.000    0.000 
#
# Total GULP energy -89528.912455 kJ/mol
# GULP energy per Si atom -5595.557028 kJ/mol
# Density = 2.655957 g / cm^3
# Si number density = 26.620162 Si / 1000 Ang^3
#
#
#
# Elastic Constant Matrix: (Units=GPa)
#
#
# Indices 1 2 3 4 5 6 
#
# 1 160.1768 63.2385 46.4777 -4.2187 -35.3152 11.5737
# 2 63.2385 121.0908 30.7627 -5.1646 8.0229 11.5019
# 3 46.4777 30.7627 94.5853 -15.8249 -19.2183 -11.1004
# 4 -4.2187 -5.1646 -15.8249 50.3662 -5.7469 2.6521
# 5 -35.3152 8.0229 -19.2183 -5.7469 43.6290 4.6381
# 6 11.5737 11.5019 -11.1004 2.6521 4.6381 50.7830
#
#
#
# Elastic Compliance Matrix: (Units=1/GPa)
#
#
# Indices 1 2 3 4 5 6 
#
# 1 0.011561 -0.005938 -0.001838 0.001071 0.010065 -0.002667
# 2 -0.005938 0.012887 -0.003400 -0.001157 -0.008672 -0.001456
# 3 -0.001838 -0.003400 0.015015 0.004704 0.005980 0.003679
# 4 0.001071 -0.001157 0.004704 0.022037 0.006125 -0.000664
# 5 0.010065 -0.008672 0.005980 0.006125 0.036386 -0.002666
# 6 -0.002667 -0.001456 0.003679 -0.000664 -0.002666 0.021712
#
#
# Mechanical properties :
#
#
# Convention : Reuss Voigt Hill
#
# Bulk Modulus (GPa) = 58.44461 72.97897 65.71179
# Shear Modulus (GPa) = 33.86292 44.64721 39.25507
#
# Velocity S-wave (km/s) = 3.57049 4.09980 3.84427
# Velocity P-wave (km/s) = 6.24504 7.06297 6.66656
#
# Compressibility (1/GPa) = 0.01711022
#
# Stress axis : x y z
#
# Youngs Moduli (GPa) = 86.49780 77.59925 66.59927
#
# Poissons Ratio (x) = 0.46082 0.12243
# Poissons Ratio (y) = 0.51366 0.22641
# Poissons Ratio (z) = 0.15901 0.26380
#
# Static dielectric constant tensor:
#      x y z
#    x 2.065970 -0.028300 0.020820 
#    y -0.028300 2.144370 0.040010 
#    z 0.020820 0.040010 2.062650 
# 
# From -- ./inp_files/399306.got.cif
#   From: 2010.05.17/outbox.cif.g08.bks.cpg/sg2_200_cif.got.tgz:399306.got - 2010.06.03 11:33:40.
