data_PCOD9052889
_publ_section_title
;
Structure prediction by ZEFSAII (Michael W. Deem and Ramdas Pophale) SiO2 
 PCOD9052889
Probable space group: P -1
;
_chemical_formula_sum "Si O2"
_cell_formula_units_Z 10
_cell_length_a 4.724654
_cell_length_b 10.130700
_cell_length_c 10.414476
_cell_angle_alpha 125.414322
_cell_angle_beta 70.507396
_cell_angle_gamma 104.813845
_cell_volume 381.705623
_symmetry_space_group_name_H-M "P -1"
_symmetry_group_IT_number 2
_symmetry_cell_setting 'triclinic'
loop_
_space_group_symop_operation_xyz
x,y,z
-x,-y,-z
loop_
_atom_site_type_symbol
_atom_site_label
_atom_site_fract_x
_atom_site_fract_y
_atom_site_fract_z
Si Si1 0.918281 0.620249 0.695567
Si Si2 0.254027 0.847362 0.973105
Si Si3 0.580102 0.861538 0.169341
Si Si4 0.772477 0.815696 0.594158
Si Si5 0.612809 0.305670 0.641833
O O1 0.766161 0.749741 0.702878
O O2 0.752166 0.489102 0.741477
O O3 0.000000 0.500000 0.500000
O O4 0.162026 0.726790 0.802141
O O5 0.074652 0.096905 0.902414
O O6 0.612752 0.981657 0.697478
O O7 0.400243 0.764692 0.027150
O O8 0.569044 0.764771 0.248726
O O9 0.500000 0.000000 0.000000
O O10 0.590396 0.695046 0.454979
O O11 0.118342 0.811959 0.493939
#
# Coordination Sequence:
#
# PCOD9052889 Si02
#       5
#     2   2   2   2   2
#     4  10  27  50  80 110 155 206 257 313 388 458
#     4  12  30  49  77 112 156 203 260 320 384 458
#     4  12  27  46  80 115 153 202 256 322 386 452
#     4  11  24  45  78 117 155 202 253 314 380 464
#     4  11  24  48  78 115 158 198 255 316 388 459
#
# _framework density 26.1982
#
# number of rings (size 3 to 8) (size 9 to 14) (size 15 to 20)
#    0.000    0.800    0.000    4.800   11.200    4.800 
#    0.000    0.000    0.000    0.000    0.000    0.000 
#    0.000    0.000    0.000    0.000    0.000    0.000 
#
# Total GULP energy -56000.317643 kJ/mol
# GULP energy per Si atom -5600.031764 kJ/mol
# Density = 2.613857 g / cm^3
# Si number density = 26.198200 Si / 1000 Ang^3
#
#
#
# Elastic Constant Matrix: (Units=GPa)
#
#
# Indices 1 2 3 4 5 6 
#
# 1 157.9547 62.5382 73.8540 6.5405 17.1202 39.0609
# 2 62.5382 164.1587 90.1802 -6.8457 16.7614 10.1708
# 3 73.8540 90.1802 144.4053 18.5967 13.8785 13.6009
# 4 6.5405 -6.8457 18.5967 45.2473 4.2039 -0.8259
# 5 17.1202 16.7614 13.8785 4.2039 67.3664 9.6490
# 6 39.0609 10.1708 13.6009 -0.8259 9.6490 43.6909
#
#
#
# Elastic Compliance Matrix: (Units=1/GPa)
#
#
# Indices 1 2 3 4 5 6 
#
# 1 0.010684 -0.001536 -0.003666 -0.000377 -0.000413 -0.007969
# 2 -0.001536 0.010361 -0.006257 0.004512 -0.001366 0.001296
# 3 -0.003666 -0.006257 0.013427 -0.005930 0.000030 0.000436
# 4 -0.000377 0.004512 -0.005930 0.025467 -0.001679 0.001985
# 5 -0.000413 -0.001366 0.000030 -0.001679 0.015795 -0.002842
# 6 -0.007969 0.001296 0.000436 0.001985 -0.002842 0.030241
#
#
# Mechanical properties :
#
#
# Convention : Reuss Voigt Hill
#
# Bulk Modulus (GPa) = 86.54640 102.18482 94.36561
# Shear Modulus (GPa) = 37.66610 47.25735 42.46173
#
# Velocity S-wave (km/s) = 3.79586 4.25177 4.03027
# Velocity P-wave (km/s) = 7.23315 7.94938 7.59970
#
# Compressibility (1/GPa) = 0.01155450
#
# Stress axis : x y z
#
# Youngs Moduli (GPa) = 93.59423 96.51270 74.47630
#
# Poissons Ratio (x) = 0.14826 0.27305
# Poissons Ratio (y) = 0.14377 0.46598
# Poissons Ratio (z) = 0.34314 0.60386
#
# Static dielectric constant tensor:
#      x y z
#    x 2.115110 -0.004230 -0.097770 
#    y -0.004230 2.052640 -0.025580 
#    z -0.097770 -0.025580 2.207220 
# 
# From -- ./inp_files/365833.got.cif
#   From: 2010.05.17/outbox.cif.g08.bks.cpg/sg2_183_cif.got.tgz:365833.got - 2010.06.03 11:33:40.
