data_PCOD9052779
_publ_section_title
;
Structure prediction by ZEFSAII (Michael W. Deem and Ramdas Pophale) SiO2 
 PCOD9052779
Probable space group: P -1
;
_chemical_formula_sum "Si O2"
_cell_formula_units_Z 15
_cell_length_a 9.534320
_cell_length_b 11.513721
_cell_length_c 9.873292
_cell_angle_alpha 141.486732
_cell_angle_beta 65.238312
_cell_angle_gamma 101.493152
_cell_volume 596.823570
_symmetry_space_group_name_H-M "P -1"
_symmetry_group_IT_number 2
_symmetry_cell_setting 'triclinic'
loop_
_space_group_symop_operation_xyz
x,y,z
-x,-y,-z
loop_
_atom_site_type_symbol
_atom_site_label
_atom_site_fract_x
_atom_site_fract_y
_atom_site_fract_z
Si Si1 0.284700 0.242488 0.366189
Si Si2 0.553459 0.352748 0.965311
Si Si3 0.344675 0.826752 0.857844
Si Si4 0.858400 0.116634 0.254258
Si Si5 0.500000 0.000000 0.500000
Si Si6 0.782675 0.562458 0.703280
Si Si7 0.160135 0.209171 0.847592
Si Si8 0.823334 0.416519 0.106510
O O1 0.194061 0.340947 0.359666
O O2 0.206376 0.362707 0.635547
O O3 0.295795 0.016504 0.143252
O O4 0.468508 0.254107 0.293181
O O5 0.558629 0.141928 0.715970
O O6 0.500000 0.500000 0.000000
O O7 0.407588 0.405876 0.177065
O O8 0.714650 0.379757 0.993128
O O9 0.296994 0.884813 0.774928
O O10 0.245359 0.682225 0.825725
O O11 0.854716 0.337387 0.475762
O O12 0.856067 0.000722 0.286496
O O13 0.000000 0.000000 0.000000
O O14 0.339124 0.170379 0.688677
O O15 0.842125 0.669267 0.901589
O O16 0.007123 0.314936 0.924366
#
# Coordination Sequence:
#
# PCOD9052779 Si02
#       8
#     2   2   2   2   1   2   2   2
#     4  11  22  37  64 101 142 176 214 264 343 423
#     4  11  25  47  70  92 124 179 234 288 337 391
#     4  11  22  36  59 101 140 178 210 262 332 411
#     4  12  22  35  63  97 142 175 212 265 342 409
#     4  10  26  50  68  90 128 180 238 284 338 384
#     4  11  22  40  65  93 140 179 217 269 340 406
#     4  11  25  42  66 100 134 185 225 285 332 397
#     4  12  24  41  69 101 136 173 227 279 335 407
#
# _framework density 25.133054000000001
#
# number of rings (size 3 to 8) (size 9 to 14) (size 15 to 20)
#    0.000    0.800    5.333    2.000    1.867    2.667 
#    0.000    2.667    0.000    0.000    0.000    0.000 
#    0.000    0.000    0.000    0.000    0.000    0.000 
#
# Total GULP energy -83832.847728 kJ/mol
# GULP energy per Si atom -5588.856515 kJ/mol
# Density = 2.507585 g / cm^3
# Si number density = 25.133054 Si / 1000 Ang^3
#
#
#
# Elastic Constant Matrix: (Units=GPa)
#
#
# Indices 1 2 3 4 5 6 
#
# 1 194.2453 24.9423 70.9815 -2.7158 -15.6439 -34.6188
# 2 24.9423 55.6073 25.2723 1.7873 -13.6416 -19.3671
# 3 70.9815 25.2723 183.1984 23.6142 -10.6948 -12.3972
# 4 -2.7158 1.7873 23.6142 21.2165 -3.4537 -0.8249
# 5 -15.6439 -13.6416 -10.6948 -3.4537 30.6614 -5.1761
# 6 -34.6188 -19.3671 -12.3972 -0.8249 -5.1761 35.8156
#
#
#
# Elastic Compliance Matrix: (Units=1/GPa)
#
#
# Indices 1 2 3 4 5 6 
#
# 1 0.008286 0.002351 -0.003308 0.005933 0.006340 0.009189
# 2 0.002351 0.029184 -0.003277 0.004997 0.016892 0.019476
# 3 -0.003308 -0.003277 0.008146 -0.009615 -0.001832 -0.002636
# 4 0.005933 0.004997 -0.009615 0.060111 0.010008 0.007940
# 5 0.006340 0.016892 -0.001832 0.010008 0.047520 0.021726
# 6 0.009189 0.019476 -0.002636 0.007940 0.021726 0.049744
#
#
# Mechanical properties :
#
#
# Convention : Reuss Voigt Hill
#
# Bulk Modulus (GPa) = 26.91797 75.04923 50.98360
# Shear Modulus (GPa) = 22.33714 38.32903 30.33309
#
# Velocity S-wave (km/s) = 2.98443 3.90942 3.47782
# Velocity P-wave (km/s) = 4.75492 7.09251 6.03792
#
# Compressibility (1/GPa) = 0.03714990
#
# Stress axis : x y z
#
# Youngs Moduli (GPa) = 120.68445 34.26485 122.75518
#
# Poissons Ratio (x) = -0.08057 0.40605
# Poissons Ratio (y) = -0.28378 0.40228
# Poissons Ratio (z) = 0.39920 0.11229
#
# Static dielectric constant tensor:
#      x y z
#    x 1.997150 0.026840 0.001260 
#    y 0.026840 2.103920 -0.053480 
#    z 0.001260 -0.053480 1.938180 
# 
# From -- ./inp_files/326999.got.cif
#   From: 2010.05.17/outbox.cif.g08.bks.cpg/sg2_164_cif.got.tgz:326999.got - 2010.06.03 11:33:40.
