data_PCOD9052222
_publ_section_title
;
Structure prediction by ZEFSAII (Michael W. Deem and Ramdas Pophale) SiO2 
 PCOD9052222
Probable space group: P -1
;
_chemical_formula_sum "Si O2"
_cell_formula_units_Z 13
_cell_length_a 10.426701
_cell_length_b 9.616393
_cell_length_c 8.820897
_cell_angle_alpha 134.876664
_cell_angle_beta 126.636822
_cell_angle_gamma 76.235846
_cell_volume 476.126604
_symmetry_space_group_name_H-M "P -1"
_symmetry_group_IT_number 2
_symmetry_cell_setting 'triclinic'
loop_
_space_group_symop_operation_xyz
x,y,z
-x,-y,-z
loop_
_atom_site_type_symbol
_atom_site_label
_atom_site_fract_x
_atom_site_fract_y
_atom_site_fract_z
Si Si1 0.494109 0.397845 0.578910
Si Si2 0.658184 0.163448 0.317098
Si Si3 0.000000 0.000000 0.500000
Si Si4 0.803241 0.371003 0.286555
Si Si5 0.781324 0.567749 0.120809
Si Si6 0.128656 0.804577 0.249595
Si Si7 0.196024 0.032504 0.176747
O O1 0.500000 0.500000 0.500000
O O2 0.591931 0.233622 0.479954
O O3 0.612015 0.553748 0.899772
O O4 0.313299 0.261974 0.404177
O O5 0.738942 0.347146 0.395869
O O6 0.809435 0.100172 0.457914
O O7 0.500000 0.000000 0.000000
O O8 0.948275 0.830679 0.177175
O O9 0.904231 0.798411 0.394158
O O10 0.000000 0.500000 0.500000
O O11 0.725405 0.462703 0.164083
O O12 0.769692 0.130306 0.039465
O O13 0.874807 0.420375 0.985490
O O14 0.228829 0.956048 0.306808
O O15 0.000000 0.000000 0.000000
#
# Coordination Sequence:
#
# PCOD9052222 Si02
#       7
#     2   2   1   2   2   2   2
#     4  11  27  46  70 104 145 191 245 303 365 435
#     4  11  24  44  73 104 141 189 243 300 358 428
#     4  12  24  44  76 104 146 190 244 292 368 432
#     4  11  25  45  72 107 143 189 243 301 364 432
#     4  10  26  46  72 105 149 191 243 299 366 433
#     4  10  26  43  72 105 146 190 240 299 363 437
#     4  11  27  47  71 102 147 193 238 303 374 433
#
# _framework density 27.303664000000001
#
# number of rings (size 3 to 8) (size 9 to 14) (size 15 to 20)
#    0.000    1.231    1.538    1.385   12.923    4.308 
#    0.000    1.538    0.000    0.000    0.000    0.000 
#    0.000    0.000    0.000    0.000    0.000    0.000 
#
# Total GULP energy -72602.114331 kJ/mol
# GULP energy per Si atom -5584.778025 kJ/mol
# Density = 2.724152 g / cm^3
# Si number density = 27.303664 Si / 1000 Ang^3
#
#
#
# Elastic Constant Matrix: (Units=GPa)
#
#
# Indices 1 2 3 4 5 6 
#
# 1 129.2948 29.5425 40.2992 15.3967 -9.9425 20.2179
# 2 29.5425 196.9529 61.9258 5.7801 24.1351 18.8878
# 3 40.2992 61.9258 136.7212 6.3277 13.2462 3.3894
# 4 15.3967 5.7801 6.3277 62.9554 -4.9609 -3.1065
# 5 -9.9425 24.1351 13.2462 -4.9609 63.5353 12.8363
# 6 20.2179 18.8878 3.3894 -3.1065 12.8363 34.2691
#
#
#
# Elastic Compliance Matrix: (Units=1/GPa)
#
#
# Indices 1 2 3 4 5 6 
#
# 1 0.010432 -0.000304 -0.003006 -0.002291 0.003665 -0.007270
# 2 -0.000304 0.006370 -0.002568 -0.000494 -0.001449 -0.002579
# 3 -0.003006 -0.002568 0.009490 0.000002 -0.002086 0.003032
# 4 -0.002291 -0.000494 0.000002 0.016677 0.000538 0.002934
# 5 0.003665 -0.001449 -0.002086 0.000538 0.019002 -0.008226
# 6 -0.007270 -0.002579 0.003032 0.002934 -0.008226 0.037939
#
#
# Mechanical properties :
#
#
# Convention : Reuss Voigt Hill
#
# Bulk Modulus (GPa) = 68.79753 80.72266 74.76010
# Shear Modulus (GPa) = 42.91403 54.23205 48.57304
#
# Velocity S-wave (km/s) = 3.96881 4.46158 4.22239
# Velocity P-wave (km/s) = 6.80101 7.49465 7.15624
#
# Compressibility (1/GPa) = 0.01453541
#
# Stress axis : x y z
#
# Youngs Moduli (GPa) = 95.85749 156.98684 105.37179
#
# Poissons Ratio (x) = 0.04778 0.31673
# Poissons Ratio (y) = 0.02917 0.27062
# Poissons Ratio (z) = 0.28813 0.40318
#
# Static dielectric constant tensor:
#      x y z
#    x 3.103630 -0.731500 0.167500 
#    y -0.731500 2.717590 -0.295390 
#    z 0.167500 -0.295390 2.185810 
# 
# From -- ./inp_files/178537.got.cif
#   From: 2010.05.17/outbox.cif.g08.bks.cpg/sg2_90_cif.got.tgz:178537.got - 2010.06.03 11:33:40.
