data_PCOD9052012
_publ_section_title
;
Structure prediction by ZEFSAII (Michael W. Deem and Ramdas Pophale) SiO2 
 PCOD9052012
Probable space group: P -1
;
_chemical_formula_sum "Si O2"
_cell_formula_units_Z 16
_cell_length_a 9.217614
_cell_length_b 9.500985
_cell_length_c 12.871090
_cell_angle_alpha 142.576714
_cell_angle_beta 101.422642
_cell_angle_gamma 93.901365
_cell_volume 621.542482
_symmetry_space_group_name_H-M "P -1"
_symmetry_group_IT_number 2
_symmetry_cell_setting 'triclinic'
loop_
_space_group_symop_operation_xyz
x,y,z
-x,-y,-z
loop_
_atom_site_type_symbol
_atom_site_label
_atom_site_fract_x
_atom_site_fract_y
_atom_site_fract_z
Si Si1 0.787390 0.092465 0.455006
Si Si2 0.649571 0.521489 0.102841
Si Si3 0.369303 0.262408 0.285496
Si Si4 0.795835 0.040857 0.193727
Si Si5 0.905572 0.845966 0.575740
Si Si6 0.846628 0.222709 0.907052
Si Si7 0.816853 0.592827 0.827346
Si Si8 0.358990 0.674048 0.791823
O O1 0.725827 0.077298 0.316978
O O2 0.978465 0.175856 0.512088
O O3 0.746692 0.292999 0.633225
O O4 0.723120 0.809718 0.318746
O O5 0.500000 0.500000 0.000000
O O6 0.774119 0.433755 0.006768
O O7 0.500000 0.500000 0.500000
O O8 0.231521 0.325369 0.242775
O O9 0.480063 0.212063 0.183517
O O10 0.285523 0.025841 0.207699
O O11 0.985838 0.157124 0.310618
O O12 0.754982 0.188749 0.182746
O O13 0.753973 0.750715 0.990928
O O14 0.390293 0.655519 0.906122
O O15 0.740923 0.615454 0.421256
O O16 0.892477 0.114832 0.744140
O O17 0.997672 0.321689 0.064367
#
# Coordination Sequence:
#
# PCOD9052012 Si02
#       8
#     2   2   2   2   2   2   2   2
#     4  10  25  49  75 106 156 195 250 317 376 443
#     4  12  31  49  72 109 158 203 255 312 378 463
#     4  12  26  43  79 116 156 193 253 324 385 447
#     4   9  23  45  78 112 147 191 251 318 373 450
#     4   9  22  43  78 114 146 190 256 317 374 454
#     4  11  25  47  74 113 150 197 255 311 379 455
#     4  11  24  46  77 112 147 198 256 310 376 454
#     4  12  24  46  76 110 152 203 247 313 391 441
#
# _framework density 25.742408999999999
#
# number of rings (size 3 to 8) (size 9 to 14) (size 15 to 20)
#    0.750    0.500    1.250    3.000    5.250    5.500 
#    2.250    1.250    0.000    0.000    0.000    0.000 
#    0.000    0.000    0.000    0.000    0.000    0.000 
#
# Total GULP energy -89541.797363 kJ/mol
# GULP energy per Si atom -5596.362335 kJ/mol
# Density = 2.568382 g / cm^3
# Si number density = 25.742409 Si / 1000 Ang^3
#
#
#
# Elastic Constant Matrix: (Units=GPa)
#
#
# Indices 1 2 3 4 5 6 
#
# 1 79.7419 27.2641 29.8749 0.0721 -9.5298 -26.4677
# 2 27.2641 128.4869 31.0667 9.7789 0.0029 -28.9211
# 3 29.8749 31.0667 165.3506 1.4373 -16.7609 -19.9162
# 4 0.0721 9.7789 1.4373 38.5854 -2.9995 8.6005
# 5 -9.5298 0.0029 -16.7609 -2.9995 47.9314 3.9045
# 6 -26.4677 -28.9211 -19.9162 8.6005 3.9045 44.2693
#
#
#
# Elastic Compliance Matrix: (Units=1/GPa)
#
#
# Indices 1 2 3 4 5 6 
#
# 1 0.016590 -0.001096 -0.001541 -0.001465 0.001966 0.008621
# 2 -0.001096 0.009986 -0.001020 -0.004000 -0.001339 0.006305
# 3 -0.001541 -0.001020 0.006884 -0.000145 0.001981 0.001363
# 4 -0.001465 -0.004000 -0.000145 0.029215 0.002255 -0.009429
# 5 0.001966 -0.001339 0.001981 0.002255 0.022186 -0.001203
# 6 0.008621 0.006305 0.001363 -0.009429 -0.001203 0.034413
#
#
# Mechanical properties :
#
#
# Convention : Reuss Voigt Hill
#
# Bulk Modulus (GPa) = 38.24623 61.11009 49.67816
# Shear Modulus (GPa) = 36.95409 45.18213 41.06811
#
# Velocity S-wave (km/s) = 3.79295 4.19401 3.99851
# Velocity P-wave (km/s) = 5.83708 6.87340 6.37633
#
# Compressibility (1/GPa) = 0.02614637
#
# Stress axis : x y z
#
# Youngs Moduli (GPa) = 60.27668 100.14418 145.26451
#
# Poissons Ratio (x) = 0.10974 0.22388
# Poissons Ratio (y) = 0.06605 0.14812
# Poissons Ratio (z) = 0.09290 0.10212
#
# Static dielectric constant tensor:
#      x y z
#    x 2.027850 0.016180 -0.036680 
#    y 0.016180 2.052210 -0.071050 
#    z -0.036680 -0.071050 2.062140 
# 
# From -- ./inp_files/590542.got.cif
#   From: 2010.05.17/outbox.cif.g08.bks.cpg/sg2_296_cif.got.tgz:590542.got - 2010.06.03 11:33:40.
