data_PCOD9052860
_publ_section_title
;
Structure prediction by ZEFSAII (Michael W. Deem and Ramdas Pophale) SiO2 
 PCOD9052860
Probable space group: P -1
;
_chemical_formula_sum "Si O2"
_cell_formula_units_Z 16
_cell_length_a 8.522965
_cell_length_b 14.626391
_cell_length_c 9.559424
_cell_angle_alpha 107.743167
_cell_angle_beta 89.960706
_cell_angle_gamma 43.978411
_cell_volume 743.248579
_symmetry_space_group_name_H-M "P -1"
_symmetry_group_IT_number 2
_symmetry_cell_setting 'triclinic'
loop_
_space_group_symop_operation_xyz
x,y,z
-x,-y,-z
loop_
_atom_site_type_symbol
_atom_site_label
_atom_site_fract_x
_atom_site_fract_y
_atom_site_fract_z
Si Si1 0.726046 0.655530 0.562343
Si Si2 0.819294 0.869533 0.163951
Si Si3 0.568325 0.531391 0.380894
Si Si4 0.509662 0.277296 0.123784
Si Si5 0.553745 0.083716 0.493639
Si Si6 0.627886 0.067547 0.793078
Si Si7 0.953422 0.204247 0.165425
Si Si8 0.302126 0.567625 0.149425
O O1 0.592835 0.628197 0.475195
O O2 0.618775 0.717957 0.746539
O O3 0.677502 0.766522 0.512655
O O4 0.000000 0.500000 0.500000
O O5 0.590554 0.905742 0.170402
O O6 0.042669 0.708995 0.154418
O O7 0.752495 0.985110 0.326167
O O8 0.893075 0.870514 0.011498
O O9 0.500000 0.500000 0.500000
O O10 0.820335 0.368562 0.253242
O O11 0.372157 0.602912 0.295873
O O12 0.741747 0.224772 0.159569
O O13 0.339852 0.441277 0.142750
O O14 0.587148 0.173335 0.949257
O O15 0.622430 0.102057 0.647246
O O16 0.500000 0.000000 0.500000
O O17 0.873845 0.900653 0.755791
O O18 0.500000 0.500000 0.000000
#
# Coordination Sequence:
#
# PCOD9052860 Si02
#       8
#     2   2   2   2   2   2   2   2
#     4  12  28  45  74 105 143 184 239 288 344 424
#     4  11  24  44  71  96 138 184 234 284 352 407
#     4  11  24  44  71 102 140 187 232 280 359 408
#     4  11  25  45  67 103 142 181 234 287 346 417
#     4  10  27  46  65 103 140 180 227 293 352 402
#     4  11  26  41  70  99 138 178 237 287 354 396
#     4  11  23  45  69  98 141 188 224 283 348 429
#     4  11  23  44  70 101 140 184 231 287 345 421
#
# _framework density 21.527117000000001
#
# number of rings (size 3 to 8) (size 9 to 14) (size 15 to 20)
#    0.000    1.000    5.000    1.500   12.250    0.500 
#    0.000    1.875    0.000    0.000    0.000    0.000 
#    0.000    0.000    0.000    0.000    0.000    0.000 
#
# Total GULP energy -89510.818029 kJ/mol
# GULP energy per Si atom -5594.426127 kJ/mol
# Density = 2.147812 g / cm^3
# Si number density = 21.527117 Si / 1000 Ang^3
#
#
#
# Elastic Constant Matrix: (Units=GPa)
#
#
# Indices 1 2 3 4 5 6 
#
# 1 31.0115 11.9112 -3.3959 -3.7977 6.2236 -1.6105
# 2 11.9112 135.6454 11.6993 -21.1814 1.5271 -11.6376
# 3 -3.3959 11.6993 115.3484 -6.0558 -2.0780 4.5768
# 4 -3.7977 -21.1814 -6.0558 37.8940 4.4965 -1.9858
# 5 6.2236 1.5271 -2.0780 4.4965 36.5093 0.9184
# 6 -1.6105 -11.6376 4.5768 -1.9858 0.9184 32.0722
#
#
#
# Elastic Compliance Matrix: (Units=1/GPa)
#
#
# Indices 1 2 3 4 5 6 
#
# 1 0.035042 -0.002551 0.001300 0.003083 -0.006198 0.001017
# 2 -0.002551 0.008715 -0.000860 0.004737 -0.000649 0.003469
# 3 0.001300 -0.000860 0.008908 0.000968 0.000239 -0.001465
# 4 0.003083 0.004737 0.000968 0.030229 -0.004485 0.003736
# 5 -0.006198 -0.000649 0.000239 -0.004485 0.029083 -0.001691
# 6 0.001017 0.003469 -0.001465 0.003736 -0.001691 0.032978
#
#
# Mechanical properties :
#
#
# Convention : Reuss Voigt Hill
#
# Bulk Modulus (GPa) = 20.64206 35.82607 28.23406
# Shear Modulus (GPa) = 30.24363 38.74781 34.49572
#
# Velocity S-wave (km/s) = 3.75228 4.24719 4.00738
# Velocity P-wave (km/s) = 5.32752 6.38200 5.87845
#
# Compressibility (1/GPa) = 0.04844477
#
# Stress axis : x y z
#
# Youngs Moduli (GPa) = 28.53687 114.74554 112.25720
#
# Poissons Ratio (x) = 0.29270 -0.14596
# Poissons Ratio (y) = 0.07279 0.09650
# Poissons Ratio (z) = -0.03710 0.09864
#
# Static dielectric constant tensor:
#      x y z
#    x 1.726330 -0.025110 0.094450 
#    y -0.025110 1.740390 0.099900 
#    z 0.094450 0.099900 1.690480 
# 
# From -- ./inp_files/207773.got.cif
#   From: 2010.05.17/outbox.cif.g08.bks.cpg/sg2_104_cif.got.tgz:207773.got - 2010.06.03 11:33:40.
