data_PCOD9052341
_publ_section_title
;
Structure prediction by ZEFSAII (Michael W. Deem and Ramdas Pophale) SiO2 
 PCOD9052341
Probable space group: P -1
;
_chemical_formula_sum "Si O2"
_cell_formula_units_Z 15
_cell_length_a 13.766509
_cell_length_b 5.409496
_cell_length_c 9.020441
_cell_angle_alpha 74.225628
_cell_angle_beta 72.272020
_cell_angle_gamma 102.803782
_cell_volume 580.813037
_symmetry_space_group_name_H-M "P -1"
_symmetry_group_IT_number 2
_symmetry_cell_setting 'triclinic'
loop_
_space_group_symop_operation_xyz
x,y,z
-x,-y,-z
loop_
_atom_site_type_symbol
_atom_site_label
_atom_site_fract_x
_atom_site_fract_y
_atom_site_fract_z
Si Si1 0.447784 0.631232 0.698295
Si Si2 0.832985 0.491182 0.535031
Si Si3 0.000000 0.500000 0.000000
Si Si4 0.838400 0.252642 0.276559
Si Si5 0.986992 0.976707 0.687143
Si Si6 0.163367 0.820621 0.129560
Si Si7 0.416638 0.017897 0.909143
Si Si8 0.670748 0.699221 0.445670
O O1 0.443678 0.337607 0.810827
O O2 0.563038 0.744545 0.544912
O O3 0.357822 0.538068 0.626066
O O4 0.433353 0.838577 0.791991
O O5 0.812168 0.252347 0.462879
O O6 0.929307 0.722733 0.372067
O O7 0.862394 0.417759 0.694220
O O8 0.731846 0.597216 0.563251
O O9 0.880020 0.528862 0.123275
O O10 0.083464 0.727625 0.044416
O O11 0.961819 0.225014 0.218231
O O12 0.751045 0.982792 0.301185
O O13 0.870336 0.949498 0.803937
O O14 0.000000 0.000000 0.500000
O O15 0.290558 0.904124 0.029805
O O16 0.500000 0.000000 0.000000
#
# Coordination Sequence:
#
# PCOD9052341 Si02
#       8
#     2   2   1   2   2   2   2   2
#     4  11  27  50  76 115 152 203 266 332 383 459
#     4  11  23  45  69 105 144 200 254 307 377 476
#     4  12  26  44  70 106 156 190 240 310 396 470
#     4  11  24  43  72 105 150 191 252 308 386 470
#     4  11  22  41  68 103 139 189 255 306 370 464
#     4  12  26  44  74 108 153 205 248 323 389 466
#     4  12  29  50  78 115 162 204 264 321 397 456
#     4  10  26  44  80 106 146 200 262 324 385 459
#
# _framework density 25.825863999999999
#
# number of rings (size 3 to 8) (size 9 to 14) (size 15 to 20)
#    0.000    0.800    2.667    3.200    7.467    3.733 
#    0.000    0.000    0.000    0.000    0.000    0.000 
#    0.000    0.000    0.000    0.000    0.000    0.000 
#
# Total GULP energy -83761.420875 kJ/mol
# GULP energy per Si atom -5584.094725 kJ/mol
# Density = 2.576708 g / cm^3
# Si number density = 25.825864 Si / 1000 Ang^3
#
#
#
# Elastic Constant Matrix: (Units=GPa)
#
#
# Indices 1 2 3 4 5 6 
#
# 1 147.1318 47.3044 62.7435 5.1047 -0.4165 6.8252
# 2 47.3044 108.6484 53.5189 3.1755 -12.1590 4.8839
# 3 62.7435 53.5189 137.6626 12.6413 -8.1561 4.9377
# 4 5.1047 3.1755 12.6413 63.4573 2.0444 -0.0879
# 5 -0.4165 -12.1590 -8.1561 2.0444 62.6847 -14.1474
# 6 6.8252 4.8839 4.9377 -0.0879 -14.1474 40.4649
#
#
#
# Elastic Compliance Matrix: (Units=1/GPa)
#
#
# Indices 1 2 3 4 5 6 
#
# 1 0.008981 -0.002413 -0.003183 0.000066 -0.001100 -0.001220
# 2 -0.002413 0.012210 -0.003558 0.000231 0.001888 0.000028
# 3 -0.003183 -0.003558 0.010290 -0.001637 0.000668 -0.000060
# 4 0.000066 0.000231 -0.001637 0.016091 -0.000704 -0.000050
# 5 -0.001100 0.001888 0.000668 -0.000704 0.017798 0.006097
# 6 -0.001220 0.000028 -0.000060 -0.000050 0.006097 0.027054
#
#
# Mechanical properties :
#
#
# Convention : Reuss Voigt Hill
#
# Bulk Modulus (GPa) = 75.90221 80.06404 77.98313
# Shear Modulus (GPa) = 43.43270 48.64644 46.03957
#
# Velocity S-wave (km/s) = 4.10537 4.34479 4.22677
# Velocity P-wave (km/s) = 7.20596 7.49923 7.35406
#
# Compressibility (1/GPa) = 0.01317485
#
# Stress axis : x y z
#
# Youngs Moduli (GPa) = 111.34955 81.89897 97.18216
#
# Poissons Ratio (x) = 0.19758 0.30931
# Poissons Ratio (y) = 0.26863 0.34575
# Poissons Ratio (z) = 0.35440 0.29137
#
# Static dielectric constant tensor:
#      x y z
#    x 2.097510 -0.057730 0.016560 
#    y -0.057730 2.260440 0.038920 
#    z 0.016560 0.038920 2.263490 
# 
# From -- ./inp_files/287917.got.cif
#   From: 2010.05.17/outbox.cif.g08.bks.cpg/sg2_144_cif.got.tgz:287917.got - 2010.06.03 11:33:40.
