data_PCOD9052180
_publ_section_title
;
Structure prediction by ZEFSAII (Michael W. Deem and Ramdas Pophale) SiO2 
 PCOD9052180
Probable space group: P -1
;
_chemical_formula_sum "Si O2"
_cell_formula_units_Z 13
_cell_length_a 22.602891
_cell_length_b 13.153712
_cell_length_c 10.041115
_cell_angle_alpha 34.770542
_cell_angle_beta 27.904412
_cell_angle_gamma 26.052007
_cell_volume 608.084580
_symmetry_space_group_name_H-M "P -1"
_symmetry_group_IT_number 2
_symmetry_cell_setting 'triclinic'
loop_
_space_group_symop_operation_xyz
x,y,z
-x,-y,-z
loop_
_atom_site_type_symbol
_atom_site_label
_atom_site_fract_x
_atom_site_fract_y
_atom_site_fract_z
Si Si1 0.806841 0.955181 0.764853
Si Si2 0.146061 0.603338 0.331449
Si Si3 0.387444 0.678529 0.653134
Si Si4 0.000000 0.500000 0.500000
Si Si5 0.686797 0.756304 0.383494
Si Si6 0.390253 0.521060 0.317517
Si Si7 0.327569 0.082822 0.195338
O O1 0.690933 0.974559 0.856751
O O2 0.993192 0.814985 0.495243
O O3 0.731281 0.209762 0.688322
O O4 0.800244 0.814520 0.045614
O O5 0.058856 0.568989 0.429958
O O6 0.258262 0.372889 0.446247
O O7 0.258031 0.651877 0.991027
O O8 0.500000 0.500000 0.500000
O O9 0.500012 0.621625 0.617756
O O10 0.292626 0.939653 0.509265
O O11 0.185617 0.353368 0.215840
O O12 0.692228 0.584454 0.456926
O O13 0.500000 0.000000 0.500000
O O14 0.500000 0.500000 0.000000
O O15 0.500000 0.000000 0.000000
#
# Coordination Sequence:
#
# PCOD9052180 Si02
#       7
#     2   2   2   1   2   2   2
#     4  11  25  47  68 109 148 190 250 306 365 441
#     4  11  26  48  67 110 148 189 248 307 373 440
#     4  12  24  45  76 101 146 194 242 308 362 447
#     4  10  26  42  70 104 144 186 242 300 364 444
#     4  12  25  45  77 101 147 193 250 305 367 444
#     4  12  24  45  72 110 139 194 256 296 367 448
#     4  11  24  45  72 104 147 193 246 298 374 438
#
# _framework density 21.378605
#
# number of rings (size 3 to 8) (size 9 to 14) (size 15 to 20)
#    0.000    0.615    4.615    2.308    4.308    4.308 
#    8.308    0.000    0.000    0.000    0.000    0.000 
#    0.000    0.000    0.000    0.000    0.000    0.000 
#
# Total GULP energy -72479.248427 kJ/mol
# GULP energy per Si atom -5575.326802 kJ/mol
# Density = 2.132995 g / cm^3
# Si number density = 21.378605 Si / 1000 Ang^3
#
#
#
# Elastic Constant Matrix: (Units=GPa)
#
#
# Indices 1 2 3 4 5 6 
#
# 1 678.7134 -35.1603 -66.3623 207.5986 21.0169 -161.2068
# 2 -35.1603 95.1744 33.5191 -1.8101 0.4602 29.6957
# 3 -66.3623 33.5191 135.2050 -19.2270 2.0834 7.4232
# 4 207.5986 -1.8101 -19.2270 101.4388 -2.4590 -33.9931
# 5 21.0169 0.4602 2.0834 -2.4590 35.9837 -0.3868
# 6 -161.2068 29.6957 7.4232 -33.9931 -0.3868 64.0450
#
#
#
# Elastic Compliance Matrix: (Units=1/GPa)
#
#
# Indices 1 2 3 4 5 6 
#
# 1 0.015553 -0.005477 0.004481 -0.021354 -0.010413 0.029773
# 2 -0.005477 0.016021 -0.005071 0.004514 0.003401 -0.018211
# 3 0.004481 -0.005071 0.009763 -0.004024 -0.003281 0.010343
# 4 -0.021354 0.004514 -0.004024 0.042231 0.015180 -0.032871
# 5 -0.010413 0.003401 -0.003281 0.015180 0.034850 -0.019139
# 6 0.029773 -0.018211 0.010343 -0.032871 -0.019139 0.080237
#
#
# Mechanical properties :
#
#
# Convention : Reuss Voigt Hill
#
# Bulk Modulus (GPa) = 34.24297 85.89841 60.07069
# Shear Modulus (GPa) = 22.67316 105.43323 64.05320
#
# Velocity S-wave (km/s) = 3.26015 7.03024 5.47963
# Velocity P-wave (km/s) = 5.49760 10.30368 8.25801
#
# Compressibility (1/GPa) = 0.02920307
#
# Stress axis : x y z
#
# Youngs Moduli (GPa) = 64.29448 62.41801 102.42543
#
# Poissons Ratio (x) = 0.34189 -0.45898
# Poissons Ratio (y) = 0.35217 0.51939
# Poissons Ratio (z) = -0.28811 0.31652
#
# Static dielectric constant tensor:
#      x y z
#    x 1.762590 -0.025980 0.028960 
#    y -0.025980 1.805620 0.022650 
#    z 0.028960 0.022650 1.752350 
# 
# From -- ./inp_files/261306.got.cif
#   From: 2010.05.17/outbox.cif.g08.bks.cpg/sg2_131_cif.got.tgz:261306.got - 2010.06.03 11:33:40.
