data_PCOD9052169
_publ_section_title
;
Structure prediction by ZEFSAII (Michael W. Deem and Ramdas Pophale) SiO2 
 PCOD9052169
Probable space group: P -1
;
_chemical_formula_sum "Si O2"
_cell_formula_units_Z 13
_cell_length_a 5.330113
_cell_length_b 4.912160
_cell_length_c 22.776031
_cell_angle_alpha 113.051933
_cell_angle_beta 83.934737
_cell_angle_gamma 87.814423
_cell_volume 543.578092
_symmetry_space_group_name_H-M "P -1"
_symmetry_group_IT_number 2
_symmetry_cell_setting 'triclinic'
loop_
_space_group_symop_operation_xyz
x,y,z
-x,-y,-z
loop_
_atom_site_type_symbol
_atom_site_label
_atom_site_fract_x
_atom_site_fract_y
_atom_site_fract_z
Si Si1 0.731814 0.504401 0.539809
Si Si2 0.500000 0.000000 0.000000
Si Si3 0.269522 0.068570 0.913698
Si Si4 0.691554 0.163197 0.626236
Si Si5 0.148294 0.423325 0.706671
Si Si6 0.088862 0.086649 0.794846
Si Si7 0.763163 0.386252 0.922084
O O1 0.500000 0.500000 0.500000
O O2 0.737535 0.236681 0.563123
O O3 0.000000 0.500000 0.500000
O O4 0.687097 0.810966 0.602992
O O5 0.723838 0.735770 0.954747
O O6 0.306945 0.823338 0.941604
O O7 0.277517 0.011638 0.839342
O O8 0.525024 0.223863 0.941321
O O9 0.007658 0.258324 0.940077
O O10 0.420295 0.330841 0.663494
O O11 0.923200 0.268875 0.667219
O O12 0.173524 0.312454 0.763874
O O13 0.068173 0.773547 0.738094
O O14 0.834521 0.246032 0.844520
#
# Coordination Sequence:
#
# PCOD9052169 Si02
#       7
#     2   1   2   2   2   2   2
#     4  12  24  45  74 106 154 183 232 285 342 407
#     4  12  24  44  72  92 140 174 226 318 354 464
#     4  10  26  42  66  98 132 174 238 280 387 427
#     4  12  26  44  72 110 136 197 236 279 350 403
#     4  12  26  45  72  95 150 177 248 291 340 413
#     4  10  28  44  70 100 136 189 232 302 356 430
#     4  10  26  42  66  98 132 174 238 280 387 427
#
# _framework density 23.915607999999999
#
# number of rings (size 3 to 8) (size 9 to 14) (size 15 to 20)
#    0.923    0.000    0.000    5.538    8.615    2.462 
#    0.000    0.000    0.000    0.000    0.000    0.000 
#    0.000    0.000    0.000    0.000    0.000    0.000 
#
# Total GULP energy -72472.133529 kJ/mol
# GULP energy per Si atom -5574.779502 kJ/mol
# Density = 2.386117 g / cm^3
# Si number density = 23.915608 Si / 1000 Ang^3
#
#
#
# Elastic Constant Matrix: (Units=GPa)
#
#
# Indices 1 2 3 4 5 6 
#
# 1 175.2415 16.7938 44.3531 -5.1527 5.7124 -9.2114
# 2 16.7938 84.0467 -2.8370 2.2573 -8.8584 -4.4355
# 3 44.3531 -2.8370 74.0167 1.9365 -22.9234 2.9378
# 4 -5.1527 2.2573 1.9365 40.1872 -9.7115 -1.7789
# 5 5.7124 -8.8584 -22.9234 -9.7115 46.2405 -13.9696
# 6 -9.2114 -4.4355 2.9378 -1.7789 -13.9696 36.1432
#
#
#
# Elastic Compliance Matrix: (Units=1/GPa)
#
#
# Indices 1 2 3 4 5 6 
#
# 1 0.007574 -0.002109 -0.005887 0.000441 -0.003973 0.000636
# 2 -0.002109 0.013139 0.003299 0.000250 0.005336 0.002881
# 3 -0.005887 0.003299 0.020968 0.001203 0.012656 0.002151
# 4 0.000441 0.000250 0.001203 0.026876 0.007527 0.004277
# 5 -0.003973 0.005336 0.012656 0.007527 0.034744 0.012413
# 6 0.000636 0.002881 0.002151 0.004277 0.012413 0.033017
#
#
# Mechanical properties :
#
#
# Convention : Reuss Voigt Hill
#
# Bulk Modulus (GPa) = 30.97260 49.99161 40.48211
# Shear Modulus (GPa) = 31.95406 42.84719 37.40062
#
# Velocity S-wave (km/s) = 3.65926 4.23732 3.95885
# Velocity P-wave (km/s) = 5.55270 6.69989 6.15309
#
# Compressibility (1/GPa) = 0.03228660
#
# Stress axis : x y z
#
# Youngs Moduli (GPa) = 132.02203 76.11064 47.69263
#
# Poissons Ratio (x) = 0.16054 0.28077
# Poissons Ratio (y) = 0.27847 -0.15735
# Poissons Ratio (z) = 0.77723 -0.25111
#
# Static dielectric constant tensor:
#      x y z
#    x 1.905870 -0.121460 0.091800 
#    y -0.121460 -21.763310 10.868230 
#    z 0.091800 10.868230 -3.018700 
# 
# From -- ./inp_files/602806.got.cif
#   From: 2010.05.17/outbox.cif.g08.bks.cpg/sg2_302_cif.got.tgz:602806.got - 2010.06.03 11:33:40.
