data_PCOD9052084
_publ_section_title
;
Structure prediction by ZEFSAII (Michael W. Deem and Ramdas Pophale) SiO2 
 PCOD9052084
Probable space group: P -1
;
_chemical_formula_sum "Si O2"
_cell_formula_units_Z 14
_cell_length_a 9.108983
_cell_length_b 15.098659
_cell_length_c 8.441409
_cell_angle_alpha 42.398125
_cell_angle_beta 107.820412
_cell_angle_gamma 132.035224
_cell_volume 538.697432
_symmetry_space_group_name_H-M "P -1"
_symmetry_group_IT_number 2
_symmetry_cell_setting 'triclinic'
loop_
_space_group_symop_operation_xyz
x,y,z
-x,-y,-z
loop_
_atom_site_type_symbol
_atom_site_label
_atom_site_fract_x
_atom_site_fract_y
_atom_site_fract_z
Si Si1 0.198786 0.846911 0.137525
Si Si2 0.452347 0.779323 0.434528
Si Si3 0.095427 0.676033 0.005045
Si Si4 0.739981 0.461994 0.932570
Si Si5 0.804260 0.971522 0.540245
Si Si6 0.471928 0.429523 0.407640
Si Si7 0.013715 0.165995 0.644970
O O1 0.287255 0.801705 0.362474
O O2 0.030766 0.841435 0.176249
O O3 0.114550 0.700971 0.165913
O O4 0.378420 0.044691 0.857958
O O5 0.382759 0.603746 0.556920
O O6 0.578146 0.812492 0.592392
O O7 0.147498 0.852653 0.731305
O O8 0.861427 0.509230 0.075622
O O9 0.265985 0.676028 0.985105
O O10 0.547877 0.454703 0.865855
O O11 0.918392 0.651152 0.642238
O O12 0.826728 0.991086 0.711638
O O13 0.000000 0.000000 0.500000
O O14 0.500000 0.500000 0.500000
O O15 0.235399 0.225781 0.599567
#
# Coordination Sequence:
#
# PCOD9052084 Si02
#       7
#     2   2   2   2   2   2   2
#     4  10  21  33  52  86 108 134 180 225 270 307
#     4  10  20  35  55  78 108 145 171 220 271 315
#     4   9  16  31  52  74 108 137 174 214 253 326
#     4   8  17  32  52  78  96 149 180 201 262 315
#     4  10  17  35  56  78 103 142 183 212 265 324
#     4  10  19  35  56  78 105 140 181 217 261 320
#     4   9  20  34  54  84 103 139 182 220 264 310
#
# _framework density 25.988613999999998
#
# number of rings (size 3 to 8) (size 9 to 14) (size 15 to 20)
#    0.857    1.714    1.429    0.857    0.000    1.714 
#    0.000    0.000    0.000    0.857    0.000    0.000 
#    0.000    0.000    0.000    0.000    0.000    0.000 
#
# Total GULP energy -78142.180049 kJ/mol
# GULP energy per Si atom -5581.584289 kJ/mol
# Density = 2.592946 g / cm^3
# Si number density = 25.988614 Si / 1000 Ang^3
#
#
#
# Elastic Constant Matrix: (Units=GPa)
#
#
# Indices 1 2 3 4 5 6 
#
# 1 76.4050 6.7698 13.3838 -14.9497 23.9252 -16.5830
# 2 6.7698 105.0890 16.5727 5.7680 15.1902 -18.5674
# 3 13.3838 16.5727 93.3562 -4.2303 29.6701 -6.4846
# 4 -14.9497 5.7680 -4.2303 36.2537 -9.2434 3.2272
# 5 23.9252 15.1902 29.6701 -9.2434 42.3222 -3.6132
# 6 -16.5830 -18.5674 -6.4846 3.2272 -3.6132 42.4162
#
#
#
# Elastic Compliance Matrix: (Units=1/GPa)
#
#
# Indices 1 2 3 4 5 6 
#
# 1 0.018170 0.001006 0.000987 0.004364 -0.009814 0.006527
# 2 0.001006 0.011242 -0.000500 -0.003027 -0.004480 0.005087
# 3 0.000987 -0.000500 0.013969 -0.000611 -0.010178 0.001482
# 4 0.004364 -0.003027 -0.000611 0.031408 0.005770 -0.001610
# 5 -0.009814 -0.004480 -0.010178 0.005770 0.038797 -0.004488
# 6 0.006527 0.005087 0.001482 -0.001610 -0.004488 0.028321
#
#
# Mechanical properties :
#
#
# Convention : Reuss Voigt Hill
#
# Bulk Modulus (GPa) = 21.56712 38.70031 30.13371
# Shear Modulus (GPa) = 32.38832 40.07335 36.23083
#
# Velocity S-wave (km/s) = 3.53406 3.93104 3.73782
# Velocity P-wave (km/s) = 4.99694 5.96051 5.49987
#
# Compressibility (1/GPa) = 0.04636688
#
# Stress axis : x y z
#
# Youngs Moduli (GPa) = 55.03627 88.94991 71.58691
#
# Poissons Ratio (x) = -0.08949 -0.07063
# Poissons Ratio (y) = -0.05537 0.03579
# Poissons Ratio (z) = -0.05430 0.04447
#
# Static dielectric constant tensor:
#      x y z
#    x 2.010180 0.088510 -0.056140 
#    y 0.088510 2.084220 0.039510 
#    z -0.056140 0.039510 2.124460 
# 
# From -- ./inp_files/266889.got.cif
#   From: 2010.05.17/outbox.cif.g08.bks.cpg/sg2_134_cif.got.tgz:266889.got - 2010.06.03 11:33:40.
