data_PCOD9052548
_publ_section_title
;
Structure prediction by ZEFSAII (Michael W. Deem and Ramdas Pophale) SiO2 
 PCOD9052548
Probable space group: P -1
;
_chemical_formula_sum "Si O2"
_cell_formula_units_Z 14
_cell_length_a 16.900181
_cell_length_b 8.784014
_cell_length_c 10.568223
_cell_angle_alpha 113.590277
_cell_angle_beta 33.694780
_cell_angle_gamma 131.833170
_cell_volume 601.351236
_symmetry_space_group_name_H-M "P -1"
_symmetry_group_IT_number 2
_symmetry_cell_setting 'triclinic'
loop_
_space_group_symop_operation_xyz
x,y,z
-x,-y,-z
loop_
_atom_site_type_symbol
_atom_site_label
_atom_site_fract_x
_atom_site_fract_y
_atom_site_fract_z
Si Si1 0.176803 0.554632 0.217376
Si Si2 0.092671 0.345483 0.985946
Si Si3 0.396674 0.960875 0.920283
Si Si4 0.654990 0.473455 0.782921
Si Si5 0.022881 0.884502 0.317576
Si Si6 0.562439 0.217736 0.424703
Si Si7 0.190913 0.085268 0.898613
O O1 0.258168 0.476436 0.174873
O O2 0.000000 0.500000 0.500000
O O3 0.106730 0.443351 0.135749
O O4 0.328930 0.817718 0.088424
O O5 0.225929 0.547868 0.779192
O O6 0.887905 0.145397 0.136660
O O7 0.172300 0.222579 0.871772
O O8 0.462557 0.856046 0.712494
O O9 0.551104 0.221313 0.808339
O O10 0.203875 0.902380 0.104633
O O11 0.824992 0.635744 0.512215
O O12 0.500000 0.500000 0.000000
O O13 0.064846 0.001826 0.165515
O O14 0.000000 0.000000 0.500000
O O15 0.500000 0.000000 0.500000
O O16 0.412270 0.235100 0.680449
#
# Coordination Sequence:
#
# PCOD9052548 Si02
#       7
#     2   2   2   2   2   2   2
#     4  11  24  46  73 101 149 182 230 301 350 416
#     4  10  26  47  67 103 137 191 232 284 355 415
#     4  11  25  44  67 107 138 185 233 288 358 412
#     4  12  26  44  72 105 137 188 235 285 356 425
#     4  12  24  44  70 105 141 178 233 295 352 410
#     4  11  24  43  70  99 142 181 231 288 342 419
#     4  11  25  46  72  98 142 185 234 286 349 425
#
# _framework density 23.280904
#
# number of rings (size 3 to 8) (size 9 to 14) (size 15 to 20)
#    0.000    0.857    4.286    1.714    4.000    0.571 
#   10.286    0.000    0.000    0.000    0.000    0.000 
#    0.000    0.000    0.000    0.000    0.000    0.000 
#
# Total GULP energy -78209.705550 kJ/mol
# GULP energy per Si atom -5586.407539 kJ/mol
# Density = 2.322792 g / cm^3
# Si number density = 23.280904 Si / 1000 Ang^3
#
#
#
# Elastic Constant Matrix: (Units=GPa)
#
#
# Indices 1 2 3 4 5 6 
#
# 1 69.7105 -1.3612 23.8389 -2.1826 7.4734 -10.0430
# 2 -1.3612 105.1092 31.4020 -26.2889 11.9080 8.9421
# 3 23.8389 31.4020 130.8699 -23.3409 17.1221 2.9231
# 4 -2.1826 -26.2889 -23.3409 36.1077 -7.8363 4.6734
# 5 7.4734 11.9080 17.1221 -7.8363 30.8377 -1.8255
# 6 -10.0430 8.9421 2.9231 4.6734 -1.8255 41.7762
#
#
#
# Elastic Compliance Matrix: (Units=1/GPa)
#
#
# Indices 1 2 3 4 5 6 
#
# 1 0.016256 0.000697 -0.003170 -0.001654 -0.002629 0.004051
# 2 0.000697 0.012539 -0.001267 0.008277 -0.002409 -0.003459
# 3 -0.003170 -0.001267 0.009825 0.004807 -0.003086 -0.001851
# 4 -0.001654 0.008277 0.004807 0.038436 0.003910 -0.006635
# 5 -0.002629 -0.002409 -0.003086 0.003910 0.036777 0.001269
# 6 0.004051 -0.003459 -0.001851 -0.006635 0.001269 0.026578
#
#
# Mechanical properties :
#
#
# Convention : Reuss Voigt Hill
#
# Bulk Modulus (GPa) = 32.11234 45.93879 39.02556
# Shear Modulus (GPa) = 31.59129 38.53164 35.06146
#
# Velocity S-wave (km/s) = 3.68769 4.07267 3.88495
# Velocity P-wave (km/s) = 5.65292 6.47231 6.07644
#
# Compressibility (1/GPa) = 0.03114068
#
# Stress axis : x y z
#
# Youngs Moduli (GPa) = 61.51447 79.75219 101.78115
#
# Poissons Ratio (x) = -0.05560 0.32264
# Poissons Ratio (y) = -0.04289 0.12896
# Poissons Ratio (z) = 0.19500 0.10105
#
# Static dielectric constant tensor:
#      x y z
#    x 1.930750 0.019340 -0.015700 
#    y 0.019340 1.899350 -0.035910 
#    z -0.015700 -0.035910 1.676590 
# 
# From -- ./inp_files/272578.got.cif
#   From: 2010.05.17/outbox.cif.g08.bks.cpg/sg2_137_cif.got.tgz:272578.got - 2010.06.03 11:33:40.
