data_PCOD9052604
_publ_section_title
;
Structure prediction by ZEFSAII (Michael W. Deem and Ramdas Pophale) SiO2 
 PCOD9052604
Probable space group: P -1
;
_chemical_formula_sum "Si O2"
_cell_formula_units_Z 16
_cell_length_a 15.036016
_cell_length_b 20.904369
_cell_length_c 13.095625
_cell_angle_alpha 18.538129
_cell_angle_beta 149.525242
_cell_angle_gamma 153.359635
_cell_volume 583.801604
_symmetry_space_group_name_H-M "P -1"
_symmetry_group_IT_number 2
_symmetry_cell_setting 'triclinic'
loop_
_space_group_symop_operation_xyz
x,y,z
-x,-y,-z
loop_
_atom_site_type_symbol
_atom_site_label
_atom_site_fract_x
_atom_site_fract_y
_atom_site_fract_z
Si Si1 0.048989 0.850726 0.662348
Si Si2 0.986548 0.267142 0.411021
Si Si3 0.126061 0.269807 0.895068
Si Si4 0.564192 0.417744 0.588811
Si Si5 0.779980 0.182497 0.534370
Si Si6 0.932897 0.230890 0.967802
Si Si7 0.497586 0.059687 0.788808
Si Si8 0.462250 0.327024 0.002393
O O1 0.910060 0.971777 0.338032
O O2 0.022994 0.723218 0.937429
O O3 0.011121 0.685829 0.778433
O O4 0.283061 0.049576 0.580229
O O5 0.200675 0.424220 0.433157
O O6 0.821608 0.248181 0.356671
O O7 0.947826 0.004083 0.764597
O O8 0.345420 0.370398 0.912671
O O9 0.087310 0.336382 0.868282
O O10 0.976133 0.287910 0.637649
O O11 0.500000 0.500000 0.500000
O O12 0.527532 0.164518 0.955023
O O13 0.467506 0.463913 0.322857
O O14 0.629709 0.267513 0.297419
O O15 0.681018 0.906053 0.850037
O O16 0.728649 0.237630 0.728148
O O17 0.500000 0.000000 0.000000
#
# Coordination Sequence:
#
# PCOD9052604 Si02
#       8
#     2   2   2   2   2   2   2   2
#     4   9  19  36  57  87 120 159 207 250 309 367
#     4  10  19  35  56  90 129 157 196 262 315 360
#     4  10  17  35  57  84 127 156 207 257 301 374
#     4  12  23  37  60  96 136 159 202 269 318 366
#     4  10  19  34  59  84 127 160 203 243 313 387
#     4   9  19  36  61  87 116 165 214 254 298 365
#     4  10  23  41  60  85 127 173 208 251 311 383
#     4  10  21  35  54  91 123 164 201 252 320 360
#
# _framework density 27.406569999999999
#
# number of rings (size 3 to 8) (size 9 to 14) (size 15 to 20)
#    0.000    2.000    2.500    2.250    1.750    3.500 
#    2.250    0.000    0.000    3.000    0.000   66.500 
#    0.000    0.000    0.000    0.000    0.000    0.000 
#
# Total GULP energy -89608.600848 kJ/mol
# GULP energy per Si atom -5600.537553 kJ/mol
# Density = 2.734419 g / cm^3
# Si number density = 27.406570 Si / 1000 Ang^3
#
#
#
# Elastic Constant Matrix: (Units=GPa)
#
#
# Indices 1 2 3 4 5 6 
#
# 1 210.3240 36.4522 50.5243 14.0753 10.7843 6.1960
# 2 36.4522 86.6239 18.5102 13.7651 9.7716 2.7790
# 3 50.5243 18.5102 103.8687 14.6072 8.1446 17.4680
# 4 14.0753 13.7651 14.6072 40.0838 7.2109 8.9310
# 5 10.7843 9.7716 8.1446 7.2109 52.4271 -0.3236
# 6 6.1960 2.7790 17.4680 8.9310 -0.3236 43.5871
#
#
#
# Elastic Compliance Matrix: (Units=1/GPa)
#
#
# Indices 1 2 3 4 5 6 
#
# 1 0.005683 -0.001761 -0.002409 -0.000526 -0.000392 0.000375
# 2 -0.001761 0.013185 -0.000982 -0.003395 -0.001473 0.000488
# 3 -0.002409 -0.000982 0.012017 -0.002144 -0.000918 -0.003978
# 4 -0.000526 -0.003395 -0.002144 0.028658 -0.002897 -0.004743
# 5 -0.000392 -0.001473 -0.000918 -0.002897 0.019978 0.001259
# 6 0.000375 0.000488 -0.003978 -0.004743 0.001259 0.025434
#
#
# Mechanical properties :
#
#
# Convention : Reuss Voigt Hill
#
# Bulk Modulus (GPa) = 48.58873 67.97668 58.28271
# Shear Modulus (GPa) = 40.94404 46.90824 43.92614
#
# Velocity S-wave (km/s) = 3.86936 4.14160 4.00779
# Velocity P-wave (km/s) = 6.14247 6.90850 6.53672
#
# Compressibility (1/GPa) = 0.02058090
#
# Stress axis : x y z
#
# Youngs Moduli (GPa) = 175.97513 75.84343 83.21665
#
# Poissons Ratio (x) = 0.13355 0.20044
# Poissons Ratio (y) = 0.30986 0.08174
# Poissons Ratio (z) = 0.42387 0.07450
#
# Static dielectric constant tensor:
#      x y z
#    x 2.039780 0.086030 -0.061430 
#    y 0.086030 2.092050 0.015530 
#    z -0.061430 0.015530 2.130210 
# 
# From -- ./inp_files/535379.got.cif
#   From: 2010.05.17/outbox.cif.g08.bks.cpg/sg2_268_cif.got.tgz:535379.got - 2010.06.03 11:33:40.
