data_PCOD9052856
_publ_section_title
;
Structure prediction by ZEFSAII (Michael W. Deem and Ramdas Pophale) SiO2 
 PCOD9052856
Probable space group: P -1
;
_chemical_formula_sum "Si O2"
_cell_formula_units_Z 16
_cell_length_a 16.380594
_cell_length_b 8.335946
_cell_length_c 7.732768
_cell_angle_alpha 53.915946
_cell_angle_beta 118.572901
_cell_angle_gamma 132.170909
_cell_volume 626.353658
_symmetry_space_group_name_H-M "P -1"
_symmetry_group_IT_number 2
_symmetry_cell_setting 'triclinic'
loop_
_space_group_symop_operation_xyz
x,y,z
-x,-y,-z
loop_
_atom_site_type_symbol
_atom_site_label
_atom_site_fract_x
_atom_site_fract_y
_atom_site_fract_z
Si Si1 0.806261 0.106959 0.817530
Si Si2 0.451969 0.723188 0.656550
Si Si3 0.066346 0.311187 0.899971
Si Si4 0.786725 0.138788 0.394543
Si Si5 0.988199 0.845620 0.421552
Si Si6 0.105846 0.486636 0.169803
Si Si7 0.358791 0.401911 0.071974
Si Si8 0.371208 0.391558 0.477529
O O1 0.754068 0.117052 0.577108
O O2 0.794843 0.240002 0.884927
O O3 0.937614 0.231414 0.833217
O O4 0.746110 0.830675 0.970246
O O5 0.547774 0.663614 0.792053
O O6 0.369547 0.548869 0.530857
O O7 0.500000 0.000000 0.500000
O O8 0.396399 0.628580 0.848370
O O9 0.159250 0.590548 0.781778
O O10 0.058104 0.171294 0.806704
O O11 0.100233 0.305779 0.136850
O O12 0.894560 0.124821 0.498359
O O13 0.690702 0.890581 0.368323
O O14 0.904315 0.594952 0.591507
O O15 0.000000 0.000000 0.500000
O O16 0.000000 0.500000 0.000000
O O17 0.330383 0.419658 0.230321
O O18 0.500000 0.500000 0.500000
#
# Coordination Sequence:
#
# PCOD9052856 Si02
#       8
#     2   2   2   2   2   2   2   2
#     4   9  16  32  58  81 111 144 200 229 278 345
#     4  10  21  39  59  88 116 151 197 242 300 357
#     4  10  19  33  58  81 109 155 201 223 276 355
#     4  10  17  35  58  81 108 158 194 231 284 346
#     4  11  21  35  50  82 121 149 185 240 283 331
#     4  10  18  31  55  79 105 151 194 227 271 339
#     4   9  20  37  61  85 116 155 191 247 293 348
#     4   9  20  37  58  86 115 148 198 249 295 349
#
# _framework density 25.544675000000002
#
# number of rings (size 3 to 8) (size 9 to 14) (size 15 to 20)
#    0.000    2.250    3.750    0.750    1.750    1.000 
#    2.250    0.000    0.000   12.000    0.000    0.000 
#    0.000    0.000    0.000    0.000    0.000    0.000 
#
# Total GULP energy -89178.411549 kJ/mol
# GULP energy per Si atom -5573.650722 kJ/mol
# Density = 2.548653 g / cm^3
# Si number density = 25.544675 Si / 1000 Ang^3
#
#
#
# Elastic Constant Matrix: (Units=GPa)
#
#
# Indices 1 2 3 4 5 6 
#
# 1 59.2576 23.4991 24.2226 15.0392 -1.5932 0.0254
# 2 23.4991 204.3549 43.4962 5.2789 -18.0168 -24.5315
# 3 24.2226 43.4962 106.1064 -3.6239 -30.3297 -20.2461
# 4 15.0392 5.2789 -3.6239 44.4752 -7.7306 -21.1313
# 5 -1.5932 -18.0168 -30.3297 -7.7306 31.3924 1.3572
# 6 0.0254 -24.5315 -20.2461 -21.1313 1.3572 44.7017
#
#
#
# Elastic Compliance Matrix: (Units=1/GPa)
#
#
# Indices 1 2 3 4 5 6 
#
# 1 0.030950 -0.003810 -0.016596 -0.025062 -0.021922 -0.020806
# 2 -0.003810 0.006135 0.001061 0.004252 0.005153 0.005703
# 3 -0.016596 0.001061 0.026702 0.023915 0.030457 0.023066
# 4 -0.025062 0.004252 0.023915 0.057412 0.036717 0.039204
# 5 -0.021922 0.005153 0.030457 0.036717 0.070791 0.031842
# 6 -0.020806 0.005703 0.023066 0.039204 0.031842 0.053524
#
#
# Mechanical properties :
#
#
# Convention : Reuss Voigt Hill
#
# Bulk Modulus (GPa) = 39.84379 61.35050 50.59715
# Shear Modulus (GPa) = 17.09002 42.68060 29.88531
#
# Velocity S-wave (km/s) = 2.58936 4.09200 3.42412
# Velocity P-wave (km/s) = 4.95694 6.81139 5.95677
#
# Compressibility (1/GPa) = 0.02509802
#
# Stress axis : x y z
#
# Youngs Moduli (GPa) = 32.30992 163.00612 37.45059
#
# Poissons Ratio (x) = 0.62099 0.62154
# Poissons Ratio (y) = 0.12309 -0.03975
# Poissons Ratio (z) = 0.53622 -0.17301
#
# Static dielectric constant tensor:
#      x y z
#    x 2.176200 -0.309450 0.056740 
#    y -0.309450 2.937930 -0.401370 
#    z 0.056740 -0.401370 2.351260 
# 
# From -- ./inp_files/342558.got.cif
#   From: 2010.05.17/outbox.cif.g08.bks.cpg/sg2_172_cif.got.tgz:342558.got - 2010.06.03 11:33:40.
