data_PCOD9052517
_publ_section_title
;
Structure prediction by ZEFSAII (Michael W. Deem and Ramdas Pophale) SiO2 
 PCOD9052517
Probable space group: P -1
;
_chemical_formula_sum "Si O2"
_cell_formula_units_Z 14
_cell_length_a 10.400107
_cell_length_b 13.887900
_cell_length_c 7.406479
_cell_angle_alpha 129.869746
_cell_angle_beta 45.624027
_cell_angle_gamma 136.911209
_cell_volume 503.398373
_symmetry_space_group_name_H-M "P -1"
_symmetry_group_IT_number 2
_symmetry_cell_setting 'triclinic'
loop_
_space_group_symop_operation_xyz
x,y,z
-x,-y,-z
loop_
_atom_site_type_symbol
_atom_site_label
_atom_site_fract_x
_atom_site_fract_y
_atom_site_fract_z
Si Si1 0.914535 0.249832 0.029813
Si Si2 0.508374 0.737774 0.049785
Si Si3 0.318028 0.000963 0.299894
Si Si4 0.639278 0.698042 0.269488
Si Si5 0.500000 0.000000 0.500000
Si Si6 0.905900 0.343556 0.500579
Si Si7 0.278204 0.405396 0.448588
Si Si8 0.000000 0.500000 0.000000
O O1 0.783671 0.218772 0.316762
O O2 0.872706 0.124820 0.777884
O O3 0.142759 0.299629 0.944054
O O4 0.870055 0.366864 0.118273
O O5 0.550329 0.687646 0.142019
O O6 0.253966 0.661669 0.195786
O O7 0.590934 0.905887 0.196421
O O8 0.629668 0.699300 0.740383
O O9 0.333049 0.155680 0.490549
O O10 0.336614 0.960823 0.438348
O O11 0.500000 0.000000 0.000000
O O12 0.469524 0.552394 0.359509
O O13 0.000000 0.500000 0.500000
O O14 0.086090 0.334006 0.410950
O O15 0.168715 0.443786 0.757716
#
# Coordination Sequence:
#
# PCOD9052517 Si02
#       8
#     2   2   2   2   1   2   2   1
#     4  12  25  44  71 107 148 194 249 311 377 447
#     4  11  23  45  74 109 142 193 254 307 373 440
#     4  11  25  47  72 105 149 199 252 313 377 450
#     4  11  23  45  74 104 141 200 255 303 377 449
#     4  10  26  46  76 106 152 200 244 310 378 452
#     4  12  22  43  76 103 142 194 250 308 368 448
#     4  12  25  44  72 108 146 195 252 308 373 447
#     4  12  28  42  64 114 150 192 242 306 380 438
#
# _framework density 27.810977999999999
#
# number of rings (size 3 to 8) (size 9 to 14) (size 15 to 20)
#    0.000    0.571    4.286    4.286    2.000    1.714 
#    0.000    2.143    0.000    0.000    0.000    0.000 
#    0.000    0.000    0.000    0.000    0.000    0.000 
#
# Total GULP energy -78063.753122 kJ/mol
# GULP energy per Si atom -5575.982366 kJ/mol
# Density = 2.774768 g / cm^3
# Si number density = 27.810978 Si / 1000 Ang^3
#
#
#
# Elastic Constant Matrix: (Units=GPa)
#
#
# Indices 1 2 3 4 5 6 
#
# 1 123.4700 13.9706 53.5181 -0.6467 10.1471 3.5739
# 2 13.9706 59.8281 40.5855 27.5732 -0.1680 12.2139
# 3 53.5181 40.5855 216.3558 31.7807 -13.6749 2.0304
# 4 -0.6467 27.5732 31.7807 50.6269 11.9033 -13.2048
# 5 10.1471 -0.1680 -13.6749 11.9033 73.0269 -0.1815
# 6 3.5739 12.2139 2.0304 -13.2048 -0.1815 46.1428
#
#
#
# Elastic Compliance Matrix: (Units=1/GPa)
#
#
# Indices 1 2 3 4 5 6 
#
# 1 0.009767 -0.002633 -0.002710 0.004184 -0.002549 0.001247
# 2 -0.002633 0.030386 -0.001823 -0.019699 0.003272 -0.013383
# 3 -0.002710 -0.001823 0.006316 -0.003677 0.002153 -0.000629
# 4 0.004184 -0.019699 -0.003677 0.038840 -0.007606 0.016137
# 5 -0.002549 0.003272 0.002153 -0.007606 0.015691 -0.002878
# 6 0.001247 -0.013383 -0.000629 0.016137 -0.002878 0.029752
#
#
# Mechanical properties :
#
#
# Convention : Reuss Voigt Hill
#
# Bulk Modulus (GPa) = 31.11505 68.42246 49.76876
# Shear Modulus (GPa) = 32.09343 53.39796 42.74569
#
# Velocity S-wave (km/s) = 3.40072 4.38657 3.92472
# Velocity P-wave (km/s) = 5.16064 7.09310 6.20259
#
# Compressibility (1/GPa) = 0.03213879
#
# Stress axis : x y z
#
# Youngs Moduli (GPa) = 102.38746 32.91017 158.31997
#
# Poissons Ratio (x) = 0.08664 0.42897
# Poissons Ratio (y) = 0.26956 0.28858
# Poissons Ratio (z) = 0.27742 0.05999
#
# Static dielectric constant tensor:
#      x y z
#    x 2.104300 0.046190 -0.010140 
#    y 0.046190 2.036540 -0.044590 
#    z -0.010140 -0.044590 2.172870 
# 
# From -- ./inp_files/278475.got.cif
#   From: 2010.05.17/outbox.cif.g08.bks.cpg/sg2_140_cif.got.tgz:278475.got - 2010.06.03 11:33:40.
