data_PCOD9052985
_publ_section_title
;
Structure prediction by ZEFSAII (Michael W. Deem and Ramdas Pophale) SiO2 
 PCOD9052985
Probable space group: P -1
;
_chemical_formula_sum "Si O2"
_cell_formula_units_Z 12
_cell_length_a 6.308291
_cell_length_b 13.486777
_cell_length_c 6.647394
_cell_angle_alpha 78.439801
_cell_angle_beta 104.864486
_cell_angle_gamma 72.345312
_cell_volume 496.548878
_symmetry_space_group_name_H-M "P -1"
_symmetry_group_IT_number 2
_symmetry_cell_setting 'triclinic'
loop_
_space_group_symop_operation_xyz
x,y,z
-x,-y,-z
loop_
_atom_site_type_symbol
_atom_site_label
_atom_site_fract_x
_atom_site_fract_y
_atom_site_fract_z
Si Si1 0.865441 0.329497 0.719462
Si Si2 0.651983 0.038823 0.369978
Si Si3 0.680297 0.729310 0.877026
Si Si4 0.015857 0.611606 0.703864
Si Si5 0.972569 0.083540 0.775443
Si Si6 0.348714 0.475943 0.190740
O O1 0.633774 0.419950 0.730233
O O2 0.876821 0.366548 0.480700
O O3 0.868903 0.207655 0.775150
O O4 0.116234 0.318460 0.887095
O O5 0.495899 0.150530 0.175979
O O6 0.817964 0.068663 0.558173
O O7 0.500000 0.000000 0.500000
O O8 0.777273 0.950792 0.264953
O O9 0.848917 0.723259 0.726425
O O10 0.544932 0.648449 0.818150
O O11 0.838628 0.546529 0.690469
O O12 0.222369 0.539141 0.931595
O O13 0.000000 0.000000 0.000000
#
# Coordination Sequence:
#
# PCOD9052985 Si02
#       6
#     2   2   2   2   2   2
#     4  11  17  33  61  87 122 161 202 250 302 367
#     4  11  24  46  64  87 126 167 210 260 316 365
#     4   9  19  32  57  89 119 155 200 247 300 367
#     4   8  15  29  53  91 121 155 196 240 304 361
#     4  11  27  43  63  94 124 163 214 263 308 365
#     4   8  17  29  52  96 124 150 200 247 305 368
#
# _framework density 24.166806000000001
#
# number of rings (size 3 to 8) (size 9 to 14) (size 15 to 20)
#    1.000    1.333    1.667    2.500    0.000    8.000 
#    0.000    0.833    0.000    2.000    0.000    0.000 
#    0.000    0.000    0.000    0.000    0.000    0.000 
#
# Total GULP energy -66815.805449 kJ/mol
# GULP energy per Si atom -5567.983787 kJ/mol
# Density = 2.411180 g / cm^3
# Si number density = 24.166806 Si / 1000 Ang^3
#
#
#
# Elastic Constant Matrix: (Units=GPa)
#
#
# Indices 1 2 3 4 5 6 
#
# 1 29.8805 8.1140 15.3675 1.2145 -5.9853 7.7871
# 2 8.1140 134.1801 18.8145 -3.2365 0.6909 5.1385
# 3 15.3675 18.8145 88.6088 -7.8701 -5.2479 6.9747
# 4 1.2145 -3.2365 -7.8701 36.4224 2.9109 -1.4631
# 5 -5.9853 0.6909 -5.2479 2.9109 37.8239 -7.8738
# 6 7.7871 5.1385 6.9747 -1.4631 -7.8738 23.1179
#
#
#
# Elastic Compliance Matrix: (Units=1/GPa)
#
#
# Indices 1 2 3 4 5 6 
#
# 1 0.040535 -0.001308 -0.006016 -0.003485 0.003683 -0.010514
# 2 -0.001308 0.007779 -0.001343 0.000464 -0.000806 -0.001128
# 3 -0.006016 -0.001343 0.012987 0.002805 0.000392 -0.001282
# 4 -0.003485 0.000464 0.002805 0.028439 -0.002086 0.001314
# 5 0.003683 -0.000806 0.000392 -0.002086 0.029036 0.008578
# 6 -0.010514 -0.001128 -0.001282 0.001314 0.008578 0.050441
#
#
# Mechanical properties :
#
#
# Convention : Reuss Voigt Hill
#
# Bulk Modulus (GPa) = 22.74382 37.47348 30.10865
# Shear Modulus (GPa) = 24.85014 33.49772 29.17393
#
# Velocity S-wave (km/s) = 3.21015 3.72708 3.47823
# Velocity P-wave (km/s) = 4.81370 5.83621 5.34944
#
# Compressibility (1/GPa) = 0.04396800
#
# Stress axis : x y z
#
# Youngs Moduli (GPa) = 24.66982 128.55840 76.99862
#
# Poissons Ratio (x) = 0.16815 0.46323
# Poissons Ratio (y) = 0.03227 0.10337
# Poissons Ratio (z) = 0.14842 0.17259
#
# Static dielectric constant tensor:
#      x y z
#    x 2.112640 -0.034840 0.080650 
#    y -0.034840 1.927610 0.084620 
#    z 0.080650 0.084620 1.728700 
# 
# From -- ./inp_files/32677.got.cif
#   From: 2010.05.17/outbox.cif.g08.bks.cpg/sg2_17_cif.got.tgz:32677.got - 2010.06.03 11:33:40.
