data_PCOD9052300
_publ_section_title
;
Structure prediction by ZEFSAII (Michael W. Deem and Ramdas Pophale) SiO2 
 PCOD9052300
Probable space group: P -1
;
_chemical_formula_sum "Si O2"
_cell_formula_units_Z 13
_cell_length_a 12.132256
_cell_length_b 12.141348
_cell_length_c 10.034332
_cell_angle_alpha 125.067549
_cell_angle_beta 85.160424
_cell_angle_gamma 140.091832
_cell_volume 570.056851
_symmetry_space_group_name_H-M "P -1"
_symmetry_group_IT_number 2
_symmetry_cell_setting 'triclinic'
loop_
_space_group_symop_operation_xyz
x,y,z
-x,-y,-z
loop_
_atom_site_type_symbol
_atom_site_label
_atom_site_fract_x
_atom_site_fract_y
_atom_site_fract_z
Si Si1 0.041550 0.598107 0.711493
Si Si2 0.504139 0.759407 0.808819
Si Si3 0.500000 0.500000 0.000000
Si Si4 0.865841 0.723689 0.270018
Si Si5 0.266207 0.247516 0.117979
Si Si6 0.382005 0.666394 0.452753
Si Si7 0.876851 0.267836 0.749038
O O1 0.000000 0.500000 0.500000
O O2 0.863782 0.532990 0.702412
O O3 0.964850 0.403476 0.689226
O O4 0.304797 0.928999 0.942200
O O5 0.293362 0.508965 0.758161
O O6 0.639375 0.761012 0.793936
O O7 0.410493 0.698670 0.631730
O O8 0.304949 0.406895 0.918089
O O9 0.671635 0.739433 0.026156
O O10 0.045928 0.800075 0.267386
O O11 0.000000 0.000000 0.500000
O O12 0.404232 0.535948 0.314144
O O13 0.000000 0.000000 0.000000
O O14 0.598686 0.979251 0.587345
O O15 0.000000 0.500000 0.000000
#
# Coordination Sequence:
#
# PCOD9052300 Si02
#       7
#     2   2   1   2   2   2   2
#     4  12  28  48  75 108 147 198 251 305 376 454
#     4  11  25  47  73 110 142 197 246 311 371 451
#     4  10  26  44  72 106 148 192 246 310 368 448
#     4  11  27  48  74 107 148 193 250 307 382 447
#     4  11  24  44  75 107 145 192 251 309 375 446
#     4  12  26  47  76 104 151 196 249 306 382 446
#     4  12  27  47  75 110 152 196 245 314 378 453
#
# _framework density 22.804742999999998
#
# number of rings (size 3 to 8) (size 9 to 14) (size 15 to 20)
#    0.000    0.615    3.077    3.692    8.615    6.154 
#    0.000    0.000    0.000    0.000    0.000    0.000 
#    0.000    0.000    0.000    0.000    0.000    0.000 
#
# Total GULP energy -72537.600907 kJ/mol
# GULP energy per Si atom -5579.815454 kJ/mol
# Density = 2.275284 g / cm^3
# Si number density = 22.804743 Si / 1000 Ang^3
#
#
#
# Elastic Constant Matrix: (Units=GPa)
#
#
# Indices 1 2 3 4 5 6 
#
# 1 106.9750 -7.7087 3.6343 -5.8359 22.0006 -5.8913
# 2 -7.7087 112.2582 28.7843 10.2149 14.5972 -13.6942
# 3 3.6343 28.7843 58.6372 11.4761 5.7357 -9.4246
# 4 -5.8359 10.2149 11.4761 39.6612 -6.8200 9.7466
# 5 22.0006 14.5972 5.7357 -6.8200 36.1308 3.2729
# 6 -5.8913 -13.6942 -9.4246 9.7466 3.2729 36.4514
#
#
#
# Elastic Compliance Matrix: (Units=1/GPa)
#
#
# Indices 1 2 3 4 5 6 
#
# 1 0.011442 0.002554 -0.000244 -0.001327 -0.008561 0.003869
# 2 0.002554 0.012045 -0.003576 -0.004363 -0.007205 0.005827
# 3 -0.000244 -0.003576 0.021796 -0.007738 -0.003932 0.006675
# 4 -0.001327 -0.004363 -0.007738 0.033765 0.011432 -0.013909
# 5 -0.008561 -0.007205 -0.003932 0.011432 0.039645 -0.011724
# 6 0.003869 0.005827 0.006675 -0.013909 -0.011724 0.036746
#
#
# Mechanical properties :
#
#
# Convention : Reuss Voigt Hill
#
# Bulk Modulus (GPa) = 23.39093 36.36558 29.87825
# Shear Modulus (GPa) = 29.03245 39.32606 34.17926
#
# Velocity S-wave (km/s) = 3.57191 4.15718 3.87561
# Velocity P-wave (km/s) = 5.22405 6.24691 5.75824
#
# Compressibility (1/GPa) = 0.04275162
#
# Stress axis : x y z
#
# Youngs Moduli (GPa) = 87.39946 83.02181 45.87904
#
# Poissons Ratio (x) = -0.21205 0.01120
# Poissons Ratio (y) = -0.22324 0.16406
# Poissons Ratio (z) = 0.02133 0.29688
#
# Static dielectric constant tensor:
#      x y z
#    x 1.855630 0.023100 -0.037250 
#    y 0.023100 1.805120 0.019240 
#    z -0.037250 0.019240 1.791750 
# 
# From -- ./inp_files/59342.got.cif
#   From: 2010.05.17/outbox.cif.g08.bks.cpg/sg2_30_cif.got.tgz:59342.got - 2010.06.03 11:33:40.
