data_PCOD9052428
_publ_section_title
;
Structure prediction by ZEFSAII (Michael W. Deem and Ramdas Pophale) SiO2 
 PCOD9052428
Probable space group: P -1
;
_chemical_formula_sum "Si O2"
_cell_formula_units_Z 12
_cell_length_a 16.359924
_cell_length_b 13.487670
_cell_length_c 4.940036
_cell_angle_alpha 91.412460
_cell_angle_beta 86.794002
_cell_angle_gamma 24.668847
_cell_volume 446.735585
_symmetry_space_group_name_H-M "P -1"
_symmetry_group_IT_number 2
_symmetry_cell_setting 'triclinic'
loop_
_space_group_symop_operation_xyz
x,y,z
-x,-y,-z
loop_
_atom_site_type_symbol
_atom_site_label
_atom_site_fract_x
_atom_site_fract_y
_atom_site_fract_z
Si Si1 0.311468 0.006533 0.199505
Si Si2 0.361837 0.079981 0.713080
Si Si3 0.121161 0.527878 0.977989
Si Si4 0.760582 0.125145 0.834395
Si Si5 0.826508 0.400095 0.498294
Si Si6 0.469426 0.444727 0.298950
O O1 0.437277 0.927979 0.940433
O O2 0.362932 0.834827 0.253454
O O3 0.280523 0.099733 0.490619
O O4 0.097249 0.234074 0.102450
O O5 0.500000 0.000000 0.500000
O O6 0.212671 0.318061 0.916371
O O7 0.243375 0.461983 0.741590
O O8 0.120869 0.580496 0.272350
O O9 0.679505 0.327006 0.855334
O O10 0.698320 0.169168 0.156769
O O11 0.979029 0.875125 0.658495
O O12 0.657517 0.511012 0.619858
O O13 0.500000 0.500000 0.500000
#
# Coordination Sequence:
#
# PCOD9052428 Si02
#       6
#     2   2   2   2   2   2
#     4  11  24  45  70  95 142 182 230 281 340 423
#     4  12  26  41  71 105 140 179 227 288 344 411
#     4  11  25  46  70 103 136 189 231 280 348 408
#     4  10  26  46  69 104 135 189 231 286 356 400
#     4  11  26  46  74 102 145 182 236 286 343 426
#     4  11  27  44  74 102 143 181 236 293 350 418
#
# _framework density 26.861528
#
# number of rings (size 3 to 8) (size 9 to 14) (size 15 to 20)
#    0.000    1.000    0.000    5.000   16.333    0.667 
#    0.000    0.000    0.000    0.000    0.000    0.000 
#    0.000    0.000    0.000    0.000    0.000    0.000 
#
# Total GULP energy -67015.146469 kJ/mol
# GULP energy per Si atom -5584.595539 kJ/mol
# Density = 2.680039 g / cm^3
# Si number density = 26.861528 Si / 1000 Ang^3
#
#
#
# Elastic Constant Matrix: (Units=GPa)
#
#
# Indices 1 2 3 4 5 6 
#
# 1 134.4367 33.0580 52.0434 3.0236 -6.3522 16.4097
# 2 33.0580 93.6989 47.5701 15.9123 10.5633 15.2529
# 3 52.0434 47.5701 181.6458 -2.6294 19.9707 0.3848
# 4 3.0236 15.9123 -2.6294 49.6868 12.3013 7.2629
# 5 -6.3522 10.5633 19.9707 12.3013 68.7980 -1.3732
# 6 16.4097 15.2529 0.3848 7.2629 -1.3732 41.6427
#
#
#
# Elastic Compliance Matrix: (Units=1/GPa)
#
#
# Indices 1 2 3 4 5 6 
#
# 1 0.009230 -0.001756 -0.002376 -0.000143 0.001780 -0.002888
# 2 -0.001756 0.014295 -0.003199 -0.003874 -0.000813 -0.003865
# 3 -0.002376 -0.003199 0.007282 0.001843 -0.002139 0.001649
# 4 -0.000143 -0.003874 0.001843 0.022877 -0.004097 -0.002667
# 5 0.001780 -0.000813 -0.002139 -0.004097 0.016195 0.000865
# 6 -0.002888 -0.003865 0.001649 -0.002667 0.000865 0.027046
#
#
# Mechanical properties :
#
#
# Convention : Reuss Voigt Hill
#
# Bulk Modulus (GPa) = 61.94101 75.01381 68.47741
# Shear Modulus (GPa) = 42.74610 50.49951 46.62281
#
# Velocity S-wave (km/s) = 3.99350 4.34059 4.17066
# Velocity P-wave (km/s) = 6.66134 7.28751 6.98145
#
# Compressibility (1/GPa) = 0.01614439
#
# Stress axis : x y z
#
# Youngs Moduli (GPa) = 108.34200 69.95458 137.32303
#
# Poissons Ratio (x) = 0.12285 0.32631
# Poissons Ratio (y) = 0.19027 0.43929
# Poissons Ratio (z) = 0.25744 0.22378
#
# Static dielectric constant tensor:
#      x y z
#    x 2.120390 -0.157560 -0.127700 
#    y -0.157560 1.623180 -0.049360 
#    z -0.127700 -0.049360 2.236880 
# 
# From -- ./inp_files/98267.got.cif
#   From: 2010.05.17/outbox.cif.g08.bks.cpg/sg2_50_cif.got.tgz:98267.got - 2010.06.03 11:33:40.
