data_PCOD9052777
_publ_section_title
;
Structure prediction by ZEFSAII (Michael W. Deem and Ramdas Pophale) SiO2 
 PCOD9052777
Probable space group: P -1
;
_chemical_formula_sum "Si O2"
_cell_formula_units_Z 14
_cell_length_a 5.094671
_cell_length_b 11.000570
_cell_length_c 12.065526
_cell_angle_alpha 115.988805
_cell_angle_beta 56.816936
_cell_angle_gamma 92.103441
_cell_volume 489.810705
_symmetry_space_group_name_H-M "P -1"
_symmetry_group_IT_number 2
_symmetry_cell_setting 'triclinic'
loop_
_space_group_symop_operation_xyz
x,y,z
-x,-y,-z
loop_
_atom_site_type_symbol
_atom_site_label
_atom_site_fract_x
_atom_site_fract_y
_atom_site_fract_z
Si Si1 0.500000 0.500000 0.500000
Si Si2 0.223315 0.877996 0.057530
Si Si3 0.998812 0.830804 0.675785
Si Si4 0.471921 0.172258 0.788491
Si Si5 0.500000 0.000000 0.500000
Si Si6 0.614708 0.527825 0.103484
Si Si7 0.276120 0.228234 0.523784
Si Si8 0.669171 0.648951 0.735428
O O1 0.302656 0.388003 0.580465
O O2 0.599359 0.573391 0.614022
O O3 0.406056 0.843679 0.119021
O O4 0.910725 0.819194 0.101478
O O5 0.111537 0.047299 0.158535
O O6 0.448329 0.807734 0.873322
O O7 0.824020 0.808669 0.592218
O O8 0.034073 0.674661 0.661804
O O9 0.337420 0.858532 0.571315
O O10 0.523980 0.309987 0.773653
O O11 0.592460 0.053247 0.622822
O O12 0.833255 0.850294 0.379174
O O13 0.446612 0.435345 0.178195
O O14 0.500000 0.500000 0.000000
O O15 0.000000 0.500000 0.000000
#
# Coordination Sequence:
#
# PCOD9052777 Si02
#       8
#     1   2   2   2   1   2   2   2
#     4  10  26  50  68 112 142 206 238 302 372 446
#     4  12  23  46  70 104 141 183 240 300 360 428
#     4  11  24  46  70 110 135 195 239 306 360 439
#     4  12  25  43  73 104 142 184 240 296 369 426
#     4  12  24  46  76 106 146 196 244 316 356 436
#     4  12  24  46  72 107 145 189 244 301 366 435
#     4  11  25  45  74 101 155 182 253 296 372 433
#     4  11  25  45  78 100 153 189 247 303 362 447
#
# _framework density 28.582469
#
# number of rings (size 3 to 8) (size 9 to 14) (size 15 to 20)
#    0.000    0.571    5.714    1.286    0.000    9.143 
#    0.000   10.714    0.000    0.000    0.000    0.000 
#    0.000    0.000    0.000    0.000    0.000    0.000 
#
# Total GULP energy -77990.279415 kJ/mol
# GULP energy per Si atom -5570.734244 kJ/mol
# Density = 2.851741 g / cm^3
# Si number density = 28.582469 Si / 1000 Ang^3
#
#
#
# Elastic Constant Matrix: (Units=GPa)
#
#
# Indices 1 2 3 4 5 6 
#
# 1 146.0987 33.5071 22.6676 -2.3600 26.3048 22.6382
# 2 33.5071 156.0111 13.4671 11.8664 23.6703 8.9205
# 3 22.6676 13.4671 131.8517 20.4508 18.2923 18.8855
# 4 -2.3600 11.8664 20.4508 56.3860 4.6258 13.1097
# 5 26.3048 23.6703 18.2923 4.6258 42.8214 1.9398
# 6 22.6382 8.9205 18.8855 13.1097 1.9398 46.6222
#
#
#
# Elastic Compliance Matrix: (Units=1/GPa)
#
#
# Indices 1 2 3 4 5 6 
#
# 1 0.008671 -0.001045 -0.000471 0.002112 -0.004585 -0.004223
# 2 -0.001045 0.007238 0.000152 -0.001249 -0.003268 -0.000452
# 3 -0.000471 0.000152 0.008833 -0.002395 -0.003193 -0.002572
# 4 0.002112 -0.001249 -0.002395 0.020354 -0.001534 -0.005475
# 5 -0.004585 -0.003268 -0.003193 -0.001534 0.029354 0.003355
# 6 -0.004223 -0.000452 -0.002572 -0.005475 0.003355 0.026028
#
#
# Mechanical properties :
#
#
# Convention : Reuss Voigt Hill
#
# Bulk Modulus (GPa) = 45.42436 63.69390 54.55913
# Shear Modulus (GPa) = 45.23156 53.45390 49.34273
#
# Velocity S-wave (km/s) = 3.98237 4.32923 4.15942
# Velocity P-wave (km/s) = 6.08873 6.87912 6.49596
#
# Compressibility (1/GPa) = 0.02201462
#
# Stress axis : x y z
#
# Youngs Moduli (GPa) = 115.32222 138.16192 113.21796
#
# Poissons Ratio (x) = 0.14442 0.05328
# Poissons Ratio (y) = 0.12055 -0.01725
# Poissons Ratio (z) = 0.05427 -0.02105
#
# Static dielectric constant tensor:
#      x y z
#    x 2.175770 -0.241660 -0.016300 
#    y -0.241660 3.927950 -0.376500 
#    z -0.016300 -0.376500 2.135050 
# 
# From -- ./inp_files/65953.got.cif
#   From: 2010.05.17/outbox.cif.g08.bks.cpg/sg2_33_cif.got.tgz:65953.got - 2010.06.03 11:33:40.
