data_PCOD9052750
_publ_section_title
;
Structure prediction by ZEFSAII (Michael W. Deem and Ramdas Pophale) SiO2 
 PCOD9052750
Probable space group: P -1
;
_chemical_formula_sum "Si O2"
_cell_formula_units_Z 14
_cell_length_a 6.522982
_cell_length_b 10.775952
_cell_length_c 9.613904
_cell_angle_alpha 129.285457
_cell_angle_beta 100.414860
_cell_angle_gamma 71.194928
_cell_volume 494.878733
_symmetry_space_group_name_H-M "P -1"
_symmetry_group_IT_number 2
_symmetry_cell_setting 'triclinic'
loop_
_space_group_symop_operation_xyz
x,y,z
-x,-y,-z
loop_
_atom_site_type_symbol
_atom_site_label
_atom_site_fract_x
_atom_site_fract_y
_atom_site_fract_z
Si Si1 0.966699 0.812058 0.867617
Si Si2 0.541940 0.969449 0.772818
Si Si3 0.897600 0.938150 0.307727
Si Si4 0.568935 0.324630 0.148171
Si Si5 0.298234 0.671041 0.136424
Si Si6 0.117734 0.493647 0.224408
Si Si7 0.689937 0.771557 0.384018
O O1 0.738754 0.839595 0.781625
O O2 0.932000 0.684291 0.894894
O O3 0.203161 0.705255 0.768141
O O4 0.000000 0.000000 0.000000
O O5 0.624399 0.921763 0.591367
O O6 0.295855 0.948681 0.728343
O O7 0.532318 0.145138 0.971778
O O8 0.761511 0.823597 0.280047
O O9 0.117440 0.842589 0.192898
O O10 0.000000 0.000000 0.500000
O O11 0.597954 0.394028 0.044700
O O12 0.362587 0.448737 0.282679
O O13 0.166543 0.564395 0.129944
O O14 0.470722 0.720486 0.293136
O O15 0.908733 0.630690 0.356292
#
# Coordination Sequence:
#
# PCOD9052750 Si02
#       7
#     2   2   2   2   2   2   2
#     4  10  26  49  70  98 143 188 233 282 341 421
#     4  11  23  45  71 100 141 183 231 287 338 415
#     4  11  21  39  70 107 137 179 233 286 353 405
#     4  11  24  45  69 102 141 185 235 283 341 411
#     4  11  23  41  72 103 142 179 230 298 347 402
#     4  11  26  45  70 106 138 184 236 281 357 412
#     4  11  23  44  69 104 141 176 231 299 348 402
#
# _framework density 28.289760000000001
#
# number of rings (size 3 to 8) (size 9 to 14) (size 15 to 20)
#    0.000    1.143    2.857    2.571    2.000    4.000 
#    5.143    1.429    0.000    0.000    0.000    0.000 
#    0.000    0.000    0.000    0.000    0.000    0.000 
#
# Total GULP energy -78091.351212 kJ/mol
# GULP energy per Si atom -5577.953658 kJ/mol
# Density = 2.822537 g / cm^3
# Si number density = 28.289760 Si / 1000 Ang^3
#
#
#
# Elastic Constant Matrix: (Units=GPa)
#
#
# Indices 1 2 3 4 5 6 
#
# 1 232.6876 80.6155 60.3063 17.9178 0.0980 -59.4815
# 2 80.6155 128.2451 24.2935 11.1077 4.4415 -10.0320
# 3 60.3063 24.2935 72.5678 11.1787 -9.3491 -17.9095
# 4 17.9178 11.1077 11.1787 27.3314 -14.2289 -8.8984
# 5 0.0980 4.4415 -9.3491 -14.2289 53.9493 3.7075
# 6 -59.4815 -10.0320 -17.9095 -8.8984 3.7075 97.1981
#
#
#
# Elastic Compliance Matrix: (Units=1/GPa)
#
#
# Indices 1 2 3 4 5 6 
#
# 1 0.007598 -0.003569 -0.004215 -0.001213 -0.001006 0.003432
# 2 -0.003569 0.010355 -0.000613 -0.002932 -0.001627 -0.001435
# 3 -0.004215 -0.000613 0.018369 -0.003139 0.002388 0.000364
# 4 -0.001213 -0.002932 -0.003139 0.046762 0.011881 0.002205
# 5 -0.001006 -0.001627 0.002388 0.011881 0.022226 -0.000104
# 6 0.003432 -0.001435 0.000364 0.002205 -0.000104 0.012513
#
#
# Mechanical properties :
#
#
# Convention : Reuss Voigt Hill
#
# Bulk Modulus (GPa) = 51.20653 84.88122 68.04388
# Shear Modulus (GPa) = 35.42938 53.58146 44.50542
#
# Velocity S-wave (km/s) = 3.54273 4.35676 3.97066
# Velocity P-wave (km/s) = 5.90547 7.44163 6.71760
#
# Compressibility (1/GPa) = 0.01952876
#
# Stress axis : x y z
#
# Youngs Moduli (GPa) = 131.62062 96.56935 54.43966
#
# Poissons Ratio (x) = 0.34467 0.22946
# Poissons Ratio (y) = 0.46977 0.03335
# Poissons Ratio (z) = 0.55476 0.05915
#
# Static dielectric constant tensor:
#      x y z
#    x 2.272020 -0.096420 0.020190 
#    y -0.096420 2.498350 -0.027680 
#    z 0.020190 -0.027680 2.275730 
# 
# From -- ./inp_files/365444.got.cif
#   From: 2010.05.17/outbox.cif.g08.bks.cpg/sg2_183_cif.got.tgz:365444.got - 2010.06.03 11:33:40.
