data_PCOD9052563
_publ_section_title
;
Structure prediction by ZEFSAII (Michael W. Deem and Ramdas Pophale) SiO2 
 PCOD9052563
Probable space group: P -1
;
_chemical_formula_sum "Si O2"
_cell_formula_units_Z 16
_cell_length_a 9.219315
_cell_length_b 13.680652
_cell_length_c 8.716176
_cell_angle_alpha 105.338273
_cell_angle_beta 135.273763
_cell_angle_gamma 58.842149
_cell_volume 652.256197
_symmetry_space_group_name_H-M "P -1"
_symmetry_group_IT_number 2
_symmetry_cell_setting 'triclinic'
loop_
_space_group_symop_operation_xyz
x,y,z
-x,-y,-z
loop_
_atom_site_type_symbol
_atom_site_label
_atom_site_fract_x
_atom_site_fract_y
_atom_site_fract_z
Si Si1 0.821533 0.619535 0.072238
Si Si2 0.605552 0.018917 0.434429
Si Si3 0.867788 0.799459 0.983355
Si Si4 0.171027 0.507921 0.505152
Si Si5 0.534225 0.823691 0.169452
Si Si6 0.407180 0.619402 0.573150
Si Si7 0.360607 0.723490 0.256615
Si Si8 0.921759 0.998045 0.266895
O O1 0.911925 0.685023 0.055285
O O2 0.040672 0.501626 0.248473
O O3 0.710061 0.704383 0.170185
O O4 0.613810 0.610446 0.831037
O O5 0.846850 0.017551 0.652070
O O6 0.500000 0.000000 0.500000
O O7 0.395610 0.136677 0.255104
O O8 0.639445 0.911049 0.308501
O O9 0.090490 0.764009 0.023815
O O10 0.871394 0.894763 0.140032
O O11 0.209493 0.618607 0.539004
O O12 0.433688 0.404492 0.687335
O O13 0.000000 0.500000 0.500000
O O14 0.446833 0.800478 0.257855
O O15 0.309596 0.887554 0.914132
O O16 0.500000 0.500000 0.500000
O O17 0.352243 0.713103 0.433693
O O18 0.000000 0.000000 0.500000
#
# Coordination Sequence:
#
# PCOD9052563 Si02
#       8
#     2   2   2   2   2   2   2   2
#     4  12  25  45  76 102 141 192 235 291 359 421
#     4  11  24  43  69 101 148 188 230 294 355 406
#     4  11  25  42  70 107 139 189 243 281 349 437
#     4  11  24  50  71 103 141 180 237 301 353 423
#     4  11  25  43  67 111 139 187 247 286 349 428
#     4  10  26  47  70 104 139 182 238 291 354 421
#     4  11  23  46  69 102 147 180 236 296 343 428
#     4  11  24  44  69 101 149 186 237 297 345 412
#
# _framework density 24.530235000000001
#
# number of rings (size 3 to 8) (size 9 to 14) (size 15 to 20)
#    0.000    1.000    2.500    3.000    5.250    7.500 
#    0.000    0.000    0.000    0.000    0.000    0.000 
#    0.000    0.000    0.000    0.000    0.000    0.000 
#
# Total GULP energy -89407.675216 kJ/mol
# GULP energy per Si atom -5587.979701 kJ/mol
# Density = 2.447440 g / cm^3
# Si number density = 24.530235 Si / 1000 Ang^3
#
#
#
# Elastic Constant Matrix: (Units=GPa)
#
#
# Indices 1 2 3 4 5 6 
#
# 1 126.7579 22.0862 2.7414 18.7885 15.4271 11.4278
# 2 22.0862 71.7476 28.1884 -7.1699 0.9641 3.3922
# 3 2.7414 28.1884 99.2270 8.3996 15.5501 7.0285
# 4 18.7885 -7.1699 8.3996 33.8627 8.6680 3.8797
# 5 15.4271 0.9641 15.5501 8.6680 38.0236 -3.4013
# 6 11.4278 3.3922 7.0285 3.8797 -3.4013 43.9029
#
#
#
# Elastic Compliance Matrix: (Units=1/GPa)
#
#
# Indices 1 2 3 4 5 6 
#
# 1 0.010169 -0.004434 0.002246 -0.005884 -0.003809 -0.002439
# 2 -0.004434 0.018374 -0.006071 0.007272 0.002179 0.000233
# 3 0.002246 -0.006071 0.013093 -0.004146 -0.005369 -0.002261
# 4 -0.005884 0.007272 -0.004146 0.036784 -0.004664 -0.001979
# 5 -0.003809 0.002179 -0.005369 -0.004664 0.031454 0.004532
# 6 -0.002439 0.000233 -0.002261 -0.001979 0.004532 0.024282
#
#
# Mechanical properties :
#
#
# Convention : Reuss Voigt Hill
#
# Bulk Modulus (GPa) = 39.81097 44.86272 42.33685
# Shear Modulus (GPa) = 31.43731 39.47228 35.45479
#
# Velocity S-wave (km/s) = 3.58379 4.01575 3.80590
# Velocity P-wave (km/s) = 5.77835 6.31111 6.05059
#
# Compressibility (1/GPa) = 0.02511870
#
# Stress axis : x y z
#
# Youngs Moduli (GPa) = 98.34144 54.42373 76.37685
#
# Poissons Ratio (x) = 0.24133 -0.17158
# Poissons Ratio (y) = 0.43608 0.46367
# Poissons Ratio (z) = -0.22092 0.33040
#
# Static dielectric constant tensor:
#      x y z
#    x 1.802300 0.523720 -1.215640 
#    y 0.523720 0.614540 3.046930 
#    z -1.215640 3.046930 -4.760430 
# 
# From -- ./inp_files/208085.got.cif
#   From: 2010.05.17/outbox.cif.g08.bks.cpg/sg2_105_cif.got.tgz:208085.got - 2010.06.03 11:33:40.
