data_PCOD9052172
_publ_section_title
;
Structure prediction by ZEFSAII (Michael W. Deem and Ramdas Pophale) SiO2 
 PCOD9052172
Probable space group: P -1
;
_chemical_formula_sum "Si O2"
_cell_formula_units_Z 16
_cell_length_a 5.427298
_cell_length_b 14.399683
_cell_length_c 8.119503
_cell_angle_alpha 103.815786
_cell_angle_beta 80.463164
_cell_angle_gamma 94.745024
_cell_volume 607.058229
_symmetry_space_group_name_H-M "P -1"
_symmetry_group_IT_number 2
_symmetry_cell_setting 'triclinic'
loop_
_space_group_symop_operation_xyz
x,y,z
-x,-y,-z
loop_
_atom_site_type_symbol
_atom_site_label
_atom_site_fract_x
_atom_site_fract_y
_atom_site_fract_z
Si Si1 0.003409 0.305492 0.472604
Si Si2 0.888014 0.399971 0.033386
Si Si3 0.785318 0.717783 0.236719
Si Si4 0.452656 0.016494 0.314297
Si Si5 0.633776 0.430441 0.744803
Si Si6 0.543209 0.644869 0.777259
Si Si7 0.996584 0.113410 0.228973
Si Si8 0.404910 0.158778 0.942221
O O1 0.034029 0.254357 0.624377
O O2 0.274972 0.337300 0.386411
O O3 0.917416 0.221434 0.325032
O O4 0.825374 0.390286 0.575358
O O5 0.690934 0.386941 0.899506
O O6 0.072631 0.316536 0.955330
O O7 0.745724 0.393872 0.217198
O O8 0.000000 0.500000 0.000000
O O9 0.635373 0.621715 0.275095
O O10 0.632103 0.802227 0.222772
O O11 0.212366 0.079517 0.321269
O O12 0.728478 0.057705 0.244018
O O13 0.500000 0.000000 0.500000
O O14 0.410925 0.924903 0.156047
O O15 0.648042 0.545160 0.798260
O O16 0.521296 0.747812 0.914224
O O17 0.152406 0.117362 0.042557
#
# Coordination Sequence:
#
# PCOD9052172 Si02
#       8
#     2   2   2   2   2   2   2   2
#     4  10  26  42  68 101 139 191 241 298 361 435
#     4  11  21  37  63  93 132 185 241 290 353 421
#     4  11  23  42  65  98 138 188 236 294 358 424
#     4  12  27  49  81 110 147 186 238 304 376 435
#     4  11  22  42  64  93 147 181 243 290 354 431
#     4  11  22  43  65 100 140 187 240 296 359 429
#     4  11  27  50  74 111 147 188 244 300 368 434
#     4  11  25  45  74 104 140 190 236 299 358 440
#
# _framework density 26.356615000000001
#
# number of rings (size 3 to 8) (size 9 to 14) (size 15 to 20)
#    0.000    1.000    2.500    3.375    3.500    3.500 
#    4.500    0.000    0.000    0.000    0.000    0.000 
#    0.000    0.000    0.000    0.000    0.000    0.000 
#
# Total GULP energy -89255.407826 kJ/mol
# GULP energy per Si atom -5578.462989 kJ/mol
# Density = 2.629663 g / cm^3
# Si number density = 26.356615 Si / 1000 Ang^3
#
#
#
# Elastic Constant Matrix: (Units=GPa)
#
#
# Indices 1 2 3 4 5 6 
#
# 1 78.6977 31.9233 30.0113 4.9506 -15.7018 -1.1365
# 2 31.9233 100.2312 57.0496 7.5110 -15.5783 -16.2546
# 3 30.0113 57.0496 131.9799 19.4538 -28.3487 -0.8435
# 4 4.9506 7.5110 19.4538 43.2125 -13.0287 -16.4992
# 5 -15.7018 -15.5783 -28.3487 -13.0287 51.6255 -7.4043
# 6 -1.1365 -16.2546 -0.8435 -16.4992 -7.4043 29.2789
#
#
#
# Elastic Compliance Matrix: (Units=1/GPa)
#
#
# Indices 1 2 3 4 5 6 
#
# 1 0.015276 -0.003936 -0.001197 -0.000135 0.002618 -0.001041
# 2 -0.003936 0.017579 -0.006758 0.007343 0.004351 0.014650
# 3 -0.001197 -0.006758 0.011989 -0.005998 0.001750 -0.006390
# 4 -0.000135 0.007343 -0.005998 0.039922 0.013221 0.029739
# 5 0.002618 0.004351 0.001750 0.013221 0.028238 0.017159
# 6 -0.001041 0.014650 -0.006390 0.029739 0.017159 0.063160
#
#
# Mechanical properties :
#
#
# Convention : Reuss Voigt Hill
#
# Bulk Modulus (GPa) = 47.47673 60.98638 54.23156
# Shear Modulus (GPa) = 24.15864 37.61835 30.88850
#
# Velocity S-wave (km/s) = 3.03084 3.78204 3.42708
# Velocity P-wave (km/s) = 5.50457 6.50084 6.02334
#
# Compressibility (1/GPa) = 0.02106295
#
# Stress axis : x y z
#
# Youngs Moduli (GPa) = 65.46410 56.88743 83.40769
#
# Poissons Ratio (x) = 0.22390 0.09981
# Poissons Ratio (y) = 0.25766 0.56364
# Poissons Ratio (z) = 0.07834 0.38443
#
# Static dielectric constant tensor:
#      x y z
#    x 2.304570 0.062840 0.094040 
#    y 0.062840 2.066220 0.006460 
#    z 0.094040 0.006460 2.040110 
# 
# From -- ./inp_files/135486.got.cif
#   From: 2010.05.17/outbox.cif.g08.bks.cpg/sg2_68_cif.got.tgz:135486.got - 2010.06.03 11:33:40.
