data_PCOD9052664
_publ_section_title
;
Structure prediction by ZEFSAII (Michael W. Deem and Ramdas Pophale) SiO2 
 PCOD9052664
Probable space group: P -1
;
_chemical_formula_sum "Si O2"
_cell_formula_units_Z 16
_cell_length_a 13.780931
_cell_length_b 12.334064
_cell_length_c 11.435883
_cell_angle_alpha 91.168551
_cell_angle_beta 148.038722
_cell_angle_gamma 110.917060
_cell_volume 727.247182
_symmetry_space_group_name_H-M "P -1"
_symmetry_group_IT_number 2
_symmetry_cell_setting 'triclinic'
loop_
_space_group_symop_operation_xyz
x,y,z
-x,-y,-z
loop_
_atom_site_type_symbol
_atom_site_label
_atom_site_fract_x
_atom_site_fract_y
_atom_site_fract_z
Si Si1 0.622704 0.797226 0.384671
Si Si2 0.886421 0.078434 0.257663
Si Si3 0.368191 0.553702 0.315784
Si Si4 0.960087 0.758401 0.332817
Si Si5 0.766901 0.312479 0.637505
Si Si6 0.253489 0.556072 0.816046
Si Si7 0.535120 0.728417 0.885511
Si Si8 0.440982 0.986807 0.660967
O O1 0.552065 0.677887 0.405297
O O2 0.615301 0.914519 0.433115
O O3 0.884074 0.877823 0.583478
O O4 0.395836 0.694839 0.053881
O O5 0.989443 0.174768 0.483579
O O6 0.723815 0.091744 0.009778
O O7 0.682781 0.898924 0.080232
O O8 0.500000 0.500000 0.500000
O O9 0.327009 0.634874 0.367590
O O10 0.071291 0.413124 0.964402
O O11 0.827803 0.587471 0.207669
O O12 0.230818 0.874504 0.545541
O O13 0.758986 0.750026 0.057196
O O14 0.690558 0.331974 0.434256
O O15 0.609446 0.133450 0.482029
O O16 0.437702 0.619496 0.893620
O O17 0.000000 0.500000 0.500000
#
# Coordination Sequence:
#
# PCOD9052664 Si02
#       8
#     2   2   2   2   2   2   2   2
#     4  12  25  44  68 103 136 179 229 279 345 405
#     4  11  23  41  64 102 143 183 223 274 336 410
#     4  11  27  49  76  99 133 177 228 292 343 402
#     4  12  22  39  66  98 142 191 221 277 336 402
#     4  10  26  48  72 102 133 178 230 283 342 404
#     4  12  24  38  63 102 139 180 228 278 340 407
#     4  11  22  41  66  98 140 177 223 278 334 412
#     4  11  24  43  69  97 141 181 227 279 338 407
#
# _framework density 22.000772000000001
#
# number of rings (size 3 to 8) (size 9 to 14) (size 15 to 20)
#    0.000    0.750    2.500    5.625    3.500    2.500 
#    0.000    4.375    0.000    0.000    0.000    0.000 
#    0.000    0.000    0.000    0.000    0.000    0.000 
#
# Total GULP energy -89481.229435 kJ/mol
# GULP energy per Si atom -5592.576840 kJ/mol
# Density = 2.195070 g / cm^3
# Si number density = 22.000772 Si / 1000 Ang^3
#
#
#
# Elastic Constant Matrix: (Units=GPa)
#
#
# Indices 1 2 3 4 5 6 
#
# 1 69.9953 24.8981 44.1789 -6.8377 0.9028 -10.6322
# 2 24.8981 96.3166 49.5266 -14.4729 3.1274 -7.9074
# 3 44.1789 49.5266 128.6790 -8.1154 7.9366 -15.2878
# 4 -6.8377 -14.4729 -8.1154 21.2018 -7.1721 11.9625
# 5 0.9028 3.1274 7.9366 -7.1721 30.7487 -2.1938
# 6 -10.6322 -7.9074 -15.2878 11.9625 -2.1938 33.6528
#
#
#
# Elastic Compliance Matrix: (Units=1/GPa)
#
#
# Indices 1 2 3 4 5 6 
#
# 1 0.018916 -0.001562 -0.005576 0.002100 0.001707 0.002441
# 2 -0.001562 0.014445 -0.004841 0.009600 0.001881 -0.002589
# 3 -0.005576 -0.004841 0.011936 -0.003582 -0.003003 0.003601
# 4 0.002100 0.009600 -0.003582 0.071001 0.014808 -0.022981
# 5 0.001707 0.001881 -0.003003 0.014808 0.036275 -0.003282
# 6 0.002441 -0.002589 0.003601 -0.022981 -0.003282 0.039469
#
#
# Mechanical properties :
#
#
# Convention : Reuss Voigt Hill
#
# Bulk Modulus (GPa) = 46.86522 59.13313 52.99918
# Shear Modulus (GPa) = 22.41019 28.87979 25.64499
#
# Velocity S-wave (km/s) = 3.19503 3.62701 3.41785
# Velocity P-wave (km/s) = 5.91260 6.66906 6.30219
#
# Compressibility (1/GPa) = 0.02133778
#
# Stress axis : x y z
#
# Youngs Moduli (GPa) = 52.86669 69.22983 83.77971
#
# Poissons Ratio (x) = 0.10814 0.46714
# Poissons Ratio (y) = 0.08258 0.40561
# Poissons Ratio (z) = 0.29477 0.33516
#
# Static dielectric constant tensor:
#      x y z
#    x 1.859370 -0.012470 0.013060 
#    y -0.012470 1.824020 0.002990 
#    z 0.013060 0.002990 1.802710 
# 
# From -- ./inp_files/452305.got.cif
#   From: 2010.05.17/outbox.cif.g08.bks.cpg/sg2_227_cif.got.tgz:452305.got - 2010.06.03 11:33:40.
