data_PCOD9052771
_publ_section_title
;
Structure prediction by ZEFSAII (Michael W. Deem and Ramdas Pophale) SiO2 
 PCOD9052771
Probable space group: P -1
;
_chemical_formula_sum "Si O2"
_cell_formula_units_Z 15
_cell_length_a 20.110733
_cell_length_b 5.288749
_cell_length_c 11.209087
_cell_angle_alpha 89.336739
_cell_angle_beta 150.450306
_cell_angle_gamma 82.845988
_cell_volume 565.604609
_symmetry_space_group_name_H-M "P -1"
_symmetry_group_IT_number 2
_symmetry_cell_setting 'triclinic'
loop_
_space_group_symop_operation_xyz
x,y,z
-x,-y,-z
loop_
_atom_site_type_symbol
_atom_site_label
_atom_site_fract_x
_atom_site_fract_y
_atom_site_fract_z
Si Si1 0.486839 0.820105 0.367696
Si Si2 0.870449 0.742751 0.271155
Si Si3 0.500000 0.500000 0.000000
Si Si4 0.042102 0.024123 0.810607
Si Si5 0.622446 0.905840 0.044497
Si Si6 0.905938 0.793537 0.876784
Si Si7 0.733918 0.151772 0.422950
Si Si8 0.733302 0.456899 0.871236
O O1 0.627453 0.584003 0.600351
O O2 0.352466 0.714412 0.188194
O O3 0.500000 0.000000 0.500000
O O4 0.466587 0.964857 0.209054
O O5 0.930737 0.934563 0.284383
O O6 0.783186 0.838911 0.252372
O O7 0.000000 0.500000 0.500000
O O8 0.765321 0.650687 0.018607
O O9 0.412728 0.350329 0.959985
O O10 0.359118 0.567723 0.684375
O O11 0.879914 0.139858 0.588197
O O12 0.124249 0.165436 0.030084
O O13 0.119108 0.718519 0.948476
O O14 0.616017 0.122234 0.139151
O O15 0.776199 0.919094 0.586135
O O16 0.000000 0.500000 0.000000
O O17 0.000000 0.000000 0.000000
#
# Coordination Sequence:
#
# PCOD9052771 Si02
#       8
#     2   2   1   2   2   2   2   2
#     4  11  24  47  72 112 160 203 260 325 400 493
#     4  12  26  42  78 119 156 193 252 336 408 488
#     4  12  30  50  72 106 152 222 264 332 394 474
#     4  11  25  47  78 117 152 203 260 334 415 481
#     4  12  27  49  75 110 158 203 270 322 406 484
#     4  10  26  49  78 112 158 211 269 332 402 494
#     4  11  28  50  77 109 155 211 273 330 408 494
#     4  11  24  44  76 117 156 205 253 327 422 477
#
# _framework density 26.520292999999999
#
# number of rings (size 3 to 8) (size 9 to 14) (size 15 to 20)
#    0.000    0.800    2.667    2.000   13.067    4.267 
#    0.000    1.333    0.000    0.000    0.000    0.000 
#    0.000    0.000    0.000    0.000    0.000    0.000 
#
# Total GULP energy -83786.342425 kJ/mol
# GULP energy per Si atom -5585.756162 kJ/mol
# Density = 2.645993 g / cm^3
# Si number density = 26.520293 Si / 1000 Ang^3
#
#
#
# Elastic Constant Matrix: (Units=GPa)
#
#
# Indices 1 2 3 4 5 6 
#
# 1 119.0617 25.5494 46.6905 -4.8436 -2.2500 15.2044
# 2 25.5494 91.0976 29.2421 -12.0218 -25.4952 17.7290
# 3 46.6905 29.2421 175.8216 -43.1457 -8.9778 12.6349
# 4 -4.8436 -12.0218 -43.1457 61.2052 -2.4050 -3.5483
# 5 -2.2500 -25.4952 -8.9778 -2.4050 69.4224 -3.0123
# 6 15.2044 17.7290 12.6349 -3.5483 -3.0123 50.5232
#
#
#
# Elastic Compliance Matrix: (Units=1/GPa)
#
#
# Indices 1 2 3 4 5 6 
#
# 1 0.010024 -0.002087 -0.002627 -0.001609 -0.000915 -0.001795
# 2 -0.002087 0.014194 -0.000783 0.002050 0.004954 -0.003718
# 3 -0.002627 -0.000783 0.007864 0.005185 0.000803 -0.000489
# 4 -0.001609 0.002050 0.005185 0.020352 0.002077 0.000021
# 5 -0.000915 0.004954 0.000803 0.002077 0.016346 -0.000543
# 6 -0.001795 -0.003718 -0.000489 0.000021 -0.000543 0.021729
#
#
# Mechanical properties :
#
#
# Convention : Reuss Voigt Hill
#
# Bulk Modulus (GPa) = 47.42334 65.43831 56.43082
# Shear Modulus (GPa) = 46.06881 55.19675 50.63278
#
# Velocity S-wave (km/s) = 4.17239 4.56708 4.37419
# Velocity P-wave (km/s) = 6.41347 7.24840 6.84368
#
# Compressibility (1/GPa) = 0.02108666
#
# Stress axis : x y z
#
# Youngs Moduli (GPa) = 99.76473 70.45035 127.16057
#
# Poissons Ratio (x) = 0.14703 0.33408
# Poissons Ratio (y) = 0.20821 0.09963
# Poissons Ratio (z) = 0.26211 0.05520
#
# Static dielectric constant tensor:
#      x y z
#    x 1.636690 1.105510 -0.455560 
#    y 1.105510 -0.133680 0.865010 
#    z -0.455560 0.865010 1.808460 
# 
# From -- ./inp_files/468088.got.cif
#   From: 2010.05.17/outbox.cif.g08.bks.cpg/sg2_235_cif.got.tgz:468088.got - 2010.06.03 11:33:40.
