data_PCOD9052391
_publ_section_title
;
Structure prediction by ZEFSAII (Michael W. Deem and Ramdas Pophale) SiO2 
 PCOD9052391
Probable space group: P -1
;
_chemical_formula_sum "Si O2"
_cell_formula_units_Z 12
_cell_length_a 16.621264
_cell_length_b 5.083779
_cell_length_c 6.268174
_cell_angle_alpha 80.578286
_cell_angle_beta 88.900904
_cell_angle_gamma 67.655811
_cell_volume 482.738599
_symmetry_space_group_name_H-M "P -1"
_symmetry_group_IT_number 2
_symmetry_cell_setting 'triclinic'
loop_
_space_group_symop_operation_xyz
x,y,z
-x,-y,-z
loop_
_atom_site_type_symbol
_atom_site_label
_atom_site_fract_x
_atom_site_fract_y
_atom_site_fract_z
Si Si1 0.795963 0.335448 0.775321
Si Si2 0.791746 0.122062 0.252663
Si Si3 0.505151 0.272862 0.843194
Si Si4 0.033169 0.188644 0.144109
Si Si5 0.640681 0.338138 0.516856
Si Si6 0.891555 0.477229 0.425938
O O1 0.706661 0.435157 0.636783
O O2 0.857510 0.498664 0.668528
O O3 0.866252 0.005308 0.800350
O O4 0.767357 0.323783 0.020062
O O5 0.706216 0.119178 0.374542
O O6 0.839928 0.287986 0.361926
O O7 0.856610 0.790161 0.278156
O O8 0.591094 0.211397 0.702526
O O9 0.428120 0.414414 0.655923
O O10 0.500000 0.500000 0.000000
O O11 0.500000 0.000000 0.000000
O O12 0.988364 0.282117 0.369438
O O13 0.000000 0.500000 0.000000
O O14 0.000000 0.000000 0.000000
#
# Coordination Sequence:
#
# PCOD9052391 Si02
#       6
#     2   2   2   2   2   2
#     4  11  24  43  72  99 144 185 235 295 340 406
#     4  11  24  43  67 100 143 178 234 291 338 409
#     4  11  26  51  78 104 145 179 224 289 357 432
#     4  12  23  44  67  96 143 193 238 288 346 398
#     4  10  26  45  74 112 135 184 235 281 358 422
#     4  11  24  43  65  99 135 191 241 281 344 403
#
# _framework density 24.858174999999999
#
# number of rings (size 3 to 8) (size 9 to 14) (size 15 to 20)
#    0.000    1.000    3.333    1.500    0.000   17.333 
#    0.000    5.833    0.000    0.000    0.000    0.000 
#    0.000    0.000    0.000    0.000    0.000    0.000 
#
# Total GULP energy -67003.173576 kJ/mol
# GULP energy per Si atom -5583.597798 kJ/mol
# Density = 2.480160 g / cm^3
# Si number density = 24.858175 Si / 1000 Ang^3
#
#
#
# Elastic Constant Matrix: (Units=GPa)
#
#
# Indices 1 2 3 4 5 6 
#
# 1 95.5885 25.8469 34.1683 1.1135 -7.6130 -12.9426
# 2 25.8469 89.5073 12.5137 -7.1299 -3.1639 29.7841
# 3 34.1683 12.5137 150.5416 -15.2594 -15.2668 8.0521
# 4 1.1135 -7.1299 -15.2594 45.2586 -8.2415 -17.0377
# 5 -7.6130 -3.1639 -15.2668 -8.2415 53.8389 4.2796
# 6 -12.9426 29.7841 8.0521 -17.0377 4.2796 41.3207
#
#
#
# Elastic Compliance Matrix: (Units=1/GPa)
#
#
# Indices 1 2 3 4 5 6 
#
# 1 0.015279 -0.007697 -0.003265 0.001725 0.000119 0.011669
# 2 -0.007697 0.018917 0.000946 -0.002892 0.001244 -0.017552
# 3 -0.003265 0.000946 0.007926 0.002395 0.002408 -0.002511
# 4 0.001725 -0.002892 0.002395 0.028161 0.004002 0.013356
# 5 0.000119 0.001244 0.002408 0.004002 0.020099 -0.001760
# 6 0.011669 -0.017552 -0.002511 0.013356 -0.001760 0.046686
#
#
# Mechanical properties :
#
#
# Convention : Reuss Voigt Hill
#
# Bulk Modulus (GPa) = 45.26869 53.41056 49.33963
# Shear Modulus (GPa) = 30.40164 45.62419 38.01292
#
# Velocity S-wave (km/s) = 3.50094 4.28878 3.91473
# Velocity P-wave (km/s) = 5.88153 6.78658 6.35020
#
# Compressibility (1/GPa) = 0.02209033
#
# Stress axis : x y z
#
# Youngs Moduli (GPa) = 65.44776 52.86320 126.16028
#
# Poissons Ratio (x) = 0.40689 0.41196
# Poissons Ratio (y) = 0.50376 -0.11939
# Poissons Ratio (z) = 0.21371 -0.05003
#
# Static dielectric constant tensor:
#      x y z
#    x 2.014370 0.003610 -0.056640 
#    y 0.003610 1.970830 0.142270 
#    z -0.056640 0.142270 2.237850 
# 
# From -- ./inp_files/102726.got.cif
#   From: 2010.05.17/outbox.cif.g08.bks.cpg/sg2_52_cif.got.tgz:102726.got - 2010.06.03 11:33:40.
