data_PCOD9052130
_publ_section_title
;
Structure prediction by ZEFSAII (Michael W. Deem and Ramdas Pophale) SiO2 
 PCOD9052130
Probable space group: P -1
;
_chemical_formula_sum "Si O2"
_cell_formula_units_Z 16
_cell_length_a 11.379175
_cell_length_b 5.008164
_cell_length_c 10.145212
_cell_angle_alpha 96.318393
_cell_angle_beta 95.441668
_cell_angle_gamma 81.431424
_cell_volume 566.424728
_symmetry_space_group_name_H-M "P -1"
_symmetry_group_IT_number 2
_symmetry_cell_setting 'triclinic'
loop_
_space_group_symop_operation_xyz
x,y,z
-x,-y,-z
loop_
_atom_site_type_symbol
_atom_site_label
_atom_site_fract_x
_atom_site_fract_y
_atom_site_fract_z
Si Si1 0.768120 0.202485 0.197746
Si Si2 0.592049 0.142356 0.933603
Si Si3 0.377023 0.669819 0.548055
Si Si4 0.102436 0.232809 0.987316
Si Si5 0.939979 0.608667 0.358840
Si Si6 0.759286 0.819671 0.532862
Si Si7 0.131195 0.876019 0.230909
Si Si8 0.670631 0.586717 0.849908
O O1 0.691590 0.214541 0.052720
O O2 0.662629 0.249217 0.300251
O O3 0.862599 0.405727 0.262676
O O4 0.859335 0.933644 0.150959
O O5 0.561566 0.430511 0.874780
O O6 0.500000 0.000000 0.000000
O O7 0.627256 0.894062 0.818562
O O8 0.500000 0.500000 0.500000
O O9 0.352766 0.951534 0.483606
O O10 0.281005 0.471651 0.490174
O O11 0.908072 0.986626 0.906767
O O12 0.226790 0.347044 0.035068
O O13 0.000000 0.500000 0.000000
O O14 0.000000 0.500000 0.500000
O O15 0.041880 0.712558 0.289803
O O16 0.841599 0.849596 0.415939
O O17 0.838912 0.874464 0.666941
O O18 0.250379 0.660703 0.226587
#
# Coordination Sequence:
#
# PCOD9052130 Si02
#       8
#     2   2   2   2   2   2   2   2
#     4  10  25  53  79 116 172 205 283 358 408 526
#     4  11  25  49  77 113 158 212 274 343 435 504
#     4  11  26  52  84 117 155 222 285 360 439 484
#     4  11  28  51  76 125 173 232 276 342 443 517
#     4  11  27  51  83 123 167 232 284 347 435 511
#     4  11  27  50  78 120 163 209 288 351 418 513
#     4  12  26  49  82 117 174 223 278 349 426 525
#     4  11  25  47  72 115 160 208 274 331 421 512
#
# _framework density 28.247351999999999
#
# number of rings (size 3 to 8) (size 9 to 14) (size 15 to 20)
#    0.000    1.000    2.500    2.625    3.500   11.000 
#    6.750    0.625    0.000    0.000    0.000    0.000 
#    0.000    0.000    0.000    0.000    0.000    0.000 
#
# Total GULP energy -89370.323360 kJ/mol
# GULP energy per Si atom -5585.645210 kJ/mol
# Density = 2.818306 g / cm^3
# Si number density = 28.247352 Si / 1000 Ang^3
#
#
#
# Elastic Constant Matrix: (Units=GPa)
#
#
# Indices 1 2 3 4 5 6 
#
# 1 117.9008 46.8357 33.5616 -8.4685 -35.8457 16.2967
# 2 46.8357 185.8180 71.8839 11.4363 -16.5011 10.5944
# 3 33.5616 71.8839 171.3765 12.0694 -24.8379 -0.7002
# 4 -8.4685 11.4363 12.0694 49.1823 3.1101 -6.9581
# 5 -35.8457 -16.5011 -24.8379 3.1101 56.4783 6.8162
# 6 16.2967 10.5944 -0.7002 -6.9581 6.8162 56.9528
#
#
#
# Elastic Compliance Matrix: (Units=1/GPa)
#
#
# Indices 1 2 3 4 5 6 
#
# 1 0.012385 -0.002125 -0.000612 0.001773 0.007333 -0.003817
# 2 -0.002125 0.006987 -0.002440 -0.001505 -0.000191 -0.000883
# 3 -0.000612 -0.002440 0.007401 -0.001454 0.002200 0.000279
# 4 0.001773 -0.001505 -0.001454 0.021804 -0.001467 0.002594
# 5 0.007333 -0.000191 0.002200 -0.001467 0.023966 -0.005083
# 6 -0.003817 -0.000883 0.000279 0.002594 -0.005083 0.019744
#
#
# Mechanical properties :
#
#
# Convention : Reuss Voigt Hill
#
# Bulk Modulus (GPa) = 60.90482 86.62863 73.76673
# Shear Modulus (GPa) = 46.24801 54.04363 50.14582
#
# Velocity S-wave (km/s) = 4.05069 4.37879 4.21793
# Velocity P-wave (km/s) = 6.59435 7.50330 7.06346
#
# Compressibility (1/GPa) = 0.01641906
#
# Stress axis : x y z
#
# Youngs Moduli (GPa) = 80.74554 143.12066 135.12333
#
# Poissons Ratio (x) = 0.30417 0.08263
# Poissons Ratio (y) = 0.17161 0.32968
# Poissons Ratio (z) = 0.04938 0.34920
#
# Static dielectric constant tensor:
#      x y z
#    x 2.352470 -0.025410 -0.114320 
#    y -0.025410 2.306090 -0.092450 
#    z -0.114320 -0.092450 2.378830 
# 
# From -- ./inp_files/83520.got.cif
#   From: 2010.05.17/outbox.cif.g08.bks.cpg/sg2_42_cif.got.tgz:83520.got - 2010.06.03 11:33:40.
