data_PCOD9052919
_publ_section_title
;
Structure prediction by ZEFSAII (Michael W. Deem and Ramdas Pophale) SiO2 
 PCOD9052919
Probable space group: P -1
;
_chemical_formula_sum "Si O2"
_cell_formula_units_Z 13
_cell_length_a 8.562760
_cell_length_b 9.125795
_cell_length_c 8.824187
_cell_angle_alpha 83.745407
_cell_angle_beta 110.852514
_cell_angle_gamma 131.130761
_cell_volume 477.610112
_symmetry_space_group_name_H-M "P -1"
_symmetry_group_IT_number 2
_symmetry_cell_setting 'triclinic'
loop_
_space_group_symop_operation_xyz
x,y,z
-x,-y,-z
loop_
_atom_site_type_symbol
_atom_site_label
_atom_site_fract_x
_atom_site_fract_y
_atom_site_fract_z
Si Si1 0.814336 0.446570 0.558755
Si Si2 0.500000 0.000000 0.000000
Si Si3 0.339058 0.631358 0.181756
Si Si4 0.870391 0.999850 0.818878
Si Si5 0.598199 0.200141 0.268664
Si Si6 0.741669 0.569558 0.102825
Si Si7 0.780228 0.782948 0.507894
O O1 0.827995 0.411327 0.741787
O O2 0.620543 0.223677 0.452012
O O3 0.792496 0.611309 0.527549
O O4 0.000000 0.500000 0.500000
O O5 0.687836 0.130722 0.195144
O O6 0.421364 0.799303 0.071152
O O7 0.557534 0.697554 0.342407
O O8 0.202692 0.440407 0.049418
O O9 0.058538 0.215220 0.787828
O O10 0.667689 0.967372 0.837062
O O11 0.772345 0.832770 0.676109
O O12 0.000000 0.000000 0.000000
O O13 0.683535 0.406664 0.216649
O O14 0.500000 0.500000 0.000000
O O15 0.000000 0.000000 0.500000
#
# Coordination Sequence:
#
# PCOD9052919 Si02
#       7
#     2   1   2   2   2   2   2
#     4  12  28  49  79 116 166 213 265 345 412 476
#     4  10  28  46  78 108 158 214 256 340 408 474
#     4  11  25  51  80 112 165 207 278 330 406 491
#     4  12  24  41  75 111 151 201 264 324 402 474
#     4  11  25  46  69 107 156 206 264 321 402 482
#     4  11  22  43  72 111 151 197 258 332 393 471
#     4  12  27  46  81 118 153 210 273 334 400 493
#
# _framework density 27.218854
#
# number of rings (size 3 to 8) (size 9 to 14) (size 15 to 20)
#    0.000    0.615    3.077    4.154    4.308    4.308 
#    0.000    3.077    0.000    0.000    0.000    0.000 
#    0.000    0.000    0.000    0.000    0.000    0.000 
#
# Total GULP energy -72457.085541 kJ/mol
# GULP energy per Si atom -5573.621965 kJ/mol
# Density = 2.715690 g / cm^3
# Si number density = 27.218854 Si / 1000 Ang^3
#
#
#
# Elastic Constant Matrix: (Units=GPa)
#
#
# Indices 1 2 3 4 5 6 
#
# 1 66.6510 21.2780 37.3290 0.3333 2.2950 10.5540
# 2 21.2780 145.9038 22.5737 8.4290 -4.1750 -4.9577
# 3 37.3290 22.5737 157.1855 25.6238 -22.1115 -21.6132
# 4 0.3333 8.4290 25.6238 53.4109 -3.9593 -10.3980
# 5 2.2950 -4.1750 -22.1115 -3.9593 48.6324 10.4152
# 6 10.5540 -4.9577 -21.6132 -10.3980 10.4152 41.6913
#
#
#
# Elastic Compliance Matrix: (Units=1/GPa)
#
#
# Indices 1 2 3 4 5 6 
#
# 1 0.020523 -0.002457 -0.006144 0.001538 -0.002190 -0.007742
# 2 -0.002457 0.007329 -0.000125 -0.000834 0.000379 0.001126
# 3 -0.006144 -0.000125 0.009507 -0.003321 0.003300 0.004816
# 4 0.001538 -0.000834 -0.003321 0.021012 -0.000626 0.003187
# 5 -0.002190 0.000379 0.003300 -0.000626 0.022912 -0.003570
# 6 -0.007742 0.001126 0.004816 0.003187 -0.003570 0.030263
#
#
# Mechanical properties :
#
#
# Convention : Reuss Voigt Hill
#
# Bulk Modulus (GPa) = 50.23569 59.12241 54.67905
# Shear Modulus (GPa) = 36.86424 47.98422 42.42423
#
# Velocity S-wave (km/s) = 3.68416 4.20325 3.95224
# Velocity P-wave (km/s) = 6.04927 6.73236 6.39994
#
# Compressibility (1/GPa) = 0.01990616
#
# Stress axis : x y z
#
# Youngs Moduli (GPa) = 48.72658 136.44891 105.18844
#
# Poissons Ratio (x) = 0.33524 0.64630
# Poissons Ratio (y) = 0.11972 0.01314
# Poissons Ratio (z) = 0.29939 0.01704
#
# Static dielectric constant tensor:
#      x y z
#    x 1.284440 -0.873900 -0.858410 
#    y -0.873900 1.066860 -1.115410 
#    z -0.858410 -1.115410 0.828950 
# 
# From -- ./inp_files/158242.got.cif
#   From: 2010.05.17/outbox.cif.g08.bks.cpg/sg2_80_cif.got.tgz:158242.got - 2010.06.03 11:33:40.
