data_PCOD9052239
_publ_section_title
;
Structure prediction by ZEFSAII (Michael W. Deem and Ramdas Pophale) SiO2 
 PCOD9052239
Probable space group: P -1
;
_chemical_formula_sum "Si O2"
_cell_formula_units_Z 15
_cell_length_a 17.847240
_cell_length_b 8.776252
_cell_length_c 11.780453
_cell_angle_alpha 102.888739
_cell_angle_beta 38.656110
_cell_angle_gamma 129.975386
_cell_volume 718.182835
_symmetry_space_group_name_H-M "P -1"
_symmetry_group_IT_number 2
_symmetry_cell_setting 'triclinic'
loop_
_space_group_symop_operation_xyz
x,y,z
-x,-y,-z
loop_
_atom_site_type_symbol
_atom_site_label
_atom_site_fract_x
_atom_site_fract_y
_atom_site_fract_z
Si Si1 0.613803 0.231803 0.674540
Si Si2 0.616446 0.595504 0.762455
Si Si3 0.000000 0.000000 0.500000
Si Si4 0.802165 0.886980 0.199433
Si Si5 0.140972 0.496137 0.351859
Si Si6 0.277537 0.662101 0.967388
Si Si7 0.085430 0.648823 0.807480
Si Si8 0.466131 0.539536 0.702250
O O1 0.593420 0.396149 0.712417
O O2 0.707204 0.301677 0.699511
O O3 0.756005 0.302037 0.426164
O O4 0.415098 0.947220 0.854915
O O5 0.530438 0.613069 0.767828
O O6 0.830309 0.843514 0.581643
O O7 0.500000 0.500000 0.000000
O O8 0.946039 0.755210 0.543567
O O9 0.649243 0.675603 0.436870
O O10 0.704315 0.749034 0.172088
O O11 0.830894 0.097437 0.223168
O O12 0.000000 0.000000 0.000000
O O13 0.000000 0.500000 0.500000
O O14 0.231088 0.561512 0.132951
O O15 0.387549 0.629312 0.773024
O O16 0.084785 0.504658 0.105474
O O17 0.000000 0.500000 0.000000
#
# Coordination Sequence:
#
# PCOD9052239 Si02
#       8
#     2   2   1   2   2   2   2   2
#     4  11  26  47  69 107 143 185 237 295 363 433
#     4  11  27  45  72 107 142 186 231 298 363 431
#     4  10  26  44  66 108 148 180 238 288 354 440
#     4  11  25  46  68 101 136 184 242 290 351 415
#     4  11  24  45  75 103 144 188 233 296 369 432
#     4  12  25  46  74 104 140 189 236 295 366 435
#     4  12  28  46  71 104 141 189 240 297 357 424
#     4  11  25  44  74 100 137 187 238 293 356 426
#
# _framework density 20.886047000000001
#
# number of rings (size 3 to 8) (size 9 to 14) (size 15 to 20)
#    0.000    0.800    4.000    2.000    9.333    1.600 
#    2.400    0.000    0.000    0.000    0.000    0.000 
#    0.000    0.000    0.000    0.000    0.000    0.000 
#
# Total GULP energy -83607.982158 kJ/mol
# GULP energy per Si atom -5573.865477 kJ/mol
# Density = 2.083851 g / cm^3
# Si number density = 20.886047 Si / 1000 Ang^3
#
#
#
# Elastic Constant Matrix: (Units=GPa)
#
#
# Indices 1 2 3 4 5 6 
#
# 1 67.7764 15.0630 22.2066 -8.9748 -2.9038 11.6261
# 2 15.0630 144.4185 33.2039 -23.0261 -17.1904 5.0204
# 3 22.2066 33.2039 72.2290 4.5915 -10.3007 -3.7361
# 4 -8.9748 -23.0261 4.5915 41.1415 6.6500 -12.9524
# 5 -2.9038 -17.1904 -10.3007 6.6500 31.9304 6.7010
# 6 11.6261 5.0204 -3.7361 -12.9524 6.7010 35.2298
#
#
#
# Elastic Compliance Matrix: (Units=1/GPa)
#
#
# Indices 1 2 3 4 5 6 
#
# 1 0.018065 0.000217 -0.006076 0.002903 0.000379 -0.005642
# 2 0.000217 0.008974 -0.004166 0.004979 0.002565 -0.000450
# 3 -0.006076 -0.004166 0.018674 -0.005893 0.004114 0.001630
# 4 0.002903 0.004979 -0.005893 0.033371 -0.008333 0.011561
# 5 0.000379 0.002565 0.004114 -0.008333 0.037966 -0.010339
# 6 -0.005642 -0.000450 0.001630 0.011561 -0.010339 0.036701
#
#
# Mechanical properties :
#
#
# Convention : Reuss Voigt Hill
#
# Bulk Modulus (GPa) = 38.96743 47.26344 43.11543
# Shear Modulus (GPa) = 27.41887 35.92370 31.67129
#
# Velocity S-wave (km/s) = 3.62717 4.15177 3.89830
# Velocity P-wave (km/s) = 6.01992 6.75731 6.39925
#
# Compressibility (1/GPa) = 0.02566246
#
# Stress axis : x y z
#
# Youngs Moduli (GPa) = 55.35425 111.42908 53.55097
#
# Poissons Ratio (x) = -0.02416 0.32539
# Poissons Ratio (y) = -0.01200 0.22310
# Poissons Ratio (z) = 0.33634 0.46424
#
# Static dielectric constant tensor:
#      x y z
#    x 1.760550 -0.019260 0.016060 
#    y -0.019260 1.763660 0.019800 
#    z 0.016060 0.019800 1.760760 
# 
# From -- ./inp_files/305112.got.cif
#   From: 2010.05.17/outbox.cif.g08.bks.cpg/sg2_153_cif.got.tgz:305112.got - 2010.06.03 11:33:40.
