data_PCOD9052514
_publ_section_title
;
Structure prediction by ZEFSAII (Michael W. Deem and Ramdas Pophale) SiO2 
 PCOD9052514
Probable space group: P -1
;
_chemical_formula_sum "Si O2"
_cell_formula_units_Z 15
_cell_length_a 11.541695
_cell_length_b 9.263919
_cell_length_c 7.066010
_cell_angle_alpha 90.424008
_cell_angle_beta 56.516811
_cell_angle_gamma 73.559637
_cell_volume 591.601763
_symmetry_space_group_name_H-M "P -1"
_symmetry_group_IT_number 2
_symmetry_cell_setting 'triclinic'
loop_
_space_group_symop_operation_xyz
x,y,z
-x,-y,-z
loop_
_atom_site_type_symbol
_atom_site_label
_atom_site_fract_x
_atom_site_fract_y
_atom_site_fract_z
Si Si1 0.988097 0.165380 0.096208
Si Si2 0.749443 0.025466 0.894479
Si Si3 0.127991 0.580041 0.104120
Si Si4 0.780174 0.296168 0.624847
Si Si5 0.305162 0.230378 0.272989
Si Si6 0.000000 0.500000 0.500000
Si Si7 0.455915 0.377171 0.825619
Si Si8 0.492456 0.839360 0.576424
O O1 0.850375 0.238615 0.360905
O O2 0.130932 0.112615 0.102903
O O3 0.958896 0.279047 0.945488
O O4 0.000000 0.000000 0.000000
O O5 0.679462 0.941896 0.803800
O O6 0.802453 0.146754 0.733374
O O7 0.640413 0.122724 0.154565
O O8 0.132634 0.610397 0.335438
O O9 0.040670 0.465542 0.216356
O O10 0.304111 0.513812 0.904607
O O11 0.606915 0.398147 0.763575
O O12 0.364410 0.238699 0.427642
O O13 0.139069 0.340740 0.423171
O O14 0.400092 0.287527 0.036477
O O15 0.510905 0.267235 0.595097
O O16 0.500000 0.000000 0.500000
#
# Coordination Sequence:
#
# PCOD9052514 Si02
#       8
#     2   2   2   2   2   1   2   2
#     4  12  27  45  71 108 142 184 237 288 353 422
#     4  12  24  44  72 103 144 187 236 292 351 419
#     4  11  27  49  71 106 140 191 236 285 363 418
#     4  12  25  47  71 101 146 187 234 294 349 420
#     4  11  24  45  68 104 140 187 234 286 359 412
#     4  10  26  46  74  96 142 184 228 294 344 420
#     4  11  25  45  71 102 142 184 240 291 345 425
#     4  12  24  42  70 105 141 185 237 292 349 413
#
# _framework density 25.354894000000002
#
# number of rings (size 3 to 8) (size 9 to 14) (size 15 to 20)
#    0.000    0.533    4.000    3.600    3.733    3.733 
#    0.000    4.667    0.000    0.000    0.000    0.000 
#    0.000    0.000    0.000    0.000    0.000    0.000 
#
# Total GULP energy -83873.851615 kJ/mol
# GULP energy per Si atom -5591.590108 kJ/mol
# Density = 2.529718 g / cm^3
# Si number density = 25.354894 Si / 1000 Ang^3
#
#
#
# Elastic Constant Matrix: (Units=GPa)
#
#
# Indices 1 2 3 4 5 6 
#
# 1 108.6619 40.8573 37.6576 8.7706 -3.7038 -12.3892
# 2 40.8573 139.8493 42.4043 -14.1544 -3.1434 -20.5269
# 3 37.6576 42.4043 129.2059 1.7069 -6.1224 -6.1516
# 4 8.7706 -14.1544 1.7069 52.8229 -12.0322 -3.4710
# 5 -3.7038 -3.1434 -6.1224 -12.0322 40.8077 9.6370
# 6 -12.3892 -20.5269 -6.1516 -3.4710 9.6370 53.8384
#
#
#
# Elastic Compliance Matrix: (Units=1/GPa)
#
#
# Indices 1 2 3 4 5 6 
#
# 1 0.011367 -0.002695 -0.002362 -0.002585 -0.000589 0.001257
# 2 -0.002695 0.009358 -0.002173 0.003316 0.000459 0.002831
# 3 -0.002362 -0.002173 0.009169 -0.000285 0.001034 -0.000528
# 4 -0.002585 0.003316 -0.000285 0.021723 0.006162 0.000934
# 5 -0.000589 0.000459 0.001034 0.006162 0.027490 -0.004366
# 6 0.001257 0.002831 -0.000528 0.000934 -0.004366 0.020724
#
#
# Mechanical properties :
#
#
# Convention : Reuss Voigt Hill
#
# Bulk Modulus (GPa) = 64.79517 68.83950 66.81734
# Shear Modulus (GPa) = 41.86318 46.61365 44.23842
#
# Velocity S-wave (km/s) = 4.06777 4.29236 4.18157
# Velocity P-wave (km/s) = 6.90457 7.19550 7.05153
#
# Compressibility (1/GPa) = 0.01543325
#
# Stress axis : x y z
#
# Youngs Moduli (GPa) = 87.97627 106.85727 109.06369
#
# Poissons Ratio (x) = 0.28796 0.25765
# Poissons Ratio (y) = 0.23708 0.23701
# Poissons Ratio (z) = 0.20783 0.23222
#
# Static dielectric constant tensor:
#      x y z
#    x 2.210690 0.031740 -0.017200 
#    y 0.031740 1.983430 0.018610 
#    z -0.017200 0.018610 2.090390 
# 
# From -- ./inp_files/68915.got.cif
#   From: 2010.05.17/outbox.cif.g08.bks.cpg/sg2_35_cif.got.tgz:68915.got - 2010.06.03 11:33:40.
