data_PCOD9052109
_publ_section_title
;
Structure prediction by ZEFSAII (Michael W. Deem and Ramdas Pophale) SiO2 
 PCOD9052109
Probable space group: P -1
;
_chemical_formula_sum "Si O2"
_cell_formula_units_Z 16
_cell_length_a 4.951707
_cell_length_b 14.854372
_cell_length_c 9.374899
_cell_angle_alpha 89.705271
_cell_angle_beta 74.833816
_cell_angle_gamma 79.394851
_cell_volume 653.508304
_symmetry_space_group_name_H-M "P -1"
_symmetry_group_IT_number 2
_symmetry_cell_setting 'triclinic'
loop_
_space_group_symop_operation_xyz
x,y,z
-x,-y,-z
loop_
_atom_site_type_symbol
_atom_site_label
_atom_site_fract_x
_atom_site_fract_y
_atom_site_fract_z
Si Si1 0.298399 0.778396 0.853533
Si Si2 0.609708 0.035682 0.637657
Si Si3 0.996118 0.631954 0.243703
Si Si4 0.095373 0.813991 0.356263
Si Si5 0.304059 0.579069 0.932772
Si Si6 0.141233 0.161115 0.324716
Si Si7 0.520190 0.539412 0.342639
Si Si8 0.907731 0.919541 0.103985
O O1 0.409589 0.673919 0.887397
O O2 0.568849 0.826624 0.793473
O O3 0.124177 0.788342 0.730229
O O4 0.058670 0.831241 0.994296
O O5 0.663783 0.138945 0.603477
O O6 0.423304 0.050123 0.810899
O O7 0.500000 0.000000 0.500000
O O8 0.849032 0.946904 0.648038
O O9 0.114327 0.723368 0.261783
O O10 0.213603 0.559453 0.309012
O O11 0.674091 0.627082 0.327163
O O12 0.032218 0.610193 0.070910
O O13 0.888795 0.798317 0.513021
O O14 0.001274 0.894153 0.253461
O O15 0.275740 0.533526 0.785108
O O16 0.500000 0.500000 0.000000
O O17 0.500000 0.500000 0.500000
O O18 0.000000 0.000000 0.000000
#
# Coordination Sequence:
#
# PCOD9052109 Si02
#       8
#     2   2   2   2   2   2   2   2
#     4  12  28  48  76 116 148 201 257 319 372 465
#     4  12  26  48  75 108 157 210 258 311 392 450
#     4  11  26  47  74 110 147 197 249 306 390 447
#     4  12  28  45  76 106 154 202 255 317 375 465
#     4  10  25  51  78 108 156 199 249 313 393 456
#     4  12  28  47  74 108 156 199 256 313 387 440
#     4  11  26  46  77 109 150 192 247 312 378 457
#     4  12  26  46  76 108 154 200 258 313 378 452
#
# _framework density 24.483239000000001
#
# number of rings (size 3 to 8) (size 9 to 14) (size 15 to 20)
#    0.000    0.500    3.750    2.625    7.000    5.000 
#    0.000    0.000    0.000    0.000    0.000    0.000 
#    0.000    0.000    0.000    0.000    0.000    0.000 
#
# Total GULP energy -89249.134270 kJ/mol
# GULP energy per Si atom -5578.070892 kJ/mol
# Density = 2.442751 g / cm^3
# Si number density = 24.483239 Si / 1000 Ang^3
#
#
#
# Elastic Constant Matrix: (Units=GPa)
#
#
# Indices 1 2 3 4 5 6 
#
# 1 70.3734 13.9320 17.7179 -9.7544 0.0266 5.8365
# 2 13.9320 136.0750 43.7996 -1.8289 5.5497 8.9286
# 3 17.7179 43.7996 158.0892 -6.6425 1.1016 5.2482
# 4 -9.7544 -1.8289 -6.6425 37.1880 -0.9333 5.7665
# 5 0.0266 5.5497 1.1016 -0.9333 33.6410 -8.3471
# 6 5.8365 8.9286 5.2482 5.7665 -8.3471 30.4984
#
#
#
# Elastic Compliance Matrix: (Units=1/GPa)
#
#
# Indices 1 2 3 4 5 6 
#
# 1 0.015583 -0.000900 -0.001194 0.004357 -0.000571 -0.003493
# 2 -0.000900 0.008363 -0.002116 0.000131 -0.001917 -0.002462
# 3 -0.001194 -0.002116 0.007103 0.000937 0.000007 -0.000550
# 4 0.004357 0.000131 0.000937 0.029241 -0.000936 -0.006818
# 5 -0.000571 -0.001917 0.000007 -0.000936 0.032428 0.009721
# 6 -0.003493 -0.002462 -0.000550 -0.006818 0.009721 0.038222
#
#
# Mechanical properties :
#
#
# Convention : Reuss Voigt Hill
#
# Bulk Modulus (GPa) = 44.18995 57.27071 50.73033
# Shear Modulus (GPa) = 34.03604 39.53804 36.78704
#
# Velocity S-wave (km/s) = 3.73255 4.02294 3.88047
# Velocity P-wave (km/s) = 6.05510 6.70980 6.39083
#
# Compressibility (1/GPa) = 0.02262958
#
# Stress axis : x y z
#
# Youngs Moduli (GPa) = 64.17423 119.56732 140.78354
#
# Poissons Ratio (x) = 0.10762 0.16810
# Poissons Ratio (y) = 0.05776 0.29786
# Poissons Ratio (z) = 0.07663 0.25297
#
# Static dielectric constant tensor:
#      x y z
#    x 2.237730 0.096550 -0.010580 
#    y 0.096550 1.980990 0.031960 
#    z -0.010580 0.031960 1.932810 
# 
# From -- ./inp_files/135263.got.cif
#   From: 2010.05.17/outbox.cif.g08.bks.cpg/sg2_68_cif.got.tgz:135263.got - 2010.06.03 11:33:40.
