data_PCOD9052384
_publ_section_title
;
Structure prediction by ZEFSAII (Michael W. Deem and Ramdas Pophale) SiO2 
 PCOD9052384
Probable space group: P -1
;
_chemical_formula_sum "Si O2"
_cell_formula_units_Z 13
_cell_length_a 8.582502
_cell_length_b 13.097317
_cell_length_c 11.202187
_cell_angle_alpha 33.544787
_cell_angle_beta 70.334905
_cell_angle_gamma 54.132065
_cell_volume 530.482895
_symmetry_space_group_name_H-M "P -1"
_symmetry_group_IT_number 2
_symmetry_cell_setting 'triclinic'
loop_
_space_group_symop_operation_xyz
x,y,z
-x,-y,-z
loop_
_atom_site_type_symbol
_atom_site_label
_atom_site_fract_x
_atom_site_fract_y
_atom_site_fract_z
Si Si1 0.797598 0.252582 0.329153
Si Si2 0.630682 0.780194 0.764748
Si Si3 0.946329 0.745105 0.126927
Si Si4 0.158965 0.221676 0.616405
Si Si5 0.000000 0.500000 0.000000
Si Si6 0.632775 0.034687 0.719454
Si Si7 0.262612 0.804940 0.865430
O O1 0.879622 0.400629 0.191242
O O2 0.671211 0.220708 0.491008
O O3 0.700264 0.277066 0.200317
O O4 0.000000 0.000000 0.500000
O O5 0.490109 0.722108 0.921694
O O6 0.500000 0.000000 0.500000
O O7 0.746590 0.827561 0.791437
O O8 0.836253 0.575653 0.852352
O O9 0.896423 0.835933 0.186913
O O10 0.008960 0.490161 0.371344
O O11 0.137276 0.736332 0.035849
O O12 0.748992 0.911250 0.931360
O O13 0.394959 0.140081 0.655870
O O14 0.148506 0.072995 0.661763
#
# Coordination Sequence:
#
# PCOD9052384 Si02
#       7
#     2   2   2   2   1   2   2
#     4  12  23  43  63 105 138 173 221 267 342 407
#     4  11  23  41  63  99 140 175 219 260 333 408
#     4  11  23  47  69 100 130 179 231 276 334 389
#     4  10  26  45  72  95 133 178 231 279 329 391
#     4  12  26  40  66  92 144 186 212 266 324 412
#     4  11  23  44  68  99 140 174 218 279 333 404
#     4  11  23  42  69  98 138 174 219 279 332 402
#
# _framework density 24.505972
#
# number of rings (size 3 to 8) (size 9 to 14) (size 15 to 20)
#    0.000    0.923    4.615    0.923    2.154    8.000 
#    0.000    0.000    0.000    7.385    0.000    0.000 
#    0.000    0.000    0.000    0.000    0.000    0.000 
#
# Total GULP energy -72403.348312 kJ/mol
# GULP energy per Si atom -5569.488332 kJ/mol
# Density = 2.445020 g / cm^3
# Si number density = 24.505972 Si / 1000 Ang^3
#
#
#
# Elastic Constant Matrix: (Units=GPa)
#
#
# Indices 1 2 3 4 5 6 
#
# 1 108.7710 -0.6377 62.5475 -9.2765 -12.1412 -17.6883
# 2 -0.6377 54.3106 30.0603 2.9496 -2.3049 8.5962
# 3 62.5475 30.0603 147.7969 5.5254 -11.1169 7.3768
# 4 -9.2765 2.9496 5.5254 39.3484 2.9696 -5.3343
# 5 -12.1412 -2.3049 -11.1169 2.9696 53.7585 -6.6235
# 6 -17.6883 8.5962 7.3768 -5.3343 -6.6235 39.3155
#
#
#
# Elastic Compliance Matrix: (Units=1/GPa)
#
#
# Indices 1 2 3 4 5 6 
#
# 1 0.016050 0.002860 -0.007831 0.005711 0.002963 0.009339
# 2 0.002860 0.021933 -0.005512 -0.000550 0.000166 -0.002521
# 3 -0.007831 -0.005512 0.011589 -0.003737 -0.000018 -0.005002
# 4 0.005711 -0.000550 -0.003737 0.028317 -0.000183 0.007202
# 5 0.002963 0.000166 -0.000018 -0.000183 0.019854 0.004620
# 6 0.009339 -0.002521 -0.005002 0.007202 0.004620 0.032882
#
#
# Mechanical properties :
#
#
# Convention : Reuss Voigt Hill
#
# Bulk Modulus (GPa) = 34.95757 54.97987 44.96872
# Shear Modulus (GPa) = 31.03141 41.07837 36.05489
#
# Velocity S-wave (km/s) = 3.56234 4.09866 3.83987
# Velocity P-wave (km/s) = 5.58715 6.69945 6.16842
#
# Compressibility (1/GPa) = 0.02860611
#
# Stress axis : x y z
#
# Youngs Moduli (GPa) = 62.30525 45.59285 86.28691
#
# Poissons Ratio (x) = -0.13040 0.67570
# Poissons Ratio (y) = -0.17820 0.47566
# Poissons Ratio (z) = 0.48790 0.25133
#
# Static dielectric constant tensor:
#      x y z
#    x 1.508670 0.254370 -0.278390 
#    y 0.254370 1.513690 0.270520 
#    z -0.278390 0.270520 1.874300 
# 
# From -- ./inp_files/395056.got.cif
#   From: 2010.05.17/outbox.cif.g08.bks.cpg/sg2_198_cif.got.tgz:395056.got - 2010.06.03 11:33:40.
