data_PCOD9052725
_publ_section_title
;
Structure prediction by ZEFSAII (Michael W. Deem and Ramdas Pophale) SiO2 
 PCOD9052725
Probable space group: P -1
;
_chemical_formula_sum "Si O2"
_cell_formula_units_Z 11
_cell_length_a 14.141369
_cell_length_b 6.614884
_cell_length_c 5.455569
_cell_angle_alpha 101.209082
_cell_angle_beta 120.786953
_cell_angle_gamma 88.878039
_cell_volume 428.113828
_symmetry_space_group_name_H-M "P -1"
_symmetry_group_IT_number 2
_symmetry_cell_setting 'triclinic'
loop_
_space_group_symop_operation_xyz
x,y,z
-x,-y,-z
loop_
_atom_site_type_symbol
_atom_site_label
_atom_site_fract_x
_atom_site_fract_y
_atom_site_fract_z
Si Si1 0.375501 0.902932 0.870917
Si Si2 0.430120 0.494518 0.650839
Si Si3 0.000000 0.000000 0.500000
Si Si4 0.802240 0.221492 0.026726
Si Si5 0.103252 0.388236 0.032105
Si Si6 0.751099 0.839434 0.536630
O O1 0.365345 0.699346 0.637340
O O2 0.320760 0.814030 0.027240
O O3 0.300197 0.090757 0.764885
O O4 0.500000 0.000000 0.000000
O O5 0.500000 0.500000 0.500000
O O6 0.351721 0.281368 0.489609
O O7 0.500000 0.500000 0.000000
O O8 0.933438 0.816698 0.215506
O O9 0.098590 0.837347 0.676269
O O10 0.823328 0.451444 0.002198
O O11 0.801306 0.054810 0.767384
O O12 0.157211 0.316159 0.341309
O O13 0.000000 0.500000 0.000000
#
# Coordination Sequence:
#
# PCOD9052725 Si02
#       6
#     2   2   1   2   2   2
#     4  12  27  48  77 110 159 212 267 335 407 493
#     4  12  28  48  78 115 162 216 280 342 412 495
#     4  10  26  48  78 112 154 202 270 334 410 484
#     4  11  27  48  78 115 155 207 272 334 410 496
#     4  11  27  50  78 114 159 208 274 339 417 496
#     4  11  27  46  75 110 157 208 269 333 415 482
#
# _framework density 25.694099999999999
#
# number of rings (size 3 to 8) (size 9 to 14) (size 15 to 20)
#    0.000    0.727    1.818    2.727   12.727    4.364 
#    0.000    0.000    0.000    0.000    0.000    0.000 
#    0.000    0.000    0.000    0.000    0.000    0.000 
#
# Total GULP energy -61262.337510 kJ/mol
# GULP energy per Si atom -5569.303410 kJ/mol
# Density = 2.563562 g / cm^3
# Si number density = 25.694100 Si / 1000 Ang^3
#
#
#
# Elastic Constant Matrix: (Units=GPa)
#
#
# Indices 1 2 3 4 5 6 
#
# 1 82.1641 42.1599 22.3973 -21.2361 -1.8060 8.5548
# 2 42.1599 165.6491 46.1623 -0.5553 -2.3043 -8.8555
# 3 22.3973 46.1623 90.8250 -14.8462 22.0809 -1.2148
# 4 -21.2361 -0.5553 -14.8462 47.4683 -4.3728 23.2035
# 5 -1.8060 -2.3043 22.0809 -4.3728 30.7558 -7.5076
# 6 8.5548 -8.8555 -1.2148 23.2035 -7.5076 37.2222
#
#
#
# Elastic Compliance Matrix: (Units=1/GPa)
#
#
# Indices 1 2 3 4 5 6 
#
# 1 0.022638 -0.007273 0.001727 0.020079 -0.002456 -0.019889
# 2 -0.007273 0.010404 -0.006594 -0.010295 0.006467 0.011654
# 3 0.001727 -0.006594 0.019300 0.010765 -0.015443 -0.011161
# 4 0.020079 -0.010295 0.010765 0.052701 -0.009977 -0.041578
# 5 -0.002456 0.006467 -0.015443 -0.009977 0.046733 0.017245
# 6 -0.019889 0.011654 -0.011161 -0.041578 0.017245 0.063242
#
#
# Mechanical properties :
#
#
# Convention : Reuss Voigt Hill
#
# Bulk Modulus (GPa) = 35.63351 62.23081 48.93216
# Shear Modulus (GPa) = 20.10845 38.28383 29.19614
#
# Velocity S-wave (km/s) = 2.80055 3.86422 3.37456
# Velocity P-wave (km/s) = 4.93517 6.64696 5.85397
#
# Compressibility (1/GPa) = 0.02806347
#
# Stress axis : x y z
#
# Youngs Moduli (GPa) = 44.17275 96.11789 51.81265
#
# Poissons Ratio (x) = 0.69908 -0.08949
# Poissons Ratio (y) = 0.32128 0.34163
# Poissons Ratio (z) = -0.07629 0.63376
#
# Static dielectric constant tensor:
#      x y z
#    x 2.081440 -0.000840 0.049190 
#    y -0.000840 2.050530 -0.091670 
#    z 0.049190 -0.091670 2.084610 
# 
# From -- ./inp_files/2182.got.cif
#   From: 2010.05.17/outbox.cif.g08.bks.cpg/sg2_2_cif.got.tgz:2182.got - 2010.06.03 11:33:40.
