data_PCOD9052980
_publ_section_title
;
Structure prediction by ZEFSAII (Michael W. Deem and Ramdas Pophale) SiO2 
 PCOD9052980
Probable space group: P -1
;
_chemical_formula_sum "Si O2"
_cell_formula_units_Z 14
_cell_length_a 14.515550
_cell_length_b 9.948548
_cell_length_c 5.305421
_cell_angle_alpha 116.584662
_cell_angle_beta 112.604064
_cell_angle_gamma 55.619236
_cell_volume 556.385201
_symmetry_space_group_name_H-M "P -1"
_symmetry_group_IT_number 2
_symmetry_cell_setting 'triclinic'
loop_
_space_group_symop_operation_xyz
x,y,z
-x,-y,-z
loop_
_atom_site_type_symbol
_atom_site_label
_atom_site_fract_x
_atom_site_fract_y
_atom_site_fract_z
Si Si1 0.257202 0.601738 0.870877
Si Si2 0.250127 0.326261 0.906089
Si Si3 0.927342 0.335253 0.930684
Si Si4 0.858407 0.811530 0.700050
Si Si5 0.835698 0.101849 0.617514
Si Si6 0.439328 0.603605 0.770825
Si Si7 0.323798 0.988075 0.959703
O O1 0.312818 0.409577 0.878209
O O2 0.126073 0.651619 0.828529
O O3 0.314632 0.616122 0.690501
O O4 0.260217 0.741018 0.184965
O O5 0.167241 0.485344 0.132484
O O6 0.158019 0.303420 0.620768
O O7 0.330690 0.143463 0.957771
O O8 0.054560 0.292483 0.074829
O O9 0.914364 0.179990 0.667616
O O10 0.896366 0.943684 0.737870
O O11 0.730440 0.931117 0.762766
O O12 0.775909 0.035979 0.302528
O O13 0.500000 0.500000 0.500000
O O14 0.422743 0.795346 0.910501
O O15 0.500000 0.500000 0.000000
#
# Coordination Sequence:
#
# PCOD9052980 Si02
#       7
#     2   2   2   2   2   2   2
#     4   8  19  44  58  92 127 166 212 264 326 378
#     4   8  21  38  59  87 142 165 208 253 327 378
#     4   8  18  35  60  90 135 173 211 249 314 381
#     4  11  17  32  62  93 131 170 214 252 308 387
#     4   8  18  34  56  82 135 161 216 257 311 369
#     4  12  26  45  75  95 122 166 226 281 338 392
#     4  11  21  38  61  95 123 169 211 272 323 380
#
# _framework density 25.162423
#
# number of rings (size 3 to 8) (size 9 to 14) (size 15 to 20)
#    1.714    0.571    1.429    1.714    2.000    1.143 
#    7.714    2.857    0.000    0.000    0.000    0.000 
#    0.000    0.000    0.000    0.000    0.000    0.000 
#
# Total GULP energy -77999.201315 kJ/mol
# GULP energy per Si atom -5571.371522 kJ/mol
# Density = 2.510515 g / cm^3
# Si number density = 25.162423 Si / 1000 Ang^3
#
#
#
# Elastic Constant Matrix: (Units=GPa)
#
#
# Indices 1 2 3 4 5 6 
#
# 1 69.0078 42.9824 15.5315 6.3311 -17.4528 12.4640
# 2 42.9824 199.4413 27.9132 15.7216 -10.6503 17.6041
# 3 15.5315 27.9132 62.1746 14.5907 -10.7577 -1.9087
# 4 6.3311 15.7216 14.5907 37.6842 -1.9501 4.9230
# 5 -17.4528 -10.6503 -10.7577 -1.9501 33.3604 0.1556
# 6 12.4640 17.6041 -1.9087 4.9230 0.1556 49.9452
#
#
#
# Elastic Compliance Matrix: (Units=1/GPa)
#
#
# Indices 1 2 3 4 5 6 
#
# 1 0.019865 -0.003156 -0.002102 -0.000243 0.008711 -0.003929
# 2 -0.003156 0.006137 -0.001787 -0.001182 -0.000331 -0.001326
# 3 -0.002102 -0.001787 0.019804 -0.006680 0.004313 0.002556
# 4 -0.000243 -0.001182 -0.006680 0.029967 -0.000894 -0.002729
# 5 0.008711 -0.000331 0.004313 -0.000894 0.035775 -0.001916
# 6 -0.003929 -0.001326 0.002556 -0.002729 -0.001916 0.021842
#
#
# Mechanical properties :
#
#
# Convention : Reuss Voigt Hill
#
# Bulk Modulus (GPa) = 31.53085 55.94199 43.73642
# Shear Modulus (GPa) = 31.63530 40.47775 36.05652
#
# Velocity S-wave (km/s) = 3.54961 4.01516 3.78954
# Velocity P-wave (km/s) = 5.41828 6.61634 6.04705
#
# Compressibility (1/GPa) = 0.03171497
#
# Stress axis : x y z
#
# Youngs Moduli (GPa) = 50.34004 162.94985 50.49605
#
# Poissons Ratio (x) = 0.51425 0.10613
# Poissons Ratio (y) = 0.15887 0.09026
# Poissons Ratio (z) = 0.10581 0.29126
#
# Static dielectric constant tensor:
#      x y z
#    x 2.052140 -0.021000 0.005120 
#    y -0.021000 2.064550 -0.067490 
#    z 0.005120 -0.067490 1.976940 
# 
# From -- ./inp_files/105660.got.cif
#   From: 2010.05.17/outbox.cif.g08.bks.cpg/sg2_53_cif.got.tgz:105660.got - 2010.06.03 11:33:40.
