data_PCOD9052181
_publ_section_title
;
Structure prediction by ZEFSAII (Michael W. Deem and Ramdas Pophale) SiO2 
 PCOD9052181
Probable space group: P -1
;
_chemical_formula_sum "Si O2"
_cell_formula_units_Z 13
_cell_length_a 13.530903
_cell_length_b 9.520123
_cell_length_c 5.808868
_cell_angle_alpha 90.826774
_cell_angle_beta 123.249299
_cell_angle_gamma 68.023604
_cell_volume 562.478761
_symmetry_space_group_name_H-M "P -1"
_symmetry_group_IT_number 2
_symmetry_cell_setting 'triclinic'
loop_
_space_group_symop_operation_xyz
x,y,z
-x,-y,-z
loop_
_atom_site_type_symbol
_atom_site_label
_atom_site_fract_x
_atom_site_fract_y
_atom_site_fract_z
Si Si1 0.144295 0.279353 0.780567
Si Si2 0.283681 0.310847 0.567291
Si Si3 0.983065 0.894645 0.673520
Si Si4 0.645297 0.975948 0.630499
Si Si5 0.566706 0.500557 0.332285
Si Si6 0.778073 0.180022 0.716607
Si Si7 0.000000 0.500000 0.000000
O O1 0.236389 0.343790 0.770732
O O2 0.070849 0.223710 0.492015
O O3 0.031045 0.398853 0.797955
O O4 0.244050 0.129995 0.047756
O O5 0.321351 0.129443 0.560068
O O6 0.399059 0.353130 0.640591
O O7 0.158023 0.412565 0.255110
O O8 0.123955 0.803425 0.971560
O O9 0.000000 0.000000 0.500000
O O10 0.876466 0.023244 0.705462
O O11 0.500000 0.000000 0.500000
O O12 0.663704 0.132769 0.645724
O O13 0.500000 0.500000 0.500000
O O14 0.704071 0.342476 0.497419
O O15 0.500000 0.500000 0.000000
#
# Coordination Sequence:
#
# PCOD9052181 Si02
#       7
#     2   2   2   2   2   2   1
#     4  11  24  45  73 111 143 200 252 317 390 457
#     4  11  26  46  73 105 148 194 253 312 381 458
#     4  11  24  44  75 111 146 192 253 320 395 448
#     4  11  24  44  72 104 147 192 257 308 373 458
#     4  12  32  52  76 109 158 213 260 313 388 470
#     4  11  26  46  74 110 149 195 255 318 385 459
#     4  10  26  42  70 106 148 186 246 314 386 450
#
# _framework density 23.111986000000002
#
# number of rings (size 3 to 8) (size 9 to 14) (size 15 to 20)
#    0.000    0.923    3.077    1.385   12.923    1.846 
#    0.000    0.000    0.000    0.000    0.000    0.000 
#    0.000    0.000    0.000    0.000    0.000    0.000 
#
# Total GULP energy -72387.502196 kJ/mol
# GULP energy per Si atom -5568.269400 kJ/mol
# Density = 2.305938 g / cm^3
# Si number density = 23.111986 Si / 1000 Ang^3
#
#
#
# Elastic Constant Matrix: (Units=GPa)
#
#
# Indices 1 2 3 4 5 6 
#
# 1 99.7183 33.0775 15.9107 22.2126 8.5888 4.8203
# 2 33.0775 78.7052 32.3214 12.1423 6.3281 -4.6387
# 3 15.9107 32.3214 98.8456 5.8737 0.1424 -10.3471
# 4 22.2126 12.1423 5.8737 34.4046 -3.1611 -4.3065
# 5 8.5888 6.3281 0.1424 -3.1611 20.9567 -9.0051
# 6 4.8203 -4.6387 -10.3471 -4.3065 -9.0051 37.2384
#
#
#
# Elastic Compliance Matrix: (Units=1/GPa)
#
#
# Indices 1 2 3 4 5 6 
#
# 1 0.014638 -0.003872 -0.001135 -0.009437 -0.008785 -0.005908
# 2 -0.003872 0.017094 -0.004780 -0.003090 -0.004020 -0.000027
# 3 -0.001135 -0.004780 0.012203 0.001175 0.003711 0.003976
# 4 -0.009437 -0.003090 0.001175 0.038527 0.014528 0.009132
# 5 -0.008785 -0.004020 0.003711 0.014528 0.062646 0.018497
# 6 -0.005908 -0.000027 0.003976 0.009132 0.018497 0.034249
#
#
# Mechanical properties :
#
#
# Convention : Reuss Voigt Hill
#
# Bulk Modulus (GPa) = 41.04734 48.87648 44.96191
# Shear Modulus (GPa) = 24.14860 31.58392 27.86626
#
# Velocity S-wave (km/s) = 3.23592 3.70071 3.47609
# Velocity P-wave (km/s) = 5.63563 6.28124 5.96717
#
# Compressibility (1/GPa) = 0.02436211
#
# Stress axis : x y z
#
# Youngs Moduli (GPa) = 68.31499 58.49986 81.94398
#
# Poissons Ratio (x) = 0.22650 0.09303
# Poissons Ratio (y) = 0.26450 0.39167
# Poissons Ratio (z) = 0.07755 0.27962
#
# Static dielectric constant tensor:
#      x y z
#    x 1.960860 0.002380 -0.073220 
#    y 0.002380 1.848690 0.017530 
#    z -0.073220 0.017530 1.881220 
# 
# From -- ./inp_files/23487.got.cif
#   From: 2010.05.17/outbox.cif.g08.bks.cpg/sg2_12_cif.got.tgz:23487.got - 2010.06.03 11:33:40.
