data_PCOD9052669
_publ_section_title
;
Structure prediction by ZEFSAII (Michael W. Deem and Ramdas Pophale) SiO2 
 PCOD9052669
Probable space group: P -1
;
_chemical_formula_sum "Si O2"
_cell_formula_units_Z 15
_cell_length_a 11.556134
_cell_length_b 16.511104
_cell_length_c 7.557162
_cell_angle_alpha 57.218311
_cell_angle_beta 131.142152
_cell_angle_gamma 148.035834
_cell_volume 574.354563
_symmetry_space_group_name_H-M "P -1"
_symmetry_group_IT_number 2
_symmetry_cell_setting 'triclinic'
loop_
_space_group_symop_operation_xyz
x,y,z
-x,-y,-z
loop_
_atom_site_type_symbol
_atom_site_label
_atom_site_fract_x
_atom_site_fract_y
_atom_site_fract_z
Si Si1 0.762266 0.674284 0.540832
Si Si2 0.077217 0.394908 0.932982
Si Si3 0.685408 0.292311 0.089136
Si Si4 0.500000 0.500000 0.000000
Si Si5 0.816747 0.980997 0.942448
Si Si6 0.173124 0.846058 0.515399
Si Si7 0.540374 0.154737 0.709428
Si Si8 0.263493 0.210450 0.333183
O O1 0.500000 0.500000 0.500000
O O2 0.726119 0.761206 0.482035
O O3 0.890444 0.734840 0.409830
O O4 0.923437 0.686046 0.817054
O O5 0.155715 0.534183 0.937815
O O6 0.277156 0.458338 0.917081
O O7 0.799353 0.268207 0.738996
O O8 0.809682 0.259668 0.342711
O O9 0.436763 0.190169 0.065330
O O10 0.613460 0.221667 0.903062
O O11 0.596236 0.639105 0.812653
O O12 0.769587 0.060244 0.706290
O O13 0.977960 0.078877 0.160753
O O14 0.000000 0.000000 0.000000
O O15 0.361014 0.977900 0.698474
O O16 0.382818 0.167172 0.463982
#
# Coordination Sequence:
#
# PCOD9052669 Si02
#       8
#     2   2   2   1   2   2   2   2
#     4  11  26  46  77 110 148 198 256 313 381 456
#     4  11  26  48  78 112 149 199 254 319 384 451
#     4  12  27  48  78 111 154 199 254 323 380 460
#     4  10  26  48  72 106 154 194 254 306 382 450
#     4  12  27  48  72 106 156 199 258 305 384 453
#     4  12  28  48  75 113 155 204 251 318 382 457
#     4  12  26  47  79 114 154 198 256 317 385 455
#     4  11  26  45  74 109 147 203 248 316 380 456
#
# _framework density 26.116271000000001
#
# number of rings (size 3 to 8) (size 9 to 14) (size 15 to 20)
#    0.000    0.533    2.667    3.600   13.067    1.600 
#    0.000    0.000    0.000    0.000    0.000    0.000 
#    0.000    0.000    0.000    0.000    0.000    0.000 
#
# Total GULP energy -83857.993707 kJ/mol
# GULP energy per Si atom -5590.532914 kJ/mol
# Density = 2.605683 g / cm^3
# Si number density = 26.116271 Si / 1000 Ang^3
#
#
#
# Elastic Constant Matrix: (Units=GPa)
#
#
# Indices 1 2 3 4 5 6 
#
# 1 118.0136 34.3950 22.9193 1.4113 24.7172 -2.5782
# 2 34.3950 118.9199 19.9818 -3.0535 18.3990 6.0136
# 3 22.9193 19.9818 102.3577 -8.9955 22.5924 -7.1751
# 4 1.4113 -3.0535 -8.9955 45.3967 -2.5939 12.2963
# 5 24.7172 18.3990 22.5924 -2.5939 41.0080 -2.9191
# 6 -2.5782 6.0136 -7.1751 12.2963 -2.9191 48.9172
#
#
#
# Elastic Compliance Matrix: (Units=1/GPa)
#
#
# Indices 1 2 3 4 5 6 
#
# 1 0.010301 -0.002154 -0.000881 -0.001094 -0.004779 0.000668
# 2 -0.002154 0.009703 -0.000878 0.000886 -0.002645 -0.001816
# 3 -0.000881 -0.000878 0.011513 0.001675 -0.005240 0.001016
# 4 -0.001094 0.000886 0.001675 0.024090 0.000439 -0.005950
# 5 -0.004779 -0.002645 -0.005240 0.000439 0.031444 0.001071
# 6 0.000668 -0.001816 0.001016 -0.005950 0.001071 0.022410
#
#
# Mechanical properties :
#
#
# Convention : Reuss Voigt Hill
#
# Bulk Modulus (GPa) = 42.20549 54.87593 48.54071
# Shear Modulus (GPa) = 39.94157 44.53072 42.23614
#
# Velocity S-wave (km/s) = 3.91496 4.13376 4.02585
# Velocity P-wave (km/s) = 6.05241 6.62131 6.34324
#
# Compressibility (1/GPa) = 0.02369360
#
# Stress axis : x y z
#
# Youngs Moduli (GPa) = 97.07853 103.05835 86.85683
#
# Poissons Ratio (x) = 0.22197 0.07648
# Poissons Ratio (y) = 0.20909 0.07622
# Poissons Ratio (z) = 0.08548 0.09043
#
# Static dielectric constant tensor:
#      x y z
#    x 2.116610 -0.048800 -0.088530 
#    y -0.048800 2.029550 0.075670 
#    z -0.088530 0.075670 2.094860 
# 
# From -- ./inp_files/185229.got.cif
#   From: 2010.05.17/outbox.cif.g08.bks.cpg/sg2_93_cif.got.tgz:185229.got - 2010.06.03 11:33:40.
