data_PCOD9052761
_publ_section_title
;
Structure prediction by ZEFSAII (Michael W. Deem and Ramdas Pophale) SiO2 
 PCOD9052761
Probable space group: P -1
;
_chemical_formula_sum "Si O2"
_cell_formula_units_Z 14
_cell_length_a 9.300737
_cell_length_b 11.819361
_cell_length_c 8.930693
_cell_angle_alpha 66.150335
_cell_angle_beta 137.500092
_cell_angle_gamma 121.791760
_cell_volume 563.527420
_symmetry_space_group_name_H-M "P -1"
_symmetry_group_IT_number 2
_symmetry_cell_setting 'triclinic'
loop_
_space_group_symop_operation_xyz
x,y,z
-x,-y,-z
loop_
_atom_site_type_symbol
_atom_site_label
_atom_site_fract_x
_atom_site_fract_y
_atom_site_fract_z
Si Si1 0.217884 0.625062 0.042005
Si Si2 0.221747 0.478378 0.621028
Si Si3 0.563806 0.070830 0.346540
Si Si4 0.816821 0.863696 0.870046
Si Si5 0.625372 0.836520 0.399985
Si Si6 0.693118 0.593983 0.959984
Si Si7 0.987832 0.228737 0.406127
O O1 0.419219 0.698406 0.275721
O O2 0.295205 0.541637 0.021372
O O3 0.159023 0.744532 0.856504
O O4 0.000000 0.500000 0.000000
O O5 0.295111 0.408333 0.852482
O O6 0.000000 0.500000 0.500000
O O7 0.150879 0.380417 0.482373
O O8 0.457463 0.599879 0.708957
O O9 0.394050 0.150432 0.171265
O O10 0.821753 0.168924 0.452453
O O11 0.500000 0.000000 0.500000
O O12 0.527483 0.955090 0.258397
O O13 0.738286 0.860509 0.639555
O O14 0.889504 0.735381 0.997983
O O15 0.000000 0.000000 0.000000
O O16 0.840799 0.846454 0.455884
#
# Coordination Sequence:
#
# PCOD9052761 Si02
#       7
#     2   2   2   2   2   2   2
#     4  12  28  45  76 114 153 199 246 314 391 454
#     4  11  23  42  72 106 143 195 241 307 375 449
#     4  10  26  49  74 107 148 203 255 315 375 447
#     4  11  27  48  78 107 149 204 258 314 383 455
#     4  11  27  50  74 112 153 199 256 316 380 455
#     4  11  25  44  70 109 148 186 253 305 375 455
#     4  12  25  47  77 111 152 199 258 315 383 450
#
# _framework density 24.843510999999999
#
# number of rings (size 3 to 8) (size 9 to 14) (size 15 to 20)
#    0.000    0.857    2.857    2.143   12.000    2.857 
#    0.000    0.000    0.000    0.000    0.000    0.000 
#    0.000    0.000    0.000    0.000    0.000    0.000 
#
# Total GULP energy -78048.045882 kJ/mol
# GULP energy per Si atom -5574.860420 kJ/mol
# Density = 2.478697 g / cm^3
# Si number density = 24.843511 Si / 1000 Ang^3
#
#
#
# Elastic Constant Matrix: (Units=GPa)
#
#
# Indices 1 2 3 4 5 6 
#
# 1 134.6984 18.2967 19.1700 5.6287 24.7278 -4.7781
# 2 18.2967 111.6015 27.6699 29.1032 3.8145 -5.2342
# 3 19.1700 27.6699 107.1568 29.7366 -6.9105 9.9691
# 4 5.6287 29.1032 29.7366 39.6906 0.5245 -2.8865
# 5 24.7278 3.8145 -6.9105 0.5245 29.8986 2.2365
# 6 -4.7781 -5.2342 9.9691 -2.8865 2.2365 45.1131
#
#
#
# Elastic Compliance Matrix: (Units=1/GPa)
#
#
# Indices 1 2 3 4 5 6 
#
# 1 0.009493 -0.000927 -0.002627 0.001560 -0.008517 0.002001
# 2 -0.000927 0.011342 -0.000828 -0.007484 -0.000813 0.000962
# 3 -0.002627 -0.000828 0.013411 -0.009453 0.005861 -0.004233
# 4 0.001560 -0.007484 -0.009453 0.037880 -0.003482 0.003982
# 5 -0.008517 -0.000813 0.005861 -0.003482 0.042355 -0.004614
# 6 0.002001 0.000962 -0.004233 0.003982 -0.004614 0.023909
#
#
# Mechanical properties :
#
#
# Convention : Reuss Voigt Hill
#
# Bulk Modulus (GPa) = 39.24243 53.74777 46.49510
# Shear Modulus (GPa) = 32.12360 42.16178 37.14269
#
# Velocity S-wave (km/s) = 3.59978 4.12405 3.87080
# Velocity P-wave (km/s) = 5.75396 6.66022 6.22361
#
# Compressibility (1/GPa) = 0.02548262
#
# Stress axis : x y z
#
# Youngs Moduli (GPa) = 105.33870 88.16523 74.56544
#
# Poissons Ratio (x) = 0.08171 0.19590
# Poissons Ratio (y) = 0.09763 0.06174
# Poissons Ratio (z) = 0.27675 0.07300
#
# Static dielectric constant tensor:
#      x y z
#    x 2.120320 0.036400 0.167260 
#    y 0.036400 2.085410 -0.063550 
#    z 0.167260 -0.063550 2.134670 
# 
# From -- ./inp_files/187135.got.cif
#   From: 2010.05.17/outbox.cif.g08.bks.cpg/sg2_94_cif.got.tgz:187135.got - 2010.06.03 11:33:40.
