data_PCOD9052631
_publ_section_title
;
Structure prediction by ZEFSAII (Michael W. Deem and Ramdas Pophale) SiO2 
 PCOD9052631
Probable space group: P -1
;
_chemical_formula_sum "Si O2"
_cell_formula_units_Z 11
_cell_length_a 16.239823
_cell_length_b 8.827467
_cell_length_c 13.569799
_cell_angle_alpha 44.208373
_cell_angle_beta 23.828352
_cell_angle_gamma 33.400593
_cell_volume 422.914858
_symmetry_space_group_name_H-M "P -1"
_symmetry_group_IT_number 2
_symmetry_cell_setting 'triclinic'
loop_
_space_group_symop_operation_xyz
x,y,z
-x,-y,-z
loop_
_atom_site_type_symbol
_atom_site_label
_atom_site_fract_x
_atom_site_fract_y
_atom_site_fract_z
Si Si1 0.857404 0.890185 0.664180
Si Si2 0.500000 0.000000 0.500000
Si Si3 0.820597 0.096973 0.041653
Si Si4 0.377611 0.887548 0.471650
Si Si5 0.360898 0.392327 0.255034
Si Si6 0.680141 0.600864 0.091532
O O1 0.056164 0.651159 0.479576
O O2 0.587190 0.156171 0.790573
O O3 0.833353 0.721241 0.851188
O O4 0.000000 0.000000 0.500000
O O5 0.810915 0.853317 0.199068
O O6 0.465189 0.864481 0.500000
O O7 0.519970 0.276409 0.239617
O O8 0.789174 0.315507 0.049552
O O9 0.078921 0.991480 0.747065
O O10 0.381770 0.135996 0.310888
O O11 0.581335 0.630880 0.296263
O O12 0.500000 0.500000 0.000000
#
# Coordination Sequence:
#
# PCOD9052631 Si02
#       6
#     2   1   2   2   2   2
#     4  11  21  38  58  99 142 162 203 254 307 392
#     4  10  26  48  66  90 126 164 224 278 316 368
#     4  11  23  45  65  92 128 168 214 270 313 375
#     4  11  24  44  65  93 126 170 216 265 321 372
#     4  11  22  37  64  96 137 171 203 255 322 379
#     4  11  24  38  67  96 128 172 210 254 318 382
#
# _framework density 26.009961000000001
#
# number of rings (size 3 to 8) (size 9 to 14) (size 15 to 20)
#    0.000    1.091    3.636    2.727    2.545    3.636 
#    0.000    1.818    0.000    0.000    0.000    0.000 
#    0.000    0.000    0.000    0.000    0.000    0.000 
#
# Total GULP energy -61239.389271 kJ/mol
# GULP energy per Si atom -5567.217206 kJ/mol
# Density = 2.595076 g / cm^3
# Si number density = 26.009961 Si / 1000 Ang^3
#
#
#
# Elastic Constant Matrix: (Units=GPa)
#
#
# Indices 1 2 3 4 5 6 
#
# 1 74.4667 0.1292 -2.9856 -10.5461 -14.1413 10.0441
# 2 0.1292 108.1135 47.8502 -12.2226 -3.9204 5.6039
# 3 -2.9856 47.8502 184.7389 -32.9264 0.6035 23.5564
# 4 -10.5461 -12.2226 -32.9264 45.5014 18.6431 5.2055
# 5 -14.1413 -3.9204 0.6035 18.6431 50.2148 5.4283
# 6 10.0441 5.6039 23.5564 5.2055 5.4283 31.6877
#
#
#
# Elastic Compliance Matrix: (Units=1/GPa)
#
#
# Indices 1 2 3 4 5 6 
#
# 1 0.015933 0.000142 0.002057 0.004655 0.003609 -0.007987
# 2 0.000142 0.010501 -0.002550 0.000779 0.000627 -0.000242
# 3 0.002057 -0.002550 0.008360 0.007362 -0.001660 -0.007341
# 4 0.004655 0.000779 0.007362 0.034006 -0.010160 -0.010932
# 5 0.003609 0.000627 -0.001660 -0.010160 0.025058 -0.002644
# 6 -0.007987 -0.000242 -0.007341 -0.010932 -0.002644 0.041839
#
#
# Mechanical properties :
#
#
# Convention : Reuss Voigt Hill
#
# Bulk Modulus (GPa) = 29.33249 50.81185 40.07217
# Shear Modulus (GPa) = 33.83781 46.96914 40.40348
#
# Velocity S-wave (km/s) = 3.61079 4.25410 3.94558
# Velocity P-wave (km/s) = 5.35590 6.61118 6.01637
#
# Compressibility (1/GPa) = 0.03409189
#
# Stress axis : x y z
#
# Youngs Moduli (GPa) = 62.76330 95.22562 119.61179
#
# Poissons Ratio (x) = -0.01348 -0.24606
# Poissons Ratio (y) = -0.00889 0.30502
# Poissons Ratio (z) = -0.12911 0.24284
#
# Static dielectric constant tensor:
#      x y z
#    x 2.077010 0.123050 -0.025410 
#    y 0.123050 2.368680 -0.043070 
#    z -0.025410 -0.043070 2.217350 
# 
# From -- ./inp_files/18560.got.cif
#   From: 2010.05.17/outbox.cif.g08.bks.cpg/sg2_10_cif.got.tgz:18560.got - 2010.06.03 11:33:40.
