data_PCOD9052392
_publ_section_title
;
Structure prediction by ZEFSAII (Michael W. Deem and Ramdas Pophale) SiO2 
 PCOD9052392
Probable space group: P -1
;
_chemical_formula_sum "Si O2"
_cell_formula_units_Z 14
_cell_length_a 14.420530
_cell_length_b 6.611872
_cell_length_c 10.203637
_cell_angle_alpha 57.788368
_cell_angle_beta 49.760602
_cell_angle_gamma 48.914714
_cell_volume 549.714223
_symmetry_space_group_name_H-M "P -1"
_symmetry_group_IT_number 2
_symmetry_cell_setting 'triclinic'
loop_
_space_group_symop_operation_xyz
x,y,z
-x,-y,-z
loop_
_atom_site_type_symbol
_atom_site_label
_atom_site_fract_x
_atom_site_fract_y
_atom_site_fract_z
Si Si1 0.303160 0.709297 0.648570
Si Si2 0.837099 0.617943 0.091416
Si Si3 0.156122 0.275874 0.672046
Si Si4 0.333352 0.115473 0.106226
Si Si5 0.762897 0.316070 0.660855
Si Si6 0.522712 0.696233 0.609057
Si Si7 0.908934 0.398518 0.707360
O O1 0.176964 0.654558 0.800945
O O2 0.391123 0.651097 0.722246
O O3 0.387008 0.501021 0.527364
O O4 0.250077 0.030883 0.570895
O O5 0.786177 0.793579 0.210827
O O6 0.000000 0.500000 0.000000
O O7 0.734043 0.793731 0.008630
O O8 0.159327 0.555672 0.541337
O O9 0.004027 0.309629 0.779409
O O10 0.276599 0.908068 0.272410
O O11 0.243811 0.371436 0.192480
O O12 0.500000 0.000000 0.000000
O O13 0.607173 0.579266 0.706240
O O14 0.868275 0.207057 0.725070
O O15 0.500000 0.000000 0.500000
O O16 0.000000 0.500000 0.500000
#
# Coordination Sequence:
#
# PCOD9052392 Si02
#       7
#     2   2   2   2   2   2   2
#     4  11  24  40  76 105 147 187 256 318 375 450
#     4  12  26  48  75 108 153 207 260 314 390 469
#     4  11  24  47  74 112 142 199 272 317 377 462
#     4  12  29  51  75 114 163 207 253 323 404 458
#     4  11  25  45  77 108 150 198 256 322 385 462
#     4  11  22  43  71 112 142 189 252 319 382 454
#     4  10  26  45  74 112 151 198 261 319 387 456
#
# _framework density 25.467777000000002
#
# number of rings (size 3 to 8) (size 9 to 14) (size 15 to 20)
#    0.000    0.857    4.286    0.857    6.000    6.857 
#    0.000    0.000    0.000    0.000    0.000    0.000 
#    0.000    0.000    0.000    0.000    0.000    0.000 
#
# Total GULP energy -77957.441925 kJ/mol
# GULP energy per Si atom -5568.388709 kJ/mol
# Density = 2.540981 g / cm^3
# Si number density = 25.467777 Si / 1000 Ang^3
#
#
#
# Elastic Constant Matrix: (Units=GPa)
#
#
# Indices 1 2 3 4 5 6 
#
# 1 245.4042 22.1074 47.4798 2.4482 -25.3624 2.5557
# 2 22.1074 90.6822 28.1514 11.1403 -0.5094 12.8629
# 3 47.4798 28.1514 52.9074 13.7685 -13.0165 11.5234
# 4 2.4482 11.1403 13.7685 30.2748 -7.7464 -6.8365
# 5 -25.3624 -0.5094 -13.0165 -7.7464 58.8648 -4.4134
# 6 2.5557 12.8629 11.5234 -6.8365 -4.4134 32.4911
#
#
#
# Elastic Compliance Matrix: (Units=1/GPa)
#
#
# Indices 1 2 3 4 5 6 
#
# 1 0.005297 -0.000314 -0.005585 0.003240 0.001665 0.002596
# 2 -0.000314 0.014011 -0.005579 -0.004211 -0.002156 -0.004722
# 3 -0.005585 -0.005579 0.034060 -0.015223 0.002148 -0.012343
# 4 0.003240 -0.004211 -0.015223 0.046544 0.005418 0.017341
# 5 0.001665 -0.002156 0.002148 0.005418 0.019153 0.003702
# 6 0.002596 -0.004722 -0.012343 0.017341 0.003702 0.040972
#
#
# Mechanical properties :
#
#
# Convention : Reuss Voigt Hill
#
# Bulk Modulus (GPa) = 32.88281 64.94123 48.91202
# Shear Modulus (GPa) = 25.88941 43.74315 34.81628
#
# Velocity S-wave (km/s) = 3.19181 4.14888 3.70140
# Velocity P-wave (km/s) = 5.15005 6.96460 6.12490
#
# Compressibility (1/GPa) = 0.03041102
#
# Stress axis : x y z
#
# Youngs Moduli (GPa) = 188.80376 71.37142 29.36022
#
# Poissons Ratio (x) = 0.02244 0.16397
# Poissons Ratio (y) = 0.05937 0.16380
# Poissons Ratio (z) = 1.05441 0.39818
#
# Static dielectric constant tensor:
#      x y z
#    x 2.107110 -0.086820 0.038440 
#    y -0.086820 2.138790 0.008840 
#    z 0.038440 0.008840 2.156330 
# 
# From -- ./inp_files/441606.got.cif
#   From: 2010.05.17/outbox.cif.g08.bks.cpg/sg2_221_cif.got.tgz:441606.got - 2010.06.03 11:33:40.
