data_PCOD9052411
_publ_section_title
;
Structure prediction by ZEFSAII (Michael W. Deem and Ramdas Pophale) SiO2 
 PCOD9052411
Probable space group: P -1
;
_chemical_formula_sum "Si O2"
_cell_formula_units_Z 16
_cell_length_a 8.596042
_cell_length_b 9.606934
_cell_length_c 11.946458
_cell_angle_alpha 124.536185
_cell_angle_beta 109.864142
_cell_angle_gamma 64.304584
_cell_volume 726.436172
_symmetry_space_group_name_H-M "P -1"
_symmetry_group_IT_number 2
_symmetry_cell_setting 'triclinic'
loop_
_space_group_symop_operation_xyz
x,y,z
-x,-y,-z
loop_
_atom_site_type_symbol
_atom_site_label
_atom_site_fract_x
_atom_site_fract_y
_atom_site_fract_z
Si Si1 0.116562 0.967444 0.854220
Si Si2 0.481289 0.904074 0.837286
Si Si3 0.379799 0.675054 0.221736
Si Si4 0.718863 0.948079 0.713185
Si Si5 0.371689 0.499047 0.364352
Si Si6 0.259464 0.598370 0.815847
Si Si7 0.056645 0.627833 0.985958
Si Si8 0.197739 0.450055 0.500528
O O1 0.271914 0.938396 0.785749
O O2 0.206423 0.813056 0.896262
O O3 0.925241 0.940331 0.772629
O O4 0.077225 0.173782 0.971138
O O5 0.598428 0.961898 0.800115
O O6 0.566816 0.691636 0.767053
O O7 0.500000 0.000000 0.000000
O O8 0.348650 0.642421 0.329064
O O9 0.551769 0.521979 0.154680
O O10 0.223586 0.657005 0.099709
O O11 0.377832 0.875684 0.298224
O O12 0.718335 0.761965 0.574696
O O13 0.500000 0.500000 0.500000
O O14 0.205491 0.516718 0.406950
O O15 0.263740 0.541984 0.661025
O O16 0.120340 0.555490 0.844883
O O17 0.000000 0.500000 0.000000
O O18 0.000000 0.500000 0.500000
#
# Coordination Sequence:
#
# PCOD9052411 Si02
#       8
#     2   2   2   2   2   2   2   2
#     4  11  24  45  70 100 139 188 234 287 347 423
#     4  11  26  40  74 104 138 187 245 289 349 429
#     4  11  25  46  70  99 146 179 232 298 361 414
#     4  10  26  46  67 108 145 180 234 301 356 411
#     4  11  23  47  70 102 135 185 241 290 348 435
#     4  12  24  45  73  98 139 194 235 284 357 431
#     4  11  29  43  67 106 145 178 231 298 365 413
#     4  11  23  43  74 100 138 183 243 288 345 428
#
# _framework density 22.025335999999999
#
# number of rings (size 3 to 8) (size 9 to 14) (size 15 to 20)
#    0.000    1.000    3.750    0.750   10.500    0.500 
#    0.000    1.875    0.000    0.000    0.000    0.000 
#    0.000    0.000    0.000    0.000    0.000    0.000 
#
# Total GULP energy -89254.472216 kJ/mol
# GULP energy per Si atom -5578.404514 kJ/mol
# Density = 2.197521 g / cm^3
# Si number density = 22.025336 Si / 1000 Ang^3
#
#
#
# Elastic Constant Matrix: (Units=GPa)
#
#
# Indices 1 2 3 4 5 6 
#
# 1 133.8150 52.2018 35.4740 -0.8645 -34.9751 10.8051
# 2 52.2018 172.1447 48.2928 8.9340 -25.2623 26.6222
# 3 35.4740 48.2928 108.4998 3.3952 -23.5815 20.7342
# 4 -0.8645 8.9340 3.3952 21.1738 -3.3473 2.1886
# 5 -34.9751 -25.2623 -23.5815 -3.3473 42.5551 -3.4956
# 6 10.8051 26.6222 20.7342 2.1886 -3.4956 44.0643
#
#
#
# Elastic Compliance Matrix: (Units=1/GPa)
#
#
# Indices 1 2 3 4 5 6 
#
# 1 0.010362 -0.001887 -0.001013 0.002538 0.006994 -0.000496
# 2 -0.001887 0.007730 -0.001808 -0.002477 0.001587 -0.003108
# 3 -0.001013 -0.001808 0.012086 -0.000100 0.004457 -0.003988
# 4 0.002538 -0.002477 -0.000100 0.049200 0.004334 -0.001179
# 5 0.006994 0.001587 0.004457 0.004334 0.032804 -0.002383
# 6 -0.000496 -0.003108 -0.003988 -0.001179 -0.002383 0.026440
#
#
# Mechanical properties :
#
#
# Convention : Reuss Voigt Hill
#
# Bulk Modulus (GPa) = 48.15945 76.26631 62.21288
# Shear Modulus (GPa) = 32.26702 40.12472 36.19587
#
# Velocity S-wave (km/s) = 3.83168 4.27283 4.05825
# Velocity P-wave (km/s) = 6.44117 7.68405 7.08989
#
# Compressibility (1/GPa) = 0.02076435
#
# Stress axis : x y z
#
# Youngs Moduli (GPa) = 96.50705 129.35953 82.73974
#
# Poissons Ratio (x) = 0.24408 0.08379
# Poissons Ratio (y) = 0.18209 0.14956
# Poissons Ratio (z) = 0.09773 0.23382
#
# Static dielectric constant tensor:
#      x y z
#    x 1.994630 0.031380 -0.049850 
#    y 0.031380 1.854690 -0.047480 
#    z -0.049850 -0.047480 1.766360 
# 
# From -- ./inp_files/352114.got.cif
#   From: 2010.05.17/outbox.cif.g08.bks.cpg/sg2_177_cif.got.tgz:352114.got - 2010.06.03 11:33:40.
