data_PCOD9052170
_publ_section_title
;
Structure prediction by ZEFSAII (Michael W. Deem and Ramdas Pophale) SiO2 
 PCOD9052170
Probable space group: P -1
;
_chemical_formula_sum "Si O2"
_cell_formula_units_Z 15
_cell_length_a 9.335979
_cell_length_b 18.917649
_cell_length_c 11.717155
_cell_angle_alpha 30.644184
_cell_angle_beta 39.936665
_cell_angle_gamma 50.583090
_cell_volume 675.180759
_symmetry_space_group_name_H-M "P -1"
_symmetry_group_IT_number 2
_symmetry_cell_setting 'triclinic'
loop_
_space_group_symop_operation_xyz
x,y,z
-x,-y,-z
loop_
_atom_site_type_symbol
_atom_site_label
_atom_site_fract_x
_atom_site_fract_y
_atom_site_fract_z
Si Si1 0.934862 0.157349 0.833207
Si Si2 0.497727 0.537746 0.815236
Si Si3 0.102840 0.079755 0.472120
Si Si4 0.392844 0.824601 0.390444
Si Si5 0.171223 0.782913 0.921989
Si Si6 0.498316 0.880789 0.997577
Si Si7 0.000000 0.500000 0.500000
Si Si8 0.314911 0.250691 0.315788
O O1 0.143405 0.250135 0.526035
O O2 0.886242 0.195088 0.939658
O O3 0.713667 0.174705 0.870309
O O4 0.000000 0.000000 0.000000
O O5 0.399063 0.683795 0.650925
O O6 0.743796 0.543004 0.604505
O O7 0.500000 0.500000 0.000000
O O8 0.355911 0.406583 0.026993
O O9 0.277487 0.126281 0.202090
O O10 0.207118 0.143985 0.436613
O O11 0.859235 0.131875 0.531609
O O12 0.088472 0.912315 0.724055
O O13 0.525419 0.955377 0.189194
O O14 0.494224 0.810887 0.221036
O O15 0.441400 0.793013 0.736122
O O16 0.066647 0.627021 0.185776
#
# Coordination Sequence:
#
# PCOD9052170 Si02
#       8
#     2   2   2   2   2   2   1   2
#     4  12  21  37  68  98 132 171 219 276 321 383
#     4  11  27  46  70  96 133 175 221 274 336 400
#     4  12  23  43  69  99 134 175 224 279 329 388
#     4  11  27  45  66  98 132 178 223 272 335 402
#     4  11  23  40  68 100 135 173 223 274 327 390
#     4  11  25  42  66  98 134 174 221 273 331 391
#     4  10  26  42  66  98 136 170 218 272 332 392
#     4  11  23  41  66 100 130 175 224 271 326 391
#
# _framework density 22.216272
#
# number of rings (size 3 to 8) (size 9 to 14) (size 15 to 20)
#    0.000    0.800    4.000    2.400   11.200    1.600 
#    0.000    0.667    0.000    0.000    0.000    0.000 
#    0.000    0.000    0.000    0.000    0.000    0.000 
#
# Total GULP energy -83758.111255 kJ/mol
# GULP energy per Si atom -5583.874084 kJ/mol
# Density = 2.216571 g / cm^3
# Si number density = 22.216272 Si / 1000 Ang^3
#
#
#
# Elastic Constant Matrix: (Units=GPa)
#
#
# Indices 1 2 3 4 5 6 
#
# 1 48.8020 22.3348 54.0971 13.4244 6.0287 -15.0327
# 2 22.3348 63.5238 52.4354 15.7183 7.5250 -25.2529
# 3 54.0971 52.4354 144.6517 17.8705 3.4039 -32.4101
# 4 13.4244 15.7183 17.8705 66.7199 -5.1967 8.4454
# 5 6.0287 7.5250 3.4039 -5.1967 34.3329 3.3184
# 6 -15.0327 -25.2529 -32.4101 8.4454 3.3184 41.5876
#
#
#
# Elastic Compliance Matrix: (Units=1/GPa)
#
#
# Indices 1 2 3 4 5 6 
#
# 1 0.038334 0.002327 -0.012541 -0.006440 -0.007690 0.007417
# 2 0.002327 0.030361 -0.006940 -0.008551 -0.009249 0.016343
# 3 -0.012541 -0.006940 0.014609 0.000095 0.002052 0.002455
# 4 -0.006440 -0.008551 0.000095 0.020378 0.007256 -0.012164
# 5 -0.007690 -0.009249 0.002052 0.007256 0.034464 -0.011020
# 6 0.007417 0.016343 0.002455 -0.012164 -0.011020 0.041913
#
#
# Mechanical properties :
#
#
# Convention : Reuss Voigt Hill
#
# Bulk Modulus (GPa) = 20.41002 57.19023 38.80012
# Shear Modulus (GPa) = 21.67311 37.06875 29.37093
#
# Velocity S-wave (km/s) = 3.12677 4.08921 3.63994
# Velocity P-wave (km/s) = 4.71620 6.93498 5.93028
#
# Compressibility (1/GPa) = 0.04899554
#
# Stress axis : x y z
#
# Youngs Moduli (GPa) = 26.08621 32.93691 68.44970
#
# Poissons Ratio (x) = -0.07665 0.85846
# Poissons Ratio (y) = -0.06070 0.47505
# Poissons Ratio (z) = 0.32716 0.22859
#
# Static dielectric constant tensor:
#      x y z
#    x 1.828510 0.052030 -0.021690 
#    y 0.052030 1.860490 -0.039710 
#    z -0.021690 -0.039710 1.869520 
# 
# From -- ./inp_files/255752.got.cif
#   From: 2010.05.17/outbox.cif.g08.bks.cpg/sg2_128_cif.got.tgz:255752.got - 2010.06.03 11:33:40.
