data_PCOD9052577
_publ_section_title
;
Structure prediction by ZEFSAII (Michael W. Deem and Ramdas Pophale) SiO2 
 PCOD9052577
Probable space group: P -1
;
_chemical_formula_sum "Si O2"
_cell_formula_units_Z 14
_cell_length_a 20.621469
_cell_length_b 19.656568
_cell_length_c 8.630640
_cell_angle_alpha 147.584547
_cell_angle_beta 29.072934
_cell_angle_gamma 159.517055
_cell_volume 588.167757
_symmetry_space_group_name_H-M "P -1"
_symmetry_group_IT_number 2
_symmetry_cell_setting 'triclinic'
loop_
_space_group_symop_operation_xyz
x,y,z
-x,-y,-z
loop_
_atom_site_type_symbol
_atom_site_label
_atom_site_fract_x
_atom_site_fract_y
_atom_site_fract_z
Si Si1 0.930989 0.326506 0.405315
Si Si2 0.472886 0.001922 0.876902
Si Si3 0.167101 0.012157 0.126505
Si Si4 0.665603 0.530631 0.623494
Si Si5 0.597577 0.779925 0.682026
Si Si6 0.968618 0.968844 0.826066
Si Si7 0.176932 0.562174 0.645902
O O1 0.000000 0.500000 0.500000
O O2 0.073771 0.420547 0.440766
O O3 0.695807 0.170423 0.654989
O O4 0.928026 0.196389 0.060030
O O5 0.333003 0.785003 0.693293
O O6 0.500000 0.000000 0.000000
O O7 0.369947 0.061658 0.165818
O O8 0.377263 0.179057 0.107457
O O9 0.185779 0.048350 0.972605
O O10 0.000000 0.000000 0.500000
O O11 0.584387 0.418578 0.413327
O O12 0.869822 0.759841 0.603606
O O13 0.712798 0.453432 0.496832
O O14 0.500000 0.500000 0.000000
O O15 0.799248 0.841920 0.351309
O O16 0.000000 0.000000 0.000000
O O17 0.000000 0.500000 0.000000
#
# Coordination Sequence:
#
# PCOD9052577 Si02
#       7
#     2   2   2   2   2   2   2
#     4  12  28  50  77 112 153 201 256 312 387 457
#     4  12  25  46  77 111 146 196 254 315 376 451
#     4  10  26  47  71 104 150 204 238 306 389 445
#     4  12  25  39  70 112 136 190 257 305 368 450
#     4  11  24  46  68 103 150 186 246 312 372 451
#     4  11  23  43  71  99 146 192 245 305 376 445
#     4  12  25  46  77 110 153 198 254 315 379 456
#
# _framework density 23.802731999999999
#
# number of rings (size 3 to 8) (size 9 to 14) (size 15 to 20)
#    0.000    0.571    4.286    2.571    6.000    6.286 
#    0.000    0.000    0.000    0.000    0.000    0.000 
#    0.000    0.000    0.000    0.000    0.000    0.000 
#
# Total GULP energy -78292.269149 kJ/mol
# GULP energy per Si atom -5592.304939 kJ/mol
# Density = 2.374856 g / cm^3
# Si number density = 23.802732 Si / 1000 Ang^3
#
#
#
# Elastic Constant Matrix: (Units=GPa)
#
#
# Indices 1 2 3 4 5 6 
#
# 1 173.0839 41.2418 38.1940 20.5663 9.7186 33.8817
# 2 41.2418 145.2928 32.4138 31.5961 13.0485 14.5945
# 3 38.1940 32.4138 96.4041 16.0353 -2.2229 9.1454
# 4 20.5663 31.5961 16.0353 49.6783 4.4855 13.2831
# 5 9.7186 13.0485 -2.2229 4.4855 36.3176 11.3661
# 6 33.8817 14.5945 9.1454 13.2831 11.3661 49.6915
#
#
#
# Elastic Compliance Matrix: (Units=1/GPa)
#
#
# Indices 1 2 3 4 5 6 
#
# 1 0.007383 -0.001058 -0.002093 -0.000579 -0.000369 -0.004099
# 2 -0.001058 0.008752 -0.001879 -0.004358 -0.002512 0.000236
# 3 -0.002093 -0.001879 0.012250 -0.002032 0.002318 -0.000263
# 4 -0.000579 -0.004358 -0.002032 0.025040 -0.000046 -0.004634
# 5 -0.000369 -0.002512 0.002318 -0.000046 0.030702 -0.006447
# 6 -0.004099 0.000236 -0.000263 -0.004634 -0.006447 0.025612
#
#
# Mechanical properties :
#
#
# Convention : Reuss Voigt Hill
#
# Bulk Modulus (GPa) = 54.56770 70.94222 62.75496
# Shear Modulus (GPa) = 39.71190 47.33287 43.52239
#
# Velocity S-wave (km/s) = 4.08901 4.46415 4.28069
# Velocity P-wave (km/s) = 6.72815 7.51269 7.13122
#
# Compressibility (1/GPa) = 0.01832586
#
# Stress axis : x y z
#
# Youngs Moduli (GPa) = 135.43847 114.26291 81.63126
#
# Poissons Ratio (x) = 0.12090 0.17084
# Poissons Ratio (y) = 0.14331 0.15337
# Poissons Ratio (z) = 0.28345 0.21468
#
# Static dielectric constant tensor:
#      x y z
#    x 2.206690 0.090250 0.168110 
#    y 0.090250 1.938970 0.014040 
#    z 0.168110 0.014040 2.039650 
# 
# From -- ./inp_files/349744.got.cif
#   From: 2010.05.17/outbox.cif.g08.bks.cpg/sg2_175_cif.got.tgz:349744.got - 2010.06.03 11:33:40.
