data_PCOD9052111
_publ_section_title
;
Structure prediction by ZEFSAII (Michael W. Deem and Ramdas Pophale) SiO2 
 PCOD9052111
Probable space group: P -1
;
_chemical_formula_sum "Si O2"
_cell_formula_units_Z 12
_cell_length_a 9.229232
_cell_length_b 7.450545
_cell_length_c 9.561190
_cell_angle_alpha 66.200889
_cell_angle_beta 106.498795
_cell_angle_gamma 131.400033
_cell_volume 451.087129
_symmetry_space_group_name_H-M "P -1"
_symmetry_group_IT_number 2
_symmetry_cell_setting 'triclinic'
loop_
_space_group_symop_operation_xyz
x,y,z
-x,-y,-z
loop_
_atom_site_type_symbol
_atom_site_label
_atom_site_fract_x
_atom_site_fract_y
_atom_site_fract_z
Si Si1 0.604944 0.337739 0.547773
Si Si2 0.552551 0.614893 0.772376
Si Si3 0.643245 0.933334 0.034769
Si Si4 0.034892 0.136479 0.114984
Si Si5 0.108757 0.542458 0.187345
Si Si6 0.297655 0.771273 0.670817
O O1 0.527341 0.443768 0.390223
O O2 0.755616 0.480792 0.667937
O O3 0.713603 0.280367 0.482419
O O4 0.418308 0.066042 0.632582
O O5 0.782681 0.828651 0.779010
O O6 0.438369 0.708130 0.776495
O O7 0.513230 0.634725 0.089957
O O8 0.784623 0.163427 0.893090
O O9 0.817983 0.981168 0.164371
O O10 0.500000 0.000000 0.000000
O O11 0.101153 0.415128 0.079220
O O12 0.000000 0.000000 0.000000
O O13 0.904715 0.397837 0.254349
#
# Coordination Sequence:
#
# PCOD9052111 Si02
#       6
#     2   2   2   2   2   2
#     4   9  23  48  85 116 166 205 264 330 409 469
#     4  10  25  51  78 119 163 208 261 333 407 473
#     4  12  29  51  77 113 165 212 267 334 396 480
#     4  12  31  49  75 114 161 214 272 327 398 474
#     4  12  26  48  84 119 158 214 269 322 411 476
#     4   9  23  46  84 122 164 204 259 334 401 484
#
# _framework density 26.602399999999999
#
# number of rings (size 3 to 8) (size 9 to 14) (size 15 to 20)
#    1.000    0.333    1.667    1.000    7.000    2.667 
#    0.000    1.667    0.000    0.000    0.000    0.000 
#    0.000    0.000    0.000    0.000    0.000    0.000 
#
# Total GULP energy -66922.542979 kJ/mol
# GULP energy per Si atom -5576.878582 kJ/mol
# Density = 2.654185 g / cm^3
# Si number density = 26.602400 Si / 1000 Ang^3
#
#
#
# Elastic Constant Matrix: (Units=GPa)
#
#
# Indices 1 2 3 4 5 6 
#
# 1 199.1782 87.8668 56.3316 -14.1466 16.0483 17.1042
# 2 87.8668 123.9170 79.3967 -9.0455 -9.0534 26.3047
# 3 56.3316 79.3967 148.8150 4.6741 2.5825 3.7505
# 4 -14.1466 -9.0455 4.6741 56.7571 -1.2418 -6.0109
# 5 16.0483 -9.0534 2.5825 -1.2418 50.2126 1.3345
# 6 17.1042 26.3047 3.7505 -6.0109 1.3345 66.3195
#
#
#
# Elastic Compliance Matrix: (Units=1/GPa)
#
#
# Indices 1 2 3 4 5 6 
#
# 1 0.007966 -0.006135 0.000278 0.000960 -0.003657 0.000524
# 2 -0.006135 0.019293 -0.007990 0.001745 0.006042 -0.005582
# 3 0.000278 -0.007990 0.010916 -0.001902 -0.002200 0.002352
# 4 0.000960 0.001745 -0.001902 0.018392 0.000538 0.000824
# 5 -0.003657 0.006042 -0.002200 0.000538 0.022346 -0.001730
# 6 0.000524 -0.005582 0.002352 0.000824 -0.001730 0.017134
#
#
# Mechanical properties :
#
#
# Convention : Reuss Voigt Hill
#
# Bulk Modulus (GPa) = 95.40997 102.12224 98.76611
# Shear Modulus (GPa) = 39.29710 51.21216 45.25463
#
# Velocity S-wave (km/s) = 3.84761 4.39235 4.12897
# Velocity P-wave (km/s) = 7.46202 8.01220 7.74200
#
# Compressibility (1/GPa) = 0.01048108
#
# Stress axis : x y z
#
# Youngs Moduli (GPa) = 125.52787 51.83189 91.60678
#
# Poissons Ratio (x) = 0.31798 -0.02544
# Poissons Ratio (y) = 0.77010 0.73195
# Poissons Ratio (z) = -0.03486 0.41414
#
# Static dielectric constant tensor:
#      x y z
#    x 2.239840 -0.060030 -0.050650 
#    y -0.060030 2.075120 0.169180 
#    z -0.050650 0.169180 2.275180 
# 
# From -- ./inp_files/374102.got.cif
#   From: 2010.05.17/outbox.cif.g08.bks.cpg/sg2_188_cif.got.tgz:374102.got - 2010.06.03 11:33:40.
