data_PCOD9052540
_publ_section_title
;
Structure prediction by ZEFSAII (Michael W. Deem and Ramdas Pophale) SiO2 
 PCOD9052540
Probable space group: P -1
;
_chemical_formula_sum "Si O2"
_cell_formula_units_Z 15
_cell_length_a 13.952511
_cell_length_b 13.427021
_cell_length_c 12.976082
_cell_angle_alpha 46.089053
_cell_angle_beta 158.794144
_cell_angle_gamma 135.899465
_cell_volume 609.139115
_symmetry_space_group_name_H-M "P -1"
_symmetry_group_IT_number 2
_symmetry_cell_setting 'triclinic'
loop_
_space_group_symop_operation_xyz
x,y,z
-x,-y,-z
loop_
_atom_site_type_symbol
_atom_site_label
_atom_site_fract_x
_atom_site_fract_y
_atom_site_fract_z
Si Si1 0.157245 0.306989 0.008261
Si Si2 0.000000 0.500000 0.000000
Si Si3 0.495481 0.448408 0.687072
Si Si4 0.267657 0.025919 0.321033
Si Si5 0.193728 0.396806 0.756450
Si Si6 0.829375 0.799688 0.325188
Si Si7 0.608380 0.027233 0.293658
Si Si8 0.252439 0.716209 0.208379
O O1 0.128532 0.299322 0.863113
O O2 0.878400 0.269075 0.822016
O O3 0.342337 0.462343 0.116801
O O4 0.313680 0.191551 0.281524
O O5 0.264701 0.571090 0.131544
O O6 0.986521 0.663939 0.905478
O O7 0.293064 0.301756 0.629023
O O8 0.314400 0.555194 0.384813
O O9 0.500000 0.000000 0.500000
O O10 0.270456 0.943565 0.489201
O O11 0.000000 0.000000 0.000000
O O12 0.154991 0.309697 0.674220
O O13 0.000000 0.500000 0.500000
O O14 0.500000 0.500000 0.000000
O O15 0.129698 0.909893 0.561163
O O16 0.617534 0.888188 0.014346
O O17 0.457000 0.857425 0.266398
#
# Coordination Sequence:
#
# PCOD9052540 Si02
#       8
#     2   1   2   2   2   2   2   2
#     4  11  23  40  69 101 139 196 253 290 345 426
#     4  10  26  46  84 110 132 178 258 308 374 444
#     4  11  24  47  76 102 140 187 243 307 367 442
#     4  12  24  41  65  99 146 198 250 291 340 418
#     4  12  24  40  63 103 151 198 244 291 352 421
#     4  12  27  45  71 106 154 196 239 297 371 430
#     4  12  26  46  69 106 151 196 233 302 371 426
#     4  11  24  48  78 104 143 187 251 304 371 439
#
# _framework density 24.624918000000001
#
# number of rings (size 3 to 8) (size 9 to 14) (size 15 to 20)
#    0.000    0.533    2.667    6.000    5.600    0.000 
#    0.000    1.333    0.000    0.000    0.000    0.000 
#    0.000    0.000    0.000    0.000    0.000    0.000 
#
# Total GULP energy -83750.879455 kJ/mol
# GULP energy per Si atom -5583.391964 kJ/mol
# Density = 2.456887 g / cm^3
# Si number density = 24.624918 Si / 1000 Ang^3
#
#
#
# Elastic Constant Matrix: (Units=GPa)
#
#
# Indices 1 2 3 4 5 6 
#
# 1 109.0121 43.5615 16.9992 5.4050 21.4329 28.5257
# 2 43.5615 165.0585 49.4743 22.9805 12.9918 45.3796
# 3 16.9992 49.4743 135.7274 -8.7972 31.0510 21.6728
# 4 5.4050 22.9805 -8.7972 50.9461 9.2111 2.1227
# 5 21.4329 12.9918 31.0510 9.2111 38.5540 12.9167
# 6 28.5257 45.3796 21.6728 2.1227 12.9167 36.5580
#
#
#
# Elastic Compliance Matrix: (Units=1/GPa)
#
#
# Indices 1 2 3 4 5 6 
#
# 1 0.012341 -0.001527 0.001376 0.000876 -0.005424 -0.006685
# 2 -0.001527 0.011359 -0.003638 -0.006077 0.005543 -0.012358
# 3 0.001376 -0.003638 0.011072 0.005159 -0.009690 0.000003
# 4 0.000876 -0.006077 0.005159 0.024824 -0.010567 0.006094
# 5 -0.005424 0.005543 -0.009690 -0.010567 0.041028 -0.010787
# 6 -0.006685 -0.012358 0.000003 0.006094 -0.010787 0.051365
#
#
# Mechanical properties :
#
#
# Convention : Reuss Voigt Hill
#
# Bulk Modulus (GPa) = 36.77186 69.98533 53.37860
# Shear Modulus (GPa) = 29.65025 45.19579 37.42302
#
# Velocity S-wave (km/s) = 3.47374 4.28877 3.90259
# Velocity P-wave (km/s) = 5.57265 7.28059 6.48311
#
# Compressibility (1/GPa) = 0.02719471
#
# Stress axis : x y z
#
# Youngs Moduli (GPa) = 81.03090 88.03377 90.31551
#
# Poissons Ratio (x) = 0.13440 -0.12427
# Poissons Ratio (y) = 0.12371 0.32858
# Poissons Ratio (z) = -0.11149 0.32028
#
# Static dielectric constant tensor:
#      x y z
#    x 1.573250 0.251450 0.499520 
#    y 0.251450 1.837420 -0.345250 
#    z 0.499520 -0.345250 0.950120 
# 
# From -- ./inp_files/533725.got.cif
#   From: 2010.05.17/outbox.cif.g08.bks.cpg/sg2_267_cif.got.tgz:533725.got - 2010.06.03 11:33:40.
