data_PCOD9052477
_publ_section_title
;
Structure prediction by ZEFSAII (Michael W. Deem and Ramdas Pophale) SiO2 
 PCOD9052477
Probable space group: P -1
;
_chemical_formula_sum "Si O2"
_cell_formula_units_Z 12
_cell_length_a 11.189223
_cell_length_b 11.912448
_cell_length_c 11.649357
_cell_angle_alpha 124.820611
_cell_angle_beta 25.145175
_cell_angle_gamma 127.915777
_cell_volume 520.011688
_symmetry_space_group_name_H-M "P -1"
_symmetry_group_IT_number 2
_symmetry_cell_setting 'triclinic'
loop_
_space_group_symop_operation_xyz
x,y,z
-x,-y,-z
loop_
_atom_site_type_symbol
_atom_site_label
_atom_site_fract_x
_atom_site_fract_y
_atom_site_fract_z
Si Si1 0.603479 0.157725 0.647016
Si Si2 0.494034 0.839495 0.600934
Si Si3 0.044935 0.716509 0.362053
Si Si4 0.032719 0.568811 0.636661
Si Si5 0.478710 0.155521 0.147721
Si Si6 0.182824 0.250363 0.927474
O O1 0.707300 0.225047 0.720440
O O2 0.279806 0.150578 0.879006
O O3 0.787112 0.271171 0.462312
O O4 0.637944 0.000708 0.526180
O O5 0.541853 0.835428 0.692276
O O6 0.633177 0.741133 0.344225
O O7 0.148675 0.800678 0.856779
O O8 0.884886 0.551176 0.429112
O O9 0.809603 0.806475 0.626201
O O10 0.226092 0.739790 0.100399
O O11 0.000000 0.500000 0.500000
O O12 0.768664 0.601502 0.957739
O O13 0.500000 0.000000 0.000000
#
# Coordination Sequence:
#
# PCOD9052477 Si02
#       6
#     2   2   2   2   2   2
#     4  11  25  44  76 107 146 178 233 300 356 416
#     4  12  27  43  74 105 146 184 238 288 359 409
#     4  11  27  45  76 106 138 186 243 290 343 419
#     4  10  26  46  72 105 144 188 233 287 354 424
#     4  12  26  49  73 103 142 189 240 289 341 421
#     4  12  26  46  69 112 143 187 226 298 360 417
#
# _framework density 23.076404
#
# number of rings (size 3 to 8) (size 9 to 14) (size 15 to 20)
#    0.000    0.667    3.333    2.500   11.667    1.333 
#    0.000    5.000    0.000    0.000    0.000    0.000 
#    0.000    0.000    0.000    0.000    0.000    0.000 
#
# Total GULP energy -66972.321998 kJ/mol
# GULP energy per Si atom -5581.026833 kJ/mol
# Density = 2.302388 g / cm^3
# Si number density = 23.076404 Si / 1000 Ang^3
#
#
#
# Elastic Constant Matrix: (Units=GPa)
#
#
# Indices 1 2 3 4 5 6 
#
# 1 123.4754 37.9174 65.2960 12.7801 21.0037 -8.6015
# 2 37.9174 93.7546 56.9674 -6.5464 20.1464 -23.2691
# 3 65.2960 56.9674 147.3900 5.8051 21.0524 -6.5735
# 4 12.7801 -6.5464 5.8051 39.3054 9.7024 1.5748
# 5 21.0037 20.1464 21.0524 9.7024 38.3057 4.6586
# 6 -8.6015 -23.2691 -6.5735 1.5748 4.6586 31.4875
#
#
#
# Elastic Compliance Matrix: (Units=1/GPa)
#
#
# Indices 1 2 3 4 5 6 
#
# 1 0.011532 -0.001315 -0.003981 -0.002720 -0.002989 0.001926
# 2 -0.001315 0.021352 -0.005675 0.006923 -0.011031 0.015521
# 3 -0.003981 -0.005675 0.010658 -0.001093 -0.000049 -0.002994
# 4 -0.002720 0.006923 -0.001093 0.029848 -0.009605 0.004073
# 5 -0.002989 -0.011031 -0.000049 -0.009605 0.037719 -0.014079
# 6 0.001926 0.015521 -0.002994 0.004073 -0.014079 0.045009
#
#
# Mechanical properties :
#
#
# Convention : Reuss Voigt Hill
#
# Bulk Modulus (GPa) = 46.29371 76.10909 61.20140
# Shear Modulus (GPa) = 26.98919 35.44898 31.21908
#
# Velocity S-wave (km/s) = 3.42359 3.92364 3.68211
# Velocity P-wave (km/s) = 5.97767 7.31980 6.68252
#
# Compressibility (1/GPa) = 0.02160121
#
# Stress axis : x y z
#
# Youngs Moduli (GPa) = 86.71781 46.83345 93.82423
#
# Poissons Ratio (x) = 0.06157 0.37348
# Poissons Ratio (y) = 0.11401 0.53247
# Poissons Ratio (z) = 0.34519 0.26579
#
# Static dielectric constant tensor:
#      x y z
#    x 1.868640 0.038450 -0.017730 
#    y 0.038450 1.919300 -0.021770 
#    z -0.017730 -0.021770 2.020510 
# 
# From -- ./inp_files/428623.got.cif
#   From: 2010.05.17/outbox.cif.g08.bks.cpg/sg2_215_cif.got.tgz:428623.got - 2010.06.03 11:33:40.
