data_PCOD9052935
_publ_section_title
;
Structure prediction by ZEFSAII (Michael W. Deem and Ramdas Pophale) SiO2 
 PCOD9052935
Probable space group: P -1
;
_chemical_formula_sum "Si O2"
_cell_formula_units_Z 16
_cell_length_a 5.396557
_cell_length_b 14.799826
_cell_length_c 13.961662
_cell_angle_alpha 37.559785
_cell_angle_beta 97.858729
_cell_angle_gamma 89.748095
_cell_volume 661.514209
_symmetry_space_group_name_H-M "P -1"
_symmetry_group_IT_number 2
_symmetry_cell_setting 'triclinic'
loop_
_space_group_symop_operation_xyz
x,y,z
-x,-y,-z
loop_
_atom_site_type_symbol
_atom_site_label
_atom_site_fract_x
_atom_site_fract_y
_atom_site_fract_z
Si Si1 0.499361 0.745691 0.458293
Si Si2 0.864619 0.472406 0.613172
Si Si3 0.459742 0.791733 0.902398
Si Si4 0.086558 0.194492 0.430217
Si Si5 0.839762 0.175900 0.790618
Si Si6 0.894022 0.899481 0.705915
Si Si7 0.700179 0.009946 0.085944
Si Si8 0.225742 0.514964 0.753740
O O1 0.696426 0.619670 0.520809
O O2 0.663669 0.822804 0.476027
O O3 0.351665 0.854869 0.277517
O O4 0.329168 0.640422 0.590188
O O5 0.719620 0.342448 0.681675
O O6 0.000000 0.500000 0.500000
O O7 0.066983 0.426838 0.747762
O O8 0.682157 0.849712 0.804840
O O9 0.400574 0.891538 0.911738
O O10 0.183860 0.816989 0.815070
O O11 0.562687 0.614717 0.080157
O O12 0.160258 0.143174 0.369817
O O13 0.952143 0.371005 0.279031
O O14 0.912923 0.077416 0.558804
O O15 0.887173 0.102078 0.960412
O O16 0.105605 0.149630 0.768090
O O17 0.500000 0.000000 0.000000
#
# Coordination Sequence:
#
# PCOD9052935 Si02
#       8
#     2   2   2   2   2   2   2   2
#     4  11  25  43  77 106 149 200 259 320 372 456
#     4  11  23  41  63 104 146 199 248 308 368 437
#     4  12  30  49  78 115 158 202 252 318 393 459
#     4  10  28  52  80 111 146 193 264 321 384 462
#     4  11  25  43  70 104 152 207 256 305 375 449
#     4  11  30  54  82 112 152 202 254 326 393 458
#     4  11  28  43  68 104 155 202 251 310 374 461
#     4  11  26  45  75 110 155 198 255 315 381 462
#
# _framework density 24.186931999999999
#
# number of rings (size 3 to 8) (size 9 to 14) (size 15 to 20)
#    0.000    1.000    1.250    1.875   19.250    2.000 
#    0.000    0.000    0.000    0.000    0.000    0.000 
#    0.000    0.000    0.000    0.000    0.000    0.000 
#
# Total GULP energy -89374.595258 kJ/mol
# GULP energy per Si atom -5585.912204 kJ/mol
# Density = 2.413188 g / cm^3
# Si number density = 24.186932 Si / 1000 Ang^3
#
#
#
# Elastic Constant Matrix: (Units=GPa)
#
#
# Indices 1 2 3 4 5 6 
#
# 1 80.3446 48.2512 5.3360 9.8988 14.5065 -18.1368
# 2 48.2512 151.0433 45.2496 12.7390 8.8633 18.1688
# 3 5.3360 45.2496 78.9806 -6.4903 11.5229 -21.8859
# 4 9.8988 12.7390 -6.4903 27.2391 -2.1181 -4.7681
# 5 14.5065 8.8633 11.5229 -2.1181 49.2759 6.8761
# 6 -18.1368 18.1688 -21.8859 -4.7681 6.8761 27.3987
#
#
#
# Elastic Compliance Matrix: (Units=1/GPa)
#
#
# Indices 1 2 3 4 5 6 
#
# 1 -0.021305 0.030795 -0.043799 -0.029455 0.020854 -0.079870
# 2 0.030795 -0.024090 0.037898 0.020608 -0.023324 0.076072
# 3 -0.043799 0.037898 -0.039060 -0.025905 0.027600 -0.096759
# 4 -0.029455 0.020608 -0.025905 0.023562 0.019667 -0.054691
# 5 0.020854 -0.023324 0.027600 0.019667 0.005288 0.053414
# 6 -0.079870 0.076072 -0.096759 -0.054691 0.053414 -0.167031
#
#
# Mechanical properties :
#
#
# Convention : Reuss Voigt Hill
#
# Bulk Modulus (GPa) = -28.84522 56.44912 13.80195
# Shear Modulus (GPa) = -17.60686 34.88485 8.63900
#
# Velocity S-wave (km/s) = -2.70098 3.80188 1.89196
# Velocity P-wave (km/s) = 4.65606 6.53160 3.23905
#
# Compressibility (1/GPa) = -0.03466779
#
# Stress axis : x y z
#
# Youngs Moduli (GPa) = -46.93740 -41.51023 -25.60180
#
# Poissons Ratio (x) = 1.27832 -1.12134
# Poissons Ratio (y) = 1.44545 0.97025
# Poissons Ratio (z) = -2.05583 1.57314
#
# Static dielectric constant tensor:
#      x y z
#    x 1.541370 0.293770 -0.570650 
#    y 0.293770 1.756570 0.147460 
#    z -0.570650 0.147460 1.697410 
# 
# From -- ./inp_files/483832.got.cif
#   From: 2010.05.17/outbox.cif.g08.bks.cpg/sg2_242_cif.got.tgz:483832.got - 2010.06.03 11:33:40.
