data_PCOD9052700
_publ_section_title
;
Structure prediction by ZEFSAII (Michael W. Deem and Ramdas Pophale) SiO2 
 PCOD9052700
Probable space group: P -1
;
_chemical_formula_sum "Si O2"
_cell_formula_units_Z 13
_cell_length_a 16.193208
_cell_length_b 9.114759
_cell_length_c 8.728281
_cell_angle_alpha 113.595634
_cell_angle_beta 81.535192
_cell_angle_gamma 41.865605
_cell_volume 540.078636
_symmetry_space_group_name_H-M "P -1"
_symmetry_group_IT_number 2
_symmetry_cell_setting 'triclinic'
loop_
_space_group_symop_operation_xyz
x,y,z
-x,-y,-z
loop_
_atom_site_type_symbol
_atom_site_label
_atom_site_fract_x
_atom_site_fract_y
_atom_site_fract_z
Si Si1 0.112290 0.848765 0.256026
Si Si2 0.139701 0.053926 0.969050
Si Si3 0.736438 0.773772 0.468920
Si Si4 0.539421 0.959584 0.150525
Si Si5 0.368025 0.871829 0.656947
Si Si6 0.000000 0.000000 0.000000
Si Si7 0.287233 0.886778 0.181699
O O1 0.181403 0.912680 0.282219
O O2 0.283339 0.443022 0.029864
O O3 0.000000 0.000000 0.500000
O O4 0.009890 0.998073 0.187556
O O5 0.923213 0.382276 0.186222
O O6 0.194915 0.775820 0.837510
O O7 0.235457 0.973568 0.053301
O O8 0.177782 0.106255 0.841396
O O9 0.614437 0.852475 0.619801
O O10 0.639220 0.034688 0.467933
O O11 0.780935 0.834680 0.605974
O O12 0.581741 0.071096 0.219556
O O13 0.500000 0.000000 0.000000
O O14 0.500000 0.500000 0.500000
O O15 0.500000 0.500000 0.000000
#
# Coordination Sequence:
#
# PCOD9052700 Si02
#       7
#     2   2   2   2   2   1   2
#     4  11  27  47  80 110 158 204 262 322 396 462
#     4  11  26  45  74 107 149 198 253 319 390 463
#     4  12  26  47  76 104 156 195 261 318 391 468
#     4  12  29  49  75 115 156 203 263 320 396 474
#     4  12  29  46  76 110 152 205 261 323 396 465
#     4  10  26  48  76 108 158 194 272 312 394 460
#     4  11  23  46  71 109 143 196 246 316 385 463
#
# _framework density 24.070568999999999
#
# number of rings (size 3 to 8) (size 9 to 14) (size 15 to 20)
#    0.000    0.615    1.538    4.154   15.077    0.000 
#    0.000    0.000    0.000    0.000    0.000    0.000 
#    0.000    0.000    0.000    0.000    0.000    0.000 
#
# Total GULP energy -72599.533079 kJ/mol
# GULP energy per Si atom -5584.579468 kJ/mol
# Density = 2.401578 g / cm^3
# Si number density = 24.070569 Si / 1000 Ang^3
#
#
#
# Elastic Constant Matrix: (Units=GPa)
#
#
# Indices 1 2 3 4 5 6 
#
# 1 155.3290 30.7020 50.4751 -42.0278 -12.8928 6.4618
# 2 30.7020 126.1196 39.4458 -16.0988 -14.6697 3.7763
# 3 50.4751 39.4458 124.4487 -8.2185 -29.7384 15.3298
# 4 -42.0278 -16.0988 -8.2185 44.4966 11.9391 0.8524
# 5 -12.8928 -14.6697 -29.7384 11.9391 43.6600 -9.5235
# 6 6.4618 3.7763 15.3298 0.8524 -9.5235 48.4326
#
#
#
# Elastic Compliance Matrix: (Units=1/GPa)
#
#
# Indices 1 2 3 4 5 6 
#
# 1 0.010142 -0.000315 -0.003898 0.009434 -0.002510 -0.000754
# 2 -0.000315 0.009157 -0.002478 0.002368 0.000694 0.000207
# 3 -0.003898 -0.002478 0.011993 -0.004204 0.006978 -0.001637
# 4 0.009434 0.002368 -0.004204 0.033957 -0.009114 -0.002502
# 5 -0.002510 0.000694 0.006978 -0.009114 0.030567 0.004243
# 6 -0.000754 0.000207 -0.001637 -0.002502 0.004243 0.022128
#
#
# Mechanical properties :
#
#
# Convention : Reuss Voigt Hill
#
# Bulk Modulus (GPa) = 55.83104 71.90477 63.86791
# Shear Modulus (GPa) = 36.41730 46.33614 41.37672
#
# Velocity S-wave (km/s) = 3.89387 4.39226 4.15055
# Velocity P-wave (km/s) = 6.59253 7.46056 7.03993
#
# Compressibility (1/GPa) = 0.01791118
#
# Stress axis : x y z
#
# Youngs Moduli (GPa) = 98.59701 109.20017 83.38051
#
# Poissons Ratio (x) = 0.03442 0.32498
# Poissons Ratio (y) = 0.03107 0.20663
# Poissons Ratio (z) = 0.38429 0.27062
#
# Static dielectric constant tensor:
#      x y z
#    x -0.680780 0.903480 -1.151640 
#    y 0.903480 1.264240 0.395400 
#    z -1.151640 0.395400 1.576730 
# 
# From -- ./inp_files/157795.got.cif
#   From: 2010.05.17/outbox.cif.g08.bks.cpg/sg2_79_cif.got.tgz:157795.got - 2010.06.03 11:33:40.
