data_PCOD9052670
_publ_section_title
;
Structure prediction by ZEFSAII (Michael W. Deem and Ramdas Pophale) SiO2 
 PCOD9052670
Probable space group: P -1
;
_chemical_formula_sum "Si O2"
_cell_formula_units_Z 16
_cell_length_a 27.631087
_cell_length_b 8.303563
_cell_length_c 20.585645
_cell_angle_alpha 31.447486
_cell_angle_beta 19.707810
_cell_angle_gamma 42.955446
_cell_volume 759.740420
_symmetry_space_group_name_H-M "P -1"
_symmetry_group_IT_number 2
_symmetry_cell_setting 'triclinic'
loop_
_space_group_symop_operation_xyz
x,y,z
-x,-y,-z
loop_
_atom_site_type_symbol
_atom_site_label
_atom_site_fract_x
_atom_site_fract_y
_atom_site_fract_z
Si Si1 0.261733 0.331168 0.890548
Si Si2 0.354325 0.846061 0.186505
Si Si3 0.461510 0.141845 0.375468
Si Si4 0.049046 0.563336 0.745735
Si Si5 0.152327 0.108687 0.845872
Si Si6 0.434679 0.296291 0.218826
Si Si7 0.543111 0.778493 0.207690
Si Si8 0.686704 0.938681 0.219557
O O1 0.373386 0.734637 0.613265
O O2 0.316023 0.160967 0.940072
O O3 0.284496 0.174560 0.848553
O O4 0.084260 0.297402 0.127393
O O5 0.201995 0.815507 0.428832
O O6 0.321112 0.467534 0.330616
O O7 0.500000 0.000000 0.000000
O O8 0.397899 0.071811 0.988949
O O9 0.608236 0.201009 0.216156
O O10 0.318869 0.215994 0.560036
O O11 0.524210 0.321822 0.165487
O O12 0.099473 0.417351 0.797153
O O13 0.968563 0.225147 0.921021
O O14 0.172590 0.991367 0.932786
O O15 0.420620 0.931221 0.337619
O O16 0.500000 0.500000 0.000000
O O17 0.446939 0.382549 0.467408
#
# Coordination Sequence:
#
# PCOD9052670 Si02
#       8
#     2   2   2   2   2   2   2   2
#     4  10  20  35  58  84 120 153 180 230 283 338
#     4  11  23  40  62  84 108 147 197 239 275 337
#     4  10  17  35  57  86 119 145 187 237 282 324
#     4  10  22  39  54  79 118 154 182 230 291 337
#     4  10  21  34  56  86 115 150 187 234 283 329
#     4  10  19  34  58  85 112 150 187 231 286 326
#     4  10  20  36  59  87 117 151 186 229 284 329
#     4  11  19  34  60  92 114 143 193 234 275 332
#
# _framework density 21.059826000000001
#
# number of rings (size 3 to 8) (size 9 to 14) (size 15 to 20)
#    0.000    1.750    3.750    1.875    0.000    1.000 
#    0.000    3.750    0.000    1.500    0.000    0.000 
#    0.000    0.000    0.000    0.000    0.000    0.000 
#
# Total GULP energy -89077.997776 kJ/mol
# GULP energy per Si atom -5567.374861 kJ/mol
# Density = 2.101189 g / cm^3
# Si number density = 21.059826 Si / 1000 Ang^3
#
#
#
# Elastic Constant Matrix: (Units=GPa)
#
#
# Indices 1 2 3 4 5 6 
#
# 1 158.3169 24.8221 40.1207 7.4651 16.7994 -25.6933
# 2 24.8221 77.7957 24.4759 19.3969 4.5326 -6.6310
# 3 40.1207 24.4759 66.8852 28.1640 6.6768 -7.0557
# 4 7.4651 19.3969 28.1640 24.3898 -5.5683 6.3524
# 5 16.7994 4.5326 6.6768 -5.5683 27.0791 -1.1501
# 6 -25.6933 -6.6310 -7.0557 6.3524 -1.1501 31.0798
#
#
#
# Elastic Compliance Matrix: (Units=1/GPa)
#
#
# Indices 1 2 3 4 5 6 
#
# 1 0.008882 -0.000811 -0.003936 -0.000076 -0.004159 0.006138
# 2 -0.000811 0.019614 0.008264 -0.030214 -0.010556 0.011175
# 3 -0.003936 0.008264 0.053681 -0.080463 -0.027614 0.026120
# 4 -0.000076 -0.030214 -0.080463 0.187746 0.060965 -0.060893
# 5 -0.004159 -0.010556 -0.027614 0.060965 0.059678 -0.022211
# 6 0.006138 0.011175 0.026120 -0.060893 -0.022211 0.057187
#
#
# Mechanical properties :
#
#
# Convention : Reuss Voigt Hill
#
# Bulk Modulus (GPa) = 11.20943 53.53725 32.37334
# Shear Modulus (GPa) = 12.21025 30.74833 21.47929
#
# Velocity S-wave (km/s) = 2.41049 3.82520 3.19708
# Velocity P-wave (km/s) = 3.61684 6.70718 5.38831
#
# Compressibility (1/GPa) = 0.08921059
#
# Stress axis : x y z
#
# Youngs Moduli (GPa) = 112.58477 50.98467 18.62840
#
# Poissons Ratio (x) = 0.04135 0.07333
# Poissons Ratio (y) = 0.09132 -0.15395
# Poissons Ratio (z) = 0.44318 -0.42134
#
# Static dielectric constant tensor:
#      x y z
#    x 1.824970 -0.027540 -0.024560 
#    y -0.027540 1.858600 -0.004490 
#    z -0.024560 -0.004490 1.742480 
# 
# From -- ./inp_files/252927.got.cif
#   From: 2010.05.17/outbox.cif.g08.bks.cpg/sg2_127_cif.got.tgz:252927.got - 2010.06.03 11:33:40.
