data_PCOD9052357
_publ_section_title
;
Structure prediction by ZEFSAII (Michael W. Deem and Ramdas Pophale) SiO2 
 PCOD9052357
Probable space group: P -1
;
_chemical_formula_sum "Si O2"
_cell_formula_units_Z 13
_cell_length_a 10.448595
_cell_length_b 14.646441
_cell_length_c 8.807377
_cell_angle_alpha 40.409450
_cell_angle_beta 42.534205
_cell_angle_gamma 60.632363
_cell_volume 582.936151
_symmetry_space_group_name_H-M "P -1"
_symmetry_group_IT_number 2
_symmetry_cell_setting 'triclinic'
loop_
_space_group_symop_operation_xyz
x,y,z
-x,-y,-z
loop_
_atom_site_type_symbol
_atom_site_label
_atom_site_fract_x
_atom_site_fract_y
_atom_site_fract_z
Si Si1 0.595801 0.791936 0.176237
Si Si2 0.500000 0.500000 0.000000
Si Si3 0.842673 0.407283 0.648505
Si Si4 0.095363 0.366506 0.952162
Si Si5 0.708511 0.455192 0.188886
Si Si6 0.539520 0.023981 0.680516
Si Si7 0.177313 0.918003 0.915352
O O1 0.813247 0.762731 0.033272
O O2 0.471069 0.637189 0.453165
O O3 0.517615 0.847287 0.331530
O O4 0.571911 0.901856 0.925932
O O5 0.635955 0.405164 0.906527
O O6 0.362539 0.504954 0.962746
O O7 0.845137 0.494367 0.380558
O O8 0.000000 0.500000 0.500000
O O9 0.888705 0.249964 0.789723
O O10 0.186499 0.408324 0.983664
O O11 0.867509 0.349712 0.176286
O O12 0.724719 0.060238 0.364644
O O13 0.353584 0.970557 0.808149
O O14 0.000000 0.000000 0.000000
#
# Coordination Sequence:
#
# PCOD9052357 Si02
#       7
#     2   1   2   2   2   2   2
#     4  11  23  45  70  97 140 188 238 294 346 431
#     4  12  24  40  70 102 146 178 232 296 354 420
#     4  12  26  43  72 110 139 187 236 297 357 422
#     4  11  25  42  68 104 147 178 238 293 367 417
#     4  11  24  41  65 106 138 185 227 295 359 423
#     4  10  26  45  69 101 136 194 242 279 360 429
#     4  11  27  47  71 102 147 187 236 296 355 429
#
# _framework density 22.300898
#
# number of rings (size 3 to 8) (size 9 to 14) (size 15 to 20)
#    0.000    0.923    3.077    2.308    4.308    4.923 
#    0.000    3.077    0.000    0.000    0.000    0.000 
#    0.000    0.000    0.000    0.000    0.000    0.000 
#
# Total GULP energy -72463.372711 kJ/mol
# GULP energy per Si atom -5574.105593 kJ/mol
# Density = 2.225014 g / cm^3
# Si number density = 22.300898 Si / 1000 Ang^3
#
#
#
# Elastic Constant Matrix: (Units=GPa)
#
#
# Indices 1 2 3 4 5 6 
#
# 1 126.9033 33.3876 26.2610 7.2997 8.4445 0.9177
# 2 33.3876 149.5958 22.3725 22.7924 -4.9581 -25.0398
# 3 26.2610 22.3725 38.4898 5.9534 8.7179 1.8798
# 4 7.2997 22.7924 5.9534 30.0208 7.0742 -9.0590
# 5 8.4445 -4.9581 8.7179 7.0742 27.3103 12.2426
# 6 0.9177 -25.0398 1.8798 -9.0590 12.2426 37.0802
#
#
#
# Elastic Compliance Matrix: (Units=1/GPa)
#
#
# Indices 1 2 3 4 5 6 
#
# 1 0.009443 -0.001444 -0.005292 -0.000016 -0.001250 -0.000532
# 2 -0.001444 0.009290 -0.004496 -0.005234 0.003013 0.004264
# 3 -0.005292 -0.004496 0.034465 -0.000451 -0.009307 -0.001690
# 4 -0.000016 -0.005234 -0.000451 0.046098 -0.019033 0.014035
# 5 -0.001250 0.003013 -0.009307 -0.019033 0.054458 -0.020093
# 6 -0.000532 0.004264 -0.001690 0.014035 -0.020093 0.040010
#
#
# Mechanical properties :
#
#
# Convention : Reuss Voigt Hill
#
# Bulk Modulus (GPa) = 32.53622 53.22568 42.88095
# Shear Modulus (GPa) = 22.07772 34.41345 28.24558
#
# Velocity S-wave (km/s) = 3.14983 3.93255 3.56275
# Velocity P-wave (km/s) = 5.27730 6.67374 6.01617
#
# Compressibility (1/GPa) = 0.03073498
#
# Stress axis : x y z
#
# Youngs Moduli (GPa) = 105.89871 107.63840 29.01490
#
# Poissons Ratio (x) = 0.15544 0.15354
# Poissons Ratio (y) = 0.15293 0.13045
# Poissons Ratio (z) = 0.56039 0.48392
#
# Static dielectric constant tensor:
#      x y z
#    x 1.814260 0.020200 0.002680 
#    y 0.020200 1.846330 0.031620 
#    z 0.002680 0.031620 1.834700 
# 
# From -- ./inp_files/198876.got.cif
#   From: 2010.05.17/outbox.cif.g08.bks.cpg/sg2_100_cif.got.tgz:198876.got - 2010.06.03 11:33:40.
