data_PCOD9052471
_publ_section_title
;
Structure prediction by ZEFSAII (Michael W. Deem and Ramdas Pophale) SiO2 
 PCOD9052471
Probable space group: P -1
;
_chemical_formula_sum "Si O2"
_cell_formula_units_Z 14
_cell_length_a 12.809815
_cell_length_b 11.185891
_cell_length_c 6.400440
_cell_angle_alpha 73.236431
_cell_angle_beta 117.073662
_cell_angle_gamma 138.092990
_cell_volume 543.484309
_symmetry_space_group_name_H-M "P -1"
_symmetry_group_IT_number 2
_symmetry_cell_setting 'triclinic'
loop_
_space_group_symop_operation_xyz
x,y,z
-x,-y,-z
loop_
_atom_site_type_symbol
_atom_site_label
_atom_site_fract_x
_atom_site_fract_y
_atom_site_fract_z
Si Si1 0.896034 0.679924 0.083171
Si Si2 0.000000 0.500000 0.500000
Si Si3 0.418975 0.258964 0.399167
Si Si4 0.536456 0.313121 0.920021
Si Si5 0.905744 0.241314 0.178670
Si Si6 0.500000 0.500000 0.000000
Si Si7 0.906593 0.007597 0.580920
Si Si8 0.586813 0.978290 0.757244
O O1 0.951476 0.595981 0.294975
O O2 0.976918 0.855018 0.194212
O O3 0.692516 0.527107 0.004134
O O4 0.960189 0.710869 0.889750
O O5 0.025226 0.593938 0.702048
O O6 0.524043 0.288447 0.676582
O O7 0.523405 0.433065 0.269227
O O8 0.352046 0.089348 0.294711
O O9 0.249952 0.188387 0.371116
O O10 0.397653 0.298192 0.899730
O O11 0.541014 0.187151 0.112778
O O12 0.845637 0.085775 0.360761
O O13 0.741348 0.152848 0.937423
O O14 0.000000 0.000000 0.500000
O O15 0.500000 0.000000 0.500000
#
# Coordination Sequence:
#
# PCOD9052471 Si02
#       8
#     2   1   2   2   2   1   2   2
#     4  11  26  45  72 108 147 195 253 306 378 448
#     4  10  26  46  72 102 152 188 250 312 372 442
#     4  11  24  48  73 109 148 199 255 311 380 463
#     4  11  26  45  72 108 147 195 253 306 378 448
#     4  11  24  48  73 109 148 199 255 311 380 463
#     4  10  26  46  72 102 152 188 250 312 372 442
#     4  11  26  45  76 108 153 200 254 314 384 456
#     4  11  26  45  76 108 153 200 254 314 384 456
#
# _framework density 25.759712
#
# number of rings (size 3 to 8) (size 9 to 14) (size 15 to 20)
#    0.000    1.143    2.857    0.857    8.000    5.714 
#    0.000    0.000    0.000    0.000    0.000    0.000 
#    0.000    0.000    0.000    0.000    0.000    0.000 
#
# Total GULP energy -77943.763063 kJ/mol
# GULP energy per Si atom -5567.411647 kJ/mol
# Density = 2.570108 g / cm^3
# Si number density = 25.759712 Si / 1000 Ang^3
#
#
#
# Elastic Constant Matrix: (Units=GPa)
#
#
# Indices 1 2 3 4 5 6 
#
# 1 69.9245 32.4706 37.8777 2.7953 -20.4239 -12.0236
# 2 32.4706 76.6244 59.5731 -4.6630 -11.3856 3.2350
# 3 37.8777 59.5731 192.1734 -2.9945 -23.0157 -3.3990
# 4 2.7953 -4.6630 -2.9945 52.7582 -16.9855 -6.0827
# 5 -20.4239 -11.3856 -23.0157 -16.9855 42.5596 0.7186
# 6 -12.0236 3.2350 -3.3990 -6.0827 0.7186 45.4535
#
#
#
# Elastic Compliance Matrix: (Units=1/GPa)
#
#
# Indices 1 2 3 4 5 6 
#
# 1 0.021718 -0.007479 -0.000805 0.001613 0.008524 0.006298
# 2 -0.007479 0.020204 -0.004851 0.001438 -0.000173 -0.003584
# 3 -0.000805 -0.004851 0.007202 0.000938 0.002572 0.000756
# 4 0.001613 0.001438 0.000938 0.022888 0.010745 0.003288
# 5 0.008524 -0.000173 0.002572 0.010745 0.033163 0.003373
# 6 0.006298 -0.003584 0.000756 0.003288 0.003373 0.024365
#
#
# Mechanical properties :
#
#
# Convention : Reuss Voigt Hill
#
# Bulk Modulus (GPa) = 43.75306 66.50723 55.13015
# Shear Modulus (GPa) = 30.59450 42.07432 36.33441
#
# Velocity S-wave (km/s) = 3.45002 4.04584 3.75975
# Velocity P-wave (km/s) = 5.73517 6.90648 6.34790
#
# Compressibility (1/GPa) = 0.02285554
#
# Stress axis : x y z
#
# Youngs Moduli (GPa) = 46.04432 49.49395 138.84789
#
# Poissons Ratio (x) = 0.37015 0.11176
# Poissons Ratio (y) = 0.34436 0.67354
# Poissons Ratio (z) = 0.03706 0.24009
#
# Static dielectric constant tensor:
#      x y z
#    x 1.726210 -0.052620 0.079590 
#    y -0.052620 1.999590 0.046670 
#    z 0.079590 0.046670 2.065640 
# 
# From -- ./inp_files/94826.got.cif
#   From: 2010.05.17/outbox.cif.g08.bks.cpg/sg2_48_cif.got.tgz:94826.got - 2010.06.03 11:33:40.
