data_PCOD9052724
_publ_section_title
;
Structure prediction by ZEFSAII (Michael W. Deem and Ramdas Pophale) SiO2 
 PCOD9052724
Probable space group: P -1
;
_chemical_formula_sum "Si O2"
_cell_formula_units_Z 16
_cell_length_a 5.593175
_cell_length_b 9.839454
_cell_length_c 26.043184
_cell_angle_alpha 38.273442
_cell_angle_beta 125.336021
_cell_angle_gamma 114.180952
_cell_volume 721.421925
_symmetry_space_group_name_H-M "P -1"
_symmetry_group_IT_number 2
_symmetry_cell_setting 'triclinic'
loop_
_space_group_symop_operation_xyz
x,y,z
-x,-y,-z
loop_
_atom_site_type_symbol
_atom_site_label
_atom_site_fract_x
_atom_site_fract_y
_atom_site_fract_z
Si Si1 0.741191 0.862001 0.916751
Si Si2 0.107986 0.861184 0.237925
Si Si3 0.368614 0.761199 0.059665
Si Si4 0.697981 0.302922 0.555467
Si Si5 0.655242 0.566859 0.375660
Si Si6 0.562125 0.679757 0.219230
Si Si7 0.791971 0.851879 0.748302
Si Si8 0.600635 0.359631 0.149156
O O1 0.557909 0.707932 0.903622
O O2 0.921603 0.992670 0.858877
O O3 0.551589 0.062769 0.861349
O O4 0.014259 0.758265 0.014257
O O5 0.440287 0.763550 0.314895
O O6 0.913273 0.662377 0.265462
O O7 0.015398 0.014776 0.227927
O O8 0.451621 0.643251 0.159541
O O9 0.515952 0.614665 0.075316
O O10 0.500000 0.000000 0.000000
O O11 0.500000 0.500000 0.500000
O O12 0.663999 0.353507 0.475747
O O13 0.022481 0.349513 0.602311
O O14 0.641941 0.052015 0.635963
O O15 0.523825 0.553176 0.305652
O O16 0.562339 0.753529 0.789034
O O17 0.048578 0.705729 0.792752
#
# Coordination Sequence:
#
# PCOD9052724 Si02
#       8
#     2   2   2   2   2   2   2   2
#     4  10  21  40  64  94 127 174 223 283 333 397
#     4  10  17  35  57  93 130 167 207 271 330 383
#     4  12  26  44  66  98 127 176 239 285 334 408
#     4  11  19  31  62 104 135 160 225 278 325 396
#     4  10  20  31  56  99 137 171 210 275 336 388
#     4  11  20  38  62  89 134 171 218 276 340 391
#     4  11  21  41  65  97 139 176 214 273 350 399
#     4  11  26  44  68  96 141 181 222 282 353 398
#
# _framework density 22.178422999999999
#
# number of rings (size 3 to 8) (size 9 to 14) (size 15 to 20)
#    0.000    1.250    5.000    2.250    1.750    2.000 
#    0.000    2.500    0.000    1.500    0.000    0.000 
#    0.000    0.000    0.000    0.000    0.000    0.000 
#
# Total GULP energy -89109.702134 kJ/mol
# GULP energy per Si atom -5569.356383 kJ/mol
# Density = 2.212794 g / cm^3
# Si number density = 22.178423 Si / 1000 Ang^3
#
#
#
# Elastic Constant Matrix: (Units=GPa)
#
#
# Indices 1 2 3 4 5 6 
#
# 1 95.1173 16.1736 46.8896 1.3027 17.5734 1.2451
# 2 16.1736 81.1919 21.9527 7.7892 11.5202 -5.5837
# 3 46.8896 21.9527 79.5561 15.9398 12.5603 15.7408
# 4 1.3027 7.7892 15.9398 33.3618 -12.9145 -12.1942
# 5 17.5734 11.5202 12.5603 -12.9145 43.1775 -9.7203
# 6 1.2451 -5.5837 15.7408 -12.1942 -9.7203 1.2083
#
#
#
# Elastic Compliance Matrix: (Units=1/GPa)
#
#
# Indices 1 2 3 4 5 6 
#
# 1 0.014837 -0.000673 -0.006109 -0.001896 -0.005939 -0.005727
# 2 -0.000673 0.013896 -0.001505 -0.004756 -0.004690 -0.001208
# 3 -0.006109 -0.001505 0.009114 0.007875 0.007882 0.023498
# 4 -0.001896 -0.004756 0.007875 0.012324 -0.004722 -0.036235
# 5 -0.005939 -0.004690 0.007882 -0.004722 0.017536 -0.024818
# 6 -0.005727 -0.001208 0.023498 -0.036235 -0.024818 -0.043519
#
#
# Mechanical properties :
#
#
# Convention : Reuss Voigt Hill
#
# Bulk Modulus (GPa) = 47.00809 47.32189 47.16499
# Shear Modulus (GPa) = 104.48570 26.93948 65.71259
#
# Velocity S-wave (km/s) = 6.87122 3.48899 5.44916
# Velocity P-wave (km/s) = 9.17568 6.13303 7.80407
#
# Compressibility (1/GPa) = 0.02127293
#
# Stress axis : x y z
#
# Youngs Moduli (GPa) = 67.39786 71.96140 109.72257
#
# Poissons Ratio (x) = 0.04846 0.67025
# Poissons Ratio (y) = 0.04538 0.16517
# Poissons Ratio (z) = 0.41171 0.10833
#
# Static dielectric constant tensor:
#      x y z
#    x 1.904660 0.007150 -0.063450 
#    y 0.007150 1.849530 -0.001160 
#    z -0.063450 -0.001160 1.893900 
# 
# From -- ./inp_files/615235.got.cif
#   From: 2010.05.17/outbox.cif.g08.bks.cpg/sg2_308_cif.got.tgz:615235.got - 2010.06.03 11:33:40.
