data_PCOD9052572
_publ_section_title
;
Structure prediction by ZEFSAII (Michael W. Deem and Ramdas Pophale) SiO2 
 PCOD9052572
Probable space group: P -1
;
_chemical_formula_sum "Si O2"
_cell_formula_units_Z 16
_cell_length_a 8.309281
_cell_length_b 18.938668
_cell_length_c 9.534083
_cell_angle_alpha 117.923412
_cell_angle_beta 63.856962
_cell_angle_gamma 145.353542
_cell_volume 749.065830
_symmetry_space_group_name_H-M "P -1"
_symmetry_group_IT_number 2
_symmetry_cell_setting 'triclinic'
loop_
_space_group_symop_operation_xyz
x,y,z
-x,-y,-z
loop_
_atom_site_type_symbol
_atom_site_label
_atom_site_fract_x
_atom_site_fract_y
_atom_site_fract_z
Si Si1 0.684054 0.324747 0.756738
Si Si2 0.361480 0.928939 0.134907
Si Si3 0.714106 0.290203 0.033733
Si Si4 0.829515 0.609285 0.522388
Si Si5 0.236756 0.900870 0.612938
Si Si6 0.133437 0.084414 0.164612
Si Si7 0.110537 0.473740 0.315004
Si Si8 0.044282 0.074916 0.682752
O O1 0.754664 0.342270 0.911810
O O2 0.657555 0.398647 0.748774
O O3 0.369272 0.179431 0.712123
O O4 0.961617 0.379623 0.630859
O O5 0.320751 0.818668 0.067443
O O6 0.069168 0.873553 0.240907
O O7 0.605655 0.046570 0.251743
O O8 0.500000 0.000000 0.000000
O O9 0.416590 0.224030 0.136647
O O10 0.910910 0.376848 0.172458
O O11 0.500000 0.500000 0.500000
O O12 0.821935 0.578006 0.658963
O O13 0.004644 0.750905 0.557263
O O14 0.067908 0.923909 0.690495
O O15 0.500000 0.000000 0.500000
O O16 0.174923 0.031042 0.212822
O O17 0.000000 0.000000 0.000000
O O18 0.000000 0.500000 0.500000
O O19 0.000000 0.000000 0.500000
#
# Coordination Sequence:
#
# PCOD9052572 Si02
#       8
#     2   2   2   2   2   2   2   2
#     4  11  25  47  70 105 142 194 248 296 361 440
#     4  12  23  41  67 106 143 187 235 300 363 430
#     4  12  24  45  72 102 147 188 248 303 365 439
#     4  11  26  48  74 105 148 191 241 301 372 441
#     4  12  25  44  70 106 144 185 243 299 359 439
#     4  12  23  42  69 104 142 189 235 298 377 432
#     4  10  26  47  70  98 139 189 243 295 363 440
#     4  12  25  41  71 109 149 186 241 306 367 429
#
# _framework density 21.359939000000001
#
# number of rings (size 3 to 8) (size 9 to 14) (size 15 to 20)
#    0.000    0.500    3.750    4.125    7.000    2.000 
#    0.000    1.250    0.000    0.000    0.000    0.000 
#    0.000    0.000    0.000    0.000    0.000    0.000 
#
# Total GULP energy -89104.906108 kJ/mol
# GULP energy per Si atom -5569.056632 kJ/mol
# Density = 2.131132 g / cm^3
# Si number density = 21.359939 Si / 1000 Ang^3
#
#
#
# Elastic Constant Matrix: (Units=GPa)
#
#
# Indices 1 2 3 4 5 6 
#
# 1 85.1219 45.4914 40.8194 -6.8615 1.6817 2.1813
# 2 45.4914 131.2012 53.0921 0.2183 9.4706 -5.1171
# 3 40.8194 53.0921 106.3717 -3.3096 18.7652 -1.8635
# 4 -6.8615 0.2183 -3.3096 31.0663 3.1387 11.8997
# 5 1.6817 9.4706 18.7652 3.1387 53.5953 -7.2667
# 6 2.1813 -5.1171 -1.8635 11.8997 -7.2667 40.2836
#
#
#
# Elastic Compliance Matrix: (Units=1/GPa)
#
#
# Indices 1 2 3 4 5 6 
#
# 1 0.016414 -0.004116 -0.004366 0.004072 0.001149 -0.002609
# 2 -0.004116 0.010658 -0.003766 -0.002161 -0.000033 0.002035
# 3 -0.004366 -0.003766 0.013717 0.001221 -0.004169 -0.000720
# 4 0.004072 -0.002161 0.001221 0.038455 -0.004126 -0.012542
# 5 0.001149 -0.000033 -0.004169 -0.004126 0.020973 0.004743
# 6 -0.002609 0.002035 -0.000720 -0.012542 0.004743 0.029751
#
#
# Mechanical properties :
#
#
# Convention : Reuss Voigt Hill
#
# Bulk Modulus (GPa) = 61.37542 66.83340 64.10441
# Shear Modulus (GPa) = 31.27071 37.20851 34.23961
#
# Velocity S-wave (km/s) = 3.83036 4.17823 4.00807
# Velocity P-wave (km/s) = 6.95403 7.39147 7.17608
#
# Compressibility (1/GPa) = 0.01629317
#
# Stress axis : x y z
#
# Youngs Moduli (GPa) = 60.92533 93.82349 72.90222
#
# Poissons Ratio (x) = 0.38616 0.31829
# Poissons Ratio (y) = 0.25076 0.27456
# Poissons Ratio (z) = 0.26600 0.35335
#
# Static dielectric constant tensor:
#      x y z
#    x 1.883590 -0.049430 0.031300 
#    y -0.049430 1.677800 -0.128280 
#    z 0.031300 -0.128280 1.450210 
# 
# From -- ./inp_files/223786.got.cif
#   From: 2010.05.17/outbox.cif.g08.bks.cpg/sg2_112_cif.got.tgz:223786.got - 2010.06.03 11:33:40.
