data_PCOD9052314
_publ_section_title
;
Structure prediction by ZEFSAII (Michael W. Deem and Ramdas Pophale) SiO2 
 PCOD9052314
Probable space group: P -1
;
_chemical_formula_sum "Si O2"
_cell_formula_units_Z 13
_cell_length_a 8.876484
_cell_length_b 15.798817
_cell_length_c 8.473597
_cell_angle_alpha 121.543632
_cell_angle_beta 33.267003
_cell_angle_gamma 118.858488
_cell_volume 552.921262
_symmetry_space_group_name_H-M "P -1"
_symmetry_group_IT_number 2
_symmetry_cell_setting 'triclinic'
loop_
_space_group_symop_operation_xyz
x,y,z
-x,-y,-z
loop_
_atom_site_type_symbol
_atom_site_label
_atom_site_fract_x
_atom_site_fract_y
_atom_site_fract_z
Si Si1 0.186593 0.164637 0.561791
Si Si2 0.000000 0.500000 0.000000
Si Si3 0.571758 0.912445 0.238168
Si Si4 0.623990 0.701085 0.948089
Si Si5 0.328121 0.708209 0.877580
Si Si6 0.898089 0.422680 0.649034
Si Si7 0.965599 0.031694 0.348932
O O1 0.474369 0.232913 0.367657
O O2 0.163554 0.082044 0.361158
O O3 0.107169 0.087300 0.696455
O O4 0.952423 0.238928 0.817549
O O5 0.766850 0.408611 0.174602
O O6 0.038331 0.540172 0.191453
O O7 0.316568 0.916462 0.343924
O O8 0.500000 0.000000 0.500000
O O9 0.583750 0.800492 0.176876
O O10 0.862442 0.939487 0.928035
O O11 0.504608 0.717783 0.893544
O O12 0.931312 0.672651 0.626853
O O13 0.426180 0.611365 0.107763
O O14 0.000000 0.500000 0.500000
#
# Coordination Sequence:
#
# PCOD9052314 Si02
#       7
#     2   1   2   2   2   2   2
#     4  11  21  38  67  93 134 171 217 285 341 409
#     4  10  26  44  74 106 134 178 242 288 346 418
#     4  12  24  42  65  95 136 185 232 274 337 429
#     4  11  22  43  71  91 132 185 229 276 357 413
#     4  11  21  40  66  98 131 175 227 283 349 411
#     4  11  25  47  72 101 140 179 229 293 352 412
#     4  11  22  40  63  97 130 176 230 274 342 405
#
# _framework density 23.511485
#
# number of rings (size 3 to 8) (size 9 to 14) (size 15 to 20)
#    0.000    0.923    3.077    4.615    0.000    8.000 
#    8.308    0.000    0.000    0.000    0.000    0.000 
#    0.000    0.000    0.000    0.000    0.000    0.000 
#
# Total GULP energy -72390.185861 kJ/mol
# GULP energy per Si atom -5568.475835 kJ/mol
# Density = 2.345797 g / cm^3
# Si number density = 23.511485 Si / 1000 Ang^3
#
#
#
# Elastic Constant Matrix: (Units=GPa)
#
#
# Indices 1 2 3 4 5 6 
#
# 1 27.1481 21.9284 7.5519 5.3901 5.3342 9.4418
# 2 21.9284 147.0892 31.0687 -32.4217 5.2721 9.6809
# 3 7.5519 31.0687 85.5406 -18.2032 -12.9141 1.2019
# 4 5.3901 -32.4217 -18.2032 51.7594 -3.3972 0.0383
# 5 5.3342 5.2721 -12.9141 -3.3972 21.6382 -1.5634
# 6 9.4418 9.6809 1.2019 0.0383 -1.5634 36.3275
#
#
#
# Elastic Compliance Matrix: (Units=1/GPa)
#
#
# Indices 1 2 3 4 5 6 
#
# 1 0.057987 -0.008776 -0.008188 -0.015749 -0.020479 -0.013326
# 2 -0.008776 0.009885 -0.001418 0.006602 -0.000078 -0.000317
# 3 -0.008188 -0.001418 0.016299 0.006568 0.013306 0.002532
# 4 -0.015749 0.006602 0.006568 0.028112 0.010792 0.002551
# 5 -0.020479 -0.000078 0.013306 0.010792 0.061462 0.007537
# 6 -0.013326 -0.000317 0.002532 0.002551 0.007537 0.031313
#
#
# Mechanical properties :
#
#
# Convention : Reuss Voigt Hill
#
# Bulk Modulus (GPa) = 21.09347 42.31954 31.70650
# Shear Modulus (GPa) = 19.40810 35.22694 27.31752
#
# Velocity S-wave (km/s) = 2.87622 3.87497 3.41233
# Velocity P-wave (km/s) = 4.47451 6.16921 5.38889
#
# Compressibility (1/GPa) = 0.04740804
#
# Stress axis : x y z
#
# Youngs Moduli (GPa) = 17.24536 101.15962 61.35300
#
# Poissons Ratio (x) = 0.88775 0.50235
# Poissons Ratio (y) = 0.15134 0.08699
# Poissons Ratio (z) = 0.14120 0.14344
#
# Static dielectric constant tensor:
#      x y z
#    x 2.053520 -0.035640 0.060470 
#    y -0.035640 1.928060 -0.025270 
#    z 0.060470 -0.025270 1.854300 
# 
# From -- ./inp_files/74940.got.cif
#   From: 2010.05.17/outbox.cif.g08.bks.cpg/sg2_38_cif.got.tgz:74940.got - 2010.06.03 11:33:40.
