data_PCOD9052131
_publ_section_title
;
Structure prediction by ZEFSAII (Michael W. Deem and Ramdas Pophale) SiO2 
 PCOD9052131
Probable space group: P -1
;
_chemical_formula_sum "Si O2"
_cell_formula_units_Z 15
_cell_length_a 6.895883
_cell_length_b 16.904481
_cell_length_c 17.964260
_cell_angle_alpha 25.751513
_cell_angle_beta 42.416315
_cell_angle_gamma 43.354155
_cell_volume 599.718014
_symmetry_space_group_name_H-M "P -1"
_symmetry_group_IT_number 2
_symmetry_cell_setting 'triclinic'
loop_
_space_group_symop_operation_xyz
x,y,z
-x,-y,-z
loop_
_atom_site_type_symbol
_atom_site_label
_atom_site_fract_x
_atom_site_fract_y
_atom_site_fract_z
Si Si1 0.290435 0.223183 0.420272
Si Si2 0.781644 0.406993 0.946882
Si Si3 0.717266 0.371269 0.604378
Si Si4 0.000000 0.000000 0.000000
Si Si5 0.045392 0.956338 0.611192
Si Si6 0.798841 0.633853 0.002102
Si Si7 0.119890 0.013581 0.783534
Si Si8 0.234537 0.582615 0.279083
O O1 0.640024 0.177824 0.342849
O O2 0.290817 0.114479 0.589847
O O3 0.178750 0.440776 0.254108
O O4 0.084694 0.133502 0.498136
O O5 0.499494 0.431401 0.841786
O O6 0.045979 0.382515 0.949456
O O7 0.801099 0.201550 0.082177
O O8 0.500000 0.500000 0.000000
O O9 0.500000 0.500000 0.500000
O O10 0.630199 0.404651 0.687048
O O11 0.788094 0.149348 0.753044
O O12 0.031773 0.433569 0.461126
O O13 0.022040 0.782382 0.158004
O O14 0.849662 0.970886 0.149977
O O15 0.795907 0.844576 0.798707
O O16 0.000000 0.000000 0.500000
O O17 0.000000 0.500000 0.000000
#
# Coordination Sequence:
#
# PCOD9052131 Si02
#       8
#     2   2   2   1   2   2   2   2
#     4  11  24  47  76 110 160 217 268 335 404 488
#     4  12  25  48  78 116 168 218 272 332 410 504
#     4  10  25  53  83 113 156 212 272 344 416 485
#     4  10  26  48  76 118 154 210 272 356 410 482
#     4  11  24  47  71 113 160 216 272 327 404 488
#     4  12  27  45  74 119 162 213 272 339 413 491
#     4  11  26  47  82 116 158 213 277 344 417 484
#     4  10  26  50  76 118 158 204 275 339 411 492
#
# _framework density 25.011754
#
# number of rings (size 3 to 8) (size 9 to 14) (size 15 to 20)
#    0.000    1.067    2.667    1.600    9.333    1.067 
#    0.000    2.667    0.000    0.000    0.000    0.000 
#    0.000    0.000    0.000    0.000    0.000    0.000 
#
# Total GULP energy -83550.747901 kJ/mol
# GULP energy per Si atom -5570.049860 kJ/mol
# Density = 2.495483 g / cm^3
# Si number density = 25.011754 Si / 1000 Ang^3
#
#
#
# Elastic Constant Matrix: (Units=GPa)
#
#
# Indices 1 2 3 4 5 6 
#
# 1 83.9828 34.9034 40.3650 17.6455 -1.7157 10.0992
# 2 34.9034 165.1455 77.6626 0.7175 -13.1681 10.3350
# 3 40.3650 77.6626 184.0799 2.9298 17.2387 9.5505
# 4 17.6455 0.7175 2.9298 57.1790 2.3678 7.4677
# 5 -1.7157 -13.1681 17.2387 2.3678 37.9888 -1.0701
# 6 10.0992 10.3350 9.5505 7.4677 -1.0701 20.8365
#
#
#
# Elastic Compliance Matrix: (Units=1/GPa)
#
#
# Indices 1 2 3 4 5 6 
#
# 1 0.015139 -0.001664 -0.002483 -0.004079 0.001380 -0.003842
# 2 -0.001664 0.008549 -0.003573 0.000641 0.004419 -0.001799
# 3 -0.002483 -0.003573 0.008010 0.000771 -0.005068 -0.001233
# 4 -0.004079 0.000641 0.000771 0.019525 -0.001692 -0.005779
# 5 0.001380 0.004419 -0.005068 -0.001692 0.030369 0.001629
# 6 -0.003842 -0.001799 -0.001233 -0.005779 0.001629 0.053467
#
#
# Mechanical properties :
#
#
# Convention : Reuss Voigt Hill
#
# Bulk Modulus (GPa) = 61.49961 82.11888 71.80925
# Shear Modulus (GPa) = 32.06800 41.88600 36.97700
#
# Velocity S-wave (km/s) = 3.58455 4.09669 3.84915
# Velocity P-wave (km/s) = 6.46326 7.43509 6.96614
#
# Compressibility (1/GPa) = 0.01626027
#
# Stress axis : x y z
#
# Youngs Moduli (GPa) = 66.05341 116.96973 124.83701
#
# Poissons Ratio (x) = 0.19464 0.30992
# Poissons Ratio (y) = 0.10991 0.44600
# Poissons Ratio (z) = 0.16399 0.41789
#
# Static dielectric constant tensor:
#      x y z
#    x 2.023070 -0.004520 -0.004540 
#    y -0.004520 2.160010 0.018990 
#    z -0.004540 0.018990 1.970210 
# 
# From -- ./inp_files/549918.got.cif
#   From: 2010.05.17/outbox.cif.g08.bks.cpg/sg2_275_cif.got.tgz:549918.got - 2010.06.03 11:33:40.
