data_PCOD9052778
_publ_section_title
;
Structure prediction by ZEFSAII (Michael W. Deem and Ramdas Pophale) SiO2 
 PCOD9052778
Probable space group: P -1
;
_chemical_formula_sum "Si O2"
_cell_formula_units_Z 15
_cell_length_a 9.465388
_cell_length_b 13.243081
_cell_length_c 9.402775
_cell_angle_alpha 52.438088
_cell_angle_beta 126.662125
_cell_angle_gamma 135.139305
_cell_volume 629.705623
_symmetry_space_group_name_H-M "P -1"
_symmetry_group_IT_number 2
_symmetry_cell_setting 'triclinic'
loop_
_space_group_symop_operation_xyz
x,y,z
-x,-y,-z
loop_
_atom_site_type_symbol
_atom_site_label
_atom_site_fract_x
_atom_site_fract_y
_atom_site_fract_z
Si Si1 0.665621 0.330260 0.807239
Si Si2 0.555424 0.900779 0.341242
Si Si3 0.500000 0.000000 0.500000
Si Si4 0.247063 0.281417 0.277192
Si Si5 0.045341 0.421164 0.467980
Si Si6 0.128408 0.741082 0.767880
Si Si7 0.804062 0.889408 0.876423
Si Si8 0.602305 0.622522 0.192656
O O1 0.574385 0.167744 0.820715
O O2 0.804800 0.449493 0.667615
O O3 0.483663 0.350415 0.736843
O O4 0.794064 0.340832 0.014257
O O5 0.660548 0.804764 0.512833
O O6 0.421910 0.887119 0.409240
O O7 0.721415 0.079176 0.281530
O O8 0.317074 0.038110 0.324994
O O9 0.132961 0.179425 0.157101
O O10 0.435087 0.448507 0.199998
O O11 0.095149 0.299719 0.273995
O O12 0.175099 0.355363 0.666147
O O13 0.000000 0.500000 0.500000
O O14 0.865345 0.298453 0.359335
O O15 0.635013 0.746102 0.992456
O O16 0.000000 0.000000 0.000000
#
# Coordination Sequence:
#
# PCOD9052778 Si02
#       8
#     2   2   1   2   2   2   2   2
#     4  12  26  49  76 110 152 199 258 317 389 464
#     4  11  25  44  74 105 147 207 244 324 389 450
#     4  10  26  50  68 112 164 188 262 316 394 458
#     4  11  25  48  72 106 155 196 256 318 386 464
#     4  12  29  47  77 112 155 200 257 318 385 464
#     4  12  27  45  76 112 151 197 261 315 386 463
#     4  11  28  46  80 114 154 205 260 323 395 463
#     4  12  26  50  75 108 152 203 258 314 395 462
#
# _framework density 23.820653
#
# number of rings (size 3 to 8) (size 9 to 14) (size 15 to 20)
#    0.000    0.533    2.667    3.600   11.200    1.067 
#    0.000    0.000    0.000    0.000    0.000    0.000 
#    0.000    0.000    0.000    0.000    0.000    0.000 
#
# Total GULP energy -83794.157085 kJ/mol
# GULP energy per Si atom -5586.277139 kJ/mol
# Density = 2.376644 g / cm^3
# Si number density = 23.820653 Si / 1000 Ang^3
#
#
#
# Elastic Constant Matrix: (Units=GPa)
#
#
# Indices 1 2 3 4 5 6 
#
# 1 118.5890 7.6189 38.2086 10.2568 -6.3431 -38.7138
# 2 7.6189 122.2060 29.1205 17.0466 -4.0066 -20.6179
# 3 38.2086 29.1205 78.5763 6.6620 -6.2193 -11.3882
# 4 10.2568 17.0466 6.6620 40.5938 -0.7805 -16.0894
# 5 -6.3431 -4.0066 -6.2193 -0.7805 32.8815 -1.8432
# 6 -38.7138 -20.6179 -11.3882 -16.0894 -1.8432 41.4747
#
#
#
# Elastic Compliance Matrix: (Units=1/GPa)
#
#
# Indices 1 2 3 4 5 6 
#
# 1 0.014976 0.002821 -0.006145 0.001862 0.002930 0.014546
# 2 0.002821 0.010294 -0.004055 -0.001998 0.001316 0.005921
# 3 -0.006145 -0.004055 0.016902 -0.000831 0.001308 -0.003375
# 4 0.001862 -0.001998 -0.000831 0.030008 0.001356 0.012218
# 5 0.002930 0.001316 0.001308 0.001356 0.031736 0.005685
# 6 0.014546 0.005921 -0.003375 0.012218 0.005685 0.044698
#
#
# Mechanical properties :
#
#
# Convention : Reuss Voigt Hill
#
# Bulk Modulus (GPa) = 36.47839 52.14082 44.30960
# Shear Modulus (GPa) = 28.98379 39.28488 34.13434
#
# Velocity S-wave (km/s) = 3.49198 4.06543 3.78957
# Velocity P-wave (km/s) = 5.62188 6.63125 6.14732
#
# Compressibility (1/GPa) = 0.02741349
#
# Stress axis : x y z
#
# Youngs Moduli (GPa) = 66.77535 97.14292 59.16316
#
# Poissons Ratio (x) = -0.27406 0.36358
# Poissons Ratio (y) = -0.18839 0.23992
# Poissons Ratio (z) = 0.41036 0.39393
#
# Static dielectric constant tensor:
#      x y z
#    x 1.900380 0.040330 -0.035290 
#    y 0.040330 1.914750 0.056270 
#    z -0.035290 0.056270 1.835170 
# 
# From -- ./inp_files/185425.got.cif
#   From: 2010.05.17/outbox.cif.g08.bks.cpg/sg2_93_cif.got.tgz:185425.got - 2010.06.03 11:33:40.
