data_PCOD9052762
_publ_section_title
;
Structure prediction by ZEFSAII (Michael W. Deem and Ramdas Pophale) SiO2 
 PCOD9052762
Probable space group: P -1
;
_chemical_formula_sum "Si O2"
_cell_formula_units_Z 16
_cell_length_a 14.988449
_cell_length_b 14.418272
_cell_length_c 16.147909
_cell_angle_alpha 32.221628
_cell_angle_beta 153.731235
_cell_angle_gamma 143.206513
_cell_volume 810.247848
_symmetry_space_group_name_H-M "P -1"
_symmetry_group_IT_number 2
_symmetry_cell_setting 'triclinic'
loop_
_space_group_symop_operation_xyz
x,y,z
-x,-y,-z
loop_
_atom_site_type_symbol
_atom_site_label
_atom_site_fract_x
_atom_site_fract_y
_atom_site_fract_z
Si Si1 0.171566 0.688109 0.901880
Si Si2 0.093739 0.603538 0.198928
Si Si3 0.560326 0.582997 0.398082
Si Si4 0.632105 0.211610 0.186128
Si Si5 0.768183 0.994381 0.018751
Si Si6 0.728132 0.959135 0.204992
Si Si7 0.090394 0.533382 0.681212
Si Si8 0.754067 0.640981 0.210070
O O1 0.255988 0.768158 0.823274
O O2 0.999326 0.521572 0.860612
O O3 0.124869 0.860243 0.781491
O O4 0.356068 0.616918 0.156253
O O5 0.313002 0.549358 0.440889
O O6 0.955017 0.558600 0.198503
O O7 0.120990 0.807299 0.045464
O O8 0.500000 0.500000 0.500000
O O9 0.715481 0.773643 0.381668
O O10 0.793430 0.268454 0.349830
O O11 0.476741 0.353233 0.957801
O O12 0.471343 0.029061 0.191202
O O13 0.760245 0.931763 0.155029
O O14 0.851254 0.849816 0.141051
O O15 0.500000 0.000000 0.000000
O O16 0.222580 0.436568 0.802180
O O17 0.879266 0.540157 0.453185
#
# Coordination Sequence:
#
# PCOD9052762 Si02
#       8
#     2   2   2   2   2   2   2   2
#     4  10  21  38  58  76 115 148 184 225 270 321
#     4  11  23  37  53  88 109 144 186 230 268 323
#     4  11  22  35  57  81 111 143 184 227 274 317
#     4   9  18  35  58  79 105 150 180 218 271 332
#     4  10  20  35  56  76 118 142 180 229 272 320
#     4  10  17  35  58  76 105 151 179 220 272 321
#     4  10  19  35  62  80 107 139 192 223 274 328
#     4   9  19  36  58  82 108 143 179 233 271 327
#
# _framework density 19.747043999999999
#
# number of rings (size 3 to 8) (size 9 to 14) (size 15 to 20)
#    0.750    1.250    2.500    3.375    0.000    3.000 
#    2.250    0.000    0.000    1.500    0.000    0.000 
#    0.000    0.000    0.000    0.000    0.000    0.000 
#
# Total GULP energy -89123.507166 kJ/mol
# GULP energy per Si atom -5570.219198 kJ/mol
# Density = 1.970210 g / cm^3
# Si number density = 19.747044 Si / 1000 Ang^3
#
#
#
# Elastic Constant Matrix: (Units=GPa)
#
#
# Indices 1 2 3 4 5 6 
#
# 1 59.3152 23.3510 -2.4895 2.5884 -9.1154 -18.0113
# 2 23.3510 113.3420 16.1388 -8.4890 -26.7334 -8.4623
# 3 -2.4895 16.1388 36.3051 -2.0012 -7.8239 -5.1958
# 4 2.5884 -8.4890 -2.0012 30.4943 1.0826 -2.2037
# 5 -9.1154 -26.7334 -7.8239 1.0826 21.3800 2.4978
# 6 -18.0113 -8.4623 -5.1958 -2.2037 2.4978 29.0028
#
#
#
# Elastic Compliance Matrix: (Units=1/GPa)
#
#
# Indices 1 2 3 4 5 6 
#
# 1 0.023919 -0.003294 0.006546 -0.001726 0.006886 0.014342
# 2 -0.003294 0.013570 -0.002937 0.003388 0.014268 0.000416
# 3 0.006546 -0.002937 0.032710 0.001014 0.010070 0.008278
# 4 -0.001726 0.003388 0.001014 0.034066 0.001851 0.002527
# 5 0.006886 0.014268 0.010070 0.001851 0.070639 0.004301
# 6 0.014342 0.000416 0.008278 0.002527 0.004301 0.044812
#
#
# Mechanical properties :
#
#
# Convention : Reuss Voigt Hill
#
# Bulk Modulus (GPa) = 14.11871 31.44032 22.77952
# Shear Modulus (GPa) = 20.60197 27.63952 24.12075
#
# Velocity S-wave (km/s) = 3.23351 3.74529 3.49877
# Velocity P-wave (km/s) = 4.59414 5.88719 5.28039
#
# Compressibility (1/GPa) = 0.07082800
#
# Stress axis : x y z
#
# Youngs Moduli (GPa) = 41.80759 73.69218 30.57212
#
# Poissons Ratio (x) = 0.24276 -0.20012
# Poissons Ratio (y) = 0.13772 0.08979
# Poissons Ratio (z) = -0.27367 0.21643
#
# Static dielectric constant tensor:
#      x y z
#    x 1.677560 0.007680 0.016930 
#    y 0.007680 1.773080 0.039310 
#    z 0.016930 0.039310 1.719010 
# 
# From -- ./inp_files/494852.got.cif
#   From: 2010.05.17/outbox.cif.g08.bks.cpg/sg2_248_cif.got.tgz:494852.got - 2010.06.03 11:33:40.
