data_PCOD9052947
_publ_section_title
;
Structure prediction by ZEFSAII (Michael W. Deem and Ramdas Pophale) SiO2 
 PCOD9052947
Probable space group: P -1
;
_chemical_formula_sum "Si O2"
_cell_formula_units_Z 16
_cell_length_a 18.266178
_cell_length_b 7.921097
_cell_length_c 8.905504
_cell_angle_alpha 68.716578
_cell_angle_beta 45.667359
_cell_angle_gamma 49.543181
_cell_volume 691.540264
_symmetry_space_group_name_H-M "P -1"
_symmetry_group_IT_number 2
_symmetry_cell_setting 'triclinic'
loop_
_space_group_symop_operation_xyz
x,y,z
-x,-y,-z
loop_
_atom_site_type_symbol
_atom_site_label
_atom_site_fract_x
_atom_site_fract_y
_atom_site_fract_z
Si Si1 0.670265 0.986459 0.190121
Si Si2 0.355586 0.349190 0.010974
Si Si3 0.138319 0.391831 0.491724
Si Si4 0.278359 0.410371 0.555692
Si Si5 0.512976 0.267963 0.058641
Si Si6 0.427162 0.400927 0.574806
Si Si7 0.059664 0.137640 0.531261
Si Si8 0.170041 0.872358 0.161073
O O1 0.630360 0.063950 0.048710
O O2 0.542067 0.180541 0.396336
O O3 0.706075 0.763101 0.288144
O O4 0.788690 0.997094 0.033685
O O5 0.254285 0.315726 0.235194
O O6 0.492300 0.214301 0.939165
O O7 0.286743 0.611710 0.065596
O O8 0.378911 0.336298 0.806033
O O9 0.168056 0.453582 0.590077
O O10 0.115704 0.199868 0.566038
O O11 0.016317 0.631787 0.531773
O O12 0.391208 0.315281 0.304736
O O13 0.310319 0.548805 0.575589
O O14 0.500000 0.500000 0.000000
O O15 0.500000 0.500000 0.500000
O O16 0.953149 0.100643 0.735869
O O17 0.147576 0.943518 0.346107
#
# Coordination Sequence:
#
# PCOD9052947 Si02
#       8
#     2   2   2   2   2   2   2   2
#     4  11  22  39  57  89 135 160 188 250 308 356
#     4  10  19  34  61  92 115 159 205 236 292 368
#     4   9  20  42  63  87 115 155 209 255 302 356
#     4  10  23  39  59  88 131 159 196 250 309 362
#     4  10  17  35  58  84 117 162 202 236 276 362
#     4  11  20  37  58  91 127 165 190 236 299 370
#     4   9  20  39  68  88 110 150 216 267 294 344
#     4  10  19  37  63  88 117 152 198 258 306 343
#
# _framework density 23.136758
#
# number of rings (size 3 to 8) (size 9 to 14) (size 15 to 20)
#    0.000    2.000    2.500    2.250    1.750    0.000 
#    2.250    4.375    0.000    0.000    0.000    0.000 
#    0.000    0.000    0.000    0.000    0.000    0.000 
#
# Total GULP energy -89148.727536 kJ/mol
# GULP energy per Si atom -5571.795471 kJ/mol
# Density = 2.308410 g / cm^3
# Si number density = 23.136758 Si / 1000 Ang^3
#
#
#
# Elastic Constant Matrix: (Units=GPa)
#
#
# Indices 1 2 3 4 5 6 
#
# 1 150.8925 10.6476 27.3709 -4.6097 16.4868 13.9672
# 2 10.6476 47.2346 11.2549 -8.2922 -0.9391 15.3521
# 3 27.3709 11.2549 78.2267 -10.9507 -4.4666 2.2259
# 4 -4.6097 -8.2922 -10.9507 29.3604 12.1640 -2.3056
# 5 16.4868 -0.9391 -4.4666 12.1640 42.6713 -8.2110
# 6 13.9672 15.3521 2.2259 -2.3056 -8.2110 24.2341
#
#
#
# Elastic Compliance Matrix: (Units=1/GPa)
#
#
# Indices 1 2 3 4 5 6 
#
# 1 0.008400 0.001432 -0.002927 0.002380 -0.005573 -0.007141
# 2 0.001432 0.029790 -0.003385 0.008510 -0.006689 -0.020843
# 3 -0.002927 -0.003385 0.014805 0.003427 0.002318 0.003583
# 4 0.002380 0.008510 0.003427 0.043405 -0.014242 -0.007774
# 5 -0.005573 -0.006689 0.002318 -0.014242 0.033029 0.017072
# 6 -0.007141 -0.020843 0.003583 -0.007774 0.017072 0.063299
#
#
# Mechanical properties :
#
#
# Convention : Reuss Voigt Hill
#
# Bulk Modulus (GPa) = 23.12933 41.65562 32.39247
# Shear Modulus (GPa) = 23.05233 34.39185 28.72209
#
# Velocity S-wave (km/s) = 3.15993 3.85965 3.52718
# Velocity P-wave (km/s) = 4.83032 6.15676 5.53343
#
# Compressibility (1/GPa) = 0.04323515
#
# Stress axis : x y z
#
# Youngs Moduli (GPa) = 119.05195 33.56840 67.54665
#
# Poissons Ratio (x) = -0.04807 0.19770
# Poissons Ratio (y) = -0.17047 0.22862
# Poissons Ratio (z) = 0.34845 0.11361
#
# Static dielectric constant tensor:
#      x y z
#    x 2.080440 0.047070 -0.007250 
#    y 0.047070 1.961130 -0.019920 
#    z -0.007250 -0.019920 1.835050 
# 
# From -- ./inp_files/325886.got.cif
#   From: 2010.05.17/outbox.cif.g08.bks.cpg/sg2_163_cif.got.tgz:325886.got - 2010.06.03 11:33:40.
