data_PCOD9052266
_publ_section_title
;
Structure prediction by ZEFSAII (Michael W. Deem and Ramdas Pophale) SiO2 
 PCOD9052266
Probable space group: P -1
;
_chemical_formula_sum "Si O2"
_cell_formula_units_Z 14
_cell_length_a 7.782090
_cell_length_b 12.294915
_cell_length_c 6.179151
_cell_angle_alpha 78.396322
_cell_angle_beta 93.475594
_cell_angle_gamma 102.696133
_cell_volume 564.895130
_symmetry_space_group_name_H-M "P -1"
_symmetry_group_IT_number 2
_symmetry_cell_setting 'triclinic'
loop_
_space_group_symop_operation_xyz
x,y,z
-x,-y,-z
loop_
_atom_site_type_symbol
_atom_site_label
_atom_site_fract_x
_atom_site_fract_y
_atom_site_fract_z
Si Si1 0.621015 0.205992 0.652949
Si Si2 0.811161 0.594556 0.762771
Si Si3 0.866785 0.361960 0.911493
Si Si4 0.467240 0.650690 0.784365
Si Si5 0.322858 0.146077 0.001131
Si Si6 0.752130 0.020125 0.568435
Si Si7 0.874887 0.825887 0.417312
O O1 0.572717 0.309422 0.474725
O O2 0.484427 0.153812 0.847494
O O3 0.625060 0.108334 0.514106
O O4 0.797718 0.259502 0.780820
O O5 0.600210 0.564232 0.807387
O O6 0.837850 0.698852 0.555446
O O7 0.947722 0.634289 0.956951
O O8 0.870492 0.480336 0.740056
O O9 0.713955 0.363815 0.084576
O O10 0.603620 0.753439 0.868577
O O11 0.161717 0.170799 0.840164
O O12 0.267549 0.029305 0.170695
O O13 0.936314 0.107880 0.517297
O O14 0.755574 0.911175 0.467950
#
# Coordination Sequence:
#
# PCOD9052266 Si02
#       7
#     2   2   2   2   2   2   2
#     4  11  24  43  66 101 135 170 223 272 332 394
#     4  11  22  49  68  95 138 169 228 274 330 396
#     4  10  26  44  70 100 129 178 220 278 333 395
#     4  11  23  45  68 101 135 173 223 275 329 400
#     4  11  22  41  65  98 131 178 217 268 337 386
#     4  11  24  40  65  96 135 173 221 272 326 396
#     4  11  24  42  65  98 132 176 221 272 328 398
#
# _framework density 24.783359999999998
#
# number of rings (size 3 to 8) (size 9 to 14) (size 15 to 20)
#    0.000    1.143    2.857    2.143    2.000    7.429 
#    2.571    2.143    0.000    0.000    0.000    0.000 
#    0.000    0.000    0.000    0.000    0.000    0.000 
#
# Total GULP energy -78182.718565 kJ/mol
# GULP energy per Si atom -5584.479897 kJ/mol
# Density = 2.472695 g / cm^3
# Si number density = 24.783360 Si / 1000 Ang^3
#
#
#
# Elastic Constant Matrix: (Units=GPa)
#
#
# Indices 1 2 3 4 5 6 
#
# 1 75.1478 -9.9464 10.4259 -6.6195 10.1949 -17.4315
# 2 -9.9464 71.5939 10.7900 -9.7430 1.1430 -2.8072
# 3 10.4259 10.7900 61.8760 -12.3449 11.4212 -1.0860
# 4 -6.6195 -9.7430 -12.3449 36.7465 -1.7065 -0.7109
# 5 10.1949 1.1430 11.4212 -1.7065 34.5015 -5.9996
# 6 -17.4315 -2.8072 -1.0860 -0.7109 -5.9996 34.9160
#
#
#
# Elastic Compliance Matrix: (Units=1/GPa)
#
#
# Indices 1 2 3 4 5 6 
#
# 1 0.016582 0.003419 -0.002098 0.003217 -0.002754 0.008080
# 2 0.003419 0.015463 -0.002430 0.003956 -0.000009 0.002953
# 3 -0.002098 -0.002430 0.018952 0.005056 -0.005586 -0.001510
# 4 0.003217 0.003956 0.005056 0.030553 -0.000798 0.002566
# 5 -0.002754 -0.000009 -0.005586 -0.000798 0.032301 0.003984
# 6 0.008080 0.002953 -0.001510 0.002566 0.003984 0.033602
#
#
# Mechanical properties :
#
#
# Convention : Reuss Voigt Hill
#
# Bulk Modulus (GPa) = 20.50090 25.68409 23.09250
# Shear Modulus (GPa) = 30.13309 34.38935 32.26122
#
# Velocity S-wave (km/s) = 3.49070 3.72909 3.61186
# Velocity P-wave (km/s) = 4.95345 5.37842 5.17030
#
# Compressibility (1/GPa) = 0.04877834
#
# Stress axis : x y z
#
# Youngs Moduli (GPa) = 60.30625 64.67010 52.76537
#
# Poissons Ratio (x) = -0.22108 0.11071
# Poissons Ratio (y) = -0.20616 0.12820
# Poissons Ratio (z) = 0.12653 0.15713
#
# Static dielectric constant tensor:
#      x y z
#    x 2.080880 -0.042470 -0.057380 
#    y -0.042470 1.949080 0.035950 
#    z -0.057380 0.035950 1.948220 
# 
# From -- ./inp_files/27116.got.cif
#   From: 2010.05.17/outbox.cif.g08.bks.cpg/sg2_14_cif.got.tgz:27116.got - 2010.06.03 11:33:40.
