data_PCOD9052367
_publ_section_title
;
Structure prediction by ZEFSAII (Michael W. Deem and Ramdas Pophale) SiO2 
 PCOD9052367
Probable space group: P -1
;
_chemical_formula_sum "Si O2"
_cell_formula_units_Z 10
_cell_length_a 5.075616
_cell_length_b 8.329013
_cell_length_c 12.243626
_cell_angle_alpha 74.419625
_cell_angle_beta 129.104116
_cell_angle_gamma 114.409838
_cell_volume 365.730372
_symmetry_space_group_name_H-M "P -1"
_symmetry_group_IT_number 2
_symmetry_cell_setting 'triclinic'
loop_
_space_group_symop_operation_xyz
x,y,z
-x,-y,-z
loop_
_atom_site_type_symbol
_atom_site_label
_atom_site_fract_x
_atom_site_fract_y
_atom_site_fract_z
Si Si1 0.124822 0.537128 0.904065
Si Si2 0.452870 0.807270 0.681295
Si Si3 0.421104 0.937881 0.866441
Si Si4 0.856212 0.445917 0.627261
Si Si5 0.049389 0.897592 0.396411
O O1 0.149693 0.738282 0.848389
O O2 0.873393 0.426552 0.764727
O O3 0.500000 0.500000 0.000000
O O4 0.000000 0.500000 0.000000
O O5 0.638141 0.883762 0.831663
O O6 0.105459 0.865838 0.545053
O O7 0.241573 0.598567 0.670732
O O8 0.700332 0.921101 0.629280
O O9 0.318417 0.090968 0.749896
O O10 0.500000 0.000000 0.000000
O O11 0.500000 0.500000 0.500000
O O12 0.870273 0.269508 0.606614
#
# Coordination Sequence:
#
# PCOD9052367 Si02
#       5
#     2   2   2   2   2
#     4  11  28  50  75 109 155 199 252 314 384 458
#     4  10  26  45  70 105 146 183 248 301 387 432
#     4  11  26  44  74 102 146 194 250 310 374 458
#     4  11  27  45  76 110 146 198 251 312 378 454
#     4  11  25  45  74 103 149 188 246 316 375 450
#
# _framework density 27.342549000000002
#
# number of rings (size 3 to 8) (size 9 to 14) (size 15 to 20)
#    0.000    1.200    0.000    2.400   22.400    2.400 
#    0.000    0.000    0.000    0.000    0.000    0.000 
#    0.000    0.000    0.000    0.000    0.000    0.000 
#
# Total GULP energy -55769.050522 kJ/mol
# GULP energy per Si atom -5576.905052 kJ/mol
# Density = 2.728032 g / cm^3
# Si number density = 27.342549 Si / 1000 Ang^3
#
#
#
# Elastic Constant Matrix: (Units=GPa)
#
#
# Indices 1 2 3 4 5 6 
#
# 1 111.3208 45.3779 32.7217 -4.7829 -15.1563 9.6752
# 2 45.3779 166.5869 15.5961 -1.5376 10.2267 10.0860
# 3 32.7217 15.5961 180.1234 -0.1046 -35.5236 -12.3653
# 4 -4.7829 -1.5376 -0.1046 52.8075 -9.2739 -3.2313
# 5 -15.1563 10.2267 -35.5236 -9.2739 56.5523 -20.0856
# 6 9.6752 10.0860 -12.3653 -3.2313 -20.0856 55.6339
#
#
#
# Elastic Compliance Matrix: (Units=1/GPa)
#
#
# Indices 1 2 3 4 5 6 
#
# 1 0.011062 -0.003017 -0.001247 0.001357 0.002741 -0.000585
# 2 -0.003017 0.007286 -0.000989 -0.000870 -0.003749 -0.002420
# 3 -0.001247 -0.000989 0.007396 0.001237 0.006244 0.004366
# 4 0.001357 -0.000870 0.001237 0.020280 0.005863 0.003491
# 5 0.002741 -0.003749 0.006244 0.005863 0.028293 0.012146
# 6 -0.000585 -0.002420 0.004366 0.003491 0.012146 0.024073
#
#
# Mechanical properties :
#
#
# Convention : Reuss Voigt Hill
#
# Bulk Modulus (GPa) = 65.62574 71.71360 68.66967
# Shear Modulus (GPa) = 43.86938 57.28775 50.57856
#
# Velocity S-wave (km/s) = 4.00989 4.58229 4.30561
# Velocity P-wave (km/s) = 6.74480 7.36758 7.06306
#
# Compressibility (1/GPa) = 0.01523792
#
# Stress axis : x y z
#
# Youngs Moduli (GPa) = 90.40136 137.25119 135.21317
#
# Poissons Ratio (x) = 0.41406 0.16861
# Poissons Ratio (y) = 0.27272 0.13372
# Poissons Ratio (z) = 0.11273 0.13573
#
# Static dielectric constant tensor:
#      x y z
#    x 2.751360 -0.041350 0.158040 
#    y -0.041350 2.153530 0.115610 
#    z 0.158040 0.115610 2.371840 
# 
# From -- ./inp_files/15574.got.cif
#   From: 2010.05.17/outbox.cif.g08.bks.cpg/sg2_8_cif.got.tgz:15574.got - 2010.06.03 11:33:40.
