data_PCOD9052445
_publ_section_title
;
Structure prediction by ZEFSAII (Michael W. Deem and Ramdas Pophale) SiO2 
 PCOD9052445
Probable space group: P -1
;
_chemical_formula_sum "Si O2"
_cell_formula_units_Z 13
_cell_length_a 14.682699
_cell_length_b 5.331921
_cell_length_c 11.065138
_cell_angle_alpha 52.606631
_cell_angle_beta 48.141985
_cell_angle_gamma 74.778693
_cell_volume 497.467253
_symmetry_space_group_name_H-M "P -1"
_symmetry_group_IT_number 2
_symmetry_cell_setting 'triclinic'
loop_
_space_group_symop_operation_xyz
x,y,z
-x,-y,-z
loop_
_atom_site_type_symbol
_atom_site_label
_atom_site_fract_x
_atom_site_fract_y
_atom_site_fract_z
Si Si1 0.158516 0.721948 0.570892
Si Si2 0.422370 0.251508 0.544283
Si Si3 0.694045 0.631364 0.854018
Si Si4 0.433978 0.626631 0.184685
Si Si5 0.833857 0.201774 0.003306
Si Si6 0.026148 0.224409 0.641566
Si Si7 0.000000 0.500000 0.000000
O O1 0.117306 0.417164 0.608103
O O2 0.271329 0.987301 0.326463
O O3 0.065015 0.966628 0.596442
O O4 0.138428 0.604875 0.762196
O O5 0.500000 0.500000 0.500000
O O6 0.396509 0.472039 0.392148
O O7 0.500000 0.000000 0.500000
O O8 0.292924 0.045838 0.773392
O O9 0.677185 0.464939 0.786778
O O10 0.556390 0.492056 0.075736
O O11 0.793391 0.506420 0.884628
O O12 0.500000 0.000000 0.000000
O O13 0.925382 0.321971 0.999284
O O14 0.907964 0.045343 0.880748
O O15 0.000000 0.500000 0.500000
#
# Coordination Sequence:
#
# PCOD9052445 Si02
#       7
#     2   2   2   2   2   2   1
#     4  11  25  45  69 105 140 194 238 306 363 450
#     4  12  27  49  79 114 154 203 254 318 391 451
#     4  11  24  45  76 103 150 197 254 317 377 447
#     4  11  26  47  73 112 147 200 265 311 385 453
#     4  11  24  48  76 109 156 202 248 321 378 461
#     4  11  24  42  73 102 142 185 251 287 369 442
#     4  10  26  46  70 110 154 196 252 300 388 450
#
# _framework density 26.132373999999999
#
# number of rings (size 3 to 8) (size 9 to 14) (size 15 to 20)
#    0.000    0.923    3.077    2.308    6.462    6.154 
#    2.769    0.000    0.000    0.000    0.000    0.000 
#    0.000    0.000    0.000    0.000    0.000    0.000 
#
# Total GULP energy -72511.894703 kJ/mol
# GULP energy per Si atom -5577.838054 kJ/mol
# Density = 2.607290 g / cm^3
# Si number density = 26.132374 Si / 1000 Ang^3
#
#
#
# Elastic Constant Matrix: (Units=GPa)
#
#
# Indices 1 2 3 4 5 6 
#
# 1 135.7989 40.1397 46.9565 -7.5553 15.0806 22.9575
# 2 40.1397 77.8943 32.8396 -7.5766 -5.3642 8.9510
# 3 46.9565 32.8396 236.5729 6.4711 7.2618 11.1013
# 4 -7.5553 -7.5766 6.4711 64.0546 -4.8875 2.8924
# 5 15.0806 -5.3642 7.2618 -4.8875 54.2069 -5.8051
# 6 22.9575 8.9510 11.1013 2.8924 -5.8051 42.3850
#
#
#
# Elastic Compliance Matrix: (Units=1/GPa)
#
#
# Indices 1 2 3 4 5 6 
#
# 1 0.010347 -0.004476 -0.001111 0.000748 -0.003632 -0.004917
# 2 -0.004476 0.016201 -0.001493 0.001795 0.003179 -0.000293
# 3 -0.001111 -0.001493 0.004711 -0.000812 -0.000580 -0.000341
# 4 0.000748 0.001795 -0.000812 0.016166 0.001377 -0.001486
# 5 -0.003632 0.003179 -0.000580 0.001377 0.020419 0.004150
# 6 -0.004917 -0.000293 -0.000341 -0.001486 0.004150 0.027077
#
#
# Mechanical properties :
#
#
# Convention : Reuss Voigt Hill
#
# Bulk Modulus (GPa) = 58.48373 76.68197 67.58285
# Shear Modulus (GPa) = 43.56088 54.15133 48.85611
#
# Velocity S-wave (km/s) = 4.08724 4.55707 4.32853
# Velocity P-wave (km/s) = 6.68598 7.55623 7.13439
#
# Compressibility (1/GPa) = 0.01709877
#
# Stress axis : x y z
#
# Youngs Moduli (GPa) = 96.64604 61.72359 212.27820
#
# Poissons Ratio (x) = 0.27628 0.23577
# Poissons Ratio (y) = 0.43259 0.31703
# Poissons Ratio (z) = 0.10734 0.09218
#
# Static dielectric constant tensor:
#      x y z
#    x 2.060470 -0.185520 -0.140710 
#    y -0.185520 2.238670 0.296190 
#    z -0.140710 0.296190 3.228710 
# 
# From -- ./inp_files/440831.got.cif
#   From: 2010.05.17/outbox.cif.g08.bks.cpg/sg2_221_cif.got.tgz:440831.got - 2010.06.03 11:33:40.
