data_PCOD9052248
_publ_section_title
;
Structure prediction by ZEFSAII (Michael W. Deem and Ramdas Pophale) SiO2 
 PCOD9052248
Probable space group: P -1
;
_chemical_formula_sum "Si O2"
_cell_formula_units_Z 15
_cell_length_a 11.227503
_cell_length_b 6.579144
_cell_length_c 13.228078
_cell_angle_alpha 52.041895
_cell_angle_beta 61.162878
_cell_angle_gamma 85.776792
_cell_volume 638.733634
_symmetry_space_group_name_H-M "P -1"
_symmetry_group_IT_number 2
_symmetry_cell_setting 'triclinic'
loop_
_space_group_symop_operation_xyz
x,y,z
-x,-y,-z
loop_
_atom_site_type_symbol
_atom_site_label
_atom_site_fract_x
_atom_site_fract_y
_atom_site_fract_z
Si Si1 0.945681 0.381698 0.447119
Si Si2 0.453184 0.075537 0.716642
Si Si3 0.658869 0.569600 0.010119
Si Si4 0.819399 0.723053 0.255442
Si Si5 0.923531 0.713440 0.997807
Si Si6 0.439350 0.524907 0.279041
Si Si7 0.794887 0.735250 0.697541
Si Si8 0.500000 0.000000 0.500000
O O1 0.843767 0.528720 0.391585
O O2 0.000000 0.500000 0.500000
O O3 0.082722 0.411228 0.307737
O O4 0.868235 0.057560 0.580293
O O5 0.325323 0.198822 0.705680
O O6 0.545865 0.232444 0.723784
O O7 0.540477 0.090331 0.574107
O O8 0.377493 0.756483 0.868466
O O9 0.542898 0.640611 0.105536
O O10 0.810258 0.716686 0.957464
O O11 0.680180 0.649809 0.860687
O O12 0.838582 0.621616 0.165822
O O13 0.953794 0.999564 0.128418
O O14 0.000000 0.500000 0.000000
O O15 0.285512 0.360841 0.345968
O O16 0.494268 0.305080 0.381314
#
# Coordination Sequence:
#
# PCOD9052248 Si02
#       8
#     2   2   2   2   2   2   2   1
#     4  11  27  46  69 101 140 192 235 285 346 419
#     4  11  24  43  71 108 134 181 230 294 351 412
#     4  11  23  44  69 105 137 178 236 283 354 414
#     4  11  24  40  72 105 136 178 236 284 352 413
#     4  11  21  39  68 105 141 176 221 297 345 409
#     4  11  25  45  71 102 138 185 228 291 349 417
#     4  11  27  47  69  99 145 188 233 284 348 418
#     4  10  26  44  68 100 140 174 232 284 350 416
#
# _framework density 23.483968000000001
#
# number of rings (size 3 to 8) (size 9 to 14) (size 15 to 20)
#    0.000    1.067    2.667    2.400    5.600    4.800 
#    0.000    0.000    0.000    0.000    0.000    0.000 
#    0.000    0.000    0.000    0.000    0.000    0.000 
#
# Total GULP energy -83750.348352 kJ/mol
# GULP energy per Si atom -5583.356557 kJ/mol
# Density = 2.343052 g / cm^3
# Si number density = 23.483968 Si / 1000 Ang^3
#
#
#
# Elastic Constant Matrix: (Units=GPa)
#
#
# Indices 1 2 3 4 5 6 
#
# 1 69.4342 34.4250 4.3956 -7.5071 -2.9272 20.8409
# 2 34.4250 161.2412 27.3985 19.5282 0.6364 27.7230
# 3 4.3956 27.3985 66.7592 16.5131 10.1212 2.8741
# 4 -7.5071 19.5282 16.5131 26.5785 0.8956 0.9868
# 5 -2.9272 0.6364 10.1212 0.8956 27.7808 2.9149
# 6 20.8409 27.7230 2.8741 0.9868 2.9149 46.9410
#
#
#
# Elastic Compliance Matrix: (Units=1/GPa)
#
#
# Indices 1 2 3 4 5 6 
#
# 1 0.019735 -0.003872 -0.002430 0.010064 0.003437 -0.006751
# 2 -0.003872 0.008617 -0.001672 -0.006287 0.000539 -0.003169
# 3 -0.002430 -0.001672 0.019695 -0.011510 -0.007184 0.001548
# 4 0.010064 -0.006287 -0.011510 0.052158 0.003862 -0.001387
# 5 0.003437 0.000539 -0.007184 0.003862 0.039250 -0.003923
# 6 -0.006751 -0.003169 0.001548 -0.001387 -0.003923 0.026350
#
#
# Mechanical properties :
#
#
# Convention : Reuss Voigt Hill
#
# Bulk Modulus (GPa) = 31.15363 47.76366 39.45865
# Shear Modulus (GPa) = 25.98034 35.67443 30.82738
#
# Velocity S-wave (km/s) = 3.32972 3.90179 3.62705
# Velocity P-wave (km/s) = 5.29881 6.37821 5.86340
#
# Compressibility (1/GPa) = 0.03209898
#
# Stress axis : x y z
#
# Youngs Moduli (GPa) = 50.67089 116.05335 50.77469
#
# Poissons Ratio (x) = 0.44938 0.12339
# Poissons Ratio (y) = 0.19621 0.08488
# Poissons Ratio (z) = 0.12313 0.19400
#
# Static dielectric constant tensor:
#      x y z
#    x 1.911540 0.004230 -0.041650 
#    y 0.004230 1.860420 0.025210 
#    z -0.041650 0.025210 1.901780 
# 
# From -- ./inp_files/68728.got.cif
#   From: 2010.05.17/outbox.cif.g08.bks.cpg/sg2_35_cif.got.tgz:68728.got - 2010.06.03 11:33:40.
