data_PCOD9052520
_publ_section_title
;
Structure prediction by ZEFSAII (Michael W. Deem and Ramdas Pophale) SiO2 
 PCOD9052520
Probable space group: P -1
;
_chemical_formula_sum "Si O2"
_cell_formula_units_Z 13
_cell_length_a 14.442609
_cell_length_b 8.251119
_cell_length_c 14.149482
_cell_angle_alpha 100.359280
_cell_angle_beta 20.115638
_cell_angle_gamma 91.521319
_cell_volume 517.527101
_symmetry_space_group_name_H-M "P -1"
_symmetry_group_IT_number 2
_symmetry_cell_setting 'triclinic'
loop_
_space_group_symop_operation_xyz
x,y,z
-x,-y,-z
loop_
_atom_site_type_symbol
_atom_site_label
_atom_site_fract_x
_atom_site_fract_y
_atom_site_fract_z
Si Si1 0.844012 0.601934 0.390997
Si Si2 0.332334 0.801451 0.219860
Si Si3 0.000000 0.000000 0.000000
Si Si4 0.883294 0.925812 0.299030
Si Si5 0.400761 0.572950 0.956154
Si Si6 0.227790 0.062750 0.116525
Si Si7 0.251857 0.224677 0.915558
O O1 0.740026 0.792109 0.456398
O O2 0.586700 0.563068 0.682427
O O3 0.063076 0.612492 0.263471
O O4 0.066377 0.436489 0.095956
O O5 0.466257 0.619280 0.137207
O O6 0.986903 0.874939 0.581491
O O7 0.416147 0.727026 0.026242
O O8 0.462145 0.942296 0.145357
O O9 0.972213 0.127953 0.946783
O O10 0.156971 0.107794 0.922628
O O11 0.611548 0.126244 0.562850
O O12 0.116517 0.927817 0.154098
O O13 0.159753 0.204852 0.109412
#
# Coordination Sequence:
#
# PCOD9052520 Si02
#       7
#     2   2   1   2   2   2   2
#     4  12  26  44  73 106 142 187 231 289 349 412
#     4  11  20  39  70  99 145 191 237 286 334 404
#     4  10  26  46  76 108 130 188 226 288 360 432
#     4  11  26  47  73 104 144 178 237 288 353 426
#     4  11  23  40  65 112 141 184 248 281 336 414
#     4  11  20  39  68  99 134 195 227 277 348 401
#     4  11  23  47  72 101 141 179 230 284 359 417
#
# _framework density 25.119456
#
# number of rings (size 3 to 8) (size 9 to 14) (size 15 to 20)
#    0.000    0.923    4.615    1.385    6.462    3.077 
#    0.000    6.154    0.000    0.000    0.000    0.000 
#    0.000    0.000    0.000    0.000    0.000    0.000 
#
# Total GULP energy -72426.698538 kJ/mol
# GULP energy per Si atom -5571.284503 kJ/mol
# Density = 2.506228 g / cm^3
# Si number density = 25.119456 Si / 1000 Ang^3
#
#
#
# Elastic Constant Matrix: (Units=GPa)
#
#
# Indices 1 2 3 4 5 6 
#
# 1 105.1564 26.4206 -3.0016 -7.1191 -14.0654 24.3692
# 2 26.4206 78.4993 22.1426 -2.1288 -13.5058 20.9047
# 3 -3.0016 22.1426 44.0073 -4.9084 -57.5899 10.7711
# 4 -7.1191 -2.1288 -4.9084 41.0788 -2.3583 -3.5432
# 5 -14.0654 -13.5058 -57.5899 -2.3583 -8.1864 -10.2778
# 6 24.3692 20.9047 10.7711 -3.5432 -10.2778 42.2571
#
#
#
# Elastic Compliance Matrix: (Units=1/GPa)
#
#
# Indices 1 2 3 4 5 6 
#
# 1 0.011081 -0.002560 -0.000681 0.001034 -0.003227 -0.005648
# 2 -0.002560 0.016306 -0.002761 -0.000174 0.003357 -0.005085
# 3 -0.000681 -0.002761 0.003707 -0.001015 -0.016066 -0.003178
# 4 0.001034 -0.000174 -0.001015 0.024330 -0.002761 0.001117
# 5 -0.003227 0.003357 -0.016066 -0.002761 -0.010291 0.001561
# 6 -0.005648 -0.005085 -0.003178 0.001117 0.001561 0.030721
#
#
# Mechanical properties :
#
#
# Convention : Reuss Voigt Hill
#
# Bulk Modulus (GPa) = 52.39065 35.42070 43.90567
# Shear Modulus (GPa) = 53.06558 27.16998 40.11778
#
# Velocity S-wave (km/s) = 4.60121 3.29238 4.00068
# Velocity P-wave (km/s) = 7.00929 5.34645 6.23356
#
# Compressibility (1/GPa) = 0.01908738
#
# Stress axis : x y z
#
# Youngs Moduli (GPa) = 90.24697 61.32527 269.79002
#
# Poissons Ratio (x) = 0.15701 0.18385
# Poissons Ratio (y) = 0.23106 0.74500
# Poissons Ratio (z) = 0.06150 0.16934
#
# Static dielectric constant tensor:
#      x y z
#    x 1.945820 -0.052190 0.023560 
#    y -0.052190 2.052520 0.052620 
#    z 0.023560 0.052620 1.988310 
# 
# From -- ./inp_files/201247.got.cif
#   From: 2010.05.17/outbox.cif.g08.bks.cpg/sg2_101_cif.got.tgz:201247.got - 2010.06.03 11:33:40.
