data_PCOD9052944
_publ_section_title
;
Structure prediction by ZEFSAII (Michael W. Deem and Ramdas Pophale) SiO2 
 PCOD9052944
Probable space group: P -1
;
_chemical_formula_sum "Si O2"
_cell_formula_units_Z 12
_cell_length_a 6.955539
_cell_length_b 7.855961
_cell_length_c 9.717836
_cell_angle_alpha 97.727042
_cell_angle_beta 111.168175
_cell_angle_gamma 73.839486
_cell_volume 475.268129
_symmetry_space_group_name_H-M "P -1"
_symmetry_group_IT_number 2
_symmetry_cell_setting 'triclinic'
loop_
_space_group_symop_operation_xyz
x,y,z
-x,-y,-z
loop_
_atom_site_type_symbol
_atom_site_label
_atom_site_fract_x
_atom_site_fract_y
_atom_site_fract_z
Si Si1 0.150003 0.980615 0.905860
Si Si2 0.533017 0.774120 0.628234
Si Si3 0.125540 0.874269 0.370193
Si Si4 0.570336 0.425764 0.760955
Si Si5 0.601243 0.751873 0.948013
Si Si6 0.828907 0.678228 0.434422
O O1 0.013296 0.962853 0.734427
O O2 0.364931 0.825485 0.954756
O O3 0.230435 0.160595 0.927062
O O4 0.000000 0.000000 0.000000
O O5 0.317916 0.889672 0.520099
O O6 0.504338 0.581002 0.644862
O O7 0.590474 0.838028 0.798817
O O8 0.706065 0.748337 0.551311
O O9 0.247197 0.731223 0.271805
O O10 0.965080 0.795585 0.409513
O O11 0.645822 0.541373 0.912296
O O12 0.357418 0.358704 0.717740
O O13 0.000000 0.500000 0.500000
#
# Coordination Sequence:
#
# PCOD9052944 Si02
#       6
#     2   2   2   2   2   2
#     4  11  26  44  58  74 119 166 202 235 279 337
#     4   9  19  35  59  92 121 139 184 241 290 345
#     4  11  21  36  62  94 113 151 194 231 292 351
#     4   9  19  35  59  92 121 139 184 241 290 345
#     4   9  22  43  58  82 120 153 194 243 284 340
#     4  11  15  31  62  93 121 144 171 242 302 340
#
# _framework density 25.248902000000001
#
# number of rings (size 3 to 8) (size 9 to 14) (size 15 to 20)
#    1.000    1.000    3.333    1.000    0.000   10.667 
#    0.000    3.333    0.000    0.000    0.000    0.000 
#    0.000    0.000    0.000    0.000    0.000    0.000 
#
# Total GULP energy -67132.255146 kJ/mol
# GULP energy per Si atom -5594.354595 kJ/mol
# Density = 2.519143 g / cm^3
# Si number density = 25.248902 Si / 1000 Ang^3
#
#
#
# Elastic Constant Matrix: (Units=GPa)
#
#
# Indices 1 2 3 4 5 6 
#
# 1 176.9296 36.6376 21.4879 -4.6421 -7.1923 -2.7299
# 2 36.6376 58.7955 1.5086 6.1367 -1.2850 -8.0253
# 3 21.4879 1.5086 74.9870 -4.0558 7.2187 5.3357
# 4 -4.6421 6.1367 -4.0558 44.0536 0.3492 -4.3944
# 5 -7.1923 -1.2850 7.2187 0.3492 46.0496 -2.5261
# 6 -2.7299 -8.0253 5.3357 -4.3944 -2.5261 37.0154
#
#
#
# Elastic Compliance Matrix: (Units=1/GPa)
#
#
# Indices 1 2 3 4 5 6 
#
# 1 0.006862 -0.004308 -0.001944 0.001142 0.001252 0.000073
# 2 -0.004308 0.020496 0.000394 -0.002901 0.000064 0.003729
# 3 -0.001944 0.000394 0.014345 0.000862 -0.002669 -0.002206
# 4 0.001142 -0.002901 0.000862 0.023515 -0.000100 0.002116
# 5 0.001252 0.000064 -0.002669 -0.000100 0.022442 0.002011
# 6 0.000073 0.003729 -0.002206 0.002116 0.002011 0.028536
#
#
# Mechanical properties :
#
#
# Convention : Reuss Voigt Hill
#
# Bulk Modulus (GPa) = 33.34762 47.77559 40.56161
# Shear Modulus (GPa) = 36.25607 42.16225 39.20916
#
# Velocity S-wave (km/s) = 3.79350 4.09083 3.94497
# Velocity P-wave (km/s) = 5.69418 6.42465 6.07041
#
# Compressibility (1/GPa) = 0.02998714
#
# Stress axis : x y z
#
# Youngs Moduli (GPa) = 145.72926 48.79085 69.70984
#
# Poissons Ratio (x) = 0.21019 0.13549
# Poissons Ratio (y) = 0.62779 -0.02744
# Poissons Ratio (z) = 0.28324 -0.01921
#
# Static dielectric constant tensor:
#      x y z
#    x 1.903850 0.024460 -0.011830 
#    y 0.024460 1.983390 0.049870 
#    z -0.011830 0.049870 2.026020 
# 
# From -- ./inp_files/360762.got.cif
#   From: 2010.05.17/outbox.cif.g08.bks.cpg/sg2_181_cif.got.tgz:360762.got - 2010.06.03 11:33:40.
