data_PCOD9052432
_publ_section_title
;
Structure prediction by ZEFSAII (Michael W. Deem and Ramdas Pophale) SiO2 
 PCOD9052432
Probable space group: P -1
;
_chemical_formula_sum "Si O2"
_cell_formula_units_Z 14
_cell_length_a 15.716961
_cell_length_b 6.491358
_cell_length_c 11.259290
_cell_angle_alpha 57.718842
_cell_angle_beta 38.058106
_cell_angle_gamma 80.142460
_cell_volume 525.739740
_symmetry_space_group_name_H-M "P -1"
_symmetry_group_IT_number 2
_symmetry_cell_setting 'triclinic'
loop_
_space_group_symop_operation_xyz
x,y,z
-x,-y,-z
loop_
_atom_site_type_symbol
_atom_site_label
_atom_site_fract_x
_atom_site_fract_y
_atom_site_fract_z
Si Si1 0.505073 0.793021 0.757861
Si Si2 0.979926 0.790238 0.756209
Si Si3 0.382588 0.645448 0.144644
Si Si4 0.879515 0.595117 0.661080
Si Si5 0.182760 0.090876 0.900498
Si Si6 0.486941 0.733984 0.518129
Si Si7 0.131941 0.453767 0.666498
O O1 0.578636 0.588038 0.778858
O O2 0.448636 0.662700 0.719828
O O3 0.593922 0.110540 0.508659
O O4 0.524202 0.912316 0.853606
O O5 0.072461 0.635641 0.748502
O O6 0.919798 0.661638 0.732695
O O7 0.090819 0.117760 0.518179
O O8 0.843648 0.776224 0.992671
O O9 0.308058 0.600224 0.099592
O O10 0.243238 0.627141 0.382284
O O11 0.000000 0.500000 0.500000
O O12 0.326651 0.031795 0.770123
O O13 0.211889 0.312628 0.698780
O O14 0.023691 0.812402 0.131850
O O15 0.500000 0.500000 0.500000
#
# Coordination Sequence:
#
# PCOD9052432 Si02
#       7
#     2   2   2   2   2   2   2
#     4  10  26  46  69  94 132 188 224 273 332 395
#     4  11  23  37  63 104 129 172 213 268 348 400
#     4  11  22  47  68  95 140 176 222 279 336 398
#     4  11  23  39  63  97 137 170 212 278 340 398
#     4  11  24  42  69 101 136 177 220 283 340 399
#     4  11  26  47  69  99 132 179 235 273 328 408
#     4  11  23  43  68 102 138 172 220 282 346 403
#
# _framework density 26.629145000000001
#
# number of rings (size 3 to 8) (size 9 to 14) (size 15 to 20)
#    0.000    1.143    4.286    0.429    6.000    2.286 
#    0.000    1.429    0.000    0.000    0.000    0.000 
#    0.000    0.000    0.000    0.000    0.000    0.000 
#
# Total GULP energy -78011.341938 kJ/mol
# GULP energy per Si atom -5572.238710 kJ/mol
# Density = 2.656854 g / cm^3
# Si number density = 26.629145 Si / 1000 Ang^3
#
#
#
# Elastic Constant Matrix: (Units=GPa)
#
#
# Indices 1 2 3 4 5 6 
#
# 1 104.2483 41.0267 49.6199 -7.5409 9.7541 -6.9019
# 2 41.0267 144.4442 45.1907 8.6017 10.4269 -4.2578
# 3 49.6199 45.1907 141.9505 34.8041 37.9434 7.3036
# 4 -7.5409 8.6017 34.8041 45.5035 -6.6837 5.5943
# 5 9.7541 10.4269 37.9434 -6.6837 55.2219 -3.0595
# 6 -6.9019 -4.2578 7.3036 5.5943 -3.0595 34.0051
#
#
#
# Elastic Compliance Matrix: (Units=1/GPa)
#
#
# Indices 1 2 3 4 5 6 
#
# 1 0.014955 -0.002488 -0.008242 0.009550 0.004833 0.003358
# 2 -0.002488 0.008203 -0.001536 -0.000927 -0.000111 0.000994
# 3 -0.008242 -0.001536 0.018056 -0.016255 -0.012862 -0.004226
# 4 0.009550 -0.000927 -0.016255 0.038230 0.014302 0.000311
# 5 0.004833 -0.000111 -0.012862 0.014302 0.028061 0.003901
# 6 0.003358 0.000994 -0.004226 0.000311 0.003901 0.031421
#
#
# Mechanical properties :
#
#
# Convention : Reuss Voigt Hill
#
# Bulk Modulus (GPa) = 59.94326 73.59084 66.76705
# Shear Modulus (GPa) = 29.58270 43.93313 36.75792
#
# Velocity S-wave (km/s) = 3.33665 4.06620 3.71936
# Velocity P-wave (km/s) = 6.11585 7.05271 6.60092
#
# Compressibility (1/GPa) = 0.01668244
#
# Stress axis : x y z
#
# Youngs Moduli (GPa) = 66.86551 121.90967 55.38405
#
# Poissons Ratio (x) = 0.30329 0.45646
# Poissons Ratio (y) = 0.16635 0.08507
# Poissons Ratio (z) = 0.55109 0.18726
#
# Static dielectric constant tensor:
#      x y z
#    x 2.236110 0.205460 -0.026670 
#    y 0.205460 2.145710 0.065460 
#    z -0.026670 0.065460 2.164790 
# 
# From -- ./inp_files/459002.got.cif
#   From: 2010.05.17/outbox.cif.g08.bks.cpg/sg2_230_cif.got.tgz:459002.got - 2010.06.03 11:33:40.
