data_PCOD9052708
_publ_section_title
;
Structure prediction by ZEFSAII (Michael W. Deem and Ramdas Pophale) SiO2 
 PCOD9052708
Probable space group: P -1
;
_chemical_formula_sum "Si O2"
_cell_formula_units_Z 12
_cell_length_a 7.847362
_cell_length_b 8.294740
_cell_length_c 8.531998
_cell_angle_alpha 109.850243
_cell_angle_beta 50.202992
_cell_angle_gamma 105.108996
_cell_volume 400.620809
_symmetry_space_group_name_H-M "P -1"
_symmetry_group_IT_number 2
_symmetry_cell_setting 'triclinic'
loop_
_space_group_symop_operation_xyz
x,y,z
-x,-y,-z
loop_
_atom_site_type_symbol
_atom_site_label
_atom_site_fract_x
_atom_site_fract_y
_atom_site_fract_z
Si Si1 0.690672 0.287234 0.835190
Si Si2 0.691742 0.419086 0.537418
Si Si3 0.911564 0.605857 0.941220
Si Si4 0.285683 0.190640 0.244554
Si Si5 0.000000 0.000000 0.000000
Si Si6 0.485905 0.882618 0.620483
Si Si7 0.000000 0.000000 0.500000
O O1 0.662447 0.310841 0.676528
O O2 0.709555 0.476219 0.962726
O O3 0.913813 0.186400 0.682255
O O4 0.489098 0.182224 0.006394
O O5 0.703017 0.614475 0.648415
O O6 0.515378 0.318466 0.493043
O O7 0.921277 0.402451 0.306098
O O8 0.000000 0.500000 0.000000
O O9 0.876978 0.805575 0.048821
O O10 0.309339 0.084745 0.364714
O O11 0.053217 0.093841 0.311450
O O12 0.751844 0.085084 0.153497
O O13 0.500000 0.000000 0.500000
#
# Coordination Sequence:
#
# PCOD9052708 Si02
#       7
#     2   2   2   2   1   2   1
#     4  12  26  49  78 112 156 214 262 327 405 474
#     4  11  25  49  74 113 160 200 262 329 396 474
#     4  11  25  47  79 117 158 215 266 329 407 472
#     4  12  27  49  77 114 156 209 265 326 400 482
#     4  10  26  48  76 114 158 196 270 326 394 472
#     4  11  26  46  77 113 147 202 260 322 395 468
#     4  12  28  50  78 110 166 196 272 328 398 472
#
# _framework density 29.953509
#
# number of rings (size 3 to 8) (size 9 to 14) (size 15 to 20)
#    0.000    0.667    1.667    5.000    4.667    6.667 
#    3.000    0.000    0.000    0.000    0.000    0.000 
#    0.000    0.000    0.000    0.000    0.000    0.000 
#
# Total GULP energy -66972.479451 kJ/mol
# GULP energy per Si atom -5581.039954 kJ/mol
# Density = 2.988533 g / cm^3
# Si number density = 29.953509 Si / 1000 Ang^3
#
#
#
# Elastic Constant Matrix: (Units=GPa)
#
#
# Indices 1 2 3 4 5 6 
#
# 1 126.4689 47.9303 29.1196 -6.2304 0.9896 3.3549
# 2 47.9303 264.0647 90.6260 4.2241 6.8139 16.0924
# 3 29.1196 90.6260 191.7168 -24.2167 -39.6089 -10.9678
# 4 -6.2304 4.2241 -24.2167 94.2913 7.5988 3.3392
# 5 0.9896 6.8139 -39.6089 7.5988 43.7062 -8.2549
# 6 3.3549 16.0924 -10.9678 3.3392 -8.2549 65.1094
#
#
#
# Elastic Compliance Matrix: (Units=1/GPa)
#
#
# Indices 1 2 3 4 5 6 
#
# 1 0.008618 -0.001206 -0.000910 0.000486 -0.001001 -0.000451
# 2 -0.001206 0.005500 -0.003559 -0.000803 -0.004371 -0.002410
# 3 -0.000910 -0.003559 0.009415 0.001622 0.009512 0.003635
# 4 0.000486 -0.000803 0.001622 0.011127 -0.000383 -0.000173
# 5 -0.001001 -0.004371 0.009512 -0.000383 0.033596 0.007013
# 6 -0.000451 -0.002410 0.003635 -0.000173 0.007013 0.017488
#
#
# Mechanical properties :
#
#
# Convention : Reuss Voigt Hill
#
# Bulk Modulus (GPa) = 82.09025 101.95580 92.02302
# Shear Modulus (GPa) = 49.42998 68.25968 58.84483
#
# Velocity S-wave (km/s) = 4.06670 4.77891 4.43712
# Velocity P-wave (km/s) = 7.03677 8.03509 7.55244
#
# Compressibility (1/GPa) = 0.01218171
#
# Stress axis : x y z
#
# Youngs Moduli (GPa) = 116.04232 181.82660 106.21893
#
# Poissons Ratio (x) = 0.21934 0.09665
# Poissons Ratio (y) = 0.13999 0.37801
# Poissons Ratio (z) = 0.10559 0.64708
#
# Static dielectric constant tensor:
#      x y z
#    x 2.604420 0.071530 -0.227570 
#    y 0.071530 2.339360 -0.079620 
#    z -0.227570 -0.079620 2.025000 
# 
# From -- ./inp_files/159471.got.cif
#   From: 2010.05.17/outbox.cif.g08.bks.cpg/sg2_80_cif.got.tgz:159471.got - 2010.06.03 11:33:40.
