data_PCOD9052461
_publ_section_title
;
Structure prediction by ZEFSAII (Michael W. Deem and Ramdas Pophale) SiO2 
 PCOD9052461
Probable space group: P -1
;
_chemical_formula_sum "Si O2"
_cell_formula_units_Z 14
_cell_length_a 10.989309
_cell_length_b 8.761890
_cell_length_c 6.433248
_cell_angle_alpha 69.053533
_cell_angle_beta 80.069226
_cell_angle_gamma 94.176784
_cell_volume 563.713032
_symmetry_space_group_name_H-M "P -1"
_symmetry_group_IT_number 2
_symmetry_cell_setting 'triclinic'
loop_
_space_group_symop_operation_xyz
x,y,z
-x,-y,-z
loop_
_atom_site_type_symbol
_atom_site_label
_atom_site_fract_x
_atom_site_fract_y
_atom_site_fract_z
Si Si1 0.484869 0.306634 0.564220
Si Si2 0.640644 0.075046 0.481961
Si Si3 0.835289 0.076575 0.049931
Si Si4 0.672215 0.825146 0.965950
Si Si5 0.869630 0.375232 0.570494
Si Si6 0.999304 0.178740 0.318072
Si Si7 0.732375 0.638166 0.694323
O O1 0.500000 0.500000 0.500000
O O2 0.613317 0.255219 0.470548
O O3 0.363537 0.278081 0.461468
O O4 0.446306 0.202144 0.834846
O O5 0.729601 0.082358 0.254550
O O6 0.500000 0.000000 0.500000
O O7 0.674274 0.965277 0.719763
O O8 0.961299 0.129941 0.117666
O O9 0.845699 0.219134 0.806722
O O10 0.789542 0.900135 0.038814
O O11 0.669996 0.648429 0.936294
O O12 0.897095 0.287374 0.386596
O O13 0.765711 0.485364 0.624407
O O14 0.000000 0.500000 0.500000
O O15 0.132146 0.269521 0.316516
O O16 0.000000 0.000000 0.500000
#
# Coordination Sequence:
#
# PCOD9052461 Si02
#       7
#     2   2   2   2   2   2   2
#     4  12  29  45  74 107 150 196 246 306 369 432
#     4  12  25  48  73 108 147 194 252 301 364 435
#     4  12  26  44  79 107 143 199 243 307 365 437
#     4  12  25  47  74 109 148 192 249 303 362 442
#     4  10  26  46  71 105 151 188 244 303 369 432
#     4  11  24  47  74 105 141 186 249 299 363 441
#     4  11  26  46  69 108 146 189 241 302 370 436
#
# _framework density 24.835332000000001
#
# number of rings (size 3 to 8) (size 9 to 14) (size 15 to 20)
#    0.000    0.571    2.857    3.857    6.000    7.429 
#    0.000    0.000    0.000    0.000    0.000    0.000 
#    0.000    0.000    0.000    0.000    0.000    0.000 
#
# Total GULP energy -78064.343279 kJ/mol
# GULP energy per Si atom -5576.024520 kJ/mol
# Density = 2.477881 g / cm^3
# Si number density = 24.835332 Si / 1000 Ang^3
#
#
#
# Elastic Constant Matrix: (Units=GPa)
#
#
# Indices 1 2 3 4 5 6 
#
# 1 114.2494 12.1241 30.6361 22.6482 -6.3059 -2.0403
# 2 12.1241 106.4809 12.4451 33.1574 11.0659 4.7271
# 3 30.6361 12.4451 84.1762 17.0810 -8.7511 14.2370
# 4 22.6482 33.1574 17.0810 45.8818 7.7586 -5.7195
# 5 -6.3059 11.0659 -8.7511 7.7586 34.9578 10.1973
# 6 -2.0403 4.7271 14.2370 -5.7195 10.1973 47.4085
#
#
#
# Elastic Compliance Matrix: (Units=1/GPa)
#
#
# Indices 1 2 3 4 5 6 
#
# 1 0.010510 0.000383 -0.002731 -0.004776 0.002090 0.000208
# 2 0.000383 0.012444 0.000157 -0.009317 -0.001135 -0.002151
# 3 -0.002731 0.000157 0.016273 -0.006974 0.007244 -0.007420
# 4 -0.004776 -0.009317 -0.006974 0.036440 -0.010509 0.009474
# 5 0.002090 -0.001135 0.007244 -0.010509 0.036738 -0.011142
# 6 0.000208 -0.002151 -0.007420 0.009474 -0.011142 0.027084
#
#
# Mechanical properties :
#
#
# Convention : Reuss Voigt Hill
#
# Bulk Modulus (GPa) = 28.69711 46.14636 37.42173
# Shear Modulus (GPa) = 32.15710 42.29638 37.22674
#
# Velocity S-wave (km/s) = 3.60225 4.13131 3.87582
# Velocity P-wave (km/s) = 5.37417 6.43259 5.92705
#
# Compressibility (1/GPa) = 0.03484671
#
# Stress axis : x y z
#
# Youngs Moduli (GPa) = 95.14593 80.35997 61.44966
#
# Poissons Ratio (x) = -0.03079 0.16780
# Poissons Ratio (y) = -0.03645 -0.00965
# Poissons Ratio (z) = 0.25981 -0.01262
#
# Static dielectric constant tensor:
#      x y z
#    x 1.138350 -0.170840 -0.248350 
#    y -0.170840 2.006530 0.165810 
#    z -0.248350 0.165810 1.741190 
# 
# From -- ./inp_files/60364.got.cif
#   From: 2010.05.17/outbox.cif.g08.bks.cpg/sg2_31_cif.got.tgz:60364.got - 2010.06.03 11:33:40.
