data_PCOD9052289
_publ_section_title
;
Structure prediction by ZEFSAII (Michael W. Deem and Ramdas Pophale) SiO2 
 PCOD9052289
Probable space group: P -1
;
_chemical_formula_sum "Si O2"
_cell_formula_units_Z 14
_cell_length_a 7.821632
_cell_length_b 14.116393
_cell_length_c 11.846896
_cell_angle_alpha 130.314670
_cell_angle_beta 33.976011
_cell_angle_gamma 122.221396
_cell_volume 557.372758
_symmetry_space_group_name_H-M "P -1"
_symmetry_group_IT_number 2
_symmetry_cell_setting 'triclinic'
loop_
_space_group_symop_operation_xyz
x,y,z
-x,-y,-z
loop_
_atom_site_type_symbol
_atom_site_label
_atom_site_fract_x
_atom_site_fract_y
_atom_site_fract_z
Si Si1 0.208316 0.757195 0.481074
Si Si2 0.674544 0.628267 0.984379
Si Si3 0.724179 0.119192 0.972541
Si Si4 0.398568 0.586520 0.520296
Si Si5 0.401673 0.352519 0.213071
Si Si6 0.643482 0.146374 0.283669
Si Si7 0.287462 0.985626 0.493004
O O1 0.199365 0.821051 0.658259
O O2 0.128139 0.855224 0.502425
O O3 0.949618 0.654822 0.556261
O O4 0.541530 0.710556 0.223242
O O5 0.571388 0.679040 0.957535
O O6 0.037426 0.611720 0.758995
O O7 0.500000 0.500000 0.000000
O O8 0.576785 0.247405 0.108210
O O9 0.825403 0.128038 0.055132
O O10 0.500000 0.000000 0.000000
O O11 0.024273 0.088127 0.714773
O O12 0.500000 0.500000 0.500000
O O13 0.478538 0.497206 0.302258
O O14 0.539902 0.723675 0.538378
O O15 0.477886 0.017159 0.302443
O O16 0.500000 0.000000 0.500000
#
# Coordination Sequence:
#
# PCOD9052289 Si02
#       7
#     2   2   2   2   2   2   2
#     4  11  24  46  73 107 140 190 238 293 356 427
#     4  12  26  45  76 104 141 193 242 285 362 424
#     4  12  27  47  73 108 142 191 236 295 362 415
#     4  12  25  46  72 106 148 184 236 298 353 422
#     4  12  25  47  74 106 147 186 237 298 355 421
#     4  11  26  46  72 102 150 182 239 293 353 428
#     4  10  26  44  71 105 142 184 239 286 356 423
#
# _framework density 25.117840000000001
#
# number of rings (size 3 to 8) (size 9 to 14) (size 15 to 20)
#    0.000    0.571    5.714    1.286    6.000    5.143 
#    0.000    2.143    0.000    0.000    0.000    0.000 
#    0.000    0.000    0.000    0.000    0.000    0.000 
#
# Total GULP energy -78220.596587 kJ/mol
# GULP energy per Si atom -5587.185470 kJ/mol
# Density = 2.506067 g / cm^3
# Si number density = 25.117840 Si / 1000 Ang^3
#
#
#
# Elastic Constant Matrix: (Units=GPa)
#
#
# Indices 1 2 3 4 5 6 
#
# 1 62.4606 11.1686 22.0408 -6.3309 2.1979 -20.9415
# 2 11.1686 121.1364 -5.1745 -7.9560 8.0356 -25.2915
# 3 22.0408 -5.1745 72.7679 -0.1698 -5.0335 -8.9880
# 4 -6.3309 -7.9560 -0.1698 35.8757 -8.9943 12.2130
# 5 2.1979 8.0356 -5.0335 -8.9943 29.8650 4.6404
# 6 -20.9415 -25.2915 -8.9880 12.2130 4.6404 40.3010
#
#
#
# Elastic Compliance Matrix: (Units=1/GPa)
#
#
# Indices 1 2 3 4 5 6 
#
# 1 0.021667 0.000323 -0.005493 -0.001076 -0.004656 0.011098
# 2 0.000323 0.010060 0.001274 -0.001338 -0.004106 0.007644
# 3 -0.005493 0.001274 0.015826 -0.000474 0.002377 0.001345
# 4 -0.001076 -0.001338 -0.000474 0.035354 0.013140 -0.013731
# 5 -0.004656 -0.004106 0.002377 0.013140 0.041342 -0.013209
# 6 0.011098 0.007644 0.001345 -0.013731 -0.013209 0.041359
#
#
# Mechanical properties :
#
#
# Convention : Reuss Voigt Hill
#
# Bulk Modulus (GPa) = 25.15003 34.71498 29.93250
# Shear Modulus (GPa) = 26.78757 36.43035 31.60896
#
# Velocity S-wave (km/s) = 3.26924 3.81251 3.55128
# Velocity P-wave (km/s) = 4.92799 5.76465 5.36266
#
# Compressibility (1/GPa) = 0.03976138
#
# Stress axis : x y z
#
# Youngs Moduli (GPa) = 46.15405 99.40109 63.18609
#
# Poissons Ratio (x) = -0.03211 0.34711
# Poissons Ratio (y) = -0.01491 -0.08053
# Poissons Ratio (z) = 0.25354 -0.12668
#
# Static dielectric constant tensor:
#      x y z
#    x 2.050150 0.068030 0.020800 
#    y 0.068030 2.035530 0.059840 
#    z 0.020800 0.059840 1.938490 
# 
# From -- ./inp_files/40167.got.cif
#   From: 2010.05.17/outbox.cif.g08.bks.cpg/sg2_21_cif.got.tgz:40167.got - 2010.06.03 11:33:40.
