data_PCOD9052315
_publ_section_title
;
Structure prediction by ZEFSAII (Michael W. Deem and Ramdas Pophale) SiO2 
 PCOD9052315
Probable space group: P -1
;
_chemical_formula_sum "Si O2"
_cell_formula_units_Z 15
_cell_length_a 14.382304
_cell_length_b 11.902321
_cell_length_c 14.078484
_cell_angle_alpha 126.500433
_cell_angle_beta 20.284719
_cell_angle_gamma 125.137549
_cell_volume 670.285610
_symmetry_space_group_name_H-M "P -1"
_symmetry_group_IT_number 2
_symmetry_cell_setting 'triclinic'
loop_
_space_group_symop_operation_xyz
x,y,z
-x,-y,-z
loop_
_atom_site_type_symbol
_atom_site_label
_atom_site_fract_x
_atom_site_fract_y
_atom_site_fract_z
Si Si1 0.341423 0.742506 0.930345
Si Si2 0.773398 0.088197 0.302318
Si Si3 0.710772 0.630638 0.885547
Si Si4 0.500000 0.500000 0.500000
Si Si5 0.256808 0.508376 0.019974
Si Si6 0.274898 0.618423 0.596499
Si Si7 0.791870 0.187138 0.548766
Si Si8 0.125727 0.062193 0.508086
O O1 0.410817 0.614805 0.729421
O O2 0.302166 0.673806 0.039673
O O3 0.593158 0.853861 0.741508
O O4 0.076526 0.824040 0.201370
O O5 0.770125 0.228300 0.315942
O O6 0.827282 0.124993 0.378474
O O7 0.500000 0.000000 0.500000
O O8 0.000000 0.000000 0.000000
O O9 0.824990 0.574978 0.847890
O O10 0.506470 0.755491 0.139710
O O11 0.500000 0.500000 0.000000
O O12 0.973019 0.686536 0.602636
O O13 0.427083 0.610382 0.544983
O O14 0.540705 0.448784 0.692697
O O15 0.010944 0.466263 0.163753
O O16 0.830396 0.065115 0.526109
O O17 0.000000 0.000000 0.500000
#
# Coordination Sequence:
#
# PCOD9052315 Si02
#       8
#     2   2   2   1   2   2   2   2
#     4  11  26  47  73 103 140 190 241 300 362 428
#     4  12  25  42  69  99 140 187 226 283 355 433
#     4  12  25  44  75 103 137 182 233 300 354 416
#     4  10  26  44  74 106 140 184 240 304 364 428
#     4  11  22  44  69  97 136 176 227 293 354 409
#     4  11  23  43  66  99 141 174 227 286 355 424
#     4  12  27  48  69 109 141 186 243 294 360 429
#     4  12  29  48  72 101 149 196 245 292 357 442
#
# _framework density 22.378520000000002
#
# number of rings (size 3 to 8) (size 9 to 14) (size 15 to 20)
#    0.000    0.533    2.667    4.800    7.467    4.800 
#    0.000    0.000    0.000    0.000    0.000    0.000 
#    0.000    0.000    0.000    0.000    0.000    0.000 
#
# Total GULP energy -83556.953378 kJ/mol
# GULP energy per Si atom -5570.463559 kJ/mol
# Density = 2.232759 g / cm^3
# Si number density = 22.378520 Si / 1000 Ang^3
#
#
#
# Elastic Constant Matrix: (Units=GPa)
#
#
# Indices 1 2 3 4 5 6 
#
# 1 199.7170 103.9236 8.9657 2.0478 -54.1027 -49.5062
# 2 103.9236 164.1071 46.5438 -17.5764 -30.7052 -47.6406
# 3 8.9657 46.5438 115.7991 -6.7397 -19.7726 -14.2155
# 4 2.0478 -17.5764 -6.7397 58.8597 6.4013 -2.6471
# 5 -54.1027 -30.7052 -19.7726 6.4013 41.1145 3.7817
# 6 -49.5062 -47.6406 -14.2155 -2.6471 3.7817 54.0993
#
#
#
# Elastic Compliance Matrix: (Units=1/GPa)
#
#
# Indices 1 2 3 4 5 6 
#
# 1 0.013936 -0.004915 0.004579 -0.002853 0.016548 0.008332
# 2 -0.004915 0.012186 -0.003669 0.003658 -0.000202 0.005463
# 3 0.004579 -0.003669 0.011608 -0.000717 0.008670 0.003368
# 4 -0.002853 0.003658 -0.000717 0.018654 -0.004423 0.001644
# 5 0.016548 -0.000202 0.008670 -0.004423 0.049558 0.013563
# 6 0.008332 0.005463 0.003368 0.001644 0.013563 0.030938
#
#
# Mechanical properties :
#
#
# Convention : Reuss Voigt Hill
#
# Bulk Modulus (GPa) = 33.64566 88.72104 61.18335
# Shear Modulus (GPa) = 32.30073 52.16071 42.23072
#
# Velocity S-wave (km/s) = 3.80331 4.83311 4.34880
# Velocity P-wave (km/s) = 5.86125 8.41885 7.25366
#
# Compressibility (1/GPa) = 0.02972151
#
# Stress axis : x y z
#
# Youngs Moduli (GPa) = 71.75461 82.06100 86.14922
#
# Poissons Ratio (x) = 0.40329 -0.39445
# Poissons Ratio (y) = 0.35264 0.31604
# Poissons Ratio (z) = -0.32855 0.30105
#
# Static dielectric constant tensor:
#      x y z
#    x 1.897910 0.069120 -0.015640 
#    y 0.069120 1.859030 0.006120 
#    z -0.015640 0.006120 1.865320 
# 
# From -- ./inp_files/521234.got.cif
#   From: 2010.05.17/outbox.cif.g08.bks.cpg/sg2_261_cif.got.tgz:521234.got - 2010.06.03 11:33:40.
