data_PCOD9052044
_publ_section_title
;
Structure prediction by ZEFSAII (Michael W. Deem and Ramdas Pophale) SiO2 
 PCOD9052044
Probable space group: P -1
;
_chemical_formula_sum "Si O2"
_cell_formula_units_Z 16
_cell_length_a 23.843744
_cell_length_b 5.180988
_cell_length_c 4.946690
_cell_angle_alpha 94.223261
_cell_angle_beta 101.772895
_cell_angle_gamma 103.952819
_cell_volume 575.706109
_symmetry_space_group_name_H-M "P -1"
_symmetry_group_IT_number 2
_symmetry_cell_setting 'triclinic'
loop_
_space_group_symop_operation_xyz
x,y,z
-x,-y,-z
loop_
_atom_site_type_symbol
_atom_site_label
_atom_site_fract_x
_atom_site_fract_y
_atom_site_fract_z
Si Si1 0.319737 0.676630 0.566474
Si Si2 0.880763 0.098073 0.230130
Si Si3 0.552645 0.329617 0.358260
Si Si4 0.569067 0.699764 0.903590
Si Si5 0.862329 0.723811 0.668266
Si Si6 0.008043 0.273960 0.193095
Si Si7 0.696569 0.875989 0.810349
Si Si8 0.780445 0.280224 0.244303
O O1 0.391254 0.781249 0.665847
O O2 0.365144 0.144337 0.098705
O O3 0.281414 0.626750 0.801207
O O4 0.307308 0.401564 0.365859
O O5 0.842646 0.309917 0.144064
O O6 0.951815 0.218234 0.332859
O O7 0.855518 0.955549 0.472760
O O8 0.749406 0.978707 0.082871
O O9 0.557762 0.437899 0.675825
O O10 0.484792 0.173785 0.219139
O O11 0.563497 0.590706 0.192858
O O12 0.924460 0.662925 0.642648
O O13 0.810220 0.458078 0.547164
O O14 0.868828 0.869629 0.972581
O O15 0.000000 0.500000 0.000000
O O16 0.000000 0.000000 0.000000
O O17 0.702729 0.098930 0.599757
#
# Coordination Sequence:
#
# PCOD9052044 Si02
#       8
#     2   2   2   2   2   2   2   2
#     4  11  28  48  75 109 154 202 257 315 380 453
#     4  11  28  50  79 115 155 202 253 316 378 453
#     4   9  20  42  74 108 145 191 248 314 382 448
#     4   9  20  42  74 108 145 191 248 314 382 448
#     4  11  28  50  79 115 155 202 253 316 378 453
#     4  10  25  49  83 115 156 192 252 313 385 443
#     4  11  28  48  75 109 154 202 257 315 380 453
#     4  12  30  43  83 102 162 200 266 300 386 440
#
# _framework density 27.791957
#
# number of rings (size 3 to 8) (size 9 to 14) (size 15 to 20)
#    0.000    1.500    0.000    1.125   21.000    1.000 
#    0.000    0.625    0.000    0.000    0.000    0.000 
#    0.000    0.000    0.000    0.000    0.000    0.000 
#
# Total GULP energy -89495.281341 kJ/mol
# GULP energy per Si atom -5593.455084 kJ/mol
# Density = 2.772870 g / cm^3
# Si number density = 27.791957 Si / 1000 Ang^3
#
#
#
# Elastic Constant Matrix: (Units=GPa)
#
#
# Indices 1 2 3 4 5 6 
#
# 1 231.4329 30.1026 11.3981 24.2133 9.1657 4.0191
# 2 30.1026 121.6576 38.9014 -4.5605 2.5793 -1.5781
# 3 11.3981 38.9014 60.9869 -1.2560 6.3179 4.7463
# 4 24.2133 -4.5605 -1.2560 44.4745 -3.8045 -1.2068
# 5 9.1657 2.5793 6.3179 -3.8045 46.1854 22.6330
# 6 4.0191 -1.5781 4.7463 -1.2068 22.6330 49.9037
#
#
#
# Elastic Compliance Matrix: (Units=1/GPa)
#
#
# Indices 1 2 3 4 5 6 
#
# 1 0.004831 -0.001266 -0.000039 -0.002857 -0.001126 0.000016
# 2 -0.001266 0.010740 -0.006681 0.001647 0.000198 0.001027
# 3 -0.000039 -0.006681 0.020957 -0.000266 -0.001834 -0.001376
# 4 -0.002857 0.001647 -0.000266 0.024422 0.002678 -0.000317
# 5 -0.001126 0.000198 -0.001834 0.002678 0.028507 -0.012593
# 6 0.000016 0.001027 -0.001376 -0.000317 -0.012593 0.025904
#
#
# Mechanical properties :
#
#
# Convention : Reuss Voigt Hill
#
# Bulk Modulus (GPa) = 48.64471 63.87573 56.26022
# Shear Modulus (GPa) = 36.18369 50.35774 43.27072
#
# Velocity S-wave (km/s) = 3.61217 4.26132 3.95010
# Velocity P-wave (km/s) = 5.91085 6.87352 6.41028
#
# Compressibility (1/GPa) = 0.02055722
#
# Stress axis : x y z
#
# Youngs Moduli (GPa) = 207.01091 93.10914 47.71643
#
# Poissons Ratio (x) = 0.11786 0.00185
# Poissons Ratio (y) = 0.26205 0.31878
# Poissons Ratio (z) = 0.00804 0.62203
#
# Static dielectric constant tensor:
#      x y z
#    x 2.192860 -0.019280 0.005460 
#    y -0.019280 2.156850 -0.103970 
#    z 0.005460 -0.103970 2.200680 
# 
# From -- ./inp_files/12788.got.cif
#   From: 2010.05.17/outbox.cif.g08.bks.cpg/sg2_7_cif.got.tgz:12788.got - 2010.06.03 11:33:40.
