data_PCOD9052904
_publ_section_title
;
Structure prediction by ZEFSAII (Michael W. Deem and Ramdas Pophale) SiO2 
 PCOD9052904
Probable space group: P -1
;
_chemical_formula_sum "Si O2"
_cell_formula_units_Z 12
_cell_length_a 7.460447
_cell_length_b 7.799747
_cell_length_c 22.576547
_cell_angle_alpha 52.478766
_cell_angle_beta 30.390923
_cell_angle_gamma 66.032232
_cell_volume 503.343233
_symmetry_space_group_name_H-M "P -1"
_symmetry_group_IT_number 2
_symmetry_cell_setting 'triclinic'
loop_
_space_group_symop_operation_xyz
x,y,z
-x,-y,-z
loop_
_atom_site_type_symbol
_atom_site_label
_atom_site_fract_x
_atom_site_fract_y
_atom_site_fract_z
Si Si1 0.487450 0.021727 0.902542
Si Si2 0.256238 0.851897 0.319446
Si Si3 0.328527 0.097373 0.433860
Si Si4 0.300970 0.633977 0.571537
Si Si5 0.081000 0.224366 0.793014
Si Si6 0.439740 0.518741 0.253127
O O1 0.621200 0.982282 0.807094
O O2 0.828509 0.110243 0.832881
O O3 0.329889 0.240416 0.891066
O O4 0.180869 0.826976 0.063966
O O5 0.893131 0.856161 0.455693
O O6 0.588299 0.881762 0.265362
O O7 0.224746 0.611356 0.347306
O O8 0.417283 0.675550 0.717984
O O9 0.000000 0.000000 0.500000
O O10 0.500000 0.500000 0.500000
O O11 0.251605 0.489945 0.675673
O O12 0.490815 0.898013 0.450055
O O13 0.874990 0.593300 0.681300
#
# Coordination Sequence:
#
# PCOD9052904 Si02
#       6
#     2   2   2   2   2   2
#     4   8  19  32  58  84 111 144 183 221 265 334
#     4  10  19  34  60  82 110 144 183 227 271 321
#     4  10  19  34  56  81 112 146 181 228 274 323
#     4  10  20  35  56  79 111 147 182 226 277 323
#     4  10  17  35  58  82 109 150 179 218 280 317
#     4   8  18  34  54  79 111 139 182 223 272 320
#
# _framework density 23.840591
#
# number of rings (size 3 to 8) (size 9 to 14) (size 15 to 20)
#    1.000    1.667    0.000    3.000    0.000    0.000 
#    0.000    4.167    3.667   27.000    0.000    0.000 
#    0.000    0.000    0.000    0.000    0.000    0.000 
#
# Total GULP energy -66889.350524 kJ/mol
# GULP energy per Si atom -5574.112544 kJ/mol
# Density = 2.378633 g / cm^3
# Si number density = 23.840591 Si / 1000 Ang^3
#
#
#
# Elastic Constant Matrix: (Units=GPa)
#
#
# Indices 1 2 3 4 5 6 
#
# 1 126.9840 18.6923 39.5859 -9.5484 22.3100 -9.7687
# 2 18.6923 78.1440 53.0528 -21.8484 19.2146 -23.4812
# 3 39.5859 53.0528 136.0611 -38.0388 31.6175 -27.5581
# 4 -9.5484 -21.8484 -38.0388 29.0247 -11.5991 7.6386
# 5 22.3100 19.2146 31.6175 -11.5991 37.6481 -9.1165
# 6 -9.7687 -23.4812 -27.5581 7.6386 -9.1165 23.0878
#
#
#
# Elastic Compliance Matrix: (Units=1/GPa)
#
#
# Indices 1 2 3 4 5 6 
#
# 1 0.009145 -0.000174 -0.002022 -0.001426 -0.004033 0.000158
# 2 -0.000174 0.022237 -0.002499 0.008131 -0.002828 0.015753
# 3 -0.002022 -0.002499 0.015559 0.013823 -0.004165 0.008956
# 4 -0.001426 0.008131 0.013823 0.058324 0.004683 0.006717
# 5 -0.004033 -0.002828 -0.004165 0.004683 0.036099 0.003151
# 6 0.000158 0.015753 0.008956 0.006717 0.003151 0.069112
#
#
# Mechanical properties :
#
#
# Convention : Reuss Voigt Hill
#
# Bulk Modulus (GPa) = 26.63179 62.65012 44.64095
# Shear Modulus (GPa) = 21.51619 33.27599 27.39609
#
# Velocity S-wave (km/s) = 3.00743 3.74005 3.39357
# Velocity P-wave (km/s) = 4.82229 6.70720 5.84128
#
# Compressibility (1/GPa) = 0.03754911
#
# Stress axis : x y z
#
# Youngs Moduli (GPa) = 109.35529 44.96922 64.27241
#
# Poissons Ratio (x) = 0.00784 0.12997
# Poissons Ratio (y) = 0.01906 0.16064
# Poissons Ratio (z) = 0.22114 0.11239
#
# Static dielectric constant tensor:
#      x y z
#    x 2.010520 0.033420 0.032110 
#    y 0.033420 1.957790 -0.036040 
#    z 0.032110 -0.036040 1.890710 
# 
# From -- ./inp_files/100237.got.cif
#   From: 2010.05.17/outbox.cif.g08.bks.cpg/sg2_51_cif.got.tgz:100237.got - 2010.06.03 11:33:40.
