data_PCOD9052525
_publ_section_title
;
Structure prediction by ZEFSAII (Michael W. Deem and Ramdas Pophale) SiO2 
 PCOD9052525
Probable space group: P -1
;
_chemical_formula_sum "Si O2"
_cell_formula_units_Z 13
_cell_length_a 9.313358
_cell_length_b 13.663026
_cell_length_c 8.012432
_cell_angle_alpha 93.008743
_cell_angle_beta 147.589361
_cell_angle_gamma 77.630359
_cell_volume 517.495395
_symmetry_space_group_name_H-M "P -1"
_symmetry_group_IT_number 2
_symmetry_cell_setting 'triclinic'
loop_
_space_group_symop_operation_xyz
x,y,z
-x,-y,-z
loop_
_atom_site_type_symbol
_atom_site_label
_atom_site_fract_x
_atom_site_fract_y
_atom_site_fract_z
Si Si1 0.694033 0.067294 0.648860
Si Si2 0.774129 0.383908 0.994565
Si Si3 0.004984 0.640068 0.254369
Si Si4 0.500000 0.500000 0.500000
Si Si5 0.687734 0.069344 0.246729
Si Si6 0.456925 0.696078 0.918374
Si Si7 0.362351 0.288574 0.417759
O O1 0.677446 0.085577 0.436921
O O2 0.582112 0.176034 0.643692
O O3 0.500000 0.000000 0.500000
O O4 0.000000 0.000000 0.000000
O O5 0.716081 0.497380 0.878974
O O6 0.561386 0.363175 0.632777
O O7 0.633038 0.361019 0.018863
O O8 0.099860 0.318969 0.290604
O O9 0.216737 0.543450 0.358285
O O10 0.224321 0.695132 0.549923
O O11 0.784388 0.641788 0.187032
O O12 0.796362 0.706239 0.912350
O O13 0.590236 0.183225 0.080255
O O14 0.000000 0.000000 0.500000
O O15 0.500000 0.000000 0.000000
#
# Coordination Sequence:
#
# PCOD9052525 Si02
#       7
#     2   2   2   1   2   2   2
#     4  12  27  43  69 102 134 187 239 291 340 412
#     4  11  26  44  74 104 140 184 231 287 350 422
#     4  11  24  46  74 101 142 182 234 287 354 417
#     4  10  26  46  76 110 136 182 234 292 348 426
#     4  12  28  46  68 102 145 188 235 290 342 411
#     4  12  26  46  72 103 144 191 226 291 356 409
#     4  11  24  46  69  98 143 186 232 287 347 415
#
# _framework density 25.120996000000002
#
# number of rings (size 3 to 8) (size 9 to 14) (size 15 to 20)
#    0.000    0.615    1.538    5.538    8.615    6.769 
#    0.000    0.000    0.000    0.000    0.000    0.000 
#    0.000    0.000    0.000    0.000    0.000    0.000 
#
# Total GULP energy -72644.459374 kJ/mol
# GULP energy per Si atom -5588.035336 kJ/mol
# Density = 2.506382 g / cm^3
# Si number density = 25.120996 Si / 1000 Ang^3
#
#
#
# Elastic Constant Matrix: (Units=GPa)
#
#
# Indices 1 2 3 4 5 6 
#
# 1 157.4933 34.1492 46.2947 -9.9401 41.9837 -2.0773
# 2 34.1492 141.7877 62.6009 -12.2521 27.0941 -9.2767
# 3 46.2947 62.6009 182.0657 -0.4299 49.0827 -11.8428
# 4 -9.9401 -12.2521 -0.4299 55.6702 -5.8125 9.9863
# 5 41.9837 27.0941 49.0827 -5.8125 72.4117 -6.0731
# 6 -2.0773 -9.2767 -11.8428 9.9863 -6.0731 26.0358
#
#
#
# Elastic Compliance Matrix: (Units=1/GPa)
#
#
# Indices 1 2 3 4 5 6 
#
# 1 0.007794 -0.000817 -0.000783 0.001051 -0.003706 -0.001293
# 2 -0.000817 0.008711 -0.002466 0.001452 -0.000901 0.001150
# 3 -0.000783 -0.002466 0.007697 -0.001416 -0.003767 0.002224
# 4 0.001051 0.001452 -0.001416 0.019883 0.000775 -0.007488
# 5 -0.003706 -0.000901 -0.003767 0.000775 0.019064 0.001819
# 6 -0.001293 0.001150 0.002224 -0.007488 0.001819 0.043023
#
#
# Mechanical properties :
#
#
# Convention : Reuss Voigt Hill
#
# Bulk Modulus (GPa) = 62.23259 85.27070 73.75164
# Shear Modulus (GPa) = 41.78406 53.37700 47.58053
#
# Velocity S-wave (km/s) = 4.08280 4.61455 4.35679
# Velocity P-wave (km/s) = 6.85949 7.89999 7.39805
#
# Compressibility (1/GPa) = 0.01606875
#
# Stress axis : x y z
#
# Youngs Moduli (GPa) = 128.30073 114.79231 129.92675
#
# Poissons Ratio (x) = 0.09377 0.10179
# Poissons Ratio (y) = 0.10480 0.32046
# Poissons Ratio (z) = 0.10051 0.28313
#
# Static dielectric constant tensor:
#      x y z
#    x 2.036490 0.033300 -0.068900 
#    y 0.033300 2.104840 0.031850 
#    z -0.068900 0.031850 2.013200 
# 
# From -- ./inp_files/202349.got.cif
#   From: 2010.05.17/outbox.cif.g08.bks.cpg/sg2_102_cif.got.tgz:202349.got - 2010.06.03 11:33:40.
