data_PCOD9052627
_publ_section_title
;
Structure prediction by ZEFSAII (Michael W. Deem and Ramdas Pophale) SiO2 
 PCOD9052627
Probable space group: P -1
;
_chemical_formula_sum "Si O2"
_cell_formula_units_Z 13
_cell_length_a 14.684550
_cell_length_b 11.070922
_cell_length_c 20.647043
_cell_angle_alpha 41.650210
_cell_angle_beta 161.357265
_cell_angle_gamma 145.355609
_cell_volume 600.258511
_symmetry_space_group_name_H-M "P -1"
_symmetry_group_IT_number 2
_symmetry_cell_setting 'triclinic'
loop_
_space_group_symop_operation_xyz
x,y,z
-x,-y,-z
loop_
_atom_site_type_symbol
_atom_site_label
_atom_site_fract_x
_atom_site_fract_y
_atom_site_fract_z
Si Si1 0.094549 0.881187 0.970522
Si Si2 0.000000 0.000000 0.000000
Si Si3 0.221758 0.144000 0.366143
Si Si4 0.011240 0.557144 0.888537
Si Si5 0.220382 0.091296 0.713927
Si Si6 0.129430 0.771818 0.670023
Si Si7 0.019114 0.630409 0.197496
O O1 0.923894 0.919145 0.778868
O O2 0.953200 0.894863 0.938372
O O3 0.048017 0.646319 0.029115
O O4 0.492938 0.056656 0.167719
O O5 0.830976 0.755722 0.016873
O O6 0.584951 0.176827 0.606674
O O7 0.257474 0.374302 0.309813
O O8 0.968720 0.984017 0.314768
O O9 0.008680 0.487847 0.840932
O O10 0.377285 0.773068 0.061224
O O11 0.122981 0.238277 0.549930
O O12 0.094023 0.882539 0.666903
O O13 0.076337 0.543997 0.741796
#
# Coordination Sequence:
#
# PCOD9052627 Si02
#       7
#     2   1   2   2   2   2   2
#     4  11  24  41  66  90 130 165 215 252 313 363
#     4  10  26  48  62  86 118 174 220 266 296 364
#     4  12  22  38  64  98 127 165 200 261 314 381
#     4  11  21  38  61  98 132 165 196 259 311 385
#     4  11  22  36  61 101 140 155 200 242 331 383
#     4  11  23  38  62  97 129 170 196 258 308 386
#     4  11  24  41  66  89 130 166 214 252 313 360
#
# _framework density 21.657335
#
# number of rings (size 3 to 8) (size 9 to 14) (size 15 to 20)
#    0.000    0.923    3.077    5.077    4.308    1.231 
#    0.000    0.000    0.000   10.154    0.000    0.000 
#    0.000    0.000    0.000    0.000    0.000    0.000 
#
# Total GULP energy -72456.363978 kJ/mol
# GULP energy per Si atom -5573.566460 kJ/mol
# Density = 2.160804 g / cm^3
# Si number density = 21.657335 Si / 1000 Ang^3
#
#
#
# Elastic Constant Matrix: (Units=GPa)
#
#
# Indices 1 2 3 4 5 6 
#
# 1 92.1274 19.4692 9.8977 -7.4499 -15.6703 8.0145
# 2 19.4692 102.7033 -10.5615 -16.6320 4.4056 24.6656
# 3 9.8977 -10.5615 22.8031 18.3682 -17.6292 11.1781
# 4 -7.4499 -16.6320 18.3682 20.7982 14.0429 -0.4373
# 5 -15.6703 4.4056 -17.6292 14.0429 16.4919 0.9735
# 6 8.0145 24.6656 11.1781 -0.4373 0.9735 40.1325
#
#
#
# Elastic Compliance Matrix: (Units=1/GPa)
#
#
# Indices 1 2 3 4 5 6 
#
# 1 0.013170 -0.002907 -0.004781 0.002625 0.005922 0.000373
# 2 -0.002907 0.014408 0.007651 0.004795 -0.001907 -0.010307
# 3 -0.004781 0.007651 -0.002837 0.031291 -0.036162 -0.001739
# 4 0.002625 0.004795 0.031291 0.002417 0.033370 -0.012970
# 5 0.005922 -0.001907 -0.036162 0.033370 -0.000914 0.010447
# 6 0.000373 -0.010307 -0.001739 -0.012970 0.010447 0.031268
#
#
# Mechanical properties :
#
#
# Convention : Reuss Voigt Hill
#
# Bulk Modulus (GPa) = 40.54147 28.36052 34.45100
# Shear Modulus (GPa) = 75.97932 28.73972 52.35952
#
# Velocity S-wave (km/s) = 5.92947 3.64678 4.92228
# Velocity P-wave (km/s) = 8.10175 5.55478 6.94600
#
# Compressibility (1/GPa) = 0.02466610
#
# Stress axis : x y z
#
# Youngs Moduli (GPa) = 75.93229 69.40388 -352.44248
#
# Poissons Ratio (x) = 0.20175 -1.68513
# Poissons Ratio (y) = 0.22072 2.69649
# Poissons Ratio (z) = 0.36305 -0.53100
#
# Static dielectric constant tensor:
#      x y z
#    x 1.788910 -0.025600 0.010030 
#    y -0.025600 1.936590 -0.083330 
#    z 0.010030 -0.083330 1.810090 
# 
# From -- ./inp_files/156271.got.cif
#   From: 2010.05.17/outbox.cif.g08.bks.cpg/sg2_79_cif.got.tgz:156271.got - 2010.06.03 11:33:40.
