data_PCOD9052873
_publ_section_title
;
Structure prediction by ZEFSAII (Michael W. Deem and Ramdas Pophale) SiO2 
 PCOD9052873
Probable space group: P -1
;
_chemical_formula_sum "Si O2"
_cell_formula_units_Z 13
_cell_length_a 9.104016
_cell_length_b 9.476776
_cell_length_c 9.146337
_cell_angle_alpha 45.388869
_cell_angle_beta 66.673200
_cell_angle_gamma 79.874839
_cell_volume 509.491024
_symmetry_space_group_name_H-M "P -1"
_symmetry_group_IT_number 2
_symmetry_cell_setting 'triclinic'
loop_
_space_group_symop_operation_xyz
x,y,z
-x,-y,-z
loop_
_atom_site_type_symbol
_atom_site_label
_atom_site_fract_x
_atom_site_fract_y
_atom_site_fract_z
Si Si1 0.646474 0.286049 0.828117
Si Si2 0.185261 0.025451 0.857937
Si Si3 0.956484 0.705552 0.799896
Si Si4 0.705646 0.708624 0.639010
Si Si5 0.705503 0.709009 0.115578
Si Si6 0.703812 0.234190 0.504608
Si Si7 0.500000 0.000000 0.500000
O O1 0.693182 0.520414 0.673972
O O2 0.453024 0.240308 0.937209
O O3 0.694239 0.223079 0.691985
O O4 0.742142 0.172703 0.988693
O O5 0.222751 0.090429 0.629048
O O6 0.281839 0.196319 0.798668
O O7 0.000000 0.000000 0.000000
O O8 0.821717 0.672012 0.751403
O O9 0.122591 0.811070 0.587749
O O10 0.867884 0.797896 0.900307
O O11 0.000000 0.500000 0.000000
O O12 0.535657 0.771687 0.703990
O O13 0.693016 0.469056 0.306346
O O14 0.573392 0.097566 0.556737
#
# Coordination Sequence:
#
# PCOD9052873 Si02
#       7
#     2   2   2   2   2   2   1
#     4  12  26  50  83 110 157 213 262 327 388 481
#     4  12  29  45  79 119 153 206 270 319 397 479
#     4  10  27  47  77 112 157 204 255 329 398 461
#     4  12  28  51  80 115 159 203 268 325 397 468
#     4  11  24  50  74 114 156 204 260 326 393 466
#     4  11  24  50  78 111 161 205 260 327 394 461
#     4  12  28  44  80 116 152 206 262 318 400 460
#
# _framework density 25.515661000000001
#
# number of rings (size 3 to 8) (size 9 to 14) (size 15 to 20)
#    0.000    0.615    3.077    2.769   10.769    3.692 
#    0.000    0.000    0.000    0.000    0.000    0.000 
#    0.000    0.000    0.000    0.000    0.000    0.000 
#
# Total GULP energy -72663.802497 kJ/mol
# GULP energy per Si atom -5589.523269 kJ/mol
# Density = 2.545759 g / cm^3
# Si number density = 25.515661 Si / 1000 Ang^3
#
#
#
# Elastic Constant Matrix: (Units=GPa)
#
#
# Indices 1 2 3 4 5 6 
#
# 1 118.7143 16.6745 32.8737 1.7131 35.1354 -16.6324
# 2 16.6745 131.0843 40.6963 0.6841 16.0759 7.7505
# 3 32.8737 40.6963 97.7805 -4.0045 32.6243 -11.4418
# 4 1.7131 0.6841 -4.0045 48.1793 -7.5860 0.7248
# 5 35.1354 16.0759 32.6243 -7.5860 44.3756 6.6086
# 6 -16.6324 7.7505 -11.4418 0.7248 6.6086 53.8364
#
#
#
# Elastic Compliance Matrix: (Units=1/GPa)
#
#
# Indices 1 2 3 4 5 6 
#
# 1 0.012496 -0.000632 0.000296 -0.002235 -0.011069 0.005403
# 2 -0.000632 0.009037 -0.003999 -0.000329 0.000467 -0.002399
# 3 0.000296 -0.003999 0.016332 -0.000525 -0.011714 0.005583
# 4 -0.002235 -0.000329 -0.000525 0.021811 0.006274 -0.001818
# 5 -0.011069 0.000467 -0.011714 0.006274 0.042493 -0.011277
# 6 0.005403 -0.002399 0.005583 -0.001818 -0.011277 0.023185
#
#
# Mechanical properties :
#
#
# Convention : Reuss Voigt Hill
#
# Bulk Modulus (GPa) = 34.25256 58.67424 46.46340
# Shear Modulus (GPa) = 34.78138 46.43390 40.60764
#
# Velocity S-wave (km/s) = 3.69608 4.27056 3.99366
# Velocity P-wave (km/s) = 5.62742 6.88202 6.28610
#
# Compressibility (1/GPa) = 0.02919490
#
# Stress axis : x y z
#
# Youngs Moduli (GPa) = 80.02724 110.65936 61.22982
#
# Poissons Ratio (x) = 0.06990 -0.01811
# Poissons Ratio (y) = 0.05055 0.24485
# Poissons Ratio (z) = -0.02367 0.44251
#
# Static dielectric constant tensor:
#      x y z
#    x 1.880240 0.035390 0.049370 
#    y 0.035390 1.870770 -0.046090 
#    z 0.049370 -0.046090 2.004860 
# 
# From -- ./inp_files/156412.got.cif
#   From: 2010.05.17/outbox.cif.g08.bks.cpg/sg2_79_cif.got.tgz:156412.got - 2010.06.03 11:33:40.
