data_PCOD9052483
_publ_section_title
;
Structure prediction by ZEFSAII (Michael W. Deem and Ramdas Pophale) SiO2 
 PCOD9052483
Probable space group: P -1
;
_chemical_formula_sum "Si O2"
_cell_formula_units_Z 11
_cell_length_a 10.138857
_cell_length_b 9.579914
_cell_length_c 5.018700
_cell_angle_alpha 74.398786
_cell_angle_beta 88.941543
_cell_angle_gamma 55.545434
_cell_volume 381.617165
_symmetry_space_group_name_H-M "P -1"
_symmetry_group_IT_number 2
_symmetry_cell_setting 'triclinic'
loop_
_space_group_symop_operation_xyz
x,y,z
-x,-y,-z
loop_
_atom_site_type_symbol
_atom_site_label
_atom_site_fract_x
_atom_site_fract_y
_atom_site_fract_z
Si Si1 0.291744 0.490791 0.977352
Si Si2 0.505784 0.130900 0.233728
Si Si3 0.500000 0.500000 0.500000
Si Si4 0.768977 0.819455 0.135007
Si Si5 0.147705 0.814615 0.222501
Si Si6 0.976780 0.699157 0.671530
O O1 0.406949 0.478591 0.753865
O O2 0.133452 0.508993 0.861855
O O3 0.416765 0.328408 0.252512
O O4 0.204185 0.664481 0.071447
O O5 0.382618 0.176592 0.969600
O O6 0.500000 0.000000 0.500000
O O7 0.684958 0.016585 0.170161
O O8 0.331270 0.726305 0.366304
O O9 0.867150 0.800316 0.879067
O O10 0.869485 0.696366 0.445535
O O11 0.056467 0.786355 0.479296
O O12 0.000000 0.000000 0.000000
#
# Coordination Sequence:
#
# PCOD9052483 Si02
#       6
#     2   2   1   2   2   2
#     4  11  26  48  73 112 153 198 257 317 379 461
#     4  11  26  45  75 110 152 204 249 309 389 451
#     4  10  26  46  72 114 148 200 254 326 372 464
#     4  11  24  48  70 109 145 202 244 308 376 457
#     4  11  26  48  76 113 150 204 257 321 388 451
#     4  11  24  48  73 109 147 197 255 309 381 456
#
# _framework density 28.824695999999999
#
# number of rings (size 3 to 8) (size 9 to 14) (size 15 to 20)
#    0.000    1.091    3.636    0.545    2.545   11.636 
#    3.273    0.000    0.000    0.000    0.000    0.000 
#    0.000    0.000    0.000    0.000    0.000    0.000 
#
# Total GULP energy -61322.855433 kJ/mol
# GULP energy per Si atom -5574.805039 kJ/mol
# Density = 2.875909 g / cm^3
# Si number density = 28.824696 Si / 1000 Ang^3
#
#
#
# Elastic Constant Matrix: (Units=GPa)
#
#
# Indices 1 2 3 4 5 6 
#
# 1 110.0266 46.7238 53.3205 4.8846 11.9237 -49.3337
# 2 46.7238 261.9731 107.1537 -18.5892 -19.8879 -66.0088
# 3 53.3205 107.1537 196.8565 2.8963 -6.9276 -30.2991
# 4 4.8846 -18.5892 2.8963 78.4794 -18.2168 -6.3147
# 5 11.9237 -19.8879 -6.9276 -18.2168 76.7780 1.2095
# 6 -49.3337 -66.0088 -30.2991 -6.3147 1.2095 47.3652
#
#
#
# Elastic Compliance Matrix: (Units=1/GPa)
#
#
# Indices 1 2 3 4 5 6 
#
# 1 0.020811 0.004218 -0.004177 0.001273 -0.002610 0.025118
# 2 0.004218 0.008546 -0.003558 0.003482 0.001836 0.014445
# 3 -0.004177 -0.003558 0.007447 -0.001192 0.000190 -0.004709
# 4 0.001273 0.003482 -0.001192 0.015062 0.004055 0.007320
# 5 -0.002610 0.001836 0.000190 0.004055 0.014883 0.000123
# 6 0.025118 0.014445 -0.004709 0.007320 0.000123 0.065366
#
#
# Mechanical properties :
#
#
# Convention : Reuss Voigt Hill
#
# Bulk Modulus (GPa) = 33.59039 109.25023 71.42031
# Shear Modulus (GPa) = 33.54087 64.63509 49.08798
#
# Velocity S-wave (km/s) = 3.41488 4.74048 4.13120
# Velocity P-wave (km/s) = 5.21797 8.24299 6.89833
#
# Compressibility (1/GPa) = 0.02977042
#
# Stress axis : x y z
#
# Youngs Moduli (GPa) = 48.05241 117.01154 134.27579
#
# Poissons Ratio (x) = -0.49358 0.56092
# Poissons Ratio (y) = -0.20270 0.47772
# Poissons Ratio (z) = 0.20073 0.41630
#
# Static dielectric constant tensor:
#      x y z
#    x 2.782620 0.481040 0.236340 
#    y 0.481040 2.736730 -0.061330 
#    z 0.236340 -0.061330 2.237860 
# 
# From -- ./inp_files/63383.got.cif
#   From: 2010.05.17/outbox.cif.g08.bks.cpg/sg2_32_cif.got.tgz:63383.got - 2010.06.03 11:33:40.
