data_PCOD9052850
_publ_section_title
;
Structure prediction by ZEFSAII (Michael W. Deem and Ramdas Pophale) SiO2 
 PCOD9052850
Probable space group: P -1
;
_chemical_formula_sum "Si O2"
_cell_formula_units_Z 12
_cell_length_a 14.056071
_cell_length_b 14.134524
_cell_length_c 6.842833
_cell_angle_alpha 132.391285
_cell_angle_beta 37.577478
_cell_angle_gamma 148.469461
_cell_volume 433.562101
_symmetry_space_group_name_H-M "P -1"
_symmetry_group_IT_number 2
_symmetry_cell_setting 'triclinic'
loop_
_space_group_symop_operation_xyz
x,y,z
-x,-y,-z
loop_
_atom_site_type_symbol
_atom_site_label
_atom_site_fract_x
_atom_site_fract_y
_atom_site_fract_z
Si Si1 0.424189 0.439942 0.762408
Si Si2 0.470309 0.952132 0.252871
Si Si3 0.723905 0.930821 0.391239
Si Si4 0.966910 0.593594 0.533714
Si Si5 0.844948 0.021756 0.862084
Si Si6 0.909708 0.703576 0.445043
O O1 0.500000 0.500000 0.500000
O O2 0.340166 0.247984 0.682509
O O3 0.657430 0.602135 0.715598
O O4 0.229831 0.427425 0.103474
O O5 0.218543 0.783214 0.389671
O O6 0.500000 0.000000 0.500000
O O7 0.490557 0.096542 0.298450
O O8 0.622043 0.914222 0.949206
O O9 0.068768 0.889028 0.574560
O O10 0.795422 0.973043 0.102463
O O11 0.000000 0.500000 0.500000
O O12 0.913423 0.567759 0.353324
O O13 0.982079 0.226693 0.849758
O O14 0.000000 0.000000 0.500000
#
# Coordination Sequence:
#
# PCOD9052850 Si02
#       6
#     2   2   2   2   2   2
#     4  12  30  50  82 121 154 214 272 323 396 478
#     4   9  23  44  78 108 152 209 258 316 402 462
#     4  10  26  54  78 112 165 210 264 327 402 472
#     4  11  27  49  73 116 165 203 256 333 399 466
#     4  11  25  45  85 118 151 213 269 322 398 480
#     4  11  28  49  82 118 159 207 267 329 396 468
#
# _framework density 27.677696000000001
#
# number of rings (size 3 to 8) (size 9 to 14) (size 15 to 20)
#    0.000    1.333    0.000    1.500   16.333    7.333 
#    0.000    1.667    0.000    0.000    0.000    0.000 
#    0.000    0.000    0.000    0.000    0.000    0.000 
#
# Total GULP energy -67046.498554 kJ/mol
# GULP energy per Si atom -5587.208213 kJ/mol
# Density = 2.761470 g / cm^3
# Si number density = 27.677696 Si / 1000 Ang^3
#
#
#
# Elastic Constant Matrix: (Units=GPa)
#
#
# Indices 1 2 3 4 5 6 
#
# 1 222.0694 87.4828 96.4749 -4.5714 -38.4847 -33.1705
# 2 87.4828 134.0910 63.2929 -16.3709 -10.2613 -24.5893
# 3 96.4749 63.2929 210.0499 -11.9010 -34.3356 -12.6610
# 4 -4.5714 -16.3709 -11.9010 46.5618 -6.4667 -11.6149
# 5 -38.4847 -10.2613 -34.3356 -6.4667 69.5423 -11.0158
# 6 -33.1705 -24.5893 -12.6610 -11.6149 -11.0158 77.6124
#
#
#
# Elastic Compliance Matrix: (Units=1/GPa)
#
#
# Indices 1 2 3 4 5 6 
#
# 1 0.007494 -0.003379 -0.001763 0.000111 0.003154 0.002309
# 2 -0.003379 0.011271 -0.001518 0.003817 -0.000218 0.002420
# 3 -0.001763 -0.001518 0.006479 0.001334 0.002176 0.000331
# 4 0.000111 0.003817 0.001334 0.025279 0.004570 0.005906
# 5 0.003154 -0.000218 0.002176 0.004570 0.018373 0.004926
# 6 0.002309 0.002420 0.000331 0.005906 0.004926 0.016275
#
#
# Mechanical properties :
#
#
# Convention : Reuss Voigt Hill
#
# Bulk Modulus (GPa) = 83.85418 117.85683 100.85550
# Shear Modulus (GPa) = 48.79759 60.00729 54.40244
#
# Velocity S-wave (km/s) = 4.20344 4.66131 4.43828
# Velocity P-wave (km/s) = 7.34309 8.46432 7.92356
#
# Compressibility (1/GPa) = 0.01192546
#
# Stress axis : x y z
#
# Youngs Moduli (GPa) = 133.44611 88.72011 154.34415
#
# Poissons Ratio (x) = 0.29974 0.27206
# Poissons Ratio (y) = 0.45085 0.23431
# Poissons Ratio (z) = 0.23522 0.13469
#
# Static dielectric constant tensor:
#      x y z
#    x 2.421480 -0.231110 -0.089250 
#    y -0.231110 2.449100 0.188220 
#    z -0.089250 0.188220 2.477120 
# 
# From -- ./inp_files/311863.got.cif
#   From: 2010.05.17/outbox.cif.g08.bks.cpg/sg2_156_cif.got.tgz:311863.got - 2010.06.03 11:33:40.
