data_PCOD9052009
_publ_section_title
;
Structure prediction by ZEFSAII (Michael W. Deem and Ramdas Pophale) SiO2 
 PCOD9052009
Probable space group: P -1
;
_chemical_formula_sum "Si O2"
_cell_formula_units_Z 16
_cell_length_a 14.639232
_cell_length_b 12.383598
_cell_length_c 11.306745
_cell_angle_alpha 79.790630
_cell_angle_beta 121.761342
_cell_angle_gamma 148.659862
_cell_volume 714.188150
_symmetry_space_group_name_H-M "P -1"
_symmetry_group_IT_number 2
_symmetry_cell_setting 'triclinic'
loop_
_space_group_symop_operation_xyz
x,y,z
-x,-y,-z
loop_
_atom_site_type_symbol
_atom_site_label
_atom_site_fract_x
_atom_site_fract_y
_atom_site_fract_z
Si Si1 0.058922 0.830006 0.447550
Si Si2 0.679267 0.692733 0.473331
Si Si3 0.090215 0.402612 0.125666
Si Si4 0.799155 0.712993 0.921513
Si Si5 0.851108 0.319980 0.554607
Si Si6 0.898130 0.105529 0.270414
Si Si7 0.267424 0.788965 0.242760
Si Si8 0.599637 0.468054 0.067470
O O1 0.754298 0.568063 0.266266
O O2 0.141345 0.804184 0.431213
O O3 0.129885 0.871880 0.623307
O O4 0.203082 0.077891 0.473243
O O5 0.500000 0.500000 0.500000
O O6 0.489090 0.513952 0.265239
O O7 0.912795 0.823772 0.599842
O O8 0.157771 0.347969 0.126062
O O9 0.283587 0.684657 0.210657
O O10 0.024106 0.310395 0.231650
O O11 0.861740 0.243247 0.925192
O O12 0.806315 0.666723 0.064255
O O13 0.000000 0.000000 0.000000
O O14 0.905637 0.383687 0.721571
O O15 0.000000 0.500000 0.500000
O O16 0.561240 0.097767 0.400321
O O17 0.636307 0.824001 0.082686
O O18 0.500000 0.500000 0.000000
#
# Coordination Sequence:
#
# PCOD9052009 Si02
#       8
#     2   2   2   2   2   2   2   2
#     4  12  25  45  71 102 146 189 238 303 360 429
#     4  12  23  43  66 100 148 189 232 286 360 434
#     4  11  24  48  70 100 139 191 236 294 365 424
#     4  12  24  43  69 105 142 187 234 291 359 437
#     4  11  25  48  73 110 138 184 248 300 369 427
#     4  12  25  43  69 104 144 189 237 293 358 432
#     4  10  25  49  74  99 146 186 241 306 357 427
#     4  12  24  42  66 101 144 182 238 287 350 434
#
# _framework density 22.403058999999999
#
# number of rings (size 3 to 8) (size 9 to 14) (size 15 to 20)
#    0.000    0.500    3.750    4.875    1.750    0.000 
#    2.250    1.875    0.000    0.000    0.000    0.000 
#    0.000    0.000    0.000    0.000    0.000    0.000 
#
# Total GULP energy -89354.569992 kJ/mol
# GULP energy per Si atom -5584.660625 kJ/mol
# Density = 2.235207 g / cm^3
# Si number density = 22.403059 Si / 1000 Ang^3
#
#
#
# Elastic Constant Matrix: (Units=GPa)
#
#
# Indices 1 2 3 4 5 6 
#
# 1 105.3166 25.0890 12.1116 0.5852 -13.8056 -12.9208
# 2 25.0890 59.7051 12.1154 -15.8583 10.4378 -0.8112
# 3 12.1116 12.1154 110.8133 4.8756 7.8622 -19.0261
# 4 0.5852 -15.8583 4.8756 34.1303 2.5765 -2.1854
# 5 -13.8056 10.4378 7.8622 2.5765 29.3999 -5.5570
# 6 -12.9208 -0.8112 -19.0261 -2.1854 -5.5570 31.2848
#
#
#
# Elastic Compliance Matrix: (Units=1/GPa)
#
#
# Indices 1 2 3 4 5 6 
#
# 1 0.014160 -0.009246 0.000123 -0.004967 0.011737 0.007421
# 2 -0.009246 0.027620 -0.002625 0.014150 -0.015921 -0.006538
# 3 0.000123 -0.002625 0.010481 -0.002293 -0.000456 0.006116
# 4 -0.004967 0.014150 -0.002293 0.036923 -0.010423 -0.002351
# 5 0.011737 -0.015921 -0.000456 -0.010423 0.048489 0.012042
# 6 0.007421 -0.006538 0.006116 -0.002351 0.012042 0.040554
#
#
# Mechanical properties :
#
#
# Convention : Reuss Voigt Hill
#
# Bulk Modulus (GPa) = 34.76272 41.60743 38.18508
# Shear Modulus (GPa) = 23.66183 34.06424 28.86304
#
# Velocity S-wave (km/s) = 3.25343 3.90361 3.59326
# Velocity P-wave (km/s) = 5.44644 6.23940 5.85636
#
# Compressibility (1/GPa) = 0.02876645
#
# Stress axis : x y z
#
# Youngs Moduli (GPa) = 70.62051 36.20592 95.41084
#
# Poissons Ratio (x) = 0.33475 -0.01175
# Poissons Ratio (y) = 0.65294 0.25043
# Poissons Ratio (z) = -0.00870 0.09503
#
# Static dielectric constant tensor:
#      x y z
#    x 1.885850 0.042840 -0.014480 
#    y 0.042840 1.845060 0.004490 
#    z -0.014480 0.004490 1.875660 
# 
# From -- ./inp_files/452298.got.cif
#   From: 2010.05.17/outbox.cif.g08.bks.cpg/sg2_227_cif.got.tgz:452298.got - 2010.06.03 11:33:40.
