data_PCOD9052933
_publ_section_title
;
Structure prediction by ZEFSAII (Michael W. Deem and Ramdas Pophale) SiO2 
 PCOD9052933
Probable space group: P -1
;
_chemical_formula_sum "Si O2"
_cell_formula_units_Z 13
_cell_length_a 5.292640
_cell_length_b 11.216023
_cell_length_c 9.471760
_cell_angle_alpha 106.786735
_cell_angle_beta 68.404873
_cell_angle_gamma 90.076170
_cell_volume 497.029300
_symmetry_space_group_name_H-M "P -1"
_symmetry_group_IT_number 2
_symmetry_cell_setting 'triclinic'
loop_
_space_group_symop_operation_xyz
x,y,z
-x,-y,-z
loop_
_atom_site_type_symbol
_atom_site_label
_atom_site_fract_x
_atom_site_fract_y
_atom_site_fract_z
Si Si1 0.163217 0.606833 0.830675
Si Si2 0.000000 0.000000 0.500000
Si Si3 0.675810 0.978658 0.291455
Si Si4 0.966466 0.599628 0.412745
Si Si5 0.682653 0.367593 0.895368
Si Si6 0.549558 0.787240 0.703387
Si Si7 0.301604 0.181397 0.029042
O O1 0.176580 0.473560 0.707100
O O2 0.432930 0.667223 0.753067
O O3 0.924755 0.702761 0.846386
O O4 0.107666 0.622377 0.014137
O O5 0.100718 0.057946 0.646189
O O6 0.649657 0.035103 0.620458
O O7 0.662777 0.128883 0.321493
O O8 0.785450 0.910751 0.102053
O O9 0.807609 0.730201 0.540931
O O10 0.000000 0.500000 0.500000
O O11 0.228136 0.633006 0.284882
O O12 0.500000 0.500000 0.000000
O O13 0.532203 0.250775 0.928833
O O14 0.611846 0.871332 0.853171
#
# Coordination Sequence:
#
# PCOD9052933 Si02
#       7
#     2   1   2   2   2   2   2
#     4  11  24  46  67 107 142 197 252 303 387 451
#     4  10  28  52  70 114 154 196 256 318 376 456
#     4  11  27  50  78 110 156 198 258 312 389 455
#     4  12  23  45  70 105 151 191 253 317 368 453
#     4  11  24  44  70 105 146 197 250 301 391 447
#     4  11  26  44  74 109 146 200 248 319 384 450
#     4  11  25  46  74 108 146 197 249 317 376 465
#
# _framework density 26.155401000000001
#
# number of rings (size 3 to 8) (size 9 to 14) (size 15 to 20)
#    0.000    0.923    3.077    2.308    8.615    1.846 
#    2.769    0.000    0.000    0.000    0.000    0.000 
#    0.000    0.000    0.000    0.000    0.000    0.000 
#
# Total GULP energy -72413.498316 kJ/mol
# GULP energy per Si atom -5570.269101 kJ/mol
# Density = 2.609587 g / cm^3
# Si number density = 26.155401 Si / 1000 Ang^3
#
#
#
# Elastic Constant Matrix: (Units=GPa)
#
#
# Indices 1 2 3 4 5 6 
#
# 1 120.6999 9.9174 41.5046 -1.5741 10.4159 -5.7845
# 2 9.9174 55.7356 34.0193 -4.0360 2.7758 -8.1504
# 3 41.5046 34.0193 166.3142 4.9012 -1.5284 10.3319
# 4 -1.5741 -4.0360 4.9012 50.5966 6.0845 -0.0054
# 5 10.4159 2.7758 -1.5284 6.0845 37.4139 -3.6712
# 6 -5.7845 -8.1504 10.3319 -0.0054 -3.6712 22.3014
#
#
#
# Elastic Compliance Matrix: (Units=1/GPa)
#
#
# Indices 1 2 3 4 5 6 
#
# 1 0.009612 0.000751 -0.002831 0.000952 -0.002645 0.003644
# 2 0.000751 0.023171 -0.005705 0.002606 -0.001500 0.011060
# 3 -0.002831 -0.005705 0.008344 -0.001491 0.001158 -0.006495
# 4 0.000952 0.002606 -0.001491 0.020596 -0.003743 0.001279
# 5 -0.002645 -0.001500 0.001158 -0.003743 0.028518 0.002923
# 6 0.003644 0.011060 -0.006495 0.001279 0.002923 0.053318
#
#
# Mechanical properties :
#
#
# Convention : Reuss Voigt Hill
#
# Bulk Modulus (GPa) = 39.12683 57.07024 48.09853
# Shear Modulus (GPa) = 29.82440 39.21628 34.52034
#
# Velocity S-wave (km/s) = 3.38046 3.87635 3.63687
# Velocity P-wave (km/s) = 5.49805 6.47317 6.00543
#
# Compressibility (1/GPa) = 0.02555791
#
# Stress axis : x y z
#
# Youngs Moduli (GPa) = 104.03566 43.15784 119.84409
#
# Poissons Ratio (x) = -0.03242 0.33930
# Poissons Ratio (y) = -0.07815 0.68367
# Poissons Ratio (z) = 0.29454 0.24620
#
# Static dielectric constant tensor:
#      x y z
#    x 2.343200 0.019840 0.000840 
#    y 0.019840 2.211420 -0.147650 
#    z 0.000840 -0.147650 2.150430 
# 
# From -- ./inp_files/130942.got.cif
#   From: 2010.05.17/outbox.cif.g08.bks.cpg/sg2_66_cif.got.tgz:130942.got - 2010.06.03 11:33:40.
