data_PCOD9052327
_publ_section_title
;
Structure prediction by ZEFSAII (Michael W. Deem and Ramdas Pophale) SiO2 
 PCOD9052327
Probable space group: P -1
;
_chemical_formula_sum "Si O2"
_cell_formula_units_Z 13
_cell_length_a 12.461271
_cell_length_b 9.078305
_cell_length_c 9.325666
_cell_angle_alpha 40.159608
_cell_angle_beta 112.394021
_cell_angle_gamma 91.140695
_cell_volume 560.212567
_symmetry_space_group_name_H-M "P -1"
_symmetry_group_IT_number 2
_symmetry_cell_setting 'triclinic'
loop_
_space_group_symop_operation_xyz
x,y,z
-x,-y,-z
loop_
_atom_site_type_symbol
_atom_site_label
_atom_site_fract_x
_atom_site_fract_y
_atom_site_fract_z
Si Si1 0.212441 0.231570 0.185055
Si Si2 0.592589 0.752881 0.139819
Si Si3 0.021731 0.018153 0.328523
Si Si4 0.500000 0.500000 0.500000
Si Si5 0.867102 0.534002 0.336244
Si Si6 0.419105 0.790005 0.790753
Si Si7 0.262085 0.669045 0.041279
O O1 0.233422 0.459518 0.098426
O O2 0.091735 0.196814 0.212835
O O3 0.341025 0.976547 0.484954
O O4 0.177588 0.288170 0.959274
O O5 0.564782 0.531472 0.356703
O O6 0.744628 0.664200 0.283078
O O7 0.530491 0.840564 0.885659
O O8 0.500000 0.000000 0.000000
O O9 0.875593 0.135508 0.105980
O O10 0.000000 0.000000 0.500000
O O11 0.109134 0.745116 0.501815
O O12 0.367926 0.545487 0.310632
O O13 0.000000 0.500000 0.500000
O O14 0.500000 0.500000 0.000000
O O15 0.316204 0.802941 0.851978
#
# Coordination Sequence:
#
# PCOD9052327 Si02
#       7
#     2   2   2   1   2   2   2
#     4  12  24  46  78 103 150 202 242 310 386 436
#     4  11  26  48  71 104 146 193 245 304 370 440
#     4  12  25  47  75 108 150 194 255 309 371 457
#     4  10  26  44  76 102 148 190 248 306 378 424
#     4  12  31  48  73 115 155 196 258 310 376 455
#     4  11  24  44  72 105 144 182 258 310 362 445
#     4  11  24  44  73 110 142 197 253 306 375 453
#
# _framework density 23.205477999999999
#
# number of rings (size 3 to 8) (size 9 to 14) (size 15 to 20)
#    0.000    0.615    3.077    3.231    6.462    6.769 
#    0.000    0.000    0.000    0.000    0.000    0.000 
#    0.000    0.000    0.000    0.000    0.000    0.000 
#
# Total GULP energy -72486.272716 kJ/mol
# GULP energy per Si atom -5575.867132 kJ/mol
# Density = 2.315266 g / cm^3
# Si number density = 23.205478 Si / 1000 Ang^3
#
#
#
# Elastic Constant Matrix: (Units=GPa)
#
#
# Indices 1 2 3 4 5 6 
#
# 1 161.2303 19.7762 51.8241 13.7731 28.5645 10.2577
# 2 19.7762 77.6224 41.6657 13.2207 24.4981 1.9803
# 3 51.8241 41.6657 134.6235 25.7614 24.7768 5.6302
# 4 13.7731 13.2207 25.7614 44.0177 0.4326 14.8844
# 5 28.5645 24.4981 24.7768 0.4326 46.2543 1.8027
# 6 10.2577 1.9803 5.6302 14.8844 1.8027 34.5511
#
#
#
# Elastic Compliance Matrix: (Units=1/GPa)
#
#
# Indices 1 2 3 4 5 6 
#
# 1 0.007676 0.000612 -0.002241 -0.000755 -0.003802 -0.001425
# 2 0.000612 0.017766 -0.003614 -0.003824 -0.007872 0.001447
# 3 -0.002241 -0.003614 0.010753 -0.004950 -0.002470 0.001381
# 4 -0.000755 -0.003824 -0.004950 0.031158 0.005337 -0.012451
# 5 -0.003802 -0.007872 -0.002470 0.005337 0.029482 -0.001855
# 6 -0.001425 0.001447 0.001381 -0.012451 -0.001855 0.034518
#
#
# Mechanical properties :
#
#
# Convention : Reuss Voigt Hill
#
# Bulk Modulus (GPa) = 38.89583 66.66757 52.78170
# Shear Modulus (GPa) = 33.24287 42.31197 37.77742
#
# Velocity S-wave (km/s) = 3.78900 4.27472 4.03917
# Velocity P-wave (km/s) = 5.99499 7.29081 6.67442
#
# Compressibility (1/GPa) = 0.02570970
#
# Stress axis : x y z
#
# Youngs Moduli (GPa) = 130.27360 56.28804 92.99679
#
# Poissons Ratio (x) = -0.03444 0.20836
# Poissons Ratio (y) = -0.07970 0.33608
# Poissons Ratio (z) = 0.29189 0.20342
#
# Static dielectric constant tensor:
#      x y z
#    x 1.878760 0.007840 -0.012790 
#    y 0.007840 1.902280 -0.038100 
#    z -0.012790 -0.038100 1.929650 
# 
# From -- ./inp_files/188086.got.cif
#   From: 2010.05.17/outbox.cif.g08.bks.cpg/sg2_95_cif.got.tgz:188086.got - 2010.06.03 11:33:40.
