data_PCOD9052659
_publ_section_title
;
Structure prediction by ZEFSAII (Michael W. Deem and Ramdas Pophale) SiO2 
 PCOD9052659
Probable space group: P -1
;
_chemical_formula_sum "Si O2"
_cell_formula_units_Z 15
_cell_length_a 11.931177
_cell_length_b 8.688960
_cell_length_c 11.206805
_cell_angle_alpha 108.612213
_cell_angle_beta 98.350345
_cell_angle_gamma 36.514850
_cell_volume 642.270138
_symmetry_space_group_name_H-M "P -1"
_symmetry_group_IT_number 2
_symmetry_cell_setting 'triclinic'
loop_
_space_group_symop_operation_xyz
x,y,z
-x,-y,-z
loop_
_atom_site_type_symbol
_atom_site_label
_atom_site_fract_x
_atom_site_fract_y
_atom_site_fract_z
Si Si1 0.915707 0.214467 0.437675
Si Si2 0.198684 0.233301 0.034916
Si Si3 0.556622 0.791445 0.798293
Si Si4 0.275186 0.738395 0.233292
Si Si5 0.801364 0.134098 0.005639
Si Si6 0.000000 0.500000 0.500000
Si Si7 0.356419 0.150417 0.626271
Si Si8 0.382826 0.479592 0.711068
O O1 0.925048 0.397492 0.500747
O O2 0.707377 0.402052 0.404212
O O3 0.053726 0.021581 0.297107
O O4 0.000000 0.000000 0.500000
O O5 0.276155 0.276367 0.152096
O O6 0.000000 0.500000 0.000000
O O7 0.376126 0.015697 0.915875
O O8 0.173331 0.087774 0.055822
O O9 0.648112 0.508729 0.751136
O O10 0.466028 0.927033 0.689664
O O11 0.389149 0.760854 0.307915
O O12 0.308857 0.680314 0.083593
O O13 0.698638 0.294575 0.153445
O O14 0.000000 0.000000 0.000000
O O15 0.843569 0.683804 0.411901
O O16 0.328727 0.365624 0.723496
O O17 0.500000 0.000000 0.500000
#
# Coordination Sequence:
#
# PCOD9052659 Si02
#       8
#     2   2   2   2   2   1   2   2
#     4  11  27  47  72 103 141 187 246 294 357 430
#     4  11  26  45  71 105 146 186 228 294 355 429
#     4  11  27  43  71 109 141 182 238 287 358 434
#     4  12  25  44  73 103 142 185 228 296 356 427
#     4  12  24  45  71 103 143 184 234 289 364 428
#     4  10  26  48  70  98 136 186 240 290 356 412
#     4  11  26  47  71 101 137 185 237 292 354 421
#     4  11  25  45  71 100 137 184 232 293 359 426
#
# _framework density 23.354657
#
# number of rings (size 3 to 8) (size 9 to 14) (size 15 to 20)
#    0.000    0.800    2.667    2.800   11.200    1.600 
#    0.000    0.000    0.000    0.000    0.000    0.000 
#    0.000    0.000    0.000    0.000    0.000    0.000 
#
# Total GULP energy -83697.456210 kJ/mol
# GULP energy per Si atom -5579.830414 kJ/mol
# Density = 2.330150 g / cm^3
# Si number density = 23.354657 Si / 1000 Ang^3
#
#
#
# Elastic Constant Matrix: (Units=GPa)
#
#
# Indices 1 2 3 4 5 6 
#
# 1 119.8478 32.8152 40.7370 -27.6228 31.1238 -4.0854
# 2 32.8152 93.9542 29.1138 -41.0064 15.4911 5.1313
# 3 40.7370 29.1138 83.1368 -36.4682 14.3652 3.0212
# 4 -27.6228 -41.0064 -36.4682 58.6004 -8.6541 -4.2464
# 5 31.1238 15.4911 14.3652 -8.6541 37.6768 -12.6219
# 6 -4.0854 5.1313 3.0212 -4.2464 -12.6219 43.0891
#
#
#
# Elastic Compliance Matrix: (Units=1/GPa)
#
#
# Indices 1 2 3 4 5 6 
#
# 1 0.012327 -0.001136 -0.003503 0.001564 -0.008261 -0.000716
# 2 -0.001136 0.016239 0.000120 0.010112 -0.004229 -0.002292
# 3 -0.003503 0.000120 0.018276 0.009340 -0.002456 -0.001427
# 4 0.001564 0.010112 0.009340 0.030489 -0.001745 0.000783
# 5 -0.008261 -0.004229 -0.002456 -0.001745 0.039415 0.011266
# 6 -0.000716 -0.002292 -0.001427 0.000783 0.011266 0.026890
#
#
# Mechanical properties :
#
#
# Convention : Reuss Voigt Hill
#
# Bulk Modulus (GPa) = 26.45306 55.80786 41.13046
# Shear Modulus (GPa) = 30.25234 40.82477 35.53856
#
# Velocity S-wave (km/s) = 3.60300 4.18549 3.90512
# Velocity P-wave (km/s) = 5.35351 6.87789 6.16301
#
# Compressibility (1/GPa) = 0.03780281
#
# Stress axis : x y z
#
# Youngs Moduli (GPa) = 81.12243 61.58012 54.71578
#
# Poissons Ratio (x) = 0.06998 0.19167
# Poissons Ratio (y) = 0.09218 -0.00654
# Poissons Ratio (z) = 0.28417 -0.00736
#
# Static dielectric constant tensor:
#      x y z
#    x 1.873500 -0.009260 -0.010090 
#    y -0.009260 1.880260 0.032240 
#    z -0.010090 0.032240 1.883190 
# 
# From -- ./inp_files/244616.got.cif
#   From: 2010.05.17/outbox.cif.g08.bks.cpg/sg2_123_cif.got.tgz:244616.got - 2010.06.03 11:33:40.
