data_PCOD9052352
_publ_section_title
;
Structure prediction by ZEFSAII (Michael W. Deem and Ramdas Pophale) SiO2 
 PCOD9052352
Probable space group: P -1
;
_chemical_formula_sum "Si O2"
_cell_formula_units_Z 16
_cell_length_a 5.802078
_cell_length_b 14.408486
_cell_length_c 24.075232
_cell_angle_alpha 25.548270
_cell_angle_beta 128.882574
_cell_angle_gamma 121.118283
_cell_volume 668.288074
_symmetry_space_group_name_H-M "P -1"
_symmetry_group_IT_number 2
_symmetry_cell_setting 'triclinic'
loop_
_space_group_symop_operation_xyz
x,y,z
-x,-y,-z
loop_
_atom_site_type_symbol
_atom_site_label
_atom_site_fract_x
_atom_site_fract_y
_atom_site_fract_z
Si Si1 0.779026 0.964705 0.437098
Si Si2 0.353736 0.023217 0.264079
Si Si3 0.724837 0.404411 0.842654
Si Si4 0.689549 0.108486 0.097571
Si Si5 0.627098 0.609869 0.013521
Si Si6 0.265352 0.434851 0.455979
Si Si7 0.240992 0.796008 0.165551
Si Si8 0.722358 0.252469 0.453650
O O1 0.540862 0.831584 0.506079
O O2 0.031841 0.909790 0.455679
O O3 0.527094 0.140528 0.274315
O O4 0.000000 0.000000 0.500000
O O5 0.370921 0.144130 0.143407
O O6 0.005876 0.026378 0.218254
O O7 0.540227 0.783464 0.421660
O O8 0.710395 0.336392 0.812906
O O9 0.443214 0.590735 0.703697
O O10 0.707236 0.194577 0.990924
O O11 0.035685 0.480433 0.867742
O O12 0.561714 0.327559 0.993573
O O13 0.501686 0.911875 0.169572
O O14 0.500000 0.500000 0.000000
O O15 0.500000 0.500000 0.500000
O O16 0.174192 0.623031 0.295069
O O17 0.945187 0.374439 0.459565
O O18 0.000000 0.000000 0.000000
#
# Coordination Sequence:
#
# PCOD9052352 Si02
#       8
#     2   2   2   2   2   2   2   2
#     4  11  26  46  75 104 145 200 255 330 387 460
#     4  10  26  45  67 107 145 193 258 310 388 468
#     4  11  25  44  72 108 149 199 257 320 391 462
#     4  11  25  43  74 104 154 196 259 320 388 471
#     4  11  26  46  73 105 146 200 259 326 391 464
#     4  11  26  45  75 111 159 207 250 317 394 469
#     4  12  24  45  78 111 157 205 258 320 390 471
#     4  11  26  46  71 111 147 194 263 310 387 470
#
# _framework density 23.941770999999999
#
# number of rings (size 3 to 8) (size 9 to 14) (size 15 to 20)
#    0.000    1.000    1.250    3.750   12.250    3.500 
#    0.000    0.000    0.000    0.000    0.000    0.000 
#    0.000    0.000    0.000    0.000    0.000    0.000 
#
# Total GULP energy -89142.726967 kJ/mol
# GULP energy per Si atom -5571.420435 kJ/mol
# Density = 2.388728 g / cm^3
# Si number density = 23.941771 Si / 1000 Ang^3
#
#
#
# Elastic Constant Matrix: (Units=GPa)
#
#
# Indices 1 2 3 4 5 6 
#
# 1 93.6483 60.3956 29.4457 8.1060 3.0060 27.6214
# 2 60.3956 131.8246 1.2401 39.9277 8.3989 15.2363
# 3 29.4457 1.2401 103.2934 32.4661 1.5148 16.9589
# 4 8.1060 39.9277 32.4661 40.3840 11.6422 7.1472
# 5 3.0060 8.3989 1.5148 11.6422 35.6202 18.3575
# 6 27.6214 15.2363 16.9589 7.1472 18.3575 38.4911
#
#
#
# Elastic Compliance Matrix: (Units=1/GPa)
#
#
# Indices 1 2 3 4 5 6 
#
# 1 0.030560 -0.021767 -0.016207 0.030699 -0.000891 -0.011449
# 2 -0.021767 0.030048 0.019473 -0.043297 0.008530 -0.000882
# 3 -0.016207 0.019473 0.027767 -0.040700 0.012313 -0.006627
# 4 0.030699 -0.043297 -0.040700 0.100713 -0.027381 0.007399
# 5 -0.000891 0.008530 0.012313 -0.027381 0.047931 -0.025938
# 6 -0.011449 -0.000882 -0.006627 0.007399 -0.025938 0.048462
#
#
# Mechanical properties :
#
#
# Convention : Reuss Voigt Hill
#
# Bulk Modulus (GPa) = 19.46544 56.76988 38.11766
# Shear Modulus (GPa) = 14.72286 38.74471 26.73378
#
# Velocity S-wave (km/s) = 2.48250 4.02716 3.34521
# Velocity P-wave (km/s) = 4.04537 6.73700 5.55663
#
# Compressibility (1/GPa) = 0.05137309
#
# Stress axis : x y z
#
# Youngs Moduli (GPa) = 32.72210 33.28022 36.01359
#
# Poissons Ratio (x) = 0.72442 0.58367
# Poissons Ratio (y) = 0.71227 -0.70129
# Poissons Ratio (z) = 0.53032 -0.64806
#
# Static dielectric constant tensor:
#      x y z
#    x 1.985670 -0.053340 -0.025900 
#    y -0.053340 2.501710 -0.096310 
#    z -0.025900 -0.096310 1.999860 
# 
# From -- ./inp_files/604628.got.cif
#   From: 2010.05.17/outbox.cif.g08.bks.cpg/sg2_303_cif.got.tgz:604628.got - 2010.06.03 11:33:40.
