data_PCOD9052110
_publ_section_title
;
Structure prediction by ZEFSAII (Michael W. Deem and Ramdas Pophale) SiO2 
 PCOD9052110
Probable space group: P -1
;
_chemical_formula_sum "Si O2"
_cell_formula_units_Z 16
_cell_length_a 5.699166
_cell_length_b 27.197635
_cell_length_c 12.267602
_cell_angle_alpha 153.561645
_cell_angle_beta 52.193208
_cell_angle_gamma 133.518132
_cell_volume 613.898190
_symmetry_space_group_name_H-M "P -1"
_symmetry_group_IT_number 2
_symmetry_cell_setting 'triclinic'
loop_
_space_group_symop_operation_xyz
x,y,z
-x,-y,-z
loop_
_atom_site_type_symbol
_atom_site_label
_atom_site_fract_x
_atom_site_fract_y
_atom_site_fract_z
Si Si1 0.503097 0.629740 0.441074
Si Si2 0.295404 0.036794 0.217212
Si Si3 0.509334 0.377735 0.008609
Si Si4 0.371293 0.178918 0.039534
Si Si5 0.161743 0.430539 0.395079
Si Si6 0.633565 0.976532 0.588344
Si Si7 0.384097 0.294293 0.678933
Si Si8 0.762204 0.265750 0.897129
O O1 0.680211 0.747820 0.698955
O O2 0.590074 0.640750 0.311374
O O3 0.129631 0.619515 0.534445
O O4 0.546830 0.515803 0.254302
O O5 0.443436 0.075113 0.370452
O O6 0.260883 0.153947 0.411711
O O7 0.968924 0.920830 0.099327
O O8 0.500000 0.000000 0.000000
O O9 0.672274 0.348965 0.789374
O O10 0.750184 0.349635 0.969327
O O11 0.222997 0.338244 0.112620
O O12 0.566494 0.268001 0.064651
O O13 0.572593 0.097601 0.846064
O O14 0.500000 0.500000 0.500000
O O15 0.000000 0.500000 0.500000
O O16 0.401735 0.874033 0.370202
O O17 0.000000 0.000000 0.500000
O O18 0.151286 0.301957 0.863282
#
# Coordination Sequence:
#
# PCOD9052110 Si02
#       8
#     2   2   2   2   2   2   2   2
#     4  11  28  49  74 113 154 204 253 321 396 470
#     4  12  27  46  74 109 154 201 253 318 392 468
#     4  11  27  48  75 107 149 198 261 311 388 466
#     4  12  27  48  75 113 155 194 259 321 389 470
#     4  10  25  51  78 111 154 210 266 325 386 472
#     4  12  24  46  71 111 143 197 256 311 388 458
#     4  12  26  50  73 110 152 199 258 315 395 466
#     4  12  26  43  79 106 147 200 252 326 381 466
#
# _framework density 26.062956
#
# number of rings (size 3 to 8) (size 9 to 14) (size 15 to 20)
#    0.000    0.500    3.750    3.000   10.500    2.500 
#    4.500    0.000    0.000    0.000    0.000    0.000 
#    0.000    0.000    0.000    0.000    0.000    0.000 
#
# Total GULP energy -89365.271899 kJ/mol
# GULP energy per Si atom -5585.329494 kJ/mol
# Density = 2.600364 g / cm^3
# Si number density = 26.062956 Si / 1000 Ang^3
#
#
#
# Elastic Constant Matrix: (Units=GPa)
#
#
# Indices 1 2 3 4 5 6 
#
# 1 54.8763 30.6144 14.0030 13.0817 -0.6413 -9.8781
# 2 30.6144 101.3889 27.9728 -17.2970 -4.3532 -28.7540
# 3 14.0030 27.9728 131.3566 2.0589 10.8865 -2.3177
# 4 13.0817 -17.2970 2.0589 50.4680 2.9624 2.5035
# 5 -0.6413 -4.3532 10.8865 2.9624 32.1905 1.4971
# 6 -9.8781 -28.7540 -2.3177 2.5035 1.4971 47.1020
#
#
#
# Elastic Compliance Matrix: (Units=1/GPa)
#
#
# Indices 1 2 3 4 5 6 
#
# 1 0.025974 -0.009253 -0.000671 -0.009914 0.000392 0.000280
# 2 -0.009253 0.017089 -0.002802 0.007863 0.001984 0.007873
# 3 -0.000671 -0.002802 0.008532 -0.000887 -0.003136 -0.001284
# 4 -0.009914 0.007863 -0.000887 0.025118 -0.001210 0.001381
# 5 0.000392 0.001984 -0.003136 -0.001210 0.032505 0.000171
# 6 0.000280 0.007873 -0.001284 0.001381 0.000171 0.025953
#
#
# Mechanical properties :
#
#
# Convention : Reuss Voigt Hill
#
# Bulk Modulus (GPa) = 38.24775 48.08912 43.16843
# Shear Modulus (GPa) = 29.52685 40.28753 34.90719
#
# Velocity S-wave (km/s) = 3.36952 3.93590 3.66367
# Velocity P-wave (km/s) = 5.46307 6.25670 5.87331
#
# Compressibility (1/GPa) = 0.02614533
#
# Stress axis : x y z
#
# Youngs Moduli (GPa) = 38.49981 58.51642 117.20376
#
# Poissons Ratio (x) = 0.54144 0.07861
# Poissons Ratio (y) = 0.35623 0.32836
# Poissons Ratio (z) = 0.02582 0.16394
#
# Static dielectric constant tensor:
#      x y z
#    x 2.230830 0.117890 -0.001590 
#    y 0.117890 2.023780 -0.078200 
#    z -0.001590 -0.078200 2.039450 
# 
# From -- ./inp_files/371452.got.cif
#   From: 2010.05.17/outbox.cif.g08.bks.cpg/sg2_186_cif.got.tgz:371452.got - 2010.06.03 11:33:40.
