data_PCOD9052655
_publ_section_title
;
Structure prediction by ZEFSAII (Michael W. Deem and Ramdas Pophale) SiO2 
 PCOD9052655
Probable space group: P -1
;
_chemical_formula_sum "Si O2"
_cell_formula_units_Z 12
_cell_length_a 15.271439
_cell_length_b 9.370295
_cell_length_c 10.947142
_cell_angle_alpha 132.484263
_cell_angle_beta 138.727627
_cell_angle_gamma 34.818357
_cell_volume 582.882427
_symmetry_space_group_name_H-M "P -1"
_symmetry_group_IT_number 2
_symmetry_cell_setting 'triclinic'
loop_
_space_group_symop_operation_xyz
x,y,z
-x,-y,-z
loop_
_atom_site_type_symbol
_atom_site_label
_atom_site_fract_x
_atom_site_fract_y
_atom_site_fract_z
Si Si1 0.969973 0.706152 0.999349
Si Si2 0.899111 0.293309 0.094796
Si Si3 0.998441 0.936764 0.601352
Si Si4 0.777828 0.918599 0.535628
Si Si5 0.314393 0.434489 0.759533
Si Si6 0.610932 0.087261 0.700186
O O1 0.788923 0.864908 0.827459
O O2 0.973208 0.900041 0.191830
O O3 0.000000 0.500000 0.000000
O O4 0.117418 0.581802 0.977465
O O5 0.731489 0.422091 0.076636
O O6 0.000000 0.000000 0.000000
O O7 0.160420 0.643096 0.627171
O O8 0.826433 0.994476 0.510040
O O9 0.000000 0.000000 0.500000
O O10 0.965239 0.720368 0.684215
O O11 0.698904 0.782367 0.350969
O O12 0.662164 0.124269 0.641645
O O13 0.490820 0.308679 0.800024
O O14 0.500000 0.000000 0.500000
#
# Coordination Sequence:
#
# PCOD9052655 Si02
#       6
#     2   2   2   2   2   2
#     4  11  24  38  61  88 126 157 199 252 301 353
#     4  10  17  35  57  86 113 150 205 245 283 355
#     4  11  23  36  59  94 122 156 205 248 302 353
#     4   9  19  37  61  85 118 161 203 241 294 361
#     4  10  20  38  65  85 117 160 207 245 293 364
#     4   9  21  40  66  88 118 161 206 244 305 353
#
# _framework density 20.587343000000001
#
# number of rings (size 3 to 8) (size 9 to 14) (size 15 to 20)
#    0.000    2.000    3.333    2.000    9.333    0.667 
#    0.000    1.667    0.000    0.000    0.000    0.000 
#    0.000    0.000    0.000    0.000    0.000    0.000 
#
# Total GULP energy -66897.068422 kJ/mol
# GULP energy per Si atom -5574.755702 kJ/mol
# Density = 2.054049 g / cm^3
# Si number density = 20.587343 Si / 1000 Ang^3
#
#
#
# Elastic Constant Matrix: (Units=GPa)
#
#
# Indices 1 2 3 4 5 6 
#
# 1 243.6638 65.6548 44.2924 5.6739 -34.0380 -1.5044
# 2 65.6548 49.2786 12.2120 10.7108 -12.4731 -3.5171
# 3 44.2924 12.2120 77.8555 5.7873 -4.9006 -1.0432
# 4 5.6739 10.7108 5.7873 25.2648 -1.5320 -6.9850
# 5 -34.0380 -12.4731 -4.9006 -1.5320 48.3149 3.7859
# 6 -1.5044 -3.5171 -1.0432 -6.9850 3.7859 45.4270
#
#
#
# Elastic Compliance Matrix: (Units=1/GPa)
#
#
# Indices 1 2 3 4 5 6 
#
# 1 0.007374 -0.009107 -0.002820 0.002931 0.002674 -0.000298
# 2 -0.009107 0.035723 0.000704 -0.013037 0.002443 0.000272
# 3 -0.002820 0.000704 0.014538 -0.003059 -0.000416 -0.000141
# 4 0.002931 -0.013037 -0.003059 0.046847 -0.000617 0.006272
# 5 0.002674 0.002443 -0.000416 -0.000617 0.023289 -0.001768
# 6 -0.000298 0.000272 -0.000141 0.006272 -0.001768 0.023133
#
#
# Mechanical properties :
#
#
# Convention : Reuss Voigt Hill
#
# Bulk Modulus (GPa) = 28.41807 68.34625 48.38216
# Shear Modulus (GPa) = 27.01547 40.37727 33.69637
#
# Velocity S-wave (km/s) = 3.62641 4.43342 4.05007
# Velocity P-wave (km/s) = 5.60072 7.71215 6.73963
#
# Compressibility (1/GPa) = 0.03518887
#
# Stress axis : x y z
#
# Youngs Moduli (GPa) = 135.61182 27.99307 68.78736
#
# Poissons Ratio (x) = 0.25493 0.19399
# Poissons Ratio (y) = 1.23502 -0.04844
# Poissons Ratio (z) = 0.38244 -0.01971
#
# Static dielectric constant tensor:
#      x y z
#    x 1.822600 -0.033470 -0.001650 
#    y -0.033470 1.728900 0.047320 
#    z -0.001650 0.047320 1.794550 
# 
# From -- ./inp_files/413725.got.cif
#   From: 2010.05.17/outbox.cif.g08.bks.cpg/sg2_207_cif.got.tgz:413725.got - 2010.06.03 11:33:40.
