data_PCOD9052835
_publ_section_title
;
Structure prediction by ZEFSAII (Michael W. Deem and Ramdas Pophale) SiO2 
 PCOD9052835
Probable space group: P -1
;
_chemical_formula_sum "Si O2"
_cell_formula_units_Z 16
_cell_length_a 7.566526
_cell_length_b 13.876641
_cell_length_c 6.452503
_cell_angle_alpha 106.713763
_cell_angle_beta 68.967399
_cell_angle_gamma 97.484643
_cell_volume 605.369846
_symmetry_space_group_name_H-M "P -1"
_symmetry_group_IT_number 2
_symmetry_cell_setting 'triclinic'
loop_
_space_group_symop_operation_xyz
x,y,z
-x,-y,-z
loop_
_atom_site_type_symbol
_atom_site_label
_atom_site_fract_x
_atom_site_fract_y
_atom_site_fract_z
Si Si1 0.234101 0.794483 0.716251
Si Si2 0.815245 0.686010 0.381530
Si Si3 0.469997 0.850556 0.004891
Si Si4 0.882499 0.395659 0.539553
Si Si5 0.270844 0.471047 0.972857
Si Si6 0.481545 0.365696 0.173474
Si Si7 0.703173 0.041278 0.520893
Si Si8 0.844484 0.856830 0.135453
O O1 0.230153 0.672270 0.623099
O O2 0.246012 0.849882 0.526524
O O3 0.418763 0.846738 0.782861
O O4 0.044067 0.826276 0.935510
O O5 0.634958 0.661262 0.586764
O O6 0.794081 0.778254 0.293491
O O7 0.977084 0.687063 0.484945
O O8 0.869987 0.591607 0.152705
O O9 0.338197 0.934987 0.208430
O O10 0.679051 0.859202 0.027724
O O11 0.408449 0.733450 0.999872
O O12 0.761975 0.437157 0.802694
O O13 0.000000 0.500000 0.500000
O O14 0.344243 0.387397 0.048776
O O15 0.410996 0.527239 0.788504
O O16 0.500000 0.000000 0.500000
O O17 0.849379 0.963637 0.318884
#
# Coordination Sequence:
#
# PCOD9052835 Si02
#       8
#     2   2   2   2   2   2   2   2
#     4  12  28  50  79 111 154 207 252 317 385 459
#     4  12  25  46  71 105 151 203 244 323 375 444
#     4  11  26  49  76 111 152 198 254 318 381 454
#     4  12  26  47  73 111 154 200 256 309 380 456
#     4  11  24  44  68 103 145 201 255 305 376 452
#     4  11  24  41  68 105 147 197 251 308 376 450
#     4  10  26  52  77 118 150 196 262 319 382 463
#     4  11  26  51  77 112 154 195 259 317 388 455
#
# _framework density 26.430121
#
# number of rings (size 3 to 8) (size 9 to 14) (size 15 to 20)
#    0.000    0.750    2.500    3.375    8.750    4.500 
#    2.250    0.000    0.000    0.000    0.000    0.000 
#    0.000    0.000    0.000    0.000    0.000    0.000 
#
# Total GULP energy -89319.089632 kJ/mol
# GULP energy per Si atom -5582.443102 kJ/mol
# Density = 2.636997 g / cm^3
# Si number density = 26.430121 Si / 1000 Ang^3
#
#
#
# Elastic Constant Matrix: (Units=GPa)
#
#
# Indices 1 2 3 4 5 6 
#
# 1 81.8439 24.6764 21.5856 4.1988 11.9864 -2.1717
# 2 24.6764 107.7603 49.3586 9.2012 2.0893 14.2237
# 3 21.5856 49.3586 99.0241 24.4038 -10.9136 4.4673
# 4 4.1988 9.2012 24.4038 59.6460 10.5427 -0.8129
# 5 11.9864 2.0893 -10.9136 10.5427 33.6212 5.9978
# 6 -2.1717 14.2237 4.4673 -0.8129 5.9978 33.6940
#
#
#
# Elastic Compliance Matrix: (Units=1/GPa)
#
#
# Indices 1 2 3 4 5 6 
#
# 1 0.015024 -0.002285 -0.003729 0.002256 -0.007823 0.003874
# 2 -0.002285 0.013241 -0.006279 0.000890 -0.001502 -0.004616
# 3 -0.003729 -0.006279 0.017077 -0.007539 0.009949 -0.001807
# 4 0.002256 0.000890 -0.007539 0.021472 -0.010606 0.003176
# 5 -0.007823 -0.001502 0.009949 -0.010606 0.040732 -0.008696
# 6 0.003874 -0.004616 -0.001807 0.003176 -0.008696 0.033741
#
#
# Mechanical properties :
#
#
# Convention : Reuss Voigt Hill
#
# Bulk Modulus (GPa) = 48.17622 53.31883 50.74752
# Shear Modulus (GPa) = 28.93663 38.25943 33.59803
#
# Velocity S-wave (km/s) = 3.31242 3.80882 3.56926
# Velocity P-wave (km/s) = 5.73558 6.28968 6.01901
#
# Compressibility (1/GPa) = 0.02075713
#
# Stress axis : x y z
#
# Youngs Moduli (GPa) = 66.56234 75.52135 58.55797
#
# Poissons Ratio (x) = 0.17253 0.21837
# Poissons Ratio (y) = 0.15206 0.36767
# Poissons Ratio (z) = 0.24822 0.47418
#
# Static dielectric constant tensor:
#      x y z
#    x 2.230860 -0.043250 0.023340 
#    y -0.043250 2.063240 -0.017650 
#    z 0.023340 -0.017650 2.144960 
# 
# From -- ./inp_files/39204.got.cif
#   From: 2010.05.17/outbox.cif.g08.bks.cpg/sg2_20_cif.got.tgz:39204.got - 2010.06.03 11:33:40.
