data_PCOD9052773
_publ_section_title
;
Structure prediction by ZEFSAII (Michael W. Deem and Ramdas Pophale) SiO2 
 PCOD9052773
Probable space group: P -1
;
_chemical_formula_sum "Si O2"
_cell_formula_units_Z 12
_cell_length_a 12.601760
_cell_length_b 5.126809
_cell_length_c 15.173988
_cell_angle_alpha 73.632250
_cell_angle_beta 146.148856
_cell_angle_gamma 90.000631
_cell_volume 471.058150
_symmetry_space_group_name_H-M "P -1"
_symmetry_group_IT_number 2
_symmetry_cell_setting 'triclinic'
loop_
_space_group_symop_operation_xyz
x,y,z
-x,-y,-z
loop_
_atom_site_type_symbol
_atom_site_label
_atom_site_fract_x
_atom_site_fract_y
_atom_site_fract_z
Si Si1 0.528977 0.260131 0.307106
Si Si2 0.766547 0.616097 0.216939
Si Si3 0.922822 0.249995 0.000004
Si Si4 0.085248 0.760119 0.307119
Si Si5 0.576201 0.750004 0.499997
Si Si6 0.667327 0.116095 0.216937
O O1 0.325206 0.554837 0.169530
O O2 0.729727 0.250006 0.499994
O O3 0.576819 0.228625 0.240128
O O4 0.492167 0.968670 0.337328
O O5 0.829506 0.260751 0.294781
O O6 0.903443 0.728626 0.240135
O O7 0.760057 0.760748 0.294783
O O8 0.531730 0.750003 0.000000
O O9 0.000000 0.500000 0.000000
O O10 0.000000 0.000000 0.000000
O O11 0.013872 0.054820 0.169543
O O12 0.182498 0.468653 0.337341
O O13 0.500000 0.500000 0.500000
O O14 0.500000 0.000000 0.500000
#
# Coordination Sequence:
#
# PCOD9052773 Si02
#       6
#     2   2   2   2   2   2
#     4  12  30  50  84 119 158 205 267 327 392 465
#     4  10  26  49  78 113 156 204 258 322 392 471
#     4  12  32  50  78 116 160 212 260 318 392 468
#     4  12  30  50  84 119 158 205 267 327 392 465
#     4  12  26  48  74 110 160 202 250 318 384 454
#     4  10  26  49  78 113 156 204 258 322 392 471
#
# _framework density 25.474561000000001
#
# number of rings (size 3 to 8) (size 9 to 14) (size 15 to 20)
#    0.000    0.667    1.667    2.000   18.667    1.333 
#    0.000    0.000    0.000    0.000    0.000    0.000 
#    0.000    0.000    0.000    0.000    0.000    0.000 
#
# Total GULP energy -67218.732452 kJ/mol
# GULP energy per Si atom -5601.561038 kJ/mol
# Density = 2.541658 g / cm^3
# Si number density = 25.474561 Si / 1000 Ang^3
#
#
#
# Elastic Constant Matrix: (Units=GPa)
#
#
# Indices 1 2 3 4 5 6 
#
# 1 131.6274 96.9320 20.0329 17.3721 -1.1719 0.3560
# 2 96.9320 249.7163 72.1706 1.8056 -0.8359 0.0663
# 3 20.0329 72.1706 103.0158 -4.9623 0.2053 0.0639
# 4 17.3721 1.8056 -4.9623 39.7255 -0.6402 0.7356
# 5 -1.1719 -0.8359 0.2053 -0.6402 38.4857 -3.3704
# 6 0.3560 0.0663 0.0639 0.7356 -3.3704 17.9006
#
#
#
# Elastic Compliance Matrix: (Units=1/GPa)
#
#
# Indices 1 2 3 4 5 6 
#
# 1 0.011548 -0.004680 0.000805 -0.004734 0.000168 0.000011
# 2 -0.004680 0.006937 -0.003890 0.001246 0.000053 0.000040
# 3 0.000805 -0.003890 0.012342 0.001367 -0.000114 -0.000123
# 4 -0.004734 0.001246 0.001367 0.027379 0.000244 -0.000995
# 5 0.000168 0.000053 -0.000114 0.000244 0.026429 0.004963
# 6 0.000011 0.000040 -0.000123 -0.000995 0.004963 0.056839
#
#
# Mechanical properties :
#
#
# Convention : Reuss Voigt Hill
#
# Bulk Modulus (GPa) = 65.37616 95.84783 80.61200
# Shear Modulus (GPa) = 30.84467 38.90396 34.87431
#
# Velocity S-wave (km/s) = 3.48343 3.91214 3.70399
# Velocity P-wave (km/s) = 6.47287 7.62319 7.07146
#
# Compressibility (1/GPa) = 0.01529610
#
# Stress axis : x y z
#
# Youngs Moduli (GPa) = 86.59863 144.16391 81.02520
#
# Poissons Ratio (x) = 0.67472 -0.06522
# Poissons Ratio (y) = 0.40530 0.31515
# Poissons Ratio (z) = -0.06970 0.56074
#
# Static dielectric constant tensor:
#      x y z
#    x 1.976800 0.002000 0.004220 
#    y 0.002000 2.070140 0.058800 
#    z 0.004220 0.058800 2.101270 
# 
# From -- ./inp_files/510291.got.cif
#   From: 2010.05.17/outbox.cif.g08.bks.cpg/sg2_256_cif.got.tgz:510291.got - 2010.06.03 11:33:40.
