data_PCOD9052153
_publ_section_title
;
Structure prediction by ZEFSAII (Michael W. Deem and Ramdas Pophale) SiO2 
 PCOD9052153
Probable space group: P -1
;
_chemical_formula_sum "Si O2"
_cell_formula_units_Z 16
_cell_length_a 20.766338
_cell_length_b 9.154167
_cell_length_c 6.510246
_cell_angle_alpha 52.502135
_cell_angle_beta 125.143324
_cell_angle_gamma 132.661448
_cell_volume 693.249669
_symmetry_space_group_name_H-M "P -1"
_symmetry_group_IT_number 2
_symmetry_cell_setting 'triclinic'
loop_
_space_group_symop_operation_xyz
x,y,z
-x,-y,-z
loop_
_atom_site_type_symbol
_atom_site_label
_atom_site_fract_x
_atom_site_fract_y
_atom_site_fract_z
Si Si1 0.360830 0.250171 0.949246
Si Si2 0.083093 0.602802 0.723428
Si Si3 0.572417 0.989676 0.416092
Si Si4 0.815848 0.615410 0.802658
Si Si5 0.279445 0.958503 0.664522
Si Si6 0.912342 0.021509 0.345728
Si Si7 0.391466 0.660848 0.482640
Si Si8 0.778549 0.794046 0.953860
O O1 0.410566 0.465194 0.721919
O O2 0.307278 0.055231 0.859734
O O3 0.406290 0.157125 0.264634
O O4 0.297773 0.307861 0.924972
O O5 0.181018 0.748165 0.668280
O O6 0.068699 0.759379 0.710050
O O7 0.000000 0.500000 0.500000
O O8 0.105792 0.445192 0.026820
O O9 0.465420 0.830605 0.313100
O O10 0.641385 0.056008 0.296829
O O11 0.589727 0.195600 0.401355
O O12 0.713660 0.439909 0.694900
O O13 0.810387 0.658524 0.997394
O O14 0.847614 0.830123 0.547188
O O15 0.264581 0.123960 0.363222
O O16 0.000000 0.000000 0.500000
O O17 0.862900 0.980228 0.071332
#
# Coordination Sequence:
#
# PCOD9052153 Si02
#       8
#     2   2   2   2   2   2   2   2
#     4  11  21  45  67  97 136 183 228 280 338 405
#     4  12  27  46  70 105 138 178 231 283 341 414
#     4  10  26  41  69  99 142 180 227 290 335 408
#     4  12  26  46  73  98 142 181 229 286 341 411
#     4  11  23  46  69  99 142 180 229 285 338 402
#     4  12  27  48  70 101 138 179 233 286 343 408
#     4  11  22  46  65 104 136 179 236 275 346 409
#     4  11  21  44  72  94 135 185 219 288 340 397
#
# _framework density 23.079708
#
# number of rings (size 3 to 8) (size 9 to 14) (size 15 to 20)
#    0.000    0.750    5.000    1.875    5.250    3.000 
#    2.250    1.875    0.000    0.000    0.000    0.000 
#    0.000    0.000    0.000    0.000    0.000    0.000 
#
# Total GULP energy -89434.222063 kJ/mol
# GULP energy per Si atom -5589.638879 kJ/mol
# Density = 2.302718 g / cm^3
# Si number density = 23.079708 Si / 1000 Ang^3
#
#
#
# Elastic Constant Matrix: (Units=GPa)
#
#
# Indices 1 2 3 4 5 6 
#
# 1 124.0067 40.2056 20.4189 11.6222 -3.6397 -8.8857
# 2 40.2056 123.5864 34.9978 17.1868 5.5219 -11.8228
# 3 20.4189 34.9978 90.8847 20.7866 17.9252 -6.1754
# 4 11.6222 17.1868 20.7866 30.2159 -0.8874 10.3241
# 5 -3.6397 5.5219 17.9252 -0.8874 35.7322 -9.0688
# 6 -8.8857 -11.8228 -6.1754 10.3241 -9.0688 38.6714
#
#
#
# Elastic Compliance Matrix: (Units=1/GPa)
#
#
# Indices 1 2 3 4 5 6 
#
# 1 0.009458 -0.002329 -0.000971 -0.002434 0.002389 0.002516
# 2 -0.002329 0.010476 -0.002174 -0.004800 0.000031 0.003609
# 3 -0.000971 -0.002174 0.016155 -0.010679 -0.007421 0.002802
# 4 -0.002434 -0.004800 -0.010679 0.049774 0.002942 -0.016330
# 5 0.002389 0.000031 -0.007421 0.002942 0.033666 0.006483
# 6 0.002516 0.003609 0.002802 -0.016330 0.006483 0.033868
#
#
# Mechanical properties :
#
#
# Convention : Reuss Voigt Hill
#
# Bulk Modulus (GPa) = 39.77813 58.85804 49.31809
# Shear Modulus (GPa) = 28.94773 37.11428 33.03101
#
# Velocity S-wave (km/s) = 3.54538 4.01445 3.78719
# Velocity P-wave (km/s) = 5.83371 6.85895 6.36700
#
# Compressibility (1/GPa) = 0.02513944
#
# Stress axis : x y z
#
# Youngs Moduli (GPa) = 105.73335 95.45378 61.90108
#
# Poissons Ratio (x) = 0.22234 0.06013
# Poissons Ratio (y) = 0.24628 0.13458
# Poissons Ratio (z) = 0.10270 0.20752
#
# Static dielectric constant tensor:
#      x y z
#    x 1.901020 0.035140 0.006820 
#    y 0.035140 1.887630 -0.068950 
#    z 0.006820 -0.068950 1.911340 
# 
# From -- ./inp_files/116732.got.cif
#   From: 2010.05.17/outbox.cif.g08.bks.cpg/sg2_59_cif.got.tgz:116732.got - 2010.06.03 11:33:40.
