data_PCOD9052660
_publ_section_title
;
Structure prediction by ZEFSAII (Michael W. Deem and Ramdas Pophale) SiO2 
 PCOD9052660
Probable space group: P -1
;
_chemical_formula_sum "Si O2"
_cell_formula_units_Z 16
_cell_length_a 18.103500
_cell_length_b 10.168426
_cell_length_c 11.242653
_cell_angle_alpha 113.860849
_cell_angle_beta 52.527456
_cell_angle_gamma 154.652845
_cell_volume 635.626523
_symmetry_space_group_name_H-M "P -1"
_symmetry_group_IT_number 2
_symmetry_cell_setting 'triclinic'
loop_
_space_group_symop_operation_xyz
x,y,z
-x,-y,-z
loop_
_atom_site_type_symbol
_atom_site_label
_atom_site_fract_x
_atom_site_fract_y
_atom_site_fract_z
Si Si1 0.810874 0.227887 0.186750
Si Si2 0.385628 0.682154 0.273753
Si Si3 0.723484 0.729904 0.397124
Si Si4 0.046813 0.310456 0.649924
Si Si5 0.302659 0.316689 0.068366
Si Si6 0.931735 0.100682 0.092365
Si Si7 0.824364 0.141536 0.598491
Si Si8 0.412575 0.723886 0.745681
O O1 0.874120 0.187862 0.197440
O O2 0.797534 0.362062 0.312018
O O3 0.583010 0.876604 0.217459
O O4 0.000000 0.500000 0.000000
O O5 0.344676 0.541826 0.140003
O O6 0.180390 0.401762 0.460192
O O7 0.464500 0.955372 0.280613
O O8 0.500000 0.500000 0.500000
O O9 0.644749 0.453844 0.380001
O O10 0.881084 0.950150 0.208574
O O11 0.830398 0.988550 0.480426
O O12 0.885532 0.193634 0.693206
O O13 0.907352 0.022909 0.772055
O O14 0.500000 0.500000 0.000000
O O15 0.234173 0.185206 0.953135
O O16 0.182520 0.438224 0.929498
O O17 0.000000 0.500000 0.500000
O O18 0.584607 0.872168 0.709965
#
# Coordination Sequence:
#
# PCOD9052660 Si02
#       8
#     2   2   2   2   2   2   2   2
#     4  12  23  47  72 107 144 191 234 298 370 434
#     4  12  25  47  74 109 147 188 244 301 361 438
#     4  10  26  48  71 103 143 198 241 293 360 430
#     4  12  26  47  75 105 151 186 246 300 360 436
#     4  12  27  48  74 110 146 192 240 305 371 420
#     4  12  25  48  75 103 151 187 244 296 364 437
#     4  11  24  49  73 108 145 191 246 297 358 423
#     4  11  25  46  73 105 141 197 240 294 360 430
#
# _framework density 25.172014999999998
#
# number of rings (size 3 to 8) (size 9 to 14) (size 15 to 20)
#    0.000    0.500    5.000    1.875    7.000    0.000 
#    2.250    3.125    0.000    0.000    0.000    0.000 
#    0.000    0.000    0.000    0.000    0.000    0.000 
#
# Total GULP energy -89662.484857 kJ/mol
# GULP energy per Si atom -5603.905304 kJ/mol
# Density = 2.511472 g / cm^3
# Si number density = 25.172015 Si / 1000 Ang^3
#
#
#
# Elastic Constant Matrix: (Units=GPa)
#
#
# Indices 1 2 3 4 5 6 
#
# 1 78.2992 27.5331 3.0695 -0.5304 -14.7742 -6.3194
# 2 27.5331 143.5920 31.7252 22.1576 -6.9226 -13.7884
# 3 3.0695 31.7252 73.0265 -1.6722 -18.0331 3.4667
# 4 -0.5304 22.1576 -1.6722 46.5081 3.3457 -14.8175
# 5 -14.7742 -6.9226 -18.0331 3.3457 39.3689 -3.9489
# 6 -6.3194 -13.7884 3.4667 -14.8175 -3.9489 64.6331
#
#
#
# Elastic Compliance Matrix: (Units=1/GPa)
#
#
# Indices 1 2 3 4 5 6 
#
# 1 0.015109 -0.003242 0.002259 0.001821 0.006126 0.001456
# 2 -0.003242 0.009211 -0.004276 -0.004231 -0.001112 0.000839
# 3 0.002259 -0.004276 0.017477 0.001898 0.007868 -0.000713
# 4 0.001821 -0.004231 0.001898 0.025230 -0.000843 0.004906
# 5 0.006126 -0.001112 0.007868 -0.000843 0.031346 0.001662
# 6 0.001456 0.000839 -0.000713 0.004906 0.001662 0.017058
#
#
# Mechanical properties :
#
#
# Convention : Reuss Voigt Hill
#
# Bulk Modulus (GPa) = 31.97291 46.61924 39.29607
# Shear Modulus (GPa) = 36.66334 45.60800 41.13567
#
# Velocity S-wave (km/s) = 3.82057 4.26120 4.04689
# Velocity P-wave (km/s) = 5.67377 6.53995 6.12220
#
# Compressibility (1/GPa) = 0.03127648
#
# Stress axis : x y z
#
# Youngs Moduli (GPa) = 66.18704 108.57081 57.21859
#
# Poissons Ratio (x) = 0.35198 -0.12923
# Poissons Ratio (y) = 0.21457 0.24469
# Poissons Ratio (z) = -0.14949 0.46430
#
# Static dielectric constant tensor:
#      x y z
#    x 2.004880 -0.012560 -0.021430 
#    y -0.012560 2.010760 -0.011250 
#    z -0.021430 -0.011250 1.985800 
# 
# From -- ./inp_files/471208.got.cif
#   From: 2010.05.17/outbox.cif.g08.bks.cpg/sg2_236_cif.got.tgz:471208.got - 2010.06.03 11:33:40.
