data_PCOD9052967
_publ_section_title
;
Structure prediction by ZEFSAII (Michael W. Deem and Ramdas Pophale) SiO2 
 PCOD9052967
Probable space group: P -1
;
_chemical_formula_sum "Si O2"
_cell_formula_units_Z 12
_cell_length_a 8.997595
_cell_length_b 11.261554
_cell_length_c 6.763443
_cell_angle_alpha 100.118345
_cell_angle_beta 77.508503
_cell_angle_gamma 57.523108
_cell_volume 527.837409
_symmetry_space_group_name_H-M "P -1"
_symmetry_group_IT_number 2
_symmetry_cell_setting 'triclinic'
loop_
_space_group_symop_operation_xyz
x,y,z
-x,-y,-z
loop_
_atom_site_type_symbol
_atom_site_label
_atom_site_fract_x
_atom_site_fract_y
_atom_site_fract_z
Si Si1 0.155413 0.804431 0.078035
Si Si2 0.520969 0.360189 0.563013
Si Si3 0.556770 0.159276 0.143387
Si Si4 0.932611 0.126694 0.357732
Si Si5 0.119081 0.560322 0.925272
Si Si6 0.804162 0.828030 0.843239
O O1 0.290811 0.023127 0.945920
O O2 0.355946 0.781571 0.013381
O O3 0.007244 0.955011 0.287076
O O4 0.136562 0.672106 0.088460
O O5 0.500000 0.500000 0.500000
O O6 0.520192 0.248846 0.379615
O O7 0.735065 0.253382 0.554351
O O8 0.336214 0.431782 0.770202
O O9 0.887980 0.163823 0.140694
O O10 0.362286 0.187513 0.147956
O O11 0.109272 0.132138 0.346130
O O12 0.987593 0.669341 0.816171
O O13 0.000000 0.500000 0.000000
#
# Coordination Sequence:
#
# PCOD9052967 Si02
#       6
#     2   2   2   2   2   2
#     4   8  14  29  47  65  93 126 162 191 236 282
#     4  11  17  30  50  76  96 124 170 204 240 280
#     4   9  17  30  55  75  95 123 167 213 235 278
#     4   8  14  27  49  69  87 123 164 203 228 272
#     4  11  21  32  46  72 107 133 157 195 249 300
#     4   9  17  32  50  77  99 124 162 204 249 279
#
# _framework density 22.734275
#
# number of rings (size 3 to 8) (size 9 to 14) (size 15 to 20)
#    0.000    2.667    5.000    3.000    0.000    0.667 
#    0.000    4.167    0.000    0.000    0.000    7.000 
#    0.000    0.000    0.000    0.000    0.000    0.000 
#
# Total GULP energy -66831.331798 kJ/mol
# GULP energy per Si atom -5569.277650 kJ/mol
# Density = 2.268253 g / cm^3
# Si number density = 22.734275 Si / 1000 Ang^3
#
#
#
# Elastic Constant Matrix: (Units=GPa)
#
#
# Indices 1 2 3 4 5 6 
#
# 1 114.0084 43.8757 45.2290 5.5527 -44.0292 38.0825
# 2 43.8757 122.0535 47.5550 3.9126 -23.1236 41.4591
# 3 45.2290 47.5550 114.9009 15.0030 -40.5693 18.6010
# 4 5.5527 3.9126 15.0030 34.4251 0.9586 -10.6391
# 5 -44.0292 -23.1236 -40.5693 0.9586 50.5356 -4.0168
# 6 38.0825 41.4591 18.6010 -10.6391 -4.0168 55.5757
#
#
#
# Elastic Compliance Matrix: (Units=1/GPa)
#
#
# Indices 1 2 3 4 5 6 
#
# 1 0.020955 0.001271 0.002050 -0.010062 0.019362 -0.016520
# 2 0.001271 0.013090 -0.002019 -0.004163 0.004727 -0.010415
# 3 0.002050 -0.002019 0.015425 -0.008991 0.012951 -0.005846
# 4 -0.010062 -0.004163 -0.008991 0.041642 -0.017110 0.019745
# 5 0.019362 0.004727 0.012951 -0.017110 0.047877 -0.020943
# 6 -0.016520 -0.010415 -0.005846 0.019745 -0.020943 0.041306
#
#
# Mechanical properties :
#
#
# Convention : Reuss Voigt Hill
#
# Bulk Modulus (GPa) = 19.20385 69.36469 44.28427
# Shear Modulus (GPa) = 25.63458 42.39413 34.01436
#
# Velocity S-wave (km/s) = 3.36158 4.32298 3.87223
# Velocity P-wave (km/s) = 4.85102 7.44949 6.28599
#
# Compressibility (1/GPa) = 0.05207290
#
# Stress axis : x y z
#
# Youngs Moduli (GPa) = 47.72229 76.39502 64.82918
#
# Poissons Ratio (x) = -0.09707 -0.13291
# Poissons Ratio (y) = -0.06064 0.13090
# Poissons Ratio (z) = -0.09784 0.15425
#
# Static dielectric constant tensor:
#      x y z
#    x 1.989280 -0.057100 0.049980 
#    y -0.057100 2.009780 -0.139720 
#    z 0.049980 -0.139720 1.961580 
# 
# From -- ./inp_files/376798.got.cif
#   From: 2010.05.17/outbox.cif.g08.bks.cpg/sg2_189_cif.got.tgz:376798.got - 2010.06.03 11:33:40.
