data_PCOD9052727
_publ_section_title
;
Structure prediction by ZEFSAII (Michael W. Deem and Ramdas Pophale) SiO2 
 PCOD9052727
Probable space group: P -1
;
_chemical_formula_sum "Si O2"
_cell_formula_units_Z 13
_cell_length_a 17.483921
_cell_length_b 5.453350
_cell_length_c 6.557401
_cell_angle_alpha 78.777776
_cell_angle_beta 115.531917
_cell_angle_gamma 116.760104
_cell_volume 503.743237
_symmetry_space_group_name_H-M "P -1"
_symmetry_group_IT_number 2
_symmetry_cell_setting 'triclinic'
loop_
_space_group_symop_operation_xyz
x,y,z
-x,-y,-z
loop_
_atom_site_type_symbol
_atom_site_label
_atom_site_fract_x
_atom_site_fract_y
_atom_site_fract_z
Si Si1 0.406587 0.021753 0.466118
Si Si2 0.247378 0.831969 0.613019
Si Si3 0.302234 0.204141 0.985652
Si Si4 0.850345 0.648977 0.095959
Si Si5 0.000000 0.000000 0.500000
Si Si6 0.520312 0.305938 0.895684
Si Si7 0.091412 0.510392 0.216222
O O1 0.352458 0.056234 0.202846
O O2 0.454396 0.277739 0.632675
O O3 0.500000 0.000000 0.500000
O O4 0.327524 0.814035 0.561516
O O5 0.204981 0.604355 0.776326
O O6 0.159416 0.781230 0.374373
O O7 0.288770 0.108538 0.750989
O O8 0.371118 0.522424 0.050644
O O9 0.201468 0.150853 0.963265
O O10 0.953640 0.812187 0.271850
O O11 0.849093 0.548302 0.883517
O O12 0.942575 0.732956 0.619879
O O13 0.500000 0.500000 0.000000
O O14 0.500000 0.000000 0.000000
O O15 0.000000 0.500000 0.000000
#
# Coordination Sequence:
#
# PCOD9052727 Si02
#       7
#     2   2   2   2   1   2   2
#     4  12  28  49  83 116 167 222 287 349 429 513
#     4  11  27  51  76 118 164 215 278 350 420 503
#     4  12  28  48  78 113 162 217 279 348 420 509
#     4  11  27  49  79 117 163 214 279 342 425 517
#     4  10  26  48  78 118 160 208 268 342 420 504
#     4  12  26  52  80 114 163 221 280 353 429 505
#     4  11  27  51  86 118 167 216 275 347 431 519
#
# _framework density 25.806799000000002
#
# number of rings (size 3 to 8) (size 9 to 14) (size 15 to 20)
#    0.000    0.615    1.538    3.692   10.769    3.692 
#    0.000    0.000    0.000    0.000    0.000    0.000 
#    0.000    0.000    0.000    0.000    0.000    0.000 
#
# Total GULP energy -72488.768448 kJ/mol
# GULP energy per Si atom -5576.059111 kJ/mol
# Density = 2.574806 g / cm^3
# Si number density = 25.806799 Si / 1000 Ang^3
#
#
#
# Elastic Constant Matrix: (Units=GPa)
#
#
# Indices 1 2 3 4 5 6 
#
# 1 125.2176 12.5992 58.6284 -3.3690 -15.3658 -6.8382
# 2 12.5992 110.4178 43.8393 3.0594 -9.8466 23.0383
# 3 58.6284 43.8393 193.4753 31.1519 -12.0420 3.0373
# 4 -3.3690 3.0594 31.1519 56.3928 12.8172 -3.1902
# 5 -15.3658 -9.8466 -12.0420 12.8172 21.8506 4.7396
# 6 -6.8382 23.0383 3.0373 -3.1902 4.7396 38.0078
#
#
#
# Elastic Compliance Matrix: (Units=1/GPa)
#
#
# Indices 1 2 3 4 5 6 
#
# 1 0.010053 0.000070 -0.003049 0.001406 0.004250 0.001598
# 2 0.000070 0.012252 -0.001933 -0.001728 0.007323 -0.008318
# 3 -0.003049 -0.001933 0.007716 -0.005458 0.004662 -0.001033
# 4 0.001406 -0.001728 -0.005458 0.025646 -0.019204 0.006284
# 5 0.004250 0.007323 0.004662 -0.019204 0.068981 -0.014261
# 6 0.001598 -0.008318 -0.001033 0.006284 -0.014261 0.034028
#
#
# Mechanical properties :
#
#
# Convention : Reuss Voigt Hill
#
# Bulk Modulus (GPa) = 49.51172 73.24942 61.38057
# Shear Modulus (GPa) = 28.53348 44.18649 36.35999
#
# Velocity S-wave (km/s) = 3.32875 4.14237 3.75764
# Velocity P-wave (km/s) = 5.83106 7.16410 6.53168
#
# Compressibility (1/GPa) = 0.02019724
#
# Stress axis : x y z
#
# Youngs Moduli (GPa) = 99.46976 81.61705 129.60483
#
# Poissons Ratio (x) = -0.00572 0.39520
# Poissons Ratio (y) = -0.00697 0.25052
# Poissons Ratio (z) = 0.30331 0.15776
#
# Static dielectric constant tensor:
#      x y z
#    x 2.130740 -0.014940 0.018540 
#    y -0.014940 2.105090 -0.017930 
#    z 0.018540 -0.017930 2.008030 
# 
# From -- ./inp_files/102891.got.cif
#   From: 2010.05.17/outbox.cif.g08.bks.cpg/sg2_52_cif.got.tgz:102891.got - 2010.06.03 11:33:40.
