data_PCOD9052872
_publ_section_title
;
Structure prediction by ZEFSAII (Michael W. Deem and Ramdas Pophale) SiO2 
 PCOD9052872
Probable space group: P -1
;
_chemical_formula_sum "Si O2"
_cell_formula_units_Z 16
_cell_length_a 11.628839
_cell_length_b 17.599611
_cell_length_c 11.979153
_cell_angle_alpha 31.067859
_cell_angle_beta 48.402264
_cell_angle_gamma 67.914912
_cell_volume 819.779642
_symmetry_space_group_name_H-M "P -1"
_symmetry_group_IT_number 2
_symmetry_cell_setting 'triclinic'
loop_
_space_group_symop_operation_xyz
x,y,z
-x,-y,-z
loop_
_atom_site_type_symbol
_atom_site_label
_atom_site_fract_x
_atom_site_fract_y
_atom_site_fract_z
Si Si1 0.542237 0.436602 0.750748
Si Si2 0.370903 0.103132 0.148963
Si Si3 0.646779 0.993234 0.184650
Si Si4 0.320465 0.211283 0.375361
Si Si5 0.073595 0.911451 0.740229
Si Si6 0.962543 0.807392 0.274635
Si Si7 0.072536 0.401935 0.648018
Si Si8 0.330131 0.177427 0.844728
O O1 0.743780 0.476280 0.564351
O O2 0.556726 0.617931 0.494993
O O3 0.424753 0.291441 0.920682
O O4 0.469195 0.356581 0.020475
O O5 0.497192 0.045075 0.201682
O O6 0.170988 0.976930 0.477712
O O7 0.393910 0.111679 0.991138
O O8 0.615658 0.867720 0.467577
O O9 0.659567 0.904172 0.175279
O O10 0.842046 0.159600 0.866262
O O11 0.192636 0.274259 0.432280
O O12 0.197487 0.055585 0.567936
O O13 0.062617 0.735746 0.005178
O O14 0.873438 0.876088 0.924945
O O15 0.895450 0.710203 0.324325
O O16 0.000000 0.000000 0.000000
O O17 0.000000 0.500000 0.500000
#
# Coordination Sequence:
#
# PCOD9052872 Si02
#       8
#     2   2   2   2   2   2   2   2
#     4  10  23  36  59  86 117 149 188 243 285 343
#     4  11  24  38  60  85 116 157 196 237 272 336
#     4  11  21  35  64  87 117 144 192 246 286 337
#     4  10  19  36  62  90 109 147 193 232 299 343
#     4  10  20  38  61  84 112 154 196 232 278 351
#     4  10  17  35  58  81 115 150 183 225 288 360
#     4  11  21  33  54  87 121 143 175 237 306 337
#     4  11  22  42  59  82 115 161 200 224 279 342
#
# _framework density 19.517439
#
# number of rings (size 3 to 8) (size 9 to 14) (size 15 to 20)
#    0.000    1.500    3.750    4.125    1.750    3.000 
#    0.000    0.000    0.000    0.750    0.000    0.000 
#    0.000    0.000    0.000    0.000    0.000    0.000 
#
# Total GULP energy -89289.227093 kJ/mol
# GULP energy per Si atom -5580.576693 kJ/mol
# Density = 1.947302 g / cm^3
# Si number density = 19.517439 Si / 1000 Ang^3
#
#
#
# Elastic Constant Matrix: (Units=GPa)
#
#
# Indices 1 2 3 4 5 6 
#
# 1 52.5016 0.4576 24.3063 8.7377 12.7163 2.6041
# 2 0.4576 45.4358 20.7613 5.1027 7.3377 5.8795
# 3 24.3063 20.7613 118.3606 7.3540 6.9183 7.1181
# 4 8.7377 5.1027 7.3540 18.8550 5.9646 5.1792
# 5 12.7163 7.3377 6.9183 5.9646 24.7183 7.9825
# 6 2.6041 5.8795 7.1181 5.1792 7.9825 30.6061
#
#
#
# Elastic Compliance Matrix: (Units=1/GPa)
#
#
# Indices 1 2 3 4 5 6 
#
# 1 0.025396 0.004501 -0.004967 -0.007991 -0.011919 0.002591
# 2 0.004501 0.025976 -0.004682 -0.004596 -0.007070 -0.001662
# 3 -0.004967 -0.004682 0.010315 -0.000591 0.001656 -0.001409
# 4 -0.007991 -0.004596 -0.000591 0.062399 -0.007159 -0.006992
# 5 -0.011919 -0.007070 0.001656 -0.007159 0.053417 -0.010733
# 6 0.002591 -0.001662 -0.001409 -0.006992 -0.010733 0.037082
#
#
# Mechanical properties :
#
#
# Convention : Reuss Voigt Hill
#
# Bulk Modulus (GPa) = 19.45894 34.14982 26.80438
# Shear Modulus (GPa) = 20.66021 26.22071 23.44046
#
# Velocity S-wave (km/s) = 3.25707 3.66929 3.46931
# Velocity P-wave (km/s) = 4.91287 5.95707 5.45999
#
# Compressibility (1/GPa) = 0.05139026
#
# Stress axis : x y z
#
# Youngs Moduli (GPa) = 39.37660 38.49670 96.94863
#
# Poissons Ratio (x) = -0.17328 0.48158
# Poissons Ratio (y) = -0.17724 0.45391
# Poissons Ratio (z) = 0.19560 0.18024
#
# Static dielectric constant tensor:
#      x y z
#    x 1.721270 -0.017550 0.005580 
#    y -0.017550 1.702170 0.011820 
#    z 0.005580 0.011820 1.700210 
# 
# From -- ./inp_files/217863.got.cif
#   From: 2010.05.17/outbox.cif.g08.bks.cpg/sg2_109_cif.got.tgz:217863.got - 2010.06.03 11:33:40.
