data_PCOD9052596
_publ_section_title
;
Structure prediction by ZEFSAII (Michael W. Deem and Ramdas Pophale) SiO2 
 PCOD9052596
Probable space group: P -1
;
_chemical_formula_sum "Si O2"
_cell_formula_units_Z 14
_cell_length_a 7.523881
_cell_length_b 10.730242
_cell_length_c 8.454822
_cell_angle_alpha 95.443174
_cell_angle_beta 122.742323
_cell_angle_gamma 97.370161
_cell_volume 558.239986
_symmetry_space_group_name_H-M "P -1"
_symmetry_group_IT_number 2
_symmetry_cell_setting 'triclinic'
loop_
_space_group_symop_operation_xyz
x,y,z
-x,-y,-z
loop_
_atom_site_type_symbol
_atom_site_label
_atom_site_fract_x
_atom_site_fract_y
_atom_site_fract_z
Si Si1 0.738000 0.534308 0.551565
Si Si2 0.686056 0.235498 0.457072
Si Si3 0.372363 0.062710 0.078624
Si Si4 0.731260 0.556584 0.190826
Si Si5 0.927646 0.381540 0.071648
Si Si6 0.879563 0.835257 0.271159
Si Si7 0.545915 0.162243 0.725409
O O1 0.500000 0.500000 0.500000
O O2 0.780595 0.388235 0.533939
O O3 0.736349 0.586995 0.381121
O O4 0.855796 0.641723 0.748072
O O5 0.528733 0.194295 0.227937
O O6 0.553086 0.192395 0.548058
O O7 0.883070 0.157903 0.540916
O O8 0.365180 0.964817 0.207700
O O9 0.156506 0.080788 0.888037
O O10 0.500000 0.000000 0.000000
O O11 0.853251 0.444441 0.201551
O O12 0.824283 0.689030 0.163859
O O13 0.500000 0.500000 0.000000
O O14 0.731626 0.276394 0.901875
O O15 0.000000 0.500000 0.000000
O O16 0.687144 0.847153 0.303312
#
# Coordination Sequence:
#
# PCOD9052596 Si02
#       7
#     2   2   2   2   2   2   2
#     4  12  26  42  69 107 144 187 237 296 364 437
#     4  12  25  47  73 103 146 190 241 294 364 424
#     4  10  26  47  73 106 142 189 249 296 348 430
#     4  12  22  39  68  97 140 186 229 293 361 415
#     4  12  23  43  68 102 143 181 237 292 360 434
#     4  11  24  45  73 103 143 190 239 294 355 424
#     4  11  24  46  72 103 146 188 237 300 351 427
#
# _framework density 25.078818999999999
#
# number of rings (size 3 to 8) (size 9 to 14) (size 15 to 20)
#    0.000    0.571    4.286    3.429    2.000    4.000 
#    0.000    4.286    0.000    0.000    0.000    0.000 
#    0.000    0.000    0.000    0.000    0.000    0.000 
#
# Total GULP energy -78213.217604 kJ/mol
# GULP energy per Si atom -5586.658400 kJ/mol
# Density = 2.502174 g / cm^3
# Si number density = 25.078819 Si / 1000 Ang^3
#
#
#
# Elastic Constant Matrix: (Units=GPa)
#
#
# Indices 1 2 3 4 5 6 
#
# 1 75.8936 -3.2911 20.3097 3.4404 6.3261 -6.7066
# 2 -3.2911 82.2723 7.8786 -8.7615 -4.7112 -8.4074
# 3 20.3097 7.8786 116.8146 7.4233 -15.1062 -4.9718
# 4 3.4404 -8.7615 7.4233 54.3659 -4.0296 3.8853
# 5 6.3261 -4.7112 -15.1062 -4.0296 29.4477 -7.9311
# 6 -6.7066 -8.4074 -4.9718 3.8853 -7.9311 17.6614
#
#
#
# Elastic Compliance Matrix: (Units=1/GPa)
#
#
# Indices 1 2 3 4 5 6 
#
# 1 0.014656 0.000948 -0.002851 -0.000922 -0.003557 0.003820
# 2 0.000948 0.013506 -0.000293 0.001887 0.004277 0.008212
# 3 -0.002851 -0.000293 0.010275 -0.001110 0.007053 0.005082
# 4 -0.000922 0.001887 -0.001110 0.019265 0.001693 -0.003242
# 5 -0.003557 0.004277 0.007053 0.001693 0.045362 0.022669
# 6 0.003820 0.008212 0.005082 -0.003242 0.022669 0.074304
#
#
# Mechanical properties :
#
#
# Convention : Reuss Voigt Hill
#
# Bulk Modulus (GPa) = 29.37322 36.08609 32.72966
# Shear Modulus (GPa) = 25.89218 36.96721 31.42969
#
# Velocity S-wave (km/s) = 3.21663 3.84349 3.54395
# Velocity P-wave (km/s) = 5.05306 5.84096 5.46124
#
# Compressibility (1/GPa) = 0.03404461
#
# Stress axis : x y z
#
# Youngs Moduli (GPa) = 68.23067 74.04261 97.32396
#
# Poissons Ratio (x) = -0.07017 0.27746
# Poissons Ratio (y) = -0.06467 0.02852
# Poissons Ratio (z) = 0.19452 0.02170
#
# Static dielectric constant tensor:
#      x y z
#    x 1.831120 -0.174920 -0.279610 
#    y -0.174920 1.983200 -0.181860 
#    z -0.279610 -0.181860 1.472330 
# 
# From -- ./inp_files/179595.got.cif
#   From: 2010.05.17/outbox.cif.g08.bks.cpg/sg2_90_cif.got.tgz:179595.got - 2010.06.03 11:33:40.
