data_PCOD9052306
_publ_section_title
;
Structure prediction by ZEFSAII (Michael W. Deem and Ramdas Pophale) SiO2 
 PCOD9052306
Probable space group: P -1
;
_chemical_formula_sum "Si O2"
_cell_formula_units_Z 15
_cell_length_a 11.469973
_cell_length_b 9.709806
_cell_length_c 25.445499
_cell_angle_alpha 154.205653
_cell_angle_beta 31.167543
_cell_angle_gamma 139.823058
_cell_volume 637.952932
_symmetry_space_group_name_H-M "P -1"
_symmetry_group_IT_number 2
_symmetry_cell_setting 'triclinic'
loop_
_space_group_symop_operation_xyz
x,y,z
-x,-y,-z
loop_
_atom_site_type_symbol
_atom_site_label
_atom_site_fract_x
_atom_site_fract_y
_atom_site_fract_z
Si Si1 0.310012 0.189697 0.363940
Si Si2 0.737045 0.621553 0.354308
Si Si3 0.500000 0.500000 0.000000
Si Si4 0.106005 0.336481 0.305212
Si Si5 0.839724 0.175300 0.801547
Si Si6 0.911076 0.875632 0.936626
Si Si7 0.402257 0.870832 0.330069
Si Si8 0.067420 0.168457 0.883439
O O1 0.526454 0.406567 0.346088
O O2 0.299433 0.903922 0.227301
O O3 0.086789 0.405399 0.514635
O O4 0.307209 0.036041 0.370095
O O5 0.904637 0.391757 0.243747
O O6 0.653747 0.900459 0.520154
O O7 0.903726 0.754170 0.290199
O O8 0.675473 0.718827 0.975521
O O9 0.688572 0.488144 0.976308
O O10 0.174188 0.109392 0.250070
O O11 0.297423 0.537171 0.271950
O O12 0.997147 0.107044 0.226204
O O13 0.917643 0.146813 0.985412
O O14 0.000000 0.000000 0.000000
O O15 0.668642 0.853882 0.215948
O O16 0.000000 0.500000 0.000000
#
# Coordination Sequence:
#
# PCOD9052306 Si02
#       8
#     2   2   1   2   2   2   2   2
#     4  12  23  43  75 104 141 184 238 293 351 421
#     4  11  23  44  77 103 142 185 243 291 349 424
#     4  10  26  44  72  96 146 186 238 284 348 418
#     4  12  28  46  70 106 149 181 237 296 359 421
#     4  11  27  44  69 108 143 191 239 288 357 419
#     4  11  25  47  73 105 139 187 245 288 350 425
#     4  12  26  46  76 108 140 191 236 295 364 420
#     4  12  30  48  72 106 145 187 236 296 361 426
#
# _framework density 23.512706999999999
#
# number of rings (size 3 to 8) (size 9 to 14) (size 15 to 20)
#    0.000    0.533    4.000    2.800    9.333    2.133 
#    0.000    0.000    0.000    0.000    0.000    0.000 
#    0.000    0.000    0.000    0.000    0.000    0.000 
#
# Total GULP energy -83797.133547 kJ/mol
# GULP energy per Si atom -5586.475570 kJ/mol
# Density = 2.345919 g / cm^3
# Si number density = 23.512707 Si / 1000 Ang^3
#
#
#
# Elastic Constant Matrix: (Units=GPa)
#
#
# Indices 1 2 3 4 5 6 
#
# 1 87.9430 73.5321 24.3014 -1.5456 -0.4023 -6.3494
# 2 73.5321 242.3913 36.7411 -8.4025 -22.2741 -5.0979
# 3 24.3014 36.7411 67.4396 -2.8610 -1.4661 -2.8762
# 4 -1.5456 -8.4025 -2.8610 39.7771 2.7761 -13.9269
# 5 -0.4023 -22.2741 -1.4661 2.7761 37.5833 16.5034
# 6 -6.3494 -5.0979 -2.8762 -13.9269 16.5034 52.1182
#
#
#
# Elastic Compliance Matrix: (Units=1/GPa)
#
#
# Indices 1 2 3 4 5 6 
#
# 1 0.016483 -0.004798 -0.003265 0.000669 -0.004087 0.002831
# 2 -0.004798 0.006181 -0.001593 0.000265 0.004099 -0.001295
# 3 -0.003265 -0.001593 0.016944 0.001144 -0.000818 0.000946
# 4 0.000669 0.000265 0.001144 0.029245 -0.006339 0.009993
# 5 -0.004087 0.004099 -0.000818 -0.006339 0.035119 -0.012957
# 6 0.002831 -0.001295 0.000946 0.009993 -0.012957 0.026231
#
#
# Mechanical properties :
#
#
# Convention : Reuss Voigt Hill
#
# Bulk Modulus (GPa) = 49.27481 74.10257 61.68869
# Shear Modulus (GPa) = 31.99368 43.44234 37.71801
#
# Velocity S-wave (km/s) = 3.69276 4.30305 4.00953
# Velocity P-wave (km/s) = 6.25973 7.50151 6.90858
#
# Compressibility (1/GPa) = 0.02029434
#
# Stress axis : x y z
#
# Youngs Moduli (GPa) = 60.66996 161.77878 59.01852
#
# Poissons Ratio (x) = 0.77624 0.19270
# Poissons Ratio (y) = 0.29110 0.09404
# Poissons Ratio (z) = 0.19809 0.25779
#
# Static dielectric constant tensor:
#      x y z
#    x 1.938490 -0.025380 -0.121240 
#    y -0.025380 1.940070 0.204110 
#    z -0.121240 0.204110 2.475640 
# 
# From -- ./inp_files/618182.got.cif
#   From: 2010.05.17/outbox.cif.g08.bks.cpg/sg2_310_cif.got.tgz:618182.got - 2010.06.03 11:33:40.
