data_PCOD9052601
_publ_section_title
;
Structure prediction by ZEFSAII (Michael W. Deem and Ramdas Pophale) SiO2 
 PCOD9052601
Probable space group: P -1
;
_chemical_formula_sum "Si O2"
_cell_formula_units_Z 12
_cell_length_a 12.728485
_cell_length_b 15.752951
_cell_length_c 9.438072
_cell_angle_alpha 117.296765
_cell_angle_beta 117.677714
_cell_angle_gamma 17.016669
_cell_volume 489.689059
_symmetry_space_group_name_H-M "P -1"
_symmetry_group_IT_number 2
_symmetry_cell_setting 'triclinic'
loop_
_space_group_symop_operation_xyz
x,y,z
-x,-y,-z
loop_
_atom_site_type_symbol
_atom_site_label
_atom_site_fract_x
_atom_site_fract_y
_atom_site_fract_z
Si Si1 0.682387 0.660457 0.418370
Si Si2 0.968188 0.920767 0.147423
Si Si3 0.851860 0.870008 0.791709
Si Si4 0.373242 0.736348 0.448886
Si Si5 0.213750 0.586737 0.284052
Si Si6 0.726177 0.785449 0.105478
O O1 0.514139 0.736998 0.511789
O O2 0.000000 0.500000 0.500000
O O3 0.871249 0.426863 0.281179
O O4 0.339875 0.957259 0.342728
O O5 0.281017 0.758392 0.257689
O O6 0.034205 0.790345 0.210230
O O7 0.575089 0.266820 0.192627
O O8 0.990401 0.854748 0.957843
O O9 0.529888 0.071295 0.836477
O O10 0.661736 0.467040 0.527033
O O11 0.000000 0.000000 0.500000
O O12 0.942953 0.708321 0.245513
O O13 0.000000 0.500000 0.000000
O O14 0.500000 0.000000 0.000000
#
# Coordination Sequence:
#
# PCOD9052601 Si02
#       6
#     2   2   2   2   2   2
#     4  12  28  49  71 103 146 189 233 297 364 418
#     4  11  23  42  68 105 135 182 237 293 352 413
#     4  12  25  43  71 104 145 181 235 297 361 422
#     4  10  26  47  74 101 142 195 243 287 346 430
#     4  11  21  41  67 102 144 178 242 293 339 415
#     4  12  21  38  67 104 140 184 233 286 346 420
#
# _framework density 24.505344999999998
#
# number of rings (size 3 to 8) (size 9 to 14) (size 15 to 20)
#    0.000    0.667    3.333    4.000    0.000    9.333 
#    0.000    0.000    0.000    0.000    0.000    0.000 
#    0.000    0.000    0.000    0.000    0.000    0.000 
#
# Total GULP energy -67147.025881 kJ/mol
# GULP energy per Si atom -5595.585490 kJ/mol
# Density = 2.444957 g / cm^3
# Si number density = 24.505345 Si / 1000 Ang^3
#
#
#
# Elastic Constant Matrix: (Units=GPa)
#
#
# Indices 1 2 3 4 5 6 
#
# 1 142.5398 20.0679 28.5941 -7.9624 2.4400 -16.3924
# 2 20.0679 60.7834 27.7215 17.3119 4.3264 6.7595
# 3 28.5941 27.7215 91.6247 -18.5823 20.8660 -13.8413
# 4 -7.9624 17.3119 -18.5823 53.5212 -6.3680 -1.3133
# 5 2.4400 4.3264 20.8660 -6.3680 51.7249 -8.3323
# 6 -16.3924 6.7595 -13.8413 -1.3133 -8.3323 49.7049
#
#
#
# Elastic Compliance Matrix: (Units=1/GPa)
#
#
# Indices 1 2 3 4 5 6 
#
# 1 0.008119 -0.003346 -0.000832 0.002198 0.001007 0.003128
# 2 -0.003346 0.027469 -0.011129 -0.013533 -0.000671 -0.008408
# 3 -0.000832 -0.011129 0.018331 0.009471 -0.004313 0.005871
# 4 0.002198 -0.013533 0.009471 0.027010 0.001527 0.006172
# 5 0.001007 -0.000671 -0.004313 0.001527 0.021738 0.002907
# 6 0.003128 -0.008408 0.005871 0.006172 0.002907 0.024579
#
#
# Mechanical properties :
#
#
# Convention : Reuss Voigt Hill
#
# Bulk Modulus (GPa) = 42.91076 49.74609 46.32843
# Shear Modulus (GPa) = 30.18805 45.56115 37.87460
#
# Velocity S-wave (km/s) = 3.51365 4.31656 3.93563
# Velocity P-wave (km/s) = 5.83179 6.72218 6.29275
#
# Compressibility (1/GPa) = 0.02330418
#
# Stress axis : x y z
#
# Youngs Moduli (GPa) = 123.16893 36.40427 54.55315
#
# Poissons Ratio (x) = 0.12182 0.04541
# Poissons Ratio (y) = 0.41217 0.60710
# Poissons Ratio (z) = 0.10253 0.40513
#
# Static dielectric constant tensor:
#      x y z
#    x 1.967020 0.013830 0.021240 
#    y 0.013830 1.982730 0.016540 
#    z 0.021240 0.016540 2.049230 
# 
# From -- ./inp_files/80438.got.cif
#   From: 2010.05.17/outbox.cif.g08.bks.cpg/sg2_41_cif.got.tgz:80438.got - 2010.06.03 11:33:40.
