data_PCOD9052957
_publ_section_title
;
Structure prediction by ZEFSAII (Michael W. Deem and Ramdas Pophale) SiO2 
 PCOD9052957
Probable space group: P -1
;
_chemical_formula_sum "Si O2"
_cell_formula_units_Z 16
_cell_length_a 10.421513
_cell_length_b 11.719685
_cell_length_c 12.511169
_cell_angle_alpha 44.719775
_cell_angle_beta 96.833565
_cell_angle_gamma 61.299382
_cell_volume 628.416650
_symmetry_space_group_name_H-M "P -1"
_symmetry_group_IT_number 2
_symmetry_cell_setting 'triclinic'
loop_
_space_group_symop_operation_xyz
x,y,z
-x,-y,-z
loop_
_atom_site_type_symbol
_atom_site_label
_atom_site_fract_x
_atom_site_fract_y
_atom_site_fract_z
Si Si1 0.344719 0.018917 0.520934
Si Si2 0.329032 0.841085 0.432025
Si Si3 0.258764 0.271328 0.664027
Si Si4 0.234745 0.449896 0.745766
Si Si5 0.448479 0.763658 0.931438
Si Si6 0.028313 0.056522 0.739055
Si Si7 0.069999 0.329028 0.932195
Si Si8 0.803719 0.392472 0.713104
O O1 0.111436 0.350287 0.273620
O O2 0.500000 0.000000 0.500000
O O3 0.341008 0.875570 0.533072
O O4 0.430848 0.856834 0.749763
O O5 0.146306 0.893884 0.353527
O O6 0.572137 0.541646 0.614286
O O7 0.232822 0.099303 0.191348
O O8 0.349262 0.306692 0.736689
O O9 0.275124 0.348806 0.503324
O O10 0.000000 0.500000 0.500000
O O11 0.370204 0.986019 0.857370
O O12 0.011585 0.753517 0.474347
O O13 0.207807 0.291780 0.885317
O O14 0.310738 0.487537 0.825502
O O15 0.288842 0.774863 0.934340
O O16 0.952639 0.173922 0.775597
O O17 0.952323 0.288754 0.897970
#
# Coordination Sequence:
#
# PCOD9052957 Si02
#       8
#     2   2   2   2   2   2   2   2
#     4  12  23  46  71  95 135 168 224 284 320 387
#     4  12  28  42  67  97 135 183 218 265 338 388
#     4  11  16  36  63  97 130 161 210 284 320 371
#     4  11  22  38  71  98 128 172 219 271 336 385
#     4  12  22  40  65  98 131 174 225 268 328 388
#     4  11  25  46  62  98 143 173 214 275 327 400
#     4  12  22  43  71 100 124 172 226 275 329 382
#     4  11  21  42  67  96 139 168 219 276 328 392
#
# _framework density 25.460813999999999
#
# number of rings (size 3 to 8) (size 9 to 14) (size 15 to 20)
#    0.000    0.500    7.500    2.625    0.000    5.000 
#    0.000    0.625    0.000    0.000    0.000    0.000 
#    0.000    0.000    0.000    0.000    0.000    0.000 
#
# Total GULP energy -89319.000887 kJ/mol
# GULP energy per Si atom -5582.437555 kJ/mol
# Density = 2.540286 g / cm^3
# Si number density = 25.460814 Si / 1000 Ang^3
#
#
#
# Elastic Constant Matrix: (Units=GPa)
#
#
# Indices 1 2 3 4 5 6 
#
# 1 122.6965 22.5444 11.6363 12.5475 29.0251 3.7547
# 2 22.5444 85.0866 41.7809 29.5703 17.5669 2.9898
# 3 11.6363 41.7809 110.8334 32.6696 6.9214 -9.7541
# 4 12.5475 29.5703 32.6696 43.3521 9.4774 6.1187
# 5 29.0251 17.5669 6.9214 9.4774 38.0808 1.4111
# 6 3.7547 2.9898 -9.7541 6.1187 1.4111 32.4893
#
#
#
# Elastic Compliance Matrix: (Units=1/GPa)
#
#
# Indices 1 2 3 4 5 6 
#
# 1 0.010085 -0.000919 -0.000188 -0.000499 -0.007077 -0.000736
# 2 -0.000919 0.017656 -0.004176 -0.007416 -0.004796 -0.001167
# 3 -0.000188 -0.004176 0.013553 -0.008485 0.001496 0.006008
# 4 -0.000499 -0.007416 -0.008485 0.036627 -0.003455 -0.008555
# 5 -0.007077 -0.004796 0.001496 -0.003455 0.034422 0.000864
# 6 -0.000736 -0.001167 0.006008 -0.008555 0.000864 0.034349
#
#
# Mechanical properties :
#
#
# Convention : Reuss Voigt Hill
#
# Bulk Modulus (GPa) = 32.54538 52.28217 42.41378
# Shear Modulus (GPa) = 29.85053 38.96145 34.40599
#
# Velocity S-wave (km/s) = 3.42776 3.91609 3.68003
# Velocity P-wave (km/s) = 5.33633 6.40520 5.89504
#
# Compressibility (1/GPa) = 0.03072633
#
# Stress axis : x y z
#
# Youngs Moduli (GPa) = 99.16154 56.63914 73.78350
#
# Poissons Ratio (x) = 0.05207 0.01386
# Poissons Ratio (y) = 0.09116 0.30814
# Poissons Ratio (z) = 0.01863 0.23654
#
# Static dielectric constant tensor:
#      x y z
#    x 2.135380 -0.012340 0.090150 
#    y -0.012340 2.043580 -0.001170 
#    z 0.090150 -0.001170 2.190080 
# 
# From -- ./inp_files/427593.got.cif
#   From: 2010.05.17/outbox.cif.g08.bks.cpg/sg2_214_cif.got.tgz:427593.got - 2010.06.03 11:33:40.
