data_PCOD9052185
_publ_section_title
;
Structure prediction by ZEFSAII (Michael W. Deem and Ramdas Pophale) SiO2 
 PCOD9052185
Probable space group: P -1
;
_chemical_formula_sum "Si O2"
_cell_formula_units_Z 13
_cell_length_a 4.831668
_cell_length_b 11.806574
_cell_length_c 9.996396
_cell_angle_alpha 100.051934
_cell_angle_beta 103.198796
_cell_angle_gamma 74.060957
_cell_volume 530.017415
_symmetry_space_group_name_H-M "P -1"
_symmetry_group_IT_number 2
_symmetry_cell_setting 'triclinic'
loop_
_space_group_symop_operation_xyz
x,y,z
-x,-y,-z
loop_
_atom_site_type_symbol
_atom_site_label
_atom_site_fract_x
_atom_site_fract_y
_atom_site_fract_z
Si Si1 0.231119 0.608812 0.955122
Si Si2 0.500000 0.500000 0.500000
Si Si3 0.835916 0.991312 0.340645
Si Si4 0.168458 0.729626 0.252827
Si Si5 0.796249 0.670581 0.414402
Si Si6 0.794074 0.856848 0.689232
Si Si7 0.366270 0.340148 0.210738
O O1 0.383863 0.675187 0.876056
O O2 0.500000 0.500000 0.000000
O O3 0.129689 0.680016 0.093913
O O4 0.056111 0.423615 0.143416
O O5 0.720317 0.552711 0.435268
O O6 0.479243 0.395589 0.364769
O O7 0.492150 0.035174 0.336283
O O8 0.933822 0.084589 0.272397
O O9 0.000000 0.000000 0.500000
O O10 0.958436 0.858690 0.276159
O O11 0.507670 0.728804 0.308064
O O12 0.089264 0.650713 0.352285
O O13 0.824430 0.765099 0.549882
O O14 0.729398 0.780037 0.789796
#
# Coordination Sequence:
#
# PCOD9052185 Si02
#       7
#     2   1   2   2   2   2   2
#     4  12  27  49  70  98 142 195 238 286 341 426
#     4  10  26  42  72  98 132 178 232 288 362 406
#     4  12  21  40  69 107 140 176 233 286 351 411
#     4  12  25  41  69 100 138 180 236 280 344 413
#     4  11  22  41  64 102 135 174 228 290 348 411
#     4  11  22  41  69 104 141 177 220 303 353 404
#     4  11  26  48  71 101 142 183 238 291 357 412
#
# _framework density 24.527497
#
# number of rings (size 3 to 8) (size 9 to 14) (size 15 to 20)
#    0.000    0.615    3.077    4.615    0.000    8.615 
#    0.000    4.615    0.000    0.000    0.000    0.000 
#    0.000    0.000    0.000    0.000    0.000    0.000 
#
# Total GULP energy -72676.929157 kJ/mol
# GULP energy per Si atom -5590.533012 kJ/mol
# Density = 2.447167 g / cm^3
# Si number density = 24.527497 Si / 1000 Ang^3
#
#
#
# Elastic Constant Matrix: (Units=GPa)
#
#
# Indices 1 2 3 4 5 6 
#
# 1 152.1608 22.5329 32.3678 0.8476 -10.9384 2.2779
# 2 22.5329 97.1875 17.8848 6.0173 -12.0056 18.2566
# 3 32.3678 17.8848 103.0821 11.4749 -28.0415 9.6659
# 4 0.8476 6.0173 11.4749 34.0848 1.7879 -11.1805
# 5 -10.9384 -12.0056 -28.0415 1.7879 40.0041 -17.3903
# 6 2.2779 18.2566 9.6659 -11.1805 -17.3903 52.7422
#
#
#
# Elastic Compliance Matrix: (Units=1/GPa)
#
#
# Indices 1 2 3 4 5 6 
#
# 1 0.007252 -0.001487 -0.002115 0.001087 0.000422 0.000959
# 2 -0.001487 0.011880 -0.000527 -0.003353 0.001065 -0.004311
# 3 -0.002115 -0.000527 0.013417 -0.004945 0.008736 -0.000353
# 4 0.001087 -0.003353 -0.004945 0.034524 -0.001936 0.008700
# 5 0.000422 0.001065 0.008736 -0.001936 0.035720 0.009379
# 6 0.000959 -0.004311 -0.000353 0.008700 0.009379 0.025412
#
#
# Mechanical properties :
#
#
# Convention : Reuss Voigt Hill
#
# Bulk Modulus (GPa) = 41.16952 55.33350 48.25151
# Shear Modulus (GPa) = 34.58768 44.00923 39.29845
#
# Velocity S-wave (km/s) = 3.75928 4.24049 4.00712
# Velocity P-wave (km/s) = 5.97197 6.82528 6.41283
#
# Compressibility (1/GPa) = 0.02428982
#
# Stress axis : x y z
#
# Youngs Moduli (GPa) = 137.89038 84.17359 74.53506
#
# Poissons Ratio (x) = 0.12520 0.15765
# Poissons Ratio (y) = 0.20510 0.03928
# Poissons Ratio (z) = 0.29166 0.04436
#
# Static dielectric constant tensor:
#      x y z
#    x 1.874350 -0.115990 0.019420 
#    y -0.115990 2.174000 -0.267090 
#    z 0.019420 -0.267090 2.056860 
# 
# From -- ./inp_files/98947.got.cif
#   From: 2010.05.17/outbox.cif.g08.bks.cpg/sg2_50_cif.got.tgz:98947.got - 2010.06.03 11:33:40.
