data_PCOD9052890
_publ_section_title
;
Structure prediction by ZEFSAII (Michael W. Deem and Ramdas Pophale) SiO2 
 PCOD9052890
Probable space group: P -1
;
_chemical_formula_sum "Si O2"
_cell_formula_units_Z 12
_cell_length_a 4.966705
_cell_length_b 9.379966
_cell_length_c 10.862582
_cell_angle_alpha 115.024729
_cell_angle_beta 108.179080
_cell_angle_gamma 81.205464
_cell_volume 435.537596
_symmetry_space_group_name_H-M "P -1"
_symmetry_group_IT_number 2
_symmetry_cell_setting 'triclinic'
loop_
_space_group_symop_operation_xyz
x,y,z
-x,-y,-z
loop_
_atom_site_type_symbol
_atom_site_label
_atom_site_fract_x
_atom_site_fract_y
_atom_site_fract_z
Si Si1 0.712451 0.593793 0.978980
Si Si2 0.440921 0.688984 0.584059
Si Si3 0.048335 0.120134 0.750577
Si Si4 0.415532 0.228969 0.640785
Si Si5 0.248851 0.575068 0.738066
Si Si6 0.059376 0.130540 0.159882
O O1 0.753963 0.766682 0.099381
O O2 0.500000 0.500000 0.000000
O O3 0.581369 0.579904 0.820422
O O4 0.000000 0.500000 0.000000
O O5 0.500000 0.500000 0.500000
O O6 0.488602 0.764747 0.485442
O O7 0.176396 0.650103 0.622315
O O8 0.633598 0.802902 0.737065
O O9 0.206506 0.110564 0.637149
O O10 0.728982 0.197206 0.732342
O O11 0.033844 0.958190 0.761400
O O12 0.216239 0.390427 0.685104
O O13 0.111055 0.711498 0.851038
O O14 0.000000 0.000000 0.000000
#
# Coordination Sequence:
#
# PCOD9052890 Si02
#       6
#     2   2   2   2   2   2
#     4  12  24  43  76 111 151 206 266 320 385 473
#     4  10  27  50  81 115 156 214 271 323 397 482
#     4  12  27  48  75 120 160 206 265 336 399 465
#     4  11  27  49  83 112 158 210 274 323 393 484
#     4  11  26  48  80 110 159 211 270 320 397 480
#     4  12  31  49  80 118 167 206 264 337 410 465
#
# _framework density 27.552160000000001
#
# number of rings (size 3 to 8) (size 9 to 14) (size 15 to 20)
#    0.000    0.667    3.333    1.000   16.333    4.000 
#    0.000    0.000    0.000    0.000    0.000    0.000 
#    0.000    0.000    0.000    0.000    0.000    0.000 
#
# Total GULP energy -66919.398669 kJ/mol
# GULP energy per Si atom -5576.616556 kJ/mol
# Density = 2.748945 g / cm^3
# Si number density = 27.552160 Si / 1000 Ang^3
#
#
#
# Elastic Constant Matrix: (Units=GPa)
#
#
# Indices 1 2 3 4 5 6 
#
# 1 117.1008 61.0328 5.9797 -7.9384 12.5193 22.7345
# 2 61.0328 184.0248 40.8190 -0.9788 -9.5612 19.8644
# 3 5.9797 40.8190 98.7007 5.0108 10.7967 10.5671
# 4 -7.9384 -0.9788 5.0108 54.9407 11.2395 -14.9133
# 5 12.5193 -9.5612 10.7967 11.2395 40.1407 -3.4637
# 6 22.7345 19.8644 10.5671 -14.9133 -3.4637 74.6236
#
#
#
# Elastic Compliance Matrix: (Units=1/GPa)
#
#
# Indices 1 2 3 4 5 6 
#
# 1 0.012076 -0.004465 0.001969 0.002026 -0.006155 -0.002650
# 2 -0.004465 0.007931 -0.003410 -0.001196 0.004508 -0.000298
# 3 0.001969 -0.003410 0.012142 -0.000379 -0.004734 -0.001707
# 4 0.002026 -0.001196 -0.000379 0.020782 -0.006322 0.003615
# 5 -0.006155 0.004508 -0.004734 -0.006322 0.031081 0.001525
# 6 -0.002650 -0.000298 -0.001707 0.003615 0.001525 0.015322
#
#
# Mechanical properties :
#
#
# Convention : Reuss Voigt Hill
#
# Bulk Modulus (GPa) = 49.16883 68.38770 58.77826
# Shear Modulus (GPa) = 42.39967 53.40733 47.90350
#
# Velocity S-wave (km/s) = 3.92712 4.40751 4.17423
# Velocity P-wave (km/s) = 6.20061 7.12577 6.67923
#
# Compressibility (1/GPa) = 0.02033809
#
# Stress axis : x y z
#
# Youngs Moduli (GPa) = 82.80844 126.08368 82.35600
#
# Poissons Ratio (x) = 0.56294 -0.16217
# Poissons Ratio (y) = 0.36972 0.28084
# Poissons Ratio (z) = -0.16306 0.42996
#
# Static dielectric constant tensor:
#      x y z
#    x 2.257790 -0.044100 -0.168780 
#    y -0.044100 2.045710 -0.084220 
#    z -0.168780 -0.084220 2.308980 
# 
# From -- ./inp_files/360934.got.cif
#   From: 2010.05.17/outbox.cif.g08.bks.cpg/sg2_181_cif.got.tgz:360934.got - 2010.06.03 11:33:40.
