data_PCOD9052616
_publ_section_title
;
Structure prediction by ZEFSAII (Michael W. Deem and Ramdas Pophale) SiO2 
 PCOD9052616
Probable space group: P -1
;
_chemical_formula_sum "Si O2"
_cell_formula_units_Z 16
_cell_length_a 11.204463
_cell_length_b 16.590863
_cell_length_c 8.810138
_cell_angle_alpha 40.214946
_cell_angle_beta 138.006723
_cell_angle_gamma 139.637719
_cell_volume 631.751682
_symmetry_space_group_name_H-M "P -1"
_symmetry_group_IT_number 2
_symmetry_cell_setting 'triclinic'
loop_
_space_group_symop_operation_xyz
x,y,z
-x,-y,-z
loop_
_atom_site_type_symbol
_atom_site_label
_atom_site_fract_x
_atom_site_fract_y
_atom_site_fract_z
Si Si1 0.012212 0.159162 0.092841
Si Si2 0.013310 0.188959 0.727747
Si Si3 0.624211 0.076450 0.359585
Si Si4 0.544818 0.682605 0.400383
Si Si5 0.276323 0.027296 0.679764
Si Si6 0.745279 0.550789 0.002154
Si Si7 0.450870 0.281513 0.978699
Si Si8 0.918777 0.504648 0.746133
O O1 0.135450 0.076476 0.378504
O O2 0.168640 0.322757 0.979551
O O3 0.853997 0.115141 0.144879
O O4 0.908098 0.125097 0.880487
O O5 0.061957 0.348482 0.507811
O O6 0.853995 0.113849 0.554651
O O7 0.222120 0.179737 0.947210
O O8 0.589485 0.213736 0.143164
O O9 0.500000 0.000000 0.500000
O O10 0.581719 0.996345 0.274409
O O11 0.625841 0.844824 0.292058
O O12 0.672379 0.623764 0.700096
O O13 0.311800 0.603862 0.330497
O O14 0.574387 0.653338 0.296398
O O15 0.564960 0.393212 0.058517
O O16 0.938345 0.532970 0.168348
O O17 0.000000 0.500000 0.000000
#
# Coordination Sequence:
#
# PCOD9052616 Si02
#       8
#     2   2   2   2   2   2   2   2
#     4  10  26  47  76 108 149 197 243 305 369 441
#     4  12  27  47  75 110 149 194 244 307 373 430
#     4  12  29  49  73 109 149 192 248 303 361 447
#     4  11  24  44  74 109 142 197 242 299 371 434
#     4  10  26  50  74 107 149 197 246 298 370 443
#     4  11  23  44  71 106 144 184 247 301 366 430
#     4  12  25  44  75 107 144 192 246 304 364 439
#     4  12  23  43  74 111 145 187 246 304 366 436
#
# _framework density 25.326405999999999
#
# number of rings (size 3 to 8) (size 9 to 14) (size 15 to 20)
#    0.000    0.750    3.750    1.875   10.500    3.500 
#    2.250    0.000    0.000    0.000    0.000    0.000 
#    0.000    0.000    0.000    0.000    0.000    0.000 
#
# Total GULP energy -89395.104859 kJ/mol
# GULP energy per Si atom -5587.194054 kJ/mol
# Density = 2.526876 g / cm^3
# Si number density = 25.326406 Si / 1000 Ang^3
#
#
#
# Elastic Constant Matrix: (Units=GPa)
#
#
# Indices 1 2 3 4 5 6 
#
# 1 120.6354 37.9428 17.2041 -8.2068 14.2089 8.6000
# 2 37.9428 104.3549 26.8594 1.5484 12.0327 -10.5835
# 3 17.2041 26.8594 93.7576 -1.0673 5.9093 -1.4351
# 4 -8.2068 1.5484 -1.0673 34.5239 4.7515 5.8404
# 5 14.2089 12.0327 5.9093 4.7515 37.2312 4.2977
# 6 8.6000 -10.5835 -1.4351 5.8404 4.2977 37.3999
#
#
#
# Elastic Compliance Matrix: (Units=1/GPa)
#
#
# Indices 1 2 3 4 5 6 
#
# 1 0.010385 -0.003721 -0.000686 0.003613 -0.002683 -0.003723
# 2 -0.003721 0.012433 -0.002671 -0.002007 -0.002480 0.004870
# 3 -0.000686 -0.002671 0.011608 0.000443 -0.000758 -0.000135
# 4 0.003613 -0.002007 0.000443 0.031484 -0.004146 -0.005822
# 5 -0.002683 -0.002480 -0.000758 -0.004146 0.029666 -0.002875
# 6 -0.003723 0.004870 -0.000135 -0.005822 -0.002875 0.030207
#
#
# Mechanical properties :
#
#
# Convention : Reuss Voigt Hill
#
# Bulk Modulus (GPa) = 49.33710 53.64006 51.48858
# Shear Modulus (GPa) = 34.08438 37.61378 35.84908
#
# Velocity S-wave (km/s) = 3.67250 3.85796 3.76637
# Velocity P-wave (km/s) = 6.12420 6.40864 6.26803
#
# Compressibility (1/GPa) = 0.02026872
#
# Stress axis : x y z
#
# Youngs Moduli (GPa) = 96.29284 80.43278 86.15005
#
# Poissons Ratio (x) = 0.29930 0.05913
# Poissons Ratio (y) = 0.35832 0.23010
# Poissons Ratio (z) = 0.06609 0.21483
#
# Static dielectric constant tensor:
#      x y z
#    x 0.309820 0.657160 0.346330 
#    y 0.657160 1.837510 -0.228850 
#    z 0.346330 -0.228850 2.047370 
# 
# From -- ./inp_files/278891.got.cif
#   From: 2010.05.17/outbox.cif.g08.bks.cpg/sg2_140_cif.got.tgz:278891.got - 2010.06.03 11:33:40.
