data_PCOD9052598
_publ_section_title
;
Structure prediction by ZEFSAII (Michael W. Deem and Ramdas Pophale) SiO2 
 PCOD9052598
Probable space group: P -1
;
_chemical_formula_sum "Si O2"
_cell_formula_units_Z 16
_cell_length_a 8.519569
_cell_length_b 17.312422
_cell_length_c 20.464732
_cell_angle_alpha 150.461767
_cell_angle_beta 148.873785
_cell_angle_gamma 31.814966
_cell_volume 700.931122
_symmetry_space_group_name_H-M "P -1"
_symmetry_group_IT_number 2
_symmetry_cell_setting 'triclinic'
loop_
_space_group_symop_operation_xyz
x,y,z
-x,-y,-z
loop_
_atom_site_type_symbol
_atom_site_label
_atom_site_fract_x
_atom_site_fract_y
_atom_site_fract_z
Si Si1 0.868588 0.349051 0.846318
Si Si2 0.640446 0.074024 0.729751
Si Si3 0.949618 0.038051 0.087372
Si Si4 0.284337 0.015748 0.830808
Si Si5 0.303911 0.382024 0.333389
Si Si6 0.332439 0.435106 0.834972
Si Si7 0.893250 0.647911 0.622675
Si Si8 0.684378 0.166376 0.531544
O O1 0.569685 0.405454 0.834353
O O2 0.756777 0.300139 0.700925
O O3 0.143759 0.165435 0.836062
O O4 0.000000 0.500000 0.000000
O O5 0.358807 0.249285 0.731425
O O6 0.975405 0.046268 0.790047
O O7 0.543411 0.912814 0.569235
O O8 0.734413 0.083277 0.846165
O O9 0.922419 0.228130 0.229281
O O10 0.612641 0.030651 0.986247
O O11 0.000000 0.000000 0.000000
O O12 0.438538 0.816118 0.718934
O O13 0.500000 0.500000 0.500000
O O14 0.070810 0.412950 0.336104
O O15 0.047281 0.437253 0.222152
O O16 0.500000 0.500000 0.000000
O O17 0.508432 0.754239 0.545162
O O18 0.000000 0.500000 0.500000
O O19 0.000000 0.000000 0.500000
#
# Coordination Sequence:
#
# PCOD9052598 Si02
#       8
#     2   2   2   2   2   2   2   2
#     4  11  28  46  77 111 147 195 251 308 373 443
#     4  10  26  47  73 106 146 196 245 302 377 438
#     4  11  23  44  76 102 145 190 248 298 368 442
#     4  11  25  46  73 108 148 193 246 302 370 441
#     4  12  28  45  76 107 151 199 249 301 378 445
#     4  11  27  47  73 108 154 192 246 313 369 444
#     4  11  26  46  71 108 142 192 244 310 363 435
#     4  11  26  47  77 103 147 193 251 303 372 444
#
# _framework density 22.826778999999998
#
# number of rings (size 3 to 8) (size 9 to 14) (size 15 to 20)
#    0.000    1.000    1.250    2.625   15.750    2.000 
#    0.000    0.000    0.000    0.000    0.000    0.000 
#    0.000    0.000    0.000    0.000    0.000    0.000 
#
# Total GULP energy -89494.703651 kJ/mol
# GULP energy per Si atom -5593.418978 kJ/mol
# Density = 2.277482 g / cm^3
# Si number density = 22.826779 Si / 1000 Ang^3
#
#
#
# Elastic Constant Matrix: (Units=GPa)
#
#
# Indices 1 2 3 4 5 6 
#
# 1 71.6913 26.9712 33.4866 6.4009 -0.4889 9.2299
# 2 26.9712 134.3294 49.3912 2.3373 -0.6287 10.0251
# 3 33.4866 49.3912 161.7077 17.8012 7.2660 14.0781
# 4 6.4009 2.3373 17.8012 35.5498 0.7492 0.3342
# 5 -0.4889 -0.6287 7.2660 0.7492 36.2739 5.1803
# 6 9.2299 10.0251 14.0781 0.3342 5.1803 34.8301
#
#
#
# Elastic Compliance Matrix: (Units=1/GPa)
#
#
# Indices 1 2 3 4 5 6 
#
# 1 0.016392 -0.002178 -0.002346 -0.001630 0.001103 -0.002918
# 2 -0.002178 0.008789 -0.002270 0.000946 0.000723 -0.001152
# 3 -0.002346 -0.002270 0.007942 -0.003361 -0.001349 -0.001702
# 4 -0.001630 0.000946 -0.003361 0.030035 -0.000131 0.001249
# 5 0.001103 0.000723 -0.001349 -0.000131 0.028466 -0.004188
# 6 -0.002918 -0.001152 -0.001702 0.001249 -0.004188 0.031114
#
#
# Mechanical properties :
#
#
# Convention : Reuss Voigt Hill
#
# Bulk Modulus (GPa) = 51.18531 65.26960 58.22745
# Shear Modulus (GPa) = 35.00491 38.52270 36.76380
#
# Velocity S-wave (km/s) = 3.92024 4.11251 4.01753
# Velocity P-wave (km/s) = 6.55463 7.15582 6.86181
#
# Compressibility (1/GPa) = 0.01953686
#
# Stress axis : x y z
#
# Youngs Moduli (GPa) = 61.00470 113.77704 125.91554
#
# Poissons Ratio (x) = 0.24776 0.29535
# Poissons Ratio (y) = 0.13284 0.28582
# Poissons Ratio (z) = 0.14309 0.25827
#
# Static dielectric constant tensor:
#      x y z
#    x 1.847820 0.020350 -0.002640 
#    y 0.020350 1.780570 0.013460 
#    z -0.002640 0.013460 1.827130 
# 
# From -- ./inp_files/591242.got.cif
#   From: 2010.05.17/outbox.cif.g08.bks.cpg/sg2_296_cif.got.tgz:591242.got - 2010.06.03 11:33:40.
