data_PCOD9052833
_publ_section_title
;
Structure prediction by ZEFSAII (Michael W. Deem and Ramdas Pophale) SiO2 
 PCOD9052833
Probable space group: P -1
;
_chemical_formula_sum "Si O2"
_cell_formula_units_Z 12
_cell_length_a 11.299906
_cell_length_b 13.297204
_cell_length_c 12.038792
_cell_angle_alpha 149.325621
_cell_angle_beta 141.137576
_cell_angle_gamma 33.925438
_cell_volume 501.448961
_symmetry_space_group_name_H-M "P -1"
_symmetry_group_IT_number 2
_symmetry_cell_setting 'triclinic'
loop_
_space_group_symop_operation_xyz
x,y,z
-x,-y,-z
loop_
_atom_site_type_symbol
_atom_site_label
_atom_site_fract_x
_atom_site_fract_y
_atom_site_fract_z
Si Si1 0.010951 0.695197 0.121698
Si Si2 0.295400 0.917550 0.610938
Si Si3 0.021163 0.211958 0.288479
Si Si4 0.212786 0.296437 0.733501
Si Si5 0.662658 0.678097 0.496993
Si Si6 0.599662 0.235668 0.830131
O O1 0.182975 0.764904 0.362168
O O2 0.785498 0.938348 0.196835
O O3 0.000000 0.500000 0.000000
O O4 0.098894 0.557812 0.940771
O O5 0.545233 0.761709 0.608827
O O6 0.200560 0.127931 0.654112
O O7 0.105687 0.277667 0.524948
O O8 0.146143 0.265872 0.334136
O O9 0.770180 0.405928 0.296815
O O10 0.144454 0.937288 0.129703
O O11 0.463344 0.211755 0.808046
O O12 0.483299 0.802586 0.386430
O O13 0.500000 0.500000 0.000000
#
# Coordination Sequence:
#
# PCOD9052833 Si02
#       6
#     2   2   2   2   2   2
#     4   9  20  32  57  85 104 143 192 231 278 329
#     4  10  17  35  58  80 111 145 185 234 274 324
#     4  10  20  34  55  83 117 148 179 226 274 331
#     4  10  18  34  54  81 112 147 187 223 276 330
#     4  10  19  35  56  82 113 150 181 224 277 329
#     4  11  20  33  56  83 115 151 184 225 275 330
#
# _framework density 23.93065
#
# number of rings (size 3 to 8) (size 9 to 14) (size 15 to 20)
#    0.000    2.000    3.333    2.000    0.000    0.667 
#    0.000    0.833    0.000    9.000    0.000    0.000 
#    0.000    0.000    0.000    0.000    0.000    0.000 
#
# Total GULP energy -66884.744707 kJ/mol
# GULP energy per Si atom -5573.728726 kJ/mol
# Density = 2.387618 g / cm^3
# Si number density = 23.930650 Si / 1000 Ang^3
#
#
#
# Elastic Constant Matrix: (Units=GPa)
#
#
# Indices 1 2 3 4 5 6 
#
# 1 43.0876 22.8191 38.9552 20.5795 -10.4271 -27.8554
# 2 22.8191 139.1331 21.1698 31.2965 -5.2770 -20.5135
# 3 38.9552 21.1698 100.5934 58.2179 13.4168 -15.3517
# 4 20.5795 31.2965 58.2179 51.4922 -14.2639 -12.9600
# 5 -10.4271 -5.2770 13.4168 -14.2639 40.1464 21.3536
# 6 -27.8554 -20.5135 -15.3517 -12.9600 21.3536 37.4947
#
#
#
# Elastic Compliance Matrix: (Units=1/GPa)
#
#
# Indices 1 2 3 4 5 6 
#
# 1 0.032740 0.013078 0.056479 -0.089049 -0.075978 0.067093
# 2 0.013078 0.001820 -0.031572 0.036077 0.030916 -0.007353
# 3 0.056479 -0.031572 -0.139836 0.182725 0.151923 -0.055931
# 4 -0.089049 0.036077 0.182725 -0.209622 -0.187202 0.062554
# 5 -0.075978 0.030916 0.151923 -0.187202 -0.122923 0.027972
# 6 0.067093 -0.007353 -0.055931 0.062554 0.027972 0.055283
#
#
# Mechanical properties :
#
#
# Convention : Reuss Voigt Hill
#
# Bulk Modulus (GPa) = -34.12038 49.85582 7.86772
# Shear Modulus (GPa) = -10.67748 39.15133 14.23693
#
# Velocity S-wave (km/s) = -2.11460 4.04918 2.44175
# Velocity P-wave (km/s) = 4.50011 6.53757 3.35327
#
# Compressibility (1/GPa) = -0.02930800
#
# Stress axis : x y z
#
# Youngs Moduli (GPa) = 30.54351 549.52375 -7.15124
#
# Poissons Ratio (x) = -7.18657 0.40389
# Poissons Ratio (y) = -0.39944 -0.22578
# Poissons Ratio (z) = -1.72506 17.34983
#
# Static dielectric constant tensor:
#      x y z
#    x 1.986720 -0.044040 -0.014130 
#    y -0.044040 1.973130 0.028270 
#    z -0.014130 0.028270 2.179940 
# 
# From -- ./inp_files/179586.got.cif
#   From: 2010.05.17/outbox.cif.g08.bks.cpg/sg2_90_cif.got.tgz:179586.got - 2010.06.03 11:33:40.
