data_PCOD9052091
_publ_section_title
;
Structure prediction by ZEFSAII (Michael W. Deem and Ramdas Pophale) SiO2 
 PCOD9052091
Probable space group: P -1
;
_chemical_formula_sum "Si O2"
_cell_formula_units_Z 14
_cell_length_a 5.219511
_cell_length_b 12.226106
_cell_length_c 8.782498
_cell_angle_alpha 100.368269
_cell_angle_beta 92.008205
_cell_angle_gamma 74.077258
_cell_volume 530.084748
_symmetry_space_group_name_H-M "P -1"
_symmetry_group_IT_number 2
_symmetry_cell_setting 'triclinic'
loop_
_space_group_symop_operation_xyz
x,y,z
-x,-y,-z
loop_
_atom_site_type_symbol
_atom_site_label
_atom_site_fract_x
_atom_site_fract_y
_atom_site_fract_z
Si Si1 0.473399 0.781013 0.802964
Si Si2 0.939759 0.586352 0.317033
Si Si3 0.728268 0.918012 0.595787
Si Si4 0.713715 0.544258 0.923711
Si Si5 0.875886 0.819047 0.260769
Si Si6 0.693562 0.103905 0.868048
Si Si7 0.257492 0.592053 0.600871
O O1 0.616907 0.836751 0.688664
O O2 0.641531 0.676669 0.893107
O O3 0.305771 0.709699 0.688295
O O4 0.320644 0.878386 0.945882
O O5 0.797368 0.699655 0.253936
O O6 0.812749 0.481671 0.283217
O O7 0.230185 0.537390 0.242976
O O8 0.993103 0.617007 0.497699
O O9 0.917967 0.857349 0.445021
O O10 0.500000 0.000000 0.500000
O O11 0.842984 0.993302 0.738652
O O12 0.500000 0.500000 0.000000
O O13 0.000000 0.500000 0.000000
O O14 0.611637 0.889220 0.184252
O O15 0.144324 0.807820 0.168707
O O16 0.500000 0.500000 0.500000
#
# Coordination Sequence:
#
# PCOD9052091 Si02
#       7
#     2   2   2   2   2   2   2
#     4  12  25  48  81 111 154 205 252 318 385 446
#     4  11  25  42  69 107 150 193 250 301 373 464
#     4  10  25  50  79 113 150 199 262 320 379 451
#     4  12  26  46  70 110 153 194 243 304 373 454
#     4  11  25  48  79 108 154 200 250 314 385 448
#     4  11  26  50  74 115 146 200 256 319 379 445
#     4  11  24  43  68 107 147 197 250 303 371 460
#
# _framework density 26.410872000000001
#
# number of rings (size 3 to 8) (size 9 to 14) (size 15 to 20)
#    0.000    0.857    1.429    4.286    8.000    1.143 
#    0.000    3.571    0.000    0.000    0.000    0.000 
#    0.000    0.000    0.000    0.000    0.000    0.000 
#
# Total GULP energy -78102.009094 kJ/mol
# GULP energy per Si atom -5578.714935 kJ/mol
# Density = 2.635076 g / cm^3
# Si number density = 26.410872 Si / 1000 Ang^3
#
#
#
# Elastic Constant Matrix: (Units=GPa)
#
#
# Indices 1 2 3 4 5 6 
#
# 1 89.9394 12.8954 36.1303 -36.6342 0.8709 8.5872
# 2 12.8954 110.9121 31.6006 -32.8073 -4.3888 24.4682
# 3 36.1303 31.6006 171.8019 -20.5546 -12.7577 4.3263
# 4 -36.6342 -32.8073 -20.5546 48.9880 4.0195 -3.1573
# 5 0.8709 -4.3888 -12.7577 4.0195 58.6092 -7.6264
# 6 8.5872 24.4682 4.3263 -3.1573 -7.6264 35.1749
#
#
#
# Elastic Compliance Matrix: (Units=1/GPa)
#
#
# Indices 1 2 3 4 5 6 
#
# 1 0.018624 0.004620 -0.002923 0.015577 -0.002487 -0.006542
# 2 0.004620 0.014881 -0.002130 0.011982 -0.001605 -0.010490
# 3 -0.002923 -0.002130 0.006814 -0.000782 0.001634 0.001641
# 4 0.015577 0.011982 -0.000782 0.039443 -0.003412 -0.009241
# 5 -0.002487 -0.001605 0.001634 -0.003412 0.018242 0.005171
# 6 -0.006542 -0.010490 0.001641 -0.009241 0.005171 0.037413
#
#
# Mechanical properties :
#
#
# Convention : Reuss Voigt Hill
#
# Bulk Modulus (GPa) = 25.34684 59.32287 42.33485
# Shear Modulus (GPa) = 33.45983 48.02289 40.74136
#
# Velocity S-wave (km/s) = 3.56321 4.26878 3.93185
# Velocity P-wave (km/s) = 5.15234 6.84156 6.05613
#
# Compressibility (1/GPa) = 0.03945265
#
# Stress axis : x y z
#
# Youngs Moduli (GPa) = 53.69435 67.20036 146.76500
#
# Poissons Ratio (x) = -0.31046 0.42894
# Poissons Ratio (y) = -0.24806 0.31263
# Poissons Ratio (z) = 0.15693 0.14314
#
# Static dielectric constant tensor:
#      x y z
#    x 2.212710 -0.023820 0.093650 
#    y -0.023820 2.271390 0.003220 
#    z 0.093650 0.003220 2.366010 
# 
# From -- ./inp_files/131754.got.cif
#   From: 2010.05.17/outbox.cif.g08.bks.cpg/sg2_66_cif.got.tgz:131754.got - 2010.06.03 11:33:40.
