data_PCOD9052880
_publ_section_title
;
Structure prediction by ZEFSAII (Michael W. Deem and Ramdas Pophale) SiO2 
 PCOD9052880
Probable space group: P -1
;
_chemical_formula_sum "Si O2"
_cell_formula_units_Z 16
_cell_length_a 24.606204
_cell_length_b 11.715472
_cell_length_c 9.677342
_cell_angle_alpha 27.391085
_cell_angle_beta 143.091218
_cell_angle_gamma 149.611842
_cell_volume 642.399726
_symmetry_space_group_name_H-M "P -1"
_symmetry_group_IT_number 2
_symmetry_cell_setting 'triclinic'
loop_
_space_group_symop_operation_xyz
x,y,z
-x,-y,-z
loop_
_atom_site_type_symbol
_atom_site_label
_atom_site_fract_x
_atom_site_fract_y
_atom_site_fract_z
Si Si1 0.397214 0.930220 0.087167
Si Si2 0.831979 0.927672 0.780569
Si Si3 0.914144 0.586873 0.826689
Si Si4 0.298713 0.018082 0.038688
Si Si5 0.419067 0.482151 0.241902
Si Si6 0.529348 0.744316 0.679923
Si Si7 0.135366 0.031255 0.869910
Si Si8 0.169033 0.528457 0.920292
O O1 0.419002 0.722971 0.446642
O O2 0.364664 0.108125 0.931083
O O3 0.300531 0.741112 0.986250
O O4 0.521639 0.165771 0.041292
O O5 0.701468 0.705431 0.747544
O O6 0.863208 0.239032 0.439357
O O7 0.857933 0.966139 0.954731
O O8 0.867945 0.731698 0.986504
O O9 0.905480 0.772051 0.487195
O O10 0.814543 0.255500 0.954742
O O11 0.881105 0.637615 0.857817
O O12 0.038552 0.697091 0.985370
O O13 0.249888 0.154060 0.894840
O O14 0.371791 0.967183 0.349404
O O15 0.500000 0.500000 0.500000
O O16 0.426011 0.322126 0.293111
O O17 0.500000 0.500000 0.000000
#
# Coordination Sequence:
#
# PCOD9052880 Si02
#       8
#     2   2   2   2   2   2   2   2
#     4  11  26  41  71 103 150 197 241 297 366 447
#     4  12  28  47  76 111 151 195 252 307 373 443
#     4  10  27  48  77 105 142 196 249 315 382 447
#     4  11  24  42  71 105 143 187 244 307 368 442
#     4  12  25  41  65 100 146 195 240 295 357 439
#     4  12  26  41  68 106 143 193 248 300 363 436
#     4  11  26  48  76 109 142 187 256 322 373 438
#     4  11  28  50  75 108 152 203 241 305 380 454
#
# _framework density 24.906611000000002
#
# number of rings (size 3 to 8) (size 9 to 14) (size 15 to 20)
#    0.000    0.750    3.750    1.500   12.250    2.000 
#    0.000    0.000    0.000    0.000    0.000    0.000 
#    0.000    0.000    0.000    0.000    0.000    0.000 
#
# Total GULP energy -89299.344410 kJ/mol
# GULP energy per Si atom -5581.209026 kJ/mol
# Density = 2.484992 g / cm^3
# Si number density = 24.906611 Si / 1000 Ang^3
#
#
#
# Elastic Constant Matrix: (Units=GPa)
#
#
# Indices 1 2 3 4 5 6 
#
# 1 49.1717 17.4812 15.5519 -1.8990 -0.5976 -21.3838
# 2 17.4812 89.5019 15.5230 11.5265 0.3278 -9.3693
# 3 15.5519 15.5230 105.0633 9.7025 -3.8008 -20.5402
# 4 -1.8990 11.5265 9.7025 31.3475 -7.2885 -6.3993
# 5 -0.5976 0.3278 -3.8008 -7.2885 29.7921 1.7854
# 6 -21.3838 -9.3693 -20.5402 -6.3993 1.7854 49.8729
#
#
#
# Elastic Compliance Matrix: (Units=1/GPa)
#
#
# Indices 1 2 3 4 5 6 
#
# 1 0.027666 -0.004788 -0.001791 0.006547 0.001321 0.011018
# 2 -0.004788 0.012879 -0.000888 -0.005248 -0.001598 -0.000615
# 3 -0.001791 -0.000888 0.010773 -0.002330 0.000587 0.003182
# 4 0.006547 -0.005248 -0.002330 0.038125 0.008893 0.005435
# 5 0.001321 -0.001598 0.000587 0.008893 0.035839 0.000366
# 6 0.011018 -0.000615 0.003182 0.005435 0.000366 0.026654
#
#
# Mechanical properties :
#
#
# Convention : Reuss Voigt Hill
#
# Bulk Modulus (GPa) = 27.48289 37.87212 32.67750
# Shear Modulus (GPa) = 27.93346 35.21454 31.57400
#
# Velocity S-wave (km/s) = 3.35256 3.76422 3.56433
# Velocity P-wave (km/s) = 5.10338 5.84218 5.48523
#
# Compressibility (1/GPa) = 0.03638628
#
# Stress axis : x y z
#
# Youngs Moduli (GPa) = 36.14592 77.64368 92.82587
#
# Poissons Ratio (x) = 0.37172 0.16621
# Poissons Ratio (y) = 0.17305 0.08239
# Poissons Ratio (z) = 0.06472 0.06892
#
# Static dielectric constant tensor:
#      x y z
#    x 2.179170 0.160640 -0.263900 
#    y 0.160640 2.235990 -0.408210 
#    z -0.263900 -0.408210 3.496190 
# 
# From -- ./inp_files/357026.got.cif
#   From: 2010.05.17/outbox.cif.g08.bks.cpg/sg2_179_cif.got.tgz:357026.got - 2010.06.03 11:33:40.
