data_PCOD9052409
_publ_section_title
;
Structure prediction by ZEFSAII (Michael W. Deem and Ramdas Pophale) SiO2 
 PCOD9052409
Probable space group: P -1
;
_chemical_formula_sum "Si O2"
_cell_formula_units_Z 16
_cell_length_a 11.631254
_cell_length_b 9.660134
_cell_length_c 9.686008
_cell_angle_alpha 118.957230
_cell_angle_beta 127.905314
_cell_angle_gamma 68.977187
_cell_volume 748.388035
_symmetry_space_group_name_H-M "P -1"
_symmetry_group_IT_number 2
_symmetry_cell_setting 'triclinic'
loop_
_space_group_symop_operation_xyz
x,y,z
-x,-y,-z
loop_
_atom_site_type_symbol
_atom_site_label
_atom_site_fract_x
_atom_site_fract_y
_atom_site_fract_z
Si Si1 0.636828 0.730003 0.573826
Si Si2 0.851294 0.942014 0.186791
Si Si3 0.422745 0.646156 0.926028
Si Si4 0.657868 0.651819 0.870659
Si Si5 0.856628 0.477485 0.470967
Si Si6 0.282740 0.928310 0.120430
Si Si7 0.154460 0.802834 0.468041
Si Si8 0.691155 0.298864 0.737017
O O1 0.630894 0.660789 0.691290
O O2 0.771588 0.637163 0.547646
O O3 0.483752 0.702502 0.375724
O O4 0.656413 0.915694 0.694985
O O5 0.015333 0.884950 0.323637
O O6 0.797101 0.075235 0.322774
O O7 0.755150 0.792928 0.048636
O O8 0.833468 0.013615 0.054768
O O9 0.511466 0.666945 0.860959
O O10 0.261633 0.599397 0.749298
O O11 0.500000 0.500000 0.000000
O O12 0.404975 0.811862 0.075113
O O13 0.733283 0.476915 0.874188
O O14 0.888735 0.352720 0.558714
O O15 0.000000 0.500000 0.500000
O O16 0.230368 0.820610 0.152722
O O17 0.274314 0.755261 0.418964
#
# Coordination Sequence:
#
# PCOD9052409 Si02
#       8
#     2   2   2   2   2   2   2   2
#     4  11  24  45  68 110 138 186 238 292 361 420
#     4  10  26  46  67 105 144 185 242 291 361 426
#     4  12  24  44  70 108 141 184 239 291 360 421
#     4  11  23  42  74 101 140 182 235 297 341 434
#     4  12  26  46  74 102 144 192 239 292 361 433
#     4  11  25  44  67 107 144 184 233 300 349 419
#     4  11  25  47  71 101 142 194 238 290 366 425
#     4  12  23  43  74 101 145 184 235 299 350 429
#
# _framework density 21.379283999999998
#
# number of rings (size 3 to 8) (size 9 to 14) (size 15 to 20)
#    0.000    0.750    5.000    1.500    3.500    4.000 
#    4.500    0.000    0.000    0.000    0.000    0.000 
#    0.000    0.000    0.000    0.000    0.000    0.000 
#
# Total GULP energy -89519.861235 kJ/mol
# GULP energy per Si atom -5594.991327 kJ/mol
# Density = 2.133062 g / cm^3
# Si number density = 21.379284 Si / 1000 Ang^3
#
#
#
# Elastic Constant Matrix: (Units=GPa)
#
#
# Indices 1 2 3 4 5 6 
#
# 1 114.1501 43.4665 48.0561 2.3803 -23.2438 0.8275
# 2 43.4665 164.4849 57.8332 8.5112 -7.4526 11.1848
# 3 48.0561 57.8332 103.1996 12.1386 -5.3662 5.7269
# 4 2.3803 8.5112 12.1386 46.1909 -6.7609 -12.9633
# 5 -23.2438 -7.4526 -5.3662 -6.7609 28.9360 3.1290
# 6 0.8275 11.1848 5.7269 -12.9633 3.1290 31.5678
#
#
#
# Elastic Compliance Matrix: (Units=1/GPa)
#
#
# Indices 1 2 3 4 5 6 
#
# 1 0.013557 -0.001475 -0.005368 0.002818 0.010032 0.001304
# 2 -0.001475 0.007940 -0.003463 -0.001189 0.000227 -0.002657
# 3 -0.005368 -0.003463 0.014600 -0.004134 -0.003175 -0.002664
# 4 0.002818 -0.001189 -0.004134 0.026965 0.006242 0.011552
# 5 0.010032 0.000227 -0.003175 0.006242 0.043712 -0.001537
# 6 0.001304 -0.002657 -0.002664 0.011552 -0.001537 0.037964
#
#
# Mechanical properties :
#
#
# Convention : Reuss Voigt Hill
#
# Bulk Modulus (GPa) = 64.58956 75.61625 70.10291
# Shear Modulus (GPa) = 29.32349 36.83753 33.08051
#
# Velocity S-wave (km/s) = 3.70751 4.15546 3.93786
# Velocity P-wave (km/s) = 6.97168 7.64654 7.31690
#
# Compressibility (1/GPa) = 0.01548238
#
# Stress axis : x y z
#
# Youngs Moduli (GPa) = 73.76498 125.95128 68.49420
#
# Poissons Ratio (x) = 0.18576 0.36771
# Poissons Ratio (y) = 0.10879 0.23723
# Poissons Ratio (z) = 0.39601 0.43622
#
# Static dielectric constant tensor:
#      x y z
#    x 1.745120 -0.016520 -0.028690 
#    y -0.016520 1.793880 -0.007410 
#    z -0.028690 -0.007410 1.760890 
# 
# From -- ./inp_files/245664.got.cif
#   From: 2010.05.17/outbox.cif.g08.bks.cpg/sg2_123_cif.got.tgz:245664.got - 2010.06.03 11:33:40.
