data_PCOD9052861
_publ_section_title
;
Structure prediction by ZEFSAII (Michael W. Deem and Ramdas Pophale) SiO2 
 PCOD9052861
Probable space group: P -1
;
_chemical_formula_sum "Si O2"
_cell_formula_units_Z 16
_cell_length_a 10.015606
_cell_length_b 5.715553
_cell_length_c 11.651122
_cell_angle_alpha 102.574240
_cell_angle_beta 99.660613
_cell_angle_gamma 99.705382
_cell_volume 626.985119
_symmetry_space_group_name_H-M "P -1"
_symmetry_group_IT_number 2
_symmetry_cell_setting 'triclinic'
loop_
_space_group_symop_operation_xyz
x,y,z
-x,-y,-z
loop_
_atom_site_type_symbol
_atom_site_label
_atom_site_fract_x
_atom_site_fract_y
_atom_site_fract_z
Si Si1 0.616035 0.579619 0.930452
Si Si2 0.343686 0.924486 0.296041
Si Si3 0.315528 0.292902 0.512972
Si Si4 0.851744 0.442465 0.619660
Si Si5 0.425848 0.707533 0.728261
Si Si6 0.878314 0.036344 0.404280
Si Si7 0.875690 0.282711 0.210841
Si Si8 0.231488 0.874818 0.049414
O O1 0.529284 0.576408 0.800404
O O2 0.706075 0.370454 0.938521
O O3 0.689969 0.871185 0.977049
O O4 0.500000 0.500000 0.000000
O O5 0.266871 0.675757 0.320396
O O6 0.228703 0.968786 0.189769
O O7 0.376225 0.100307 0.429775
O O8 0.486743 0.015410 0.254278
O O9 0.190384 0.321558 0.414178
O O10 0.399540 0.554657 0.590611
O O11 0.253046 0.174380 0.609658
O O12 0.849675 0.280628 0.487083
O O13 0.001958 0.494169 0.706164
O O14 0.282160 0.697970 0.775679
O O15 0.899941 0.068476 0.276795
O O16 0.000000 0.000000 0.500000
O O17 0.885479 0.229183 0.072200
#
# Coordination Sequence:
#
# PCOD9052861 Si02
#       8
#     2   2   2   2   2   2   2   2
#     4  11  24  45  70 108 154 188 237 312 370 428
#     4  10  27  46  68 101 149 195 236 297 363 442
#     4  11  23  44  68 105 142 193 237 298 366 444
#     4  11  24  45  69  98 149 186 239 299 368 434
#     4  11  24  43  75 107 140 185 249 303 370 430
#     4  11  22  40  70 105 145 179 237 308 369 426
#     4  12  24  44  76 110 136 190 245 306 371 432
#     4  11  27  47  73 109 150 195 247 301 368 440
#
# _framework density 25.518944000000001
#
# number of rings (size 3 to 8) (size 9 to 14) (size 15 to 20)
#    0.000    1.000    3.750    1.875    7.000    2.000 
#    0.000    0.625    0.000    0.000    0.000    0.000 
#    0.000    0.000    0.000    0.000    0.000    0.000 
#
# Total GULP energy -89162.099324 kJ/mol
# GULP energy per Si atom -5572.631208 kJ/mol
# Density = 2.546086 g / cm^3
# Si number density = 25.518944 Si / 1000 Ang^3
#
#
#
# Elastic Constant Matrix: (Units=GPa)
#
#
# Indices 1 2 3 4 5 6 
#
# 1 51.5879 37.3006 15.7683 -8.3899 12.8176 6.9665
# 2 37.3006 121.8098 18.9178 -12.6958 13.3218 13.9269
# 3 15.7683 18.9178 144.7051 -6.3512 24.0265 -6.5650
# 4 -8.3899 -12.6958 -6.3512 41.3393 -0.4085 6.1254
# 5 12.8176 13.3218 24.0265 -0.4085 36.2050 -2.1264
# 6 6.9665 13.9269 -6.5650 6.1254 -2.1264 35.3272
#
#
#
# Elastic Compliance Matrix: (Units=1/GPa)
#
#
# Indices 1 2 3 4 5 6 
#
# 1 0.027330 -0.006602 -0.001003 0.003899 -0.006775 -0.004057
# 2 -0.006602 0.011185 -0.000532 0.002553 -0.001616 -0.003746
# 3 -0.001003 -0.000532 0.007953 0.000586 -0.004631 0.001505
# 4 0.003899 0.002553 0.000586 0.026788 -0.002787 -0.006479
# 5 -0.006775 -0.001616 -0.004631 -0.002787 0.033869 0.003634
# 6 -0.004057 -0.003746 0.001505 -0.006479 0.003634 0.032206
#
#
# Mechanical properties :
#
#
# Convention : Reuss Voigt Hill
#
# Bulk Modulus (GPa) = 33.12080 51.34180 42.23130
# Shear Modulus (GPa) = 30.18066 38.98203 34.58134
#
# Velocity S-wave (km/s) = 3.44274 3.91266 3.68519
# Velocity P-wave (km/s) = 5.36753 6.36982 5.89003
#
# Compressibility (1/GPa) = 0.03019251
#
# Stress axis : x y z
#
# Youngs Moduli (GPa) = 36.59000 89.40552 125.74647
#
# Poissons Ratio (x) = 0.59025 0.12613
# Poissons Ratio (y) = 0.24157 0.06695
# Poissons Ratio (z) = 0.03670 0.04760
#
# Static dielectric constant tensor:
#      x y z
#    x 2.198500 -0.103260 0.003620 
#    y -0.103260 2.118010 0.018960 
#    z 0.003620 0.018960 2.016530 
# 
# From -- ./inp_files/410611.got.cif
#   From: 2010.05.17/outbox.cif.g08.bks.cpg/sg2_206_cif.got.tgz:410611.got - 2010.06.03 11:33:40.
