data_PCOD9052916
_publ_section_title
;
Structure prediction by ZEFSAII (Michael W. Deem and Ramdas Pophale) SiO2 
 PCOD9052916
Probable space group: P -1
;
_chemical_formula_sum "Si O2"
_cell_formula_units_Z 15
_cell_length_a 14.296647
_cell_length_b 11.860713
_cell_length_c 5.493418
_cell_angle_alpha 109.296073
_cell_angle_beta 131.623603
_cell_angle_gamma 61.668010
_cell_volume 612.751582
_symmetry_space_group_name_H-M "P -1"
_symmetry_group_IT_number 2
_symmetry_cell_setting 'triclinic'
loop_
_space_group_symop_operation_xyz
x,y,z
-x,-y,-z
loop_
_atom_site_type_symbol
_atom_site_label
_atom_site_fract_x
_atom_site_fract_y
_atom_site_fract_z
Si Si1 0.500000 0.000000 0.000000
Si Si2 0.269003 0.615510 0.295663
Si Si3 0.029001 0.793810 0.303870
Si Si4 0.035218 0.621630 0.577265
Si Si5 0.324941 0.338200 0.380080
Si Si6 0.116900 0.957155 0.970052
Si Si7 0.241192 0.235907 0.657258
Si Si8 0.412408 0.784137 0.508557
O O1 0.659736 0.910936 0.262995
O O2 0.532187 0.133342 0.158229
O O3 0.156240 0.738281 0.310121
O O4 0.301509 0.487764 0.418881
O O5 0.395310 0.656569 0.491803
O O6 0.186289 0.598664 0.904119
O O7 0.076865 0.866770 0.650564
O O8 0.014319 0.666544 0.295430
O O9 0.894665 0.907381 0.072068
O O10 0.918331 0.736267 0.594859
O O11 0.000000 0.500000 0.500000
O O12 0.271514 0.302170 0.513691
O O13 0.483109 0.255126 0.562183
O O14 0.264686 0.299349 0.999776
O O15 0.265913 0.875047 0.242384
O O16 0.000000 0.000000 0.000000
#
# Coordination Sequence:
#
# PCOD9052916 Si02
#       8
#     1   2   2   2   2   2   2   2
#     4  10  28  46  74 104 148 200 248 306 378 448
#     4  12  25  47  74 111 148 195 253 319 378 452
#     4  11  25  40  76 111 143 197 241 319 388 442
#     4  12  25  44  72 108 150 194 252 317 379 451
#     4  11  27  50  74 109 152 207 250 311 376 458
#     4  11  23  46  70 111 149 187 251 315 383 450
#     4  11  27  49  74 109 153 200 256 310 382 453
#     4  11  25  49  74 107 150 196 254 314 380 462
#
# _framework density 24.47974
#
# number of rings (size 3 to 8) (size 9 to 14) (size 15 to 20)
#    0.000    0.800    4.000    1.200    5.600    6.400 
#    0.000    4.000    0.000    0.000    0.000    0.000 
#    0.000    0.000    0.000    0.000    0.000    0.000 
#
# Total GULP energy -83605.678913 kJ/mol
# GULP energy per Si atom -5573.711928 kJ/mol
# Density = 2.442402 g / cm^3
# Si number density = 24.479740 Si / 1000 Ang^3
#
#
#
# Elastic Constant Matrix: (Units=GPa)
#
#
# Indices 1 2 3 4 5 6 
#
# 1 102.1812 0.0919 20.8629 -3.4907 4.6781 1.8046
# 2 0.0919 105.2289 25.5863 -4.4916 3.9799 8.0899
# 3 20.8629 25.5863 60.1624 6.3770 3.4869 -3.9435
# 4 -3.4907 -4.4916 6.3770 45.4954 -0.9505 10.4032
# 5 4.6781 3.9799 3.4869 -0.9505 35.1726 -3.5715
# 6 1.8046 8.0899 -3.9435 10.4032 -3.5715 45.1818
#
#
#
# Elastic Compliance Matrix: (Units=1/GPa)
#
#
# Indices 1 2 3 4 5 6 
#
# 1 0.010877 0.001364 -0.004593 0.001959 -0.001258 -0.001630
# 2 0.001364 0.011309 -0.005724 0.002755 -0.001155 -0.003305
# 3 -0.004593 -0.005724 0.021474 -0.004892 -0.000580 0.004163
# 4 0.001959 0.002755 -0.004892 0.024612 -0.000100 -0.006673
# 5 -0.001258 -0.001155 -0.000580 -0.000100 0.029040 0.002525
# 6 -0.001630 -0.003305 0.004163 -0.006673 0.002525 0.024889
#
#
# Mechanical properties :
#
#
# Convention : Reuss Voigt Hill
#
# Bulk Modulus (GPa) = 38.83188 40.07274 39.45231
# Shear Modulus (GPa) = 33.62639 39.90539 36.76589
#
# Velocity S-wave (km/s) = 3.71029 4.04188 3.87963
# Velocity P-wave (km/s) = 5.85255 6.17962 6.01830
#
# Compressibility (1/GPa) = 0.02575204
#
# Stress axis : x y z
#
# Youngs Moduli (GPa) = 91.94126 88.42448 46.56796
#
# Poissons Ratio (x) = -0.12061 0.21391
# Poissons Ratio (y) = -0.12540 0.26657
# Poissons Ratio (z) = 0.42232 0.50617
#
# Static dielectric constant tensor:
#      x y z
#    x 1.983350 0.034410 -0.016240 
#    y 0.034410 1.951030 -0.000130 
#    z -0.016240 -0.000130 2.018940 
# 
# From -- ./inp_files/93992.got.cif
#   From: 2010.05.17/outbox.cif.g08.bks.cpg/sg2_47_cif.got.tgz:93992.got - 2010.06.03 11:33:40.
