data_PCOD9052077
_publ_section_title
;
Structure prediction by ZEFSAII (Michael W. Deem and Ramdas Pophale) SiO2 
 PCOD9052077
Probable space group: P -1
;
_chemical_formula_sum "Si O2"
_cell_formula_units_Z 16
_cell_length_a 16.232776
_cell_length_b 23.183994
_cell_length_c 5.323887
_cell_angle_alpha 63.649669
_cell_angle_beta 60.150843
_cell_angle_gamma 21.261450
_cell_volume 628.893633
_symmetry_space_group_name_H-M "P -1"
_symmetry_group_IT_number 2
_symmetry_cell_setting 'triclinic'
loop_
_space_group_symop_operation_xyz
x,y,z
-x,-y,-z
loop_
_atom_site_type_symbol
_atom_site_label
_atom_site_fract_x
_atom_site_fract_y
_atom_site_fract_z
Si Si1 0.155829 0.146693 0.569484
Si Si2 0.443360 0.856513 0.874872
Si Si3 0.867469 0.024468 0.514959
Si Si4 0.424179 0.346519 0.267570
Si Si5 0.080616 0.383691 0.476279
Si Si6 0.650346 0.448869 0.687122
Si Si7 0.259012 0.150993 0.918327
Si Si8 0.655236 0.316318 0.699955
O O1 0.273842 0.110391 0.697840
O O2 0.887854 0.312203 0.740473
O O3 0.310010 0.986071 0.628347
O O4 0.112672 0.204401 0.248048
O O5 0.532683 0.732799 0.868650
O O6 0.687246 0.742714 0.797836
O O7 0.235165 0.969456 0.168221
O O8 0.079369 0.873622 0.302102
O O9 0.631003 0.197619 0.423001
O O10 0.000000 0.000000 0.500000
O O11 0.162237 0.497652 0.484098
O O12 0.486777 0.378987 0.014787
O O13 0.168839 0.278444 0.754735
O O14 0.000000 0.500000 0.500000
O O15 0.705846 0.360717 0.561914
O O16 0.484747 0.603722 0.506212
O O17 0.500000 0.500000 0.000000
O O18 0.500000 0.000000 0.000000
#
# Coordination Sequence:
#
# PCOD9052077 Si02
#       8
#     2   2   2   2   2   2   2   2
#     4  12  28  46  82 109 156 200 259 314 394 460
#     4  11  25  46  71 111 142 201 250 313 382 459
#     4  12  26  42  72 105 146 196 248 310 384 460
#     4  11  25  46  71 102 151 194 250 317 387 455
#     4  10  25  50  76 109 148 195 257 316 385 455
#     4  11  27  44  71 106 148 197 253 323 387 465
#     4  12  27  53  77 113 149 202 255 322 384 465
#     4  11  25  45  70 106 151 195 257 314 388 462
#
# _framework density 25.441504999999999
#
# number of rings (size 3 to 8) (size 9 to 14) (size 15 to 20)
#    0.000    0.750    2.500    3.000   12.250    0.500 
#    4.500    0.000    0.000    0.000    0.000    0.000 
#    0.000    0.000    0.000    0.000    0.000    0.000 
#
# Total GULP energy -89251.350071 kJ/mol
# GULP energy per Si atom -5578.209379 kJ/mol
# Density = 2.538360 g / cm^3
# Si number density = 25.441505 Si / 1000 Ang^3
#
#
#
# Elastic Constant Matrix: (Units=GPa)
#
#
# Indices 1 2 3 4 5 6 
#
# 1 76.8169 40.9670 14.5875 0.0972 -10.0684 -21.7208
# 2 40.9670 153.1406 20.0984 4.3901 -22.9595 -47.0831
# 3 14.5875 20.0984 91.6318 3.8070 -23.0424 -25.5679
# 4 0.0972 4.3901 3.8070 58.3341 -10.8624 -12.3940
# 5 -10.0684 -22.9595 -23.0424 -10.8624 35.2385 -0.8206
# 6 -21.7208 -47.0831 -25.5679 -12.3940 -0.8206 61.0482
#
#
#
# Elastic Compliance Matrix: (Units=1/GPa)
#
#
# Indices 1 2 3 4 5 6 
#
# 1 0.015997 -0.002528 -0.000025 0.001698 0.003526 0.004123
# 2 -0.002528 0.011118 0.002915 0.002785 0.009509 0.009589
# 3 -0.000025 0.002915 0.016428 0.003426 0.013923 0.010002
# 4 0.001698 0.002785 0.003426 0.020579 0.011082 0.008514
# 5 0.003526 0.009509 0.013923 0.011082 0.048505 0.017322
# 6 0.004123 0.009589 0.010002 0.008514 0.017322 0.031393
#
#
# Mechanical properties :
#
#
# Convention : Reuss Voigt Hill
#
# Bulk Modulus (GPa) = 22.59122 52.54391 37.56757
# Shear Modulus (GPa) = 31.63499 47.31993 39.47746
#
# Velocity S-wave (km/s) = 3.53007 4.31739 3.94343
# Velocity P-wave (km/s) = 5.05115 6.74914 5.96091
#
# Compressibility (1/GPa) = 0.04426498
#
# Stress axis : x y z
#
# Youngs Moduli (GPa) = 62.51128 89.94613 60.87302
#
# Poissons Ratio (x) = 0.22743 0.00155
# Poissons Ratio (y) = 0.15806 -0.17746
# Poissons Ratio (z) = 0.00159 -0.26221
#
# Static dielectric constant tensor:
#      x y z
#    x 4.922520 1.312220 1.537170 
#    y 1.312220 2.689750 0.834080 
#    z 1.537170 0.834080 3.151810 
# 
# From -- ./inp_files/113205.got.cif
#   From: 2010.05.17/outbox.cif.g08.bks.cpg/sg2_57_cif.got.tgz:113205.got - 2010.06.03 11:33:40.
