data_PCOD9052972
_publ_section_title
;
Structure prediction by ZEFSAII (Michael W. Deem and Ramdas Pophale) SiO2 
 PCOD9052972
Probable space group: P -1
;
_chemical_formula_sum "Si O2"
_cell_formula_units_Z 12
_cell_length_a 10.471839
_cell_length_b 14.036289
_cell_length_c 8.906161
_cell_angle_alpha 85.387863
_cell_angle_beta 71.394385
_cell_angle_gamma 137.626825
_cell_volume 726.569463
_symmetry_space_group_name_H-M "P -1"
_symmetry_group_IT_number 2
_symmetry_cell_setting 'triclinic'
loop_
_space_group_symop_operation_xyz
x,y,z
-x,-y,-z
loop_
_atom_site_type_symbol
_atom_site_label
_atom_site_fract_x
_atom_site_fract_y
_atom_site_fract_z
Si Si1 0.978358 0.827483 0.515101
Si Si2 0.559399 0.662269 0.312177
Si Si3 0.135753 0.331866 0.707193
Si Si4 0.164977 0.507168 0.903184
Si Si5 0.671376 0.517838 0.870087
Si Si6 0.341918 0.179845 0.462946
O O1 0.031325 0.807218 0.338537
O O2 0.870695 0.688857 0.685699
O O3 0.781117 0.793304 0.554548
O O4 0.186999 0.004106 0.487551
O O5 0.346675 0.496651 0.509139
O O6 0.753682 0.691824 0.237392
O O7 0.467271 0.623218 0.184563
O O8 0.645096 0.799134 0.364381
O O9 0.056902 0.368993 0.843979
O O10 0.404196 0.678609 0.717513
O O11 0.231675 0.489760 0.031696
O O12 0.000000 0.500000 0.000000
O O13 0.500000 0.500000 0.000000
#
# Coordination Sequence:
#
# PCOD9052972 Si02
#       6
#     2   2   2   2   2   2
#     4   9  17  31  56  75  96 129 167 208 239 290
#     4   8  14  27  51  71  96 126 164 204 235 292
#     4   8  14  29  48  71  96 132 162 191 249 294
#     4  11  21  33  50  74 104 132 162 203 247 294
#     4  11  17  31  52  78  97 125 171 206 242 281
#     4   9  17  33  51  77 101 127 164 202 250 288
#
# _framework density 16.515971
#
# number of rings (size 3 to 8) (size 9 to 14) (size 15 to 20)
#    0.000    2.667    3.333    2.000    0.000    0.000 
#    0.000   11.667    0.000    0.000    0.000    0.000 
#    0.000    0.000    0.000    0.000    0.000    0.000 
#
# Total GULP energy -66833.104532 kJ/mol
# GULP energy per Si atom -5569.425378 kJ/mol
# Density = 1.647838 g / cm^3
# Si number density = 16.515971 Si / 1000 Ang^3
#
#
#
# Elastic Constant Matrix: (Units=GPa)
#
#
# Indices 1 2 3 4 5 6 
#
# 1 82.2192 39.3111 50.3943 23.1615 -6.0546 -6.7829
# 2 39.3111 138.7851 50.2043 41.7551 -7.0500 4.8162
# 3 50.3943 50.2043 75.2545 32.2061 -4.4836 -2.2622
# 4 23.1615 41.7551 32.2061 32.6793 -0.0010 -0.6897
# 5 -6.0546 -7.0500 -4.4836 -0.0010 21.5980 4.9097
# 6 -6.7829 4.8162 -2.2622 -0.6897 4.9097 12.8676
#
#
#
# Elastic Compliance Matrix: (Units=1/GPa)
#
#
# Indices 1 2 3 4 5 6 
#
# 1 0.021924 -0.001687 -0.013118 -0.000252 0.000688 0.009606
# 2 -0.001687 0.013098 -0.001410 -0.014338 0.005537 -0.008921
# 3 -0.013118 -0.001410 0.031799 -0.020304 0.003166 -0.003093
# 4 -0.000252 -0.014338 -0.020304 0.069312 -0.011153 0.009635
# 5 0.000688 0.005537 0.003166 -0.011153 0.054043 -0.022371
# 6 0.009606 -0.008921 -0.003093 0.009635 -0.022371 0.094626
#
#
# Mechanical properties :
#
#
# Convention : Reuss Voigt Hill
#
# Bulk Modulus (GPa) = 29.07907 64.00869 46.54388
# Shear Modulus (GPa) = 15.21163 23.85226 19.53194
#
# Velocity S-wave (km/s) = 3.03813 3.80438 3.44264
# Velocity P-wave (km/s) = 5.47283 7.62479 6.63662
#
# Compressibility (1/GPa) = 0.03438899
#
# Stress axis : x y z
#
# Youngs Moduli (GPa) = 45.61236 76.34676 31.44781
#
# Poissons Ratio (x) = 0.12881 0.41254
# Poissons Ratio (y) = 0.07696 0.04435
# Poissons Ratio (z) = 0.59836 0.10767
#
# Static dielectric constant tensor:
#      x y z
#    x 1.524770 0.007080 0.007580 
#    y 0.007080 1.598580 0.027420 
#    z 0.007580 0.027420 1.561380 
# 
# From -- ./inp_files/145361.got.cif
#   From: 2010.05.17/outbox.cif.g08.bks.cpg/sg2_73_cif.got.tgz:145361.got - 2010.06.03 11:33:40.
