data_PCOD9052469
_publ_section_title
;
Structure prediction by ZEFSAII (Michael W. Deem and Ramdas Pophale) SiO2 
 PCOD9052469
Probable space group: P -1
;
_chemical_formula_sum "Si O2"
_cell_formula_units_Z 15
_cell_length_a 9.393235
_cell_length_b 12.341928
_cell_length_c 5.502793
_cell_angle_alpha 73.790187
_cell_angle_beta 107.269205
_cell_angle_gamma 99.074499
_cell_volume 583.014530
_symmetry_space_group_name_H-M "P -1"
_symmetry_group_IT_number 2
_symmetry_cell_setting 'triclinic'
loop_
_space_group_symop_operation_xyz
x,y,z
-x,-y,-z
loop_
_atom_site_type_symbol
_atom_site_label
_atom_site_fract_x
_atom_site_fract_y
_atom_site_fract_z
Si Si1 0.671385 0.521950 0.637245
Si Si2 0.500000 0.000000 0.000000
Si Si3 0.092089 0.845724 0.200020
Si Si4 0.053801 0.386642 0.493869
Si Si5 0.384006 0.828115 0.627824
Si Si6 0.690565 0.753565 0.713490
Si Si7 0.793224 0.872058 0.199341
Si Si8 0.173347 0.686479 0.949592
O O1 0.500000 0.500000 0.500000
O O2 0.768882 0.588166 0.437116
O O3 0.685539 0.617443 0.794715
O O4 0.747409 0.405786 0.795478
O O5 0.542412 0.086428 0.193595
O O6 0.672815 0.961760 0.111669
O O7 0.253657 0.879737 0.376639
O O8 0.019741 0.722435 0.337999
O O9 0.963430 0.918345 0.197407
O O10 0.131797 0.803955 0.977158
O O11 0.000000 0.500000 0.500000
O O12 0.979731 0.371375 0.199652
O O13 0.520615 0.789233 0.560878
O O14 0.296669 0.722076 0.784687
O O15 0.783662 0.805761 0.495533
O O16 0.747606 0.802928 0.969844
#
# Coordination Sequence:
#
# PCOD9052469 Si02
#       8
#     2   1   2   2   2   2   2   2
#     4  12  25  38  67 104 143 195 240 285 347 425
#     4  10  26  52  78 102 140 186 232 306 382 426
#     4  11  23  43  72 101 144 184 241 297 349 427
#     4  11  23  41  63  97 141 195 236 279 350 417
#     4  10  26  46  72 101 140 187 241 302 363 424
#     4  11  26  46  70 105 146 189 236 294 357 423
#     4  11  26  48  78 103 140 185 242 299 360 432
#     4  11  25  43  68 102 147 190 239 292 348 424
#
# _framework density 25.728349000000001
#
# number of rings (size 3 to 8) (size 9 to 14) (size 15 to 20)
#    0.000    1.067    2.667    2.000   13.067    3.200 
#    0.000    0.667    0.000    0.000    0.000    0.000 
#    0.000    0.000    0.000    0.000    0.000    0.000 
#
# Total GULP energy -83639.325113 kJ/mol
# GULP energy per Si atom -5575.955008 kJ/mol
# Density = 2.566979 g / cm^3
# Si number density = 25.728349 Si / 1000 Ang^3
#
#
#
# Elastic Constant Matrix: (Units=GPa)
#
#
# Indices 1 2 3 4 5 6 
#
# 1 163.5517 17.0219 34.5916 -4.2657 18.2457 -12.6838
# 2 17.0219 64.4902 20.3840 8.8038 -6.3707 -4.4880
# 3 34.5916 20.3840 85.6163 1.4848 -4.3833 14.2636
# 4 -4.2657 8.8038 1.4848 38.5789 6.3318 -0.8076
# 5 18.2457 -6.3707 -4.3833 6.3318 46.7282 -2.4299
# 6 -12.6838 -4.4880 14.2636 -0.8076 -2.4299 51.1559
#
#
#
# Elastic Compliance Matrix: (Units=1/GPa)
#
#
# Indices 1 2 3 4 5 6 
#
# 1 0.007632 -0.001381 -0.003403 0.001937 -0.003616 0.002579
# 2 -0.001381 0.018264 -0.003942 -0.004679 0.003421 0.002448
# 3 -0.003403 -0.003942 0.014983 -0.000490 0.001989 -0.005281
# 4 0.001937 -0.004679 -0.000490 0.028088 -0.005225 0.000402
# 5 -0.003616 0.003421 0.001989 -0.005225 0.024169 -0.000085
# 6 0.002579 0.002448 -0.005281 0.000402 -0.000085 0.021877
#
#
# Mechanical properties :
#
#
# Convention : Reuss Voigt Hill
#
# Bulk Modulus (GPa) = 42.68532 50.85034 46.76783
# Shear Modulus (GPa) = 35.64485 43.40332 39.52408
#
# Velocity S-wave (km/s) = 3.72618 4.11175 3.92370
# Velocity P-wave (km/s) = 5.92784 6.50762 6.22449
#
# Compressibility (1/GPa) = 0.02342726
#
# Stress axis : x y z
#
# Youngs Moduli (GPa) = 131.03381 54.75353 66.74016
#
# Poissons Ratio (x) = 0.07561 0.22711
# Poissons Ratio (y) = 0.18095 0.26308
# Poissons Ratio (z) = 0.44590 0.21583
#
# Static dielectric constant tensor:
#      x y z
#    x 2.045420 -0.060680 -0.028700 
#    y -0.060680 2.052920 -0.053230 
#    z -0.028700 -0.053230 2.097140 
# 
# From -- ./inp_files/27316.got.cif
#   From: 2010.05.17/outbox.cif.g08.bks.cpg/sg2_14_cif.got.tgz:27316.got - 2010.06.03 11:33:40.
