data_PCOD9052807
_publ_section_title
;
Structure prediction by ZEFSAII (Michael W. Deem and Ramdas Pophale) SiO2 
 PCOD9052807
Probable space group: P -1
;
_chemical_formula_sum "Si O2"
_cell_formula_units_Z 11
_cell_length_a 5.016141
_cell_length_b 10.238177
_cell_length_c 9.957451
_cell_angle_alpha 105.823575
_cell_angle_beta 92.341571
_cell_angle_gamma 70.781808
_cell_volume 463.906519
_symmetry_space_group_name_H-M "P -1"
_symmetry_group_IT_number 2
_symmetry_cell_setting 'triclinic'
loop_
_space_group_symop_operation_xyz
x,y,z
-x,-y,-z
loop_
_atom_site_type_symbol
_atom_site_label
_atom_site_fract_x
_atom_site_fract_y
_atom_site_fract_z
Si Si1 0.078652 0.255486 0.245086
Si Si2 0.443636 0.668880 0.561281
Si Si3 0.919538 0.883960 0.202330
Si Si4 0.435469 0.875637 0.379350
Si Si5 0.811086 0.409159 0.022453
Si Si6 0.500000 0.000000 0.000000
O O1 0.313921 0.310250 0.333473
O O2 0.860363 0.250805 0.355411
O O3 0.883910 0.370588 0.167752
O O4 0.253774 0.115171 0.123531
O O5 0.500000 0.500000 0.500000
O O6 0.455274 0.744103 0.440557
O O7 0.679554 0.837687 0.261720
O O8 0.118152 0.743534 0.092021
O O9 0.127742 0.927600 0.318455
O O10 0.740508 0.993255 0.118082
O O11 0.500000 0.000000 0.500000
O O12 0.500000 0.500000 0.000000
O O13 0.000000 0.500000 0.000000
#
# Coordination Sequence:
#
# PCOD9052807 Si02
#       6
#     2   2   2   2   2   1
#     4  11  26  48  76 110 148 201 254 317 385 456
#     4  12  28  48  76 111 159 207 250 314 385 468
#     4  11  26  46  77 109 150 193 254 323 378 454
#     4  12  27  48  75 113 152 207 257 312 379 461
#     4  11  24  43  74 107 146 191 246 321 380 445
#     4  10  26  50  78 110 148 194 260 324 394 436
#
# _framework density 23.711673999999999
#
# number of rings (size 3 to 8) (size 9 to 14) (size 15 to 20)
#    0.000    0.727    0.000    5.455    7.636   10.182 
#    0.000    0.000    0.000    0.000    0.000    0.000 
#    0.000    0.000    0.000    0.000    0.000    0.000 
#
# Total GULP energy -61394.286053 kJ/mol
# GULP energy per Si atom -5581.298732 kJ/mol
# Density = 2.365771 g / cm^3
# Si number density = 23.711674 Si / 1000 Ang^3
#
#
#
# Elastic Constant Matrix: (Units=GPa)
#
#
# Indices 1 2 3 4 5 6 
#
# 1 207.8752 67.7102 69.1174 -6.6530 18.9283 -30.2494
# 2 67.7102 118.6434 37.1492 -5.4212 21.3740 -30.8207
# 3 69.1174 37.1492 102.3941 -3.2381 22.0462 -9.6820
# 4 -6.6530 -5.4212 -3.2381 32.5629 -7.2010 -3.8597
# 5 18.9283 21.3740 22.0462 -7.2010 48.8500 1.3782
# 6 -30.2494 -30.8207 -9.6820 -3.8597 1.3782 47.3372
#
#
#
# Elastic Compliance Matrix: (Units=1/GPa)
#
#
# Indices 1 2 3 4 5 6 
#
# 1 0.007181 -0.002232 -0.003769 0.001005 -0.000026 0.002448
# 2 -0.002232 0.012738 -0.001572 0.001432 -0.003979 0.006778
# 3 -0.003769 -0.001572 0.013692 -0.000646 -0.004110 -0.000564
# 4 0.001005 0.001432 -0.000646 0.032432 0.003944 0.003972
# 5 -0.000026 -0.003979 -0.004110 0.003944 0.024767 -0.003848
# 6 0.002448 0.006778 -0.000564 0.003972 -0.003848 0.027423
#
#
# Mechanical properties :
#
#
# Convention : Reuss Voigt Hill
#
# Bulk Modulus (GPa) = 54.15487 86.31846 70.23667
# Shear Modulus (GPa) = 35.83365 42.74575 39.28970
#
# Velocity S-wave (km/s) = 3.89166 4.25046 4.07501
# Velocity P-wave (km/s) = 6.56368 7.78274 7.19906
#
# Compressibility (1/GPa) = 0.01846556
#
# Stress axis : x y z
#
# Youngs Moduli (GPa) = 139.24744 78.50759 73.03668
#
# Poissons Ratio (x) = 0.17522 0.27528
# Poissons Ratio (y) = 0.31078 0.11480
# Poissons Ratio (z) = 0.52482 0.12340
#
# Static dielectric constant tensor:
#      x y z
#    x 1.840610 0.053610 -0.051320 
#    y 0.053610 1.890420 -0.005080 
#    z -0.051320 -0.005080 1.914260 
# 
# From -- ./inp_files/130351.got.cif
#   From: 2010.05.17/outbox.cif.g08.bks.cpg/sg2_66_cif.got.tgz:130351.got - 2010.06.03 11:33:40.
