data_PCOD9052895
_publ_section_title
;
Structure prediction by ZEFSAII (Michael W. Deem and Ramdas Pophale) SiO2 
 PCOD9052895
Probable space group: P -1
;
_chemical_formula_sum "Si O2"
_cell_formula_units_Z 16
_cell_length_a 10.892498
_cell_length_b 4.924967
_cell_length_c 21.231166
_cell_angle_alpha 89.637433
_cell_angle_beta 137.769822
_cell_angle_gamma 69.225879
_cell_volume 646.867176
_symmetry_space_group_name_H-M "P -1"
_symmetry_group_IT_number 2
_symmetry_cell_setting 'triclinic'
loop_
_space_group_symop_operation_xyz
x,y,z
-x,-y,-z
loop_
_atom_site_type_symbol
_atom_site_label
_atom_site_fract_x
_atom_site_fract_y
_atom_site_fract_z
Si Si1 0.925136 0.514932 0.241024
Si Si2 0.474347 0.759154 0.131735
Si Si3 0.102045 0.848158 0.240469
Si Si4 0.786865 0.345428 0.408042
Si Si5 0.886215 0.635889 0.554251
Si Si6 0.435584 0.280234 0.201628
Si Si7 0.509359 0.250708 0.455972
Si Si8 0.001644 0.847538 0.068084
O O1 0.684861 0.621662 0.169399
O O2 0.924123 0.765556 0.192482
O O3 0.058306 0.150472 0.265275
O O4 0.044299 0.524362 0.350318
O O5 0.452970 0.466869 0.147533
O O6 0.490476 0.938851 0.199138
O O7 0.246599 0.032146 0.015040
O O8 0.317732 0.496201 0.335980
O O9 0.080184 0.946731 0.159327
O O10 0.733861 0.016551 0.506663
O O11 0.598290 0.299601 0.311708
O O12 0.000000 0.000000 0.500000
O O13 0.891031 0.465614 0.395353
O O14 0.749206 0.551236 0.456231
O O15 0.189242 0.475942 0.131871
O O16 0.500000 0.500000 0.500000
O O17 0.500000 0.000000 0.500000
O O18 0.000000 0.000000 0.000000
#
# Coordination Sequence:
#
# PCOD9052895 Si02
#       8
#     2   2   2   2   2   2   2   2
#     4  12  25  46  74 103 152 192 249 301 367 450
#     4  11  24  46  75 104 139 195 239 310 376 422
#     4  12  27  46  74 110 142 201 248 299 377 446
#     4  11  26  40  70 107 142 197 244 298 367 438
#     4  11  25  44  66 105 150 192 243 303 358 440
#     4  11  24  45  73 103 146 189 244 302 371 437
#     4  12  25  44  71 103 149 198 238 295 364 442
#     4  10  27  51  77 109 149 188 252 319 375 440
#
# _framework density 24.7346
#
# number of rings (size 3 to 8) (size 9 to 14) (size 15 to 20)
#    0.000    0.750    3.750    1.875    7.000    6.000 
#    0.000    0.000    0.000    0.000    0.000    0.000 
#    0.000    0.000    0.000    0.000    0.000    0.000 
#
# Total GULP energy -89468.875069 kJ/mol
# GULP energy per Si atom -5591.804692 kJ/mol
# Density = 2.467830 g / cm^3
# Si number density = 24.734600 Si / 1000 Ang^3
#
#
#
# Elastic Constant Matrix: (Units=GPa)
#
#
# Indices 1 2 3 4 5 6 
#
# 1 80.7444 16.4709 35.1571 -1.6318 -9.6899 -9.2086
# 2 16.4709 116.8830 27.3499 2.5595 -9.9507 -8.4987
# 3 35.1571 27.3499 153.4507 3.6524 4.8354 -18.3494
# 4 -1.6318 2.5595 3.6524 24.2883 -13.6407 1.4634
# 5 -9.6899 -9.9507 4.8354 -13.6407 44.9035 -3.6813
# 6 -9.2086 -8.4987 -18.3494 1.4634 -3.6813 39.8176
#
#
#
# Elastic Compliance Matrix: (Units=1/GPa)
#
#
# Indices 1 2 3 4 5 6 
#
# 1 0.014873 -0.000867 -0.003259 0.004152 0.004797 0.002044
# 2 -0.000867 0.009279 -0.001373 0.000343 0.002231 0.001341
# 3 -0.003259 -0.001373 0.007953 -0.002836 -0.002521 0.002489
# 4 0.004152 0.000343 -0.002836 0.051323 0.016819 -0.000605
# 5 0.004797 0.002231 -0.002521 0.016819 0.029387 0.002522
# 6 0.002044 0.001341 0.002489 -0.000605 0.002522 0.027276
#
#
# Mechanical properties :
#
#
# Convention : Reuss Voigt Hill
#
# Bulk Modulus (GPa) = 47.37850 56.55933 51.96892
# Shear Modulus (GPa) = 31.62055 39.94190 35.78122
#
# Velocity S-wave (km/s) = 3.57934 4.02284 3.80755
# Velocity P-wave (km/s) = 6.02317 6.67037 6.35501
#
# Compressibility (1/GPa) = 0.02110662
#
# Stress axis : x y z
#
# Youngs Moduli (GPa) = 67.23512 107.76981 125.74346
#
# Poissons Ratio (x) = 0.09347 0.40975
# Poissons Ratio (y) = 0.05831 0.17268
# Poissons Ratio (z) = 0.21909 0.14799
#
# Static dielectric constant tensor:
#      x y z
#    x 2.032060 0.021660 -0.023000 
#    y 0.021660 1.924740 0.010240 
#    z -0.023000 0.010240 2.021160 
# 
# From -- ./inp_files/592773.got.cif
#   From: 2010.05.17/outbox.cif.g08.bks.cpg/sg2_297_cif.got.tgz:592773.got - 2010.06.03 11:33:40.
