data_PCOD9052547
_publ_section_title
;
Structure prediction by ZEFSAII (Michael W. Deem and Ramdas Pophale) SiO2 
 PCOD9052547
Probable space group: P -1
;
_chemical_formula_sum "Si O2"
_cell_formula_units_Z 15
_cell_length_a 12.347015
_cell_length_b 12.719501
_cell_length_c 6.363350
_cell_angle_alpha 120.273559
_cell_angle_beta 106.000418
_cell_angle_gamma 110.106041
_cell_volume 674.962207
_symmetry_space_group_name_H-M "P -1"
_symmetry_group_IT_number 2
_symmetry_cell_setting 'triclinic'
loop_
_space_group_symop_operation_xyz
x,y,z
-x,-y,-z
loop_
_atom_site_type_symbol
_atom_site_label
_atom_site_fract_x
_atom_site_fract_y
_atom_site_fract_z
Si Si1 0.879370 0.001772 0.048077
Si Si2 0.671162 0.483474 0.060350
Si Si3 0.094806 0.752425 0.963417
Si Si4 0.500000 0.000000 0.000000
Si Si5 0.711273 0.300154 0.212671
Si Si6 0.633224 0.743241 0.389614
Si Si7 0.737563 0.991230 0.346098
Si Si8 0.874489 0.505820 0.864506
O O1 0.735369 0.859510 0.736332
O O2 0.905530 0.153580 0.131401
O O3 0.856307 0.997851 0.279913
O O4 0.000000 0.000000 0.000000
O O5 0.528642 0.355770 0.737859
O O6 0.802181 0.531325 0.038506
O O7 0.669137 0.400203 0.184467
O O8 0.667620 0.624084 0.244608
O O9 0.189862 0.868743 0.314792
O O10 0.163626 0.673631 0.833135
O O11 0.943796 0.636400 0.860166
O O12 0.407410 0.875263 0.011172
O O13 0.364836 0.999812 0.853648
O O14 0.760502 0.354459 0.530939
O O15 0.660751 0.842989 0.299322
O O16 0.000000 0.500000 0.000000
#
# Coordination Sequence:
#
# PCOD9052547 Si02
#       8
#     2   2   2   1   2   2   2   2
#     4  11  27  43  73  99 138 182 226 283 338 402
#     4  11  26  45  70  98 142 183 224 282 337 406
#     4  11  26  44  66 103 139 175 229 280 338 407
#     4  12  24  44  74 102 136 172 230 280 346 410
#     4  12  26  43  71 104 136 181 223 285 343 403
#     4  10  26  47  67 102 137 182 232 275 337 406
#     4  11  25  44  72 101 134 179 225 284 339 399
#     4  12  27  42  70 103 140 178 226 278 345 406
#
# _framework density 22.223465999999998
#
# number of rings (size 3 to 8) (size 9 to 14) (size 15 to 20)
#    0.000    0.800    4.000    1.200    7.467    1.600 
#    0.000    2.667    0.000    0.000    0.000    0.000 
#    0.000    0.000    0.000    0.000    0.000    0.000 
#
# Total GULP energy -83652.377027 kJ/mol
# GULP energy per Si atom -5576.825135 kJ/mol
# Density = 2.217288 g / cm^3
# Si number density = 22.223466 Si / 1000 Ang^3
#
#
#
# Elastic Constant Matrix: (Units=GPa)
#
#
# Indices 1 2 3 4 5 6 
#
# 1 94.0375 12.6789 7.1662 -3.6757 -4.2033 0.4110
# 2 12.6789 95.2656 3.2678 11.7994 -8.7580 -2.8274
# 3 7.1662 3.2678 30.7841 -5.0497 -8.1615 -8.2328
# 4 -3.6757 11.7994 -5.0497 20.8040 3.8684 -0.4533
# 5 -4.2033 -8.7580 -8.1615 3.8684 16.9812 -2.9005
# 6 0.4110 -2.8274 -8.2328 -0.4533 -2.9005 41.3198
#
#
#
# Elastic Compliance Matrix: (Units=1/GPa)
#
#
# Indices 1 2 3 4 5 6 
#
# 1 0.011130 -0.001699 -0.002130 0.002360 0.000213 -0.000611
# 2 -0.001699 0.012650 0.000213 -0.008971 0.008493 0.001423
# 3 -0.002130 0.000213 0.041909 0.006171 0.020003 0.009858
# 4 0.002360 -0.008971 0.006171 0.057713 -0.014185 0.000230
# 5 0.000213 0.008493 0.020003 -0.014185 0.077853 0.009874
# 6 -0.000611 0.001423 0.009858 0.000230 0.009874 0.026965
#
#
# Mechanical properties :
#
#
# Convention : Reuss Voigt Hill
#
# Bulk Modulus (GPa) = 17.10661 29.59033 23.34847
# Shear Modulus (GPa) = 19.61255 28.95263 24.28259
#
# Velocity S-wave (km/s) = 2.97394 3.61334 3.30912
# Velocity P-wave (km/s) = 4.41664 5.54546 5.01292
#
# Compressibility (1/GPa) = 0.05845695
#
# Stress axis : x y z
#
# Youngs Moduli (GPa) = 89.84801 79.05183 23.86097
#
# Poissons Ratio (x) = 0.13432 0.05083
# Poissons Ratio (y) = 0.15266 -0.00509
# Poissons Ratio (z) = 0.19140 -0.01685
#
# Static dielectric constant tensor:
#      x y z
#    x 1.825300 -0.007240 0.026610 
#    y -0.007240 1.827640 0.014420 
#    z 0.026610 0.014420 1.827810 
# 
# From -- ./inp_files/68413.got.cif
#   From: 2010.05.17/outbox.cif.g08.bks.cpg/sg2_35_cif.got.tgz:68413.got - 2010.06.03 11:33:40.
