data_PCOD9052690
_publ_section_title
;
Structure prediction by ZEFSAII (Michael W. Deem and Ramdas Pophale) SiO2 
 PCOD9052690
Probable space group: P -1
;
_chemical_formula_sum "Si O2"
_cell_formula_units_Z 15
_cell_length_a 20.197458
_cell_length_b 11.359140
_cell_length_c 16.794820
_cell_angle_alpha 41.821486
_cell_angle_beta 160.793188
_cell_angle_gamma 146.431087
_cell_volume 682.322435
_symmetry_space_group_name_H-M "P -1"
_symmetry_group_IT_number 2
_symmetry_cell_setting 'triclinic'
loop_
_space_group_symop_operation_xyz
x,y,z
-x,-y,-z
loop_
_atom_site_type_symbol
_atom_site_label
_atom_site_fract_x
_atom_site_fract_y
_atom_site_fract_z
Si Si1 0.472144 0.565668 0.557095
Si Si2 0.217852 0.072307 0.984525
Si Si3 0.500000 0.500000 0.000000
Si Si4 0.943601 0.811184 0.469998
Si Si5 0.724019 0.931346 0.422313
Si Si6 0.044924 0.865540 0.058448
Si Si7 0.270913 0.742530 0.111516
Si Si8 0.814483 0.435120 0.632548
O O1 0.340945 0.307840 0.545122
O O2 0.758128 0.675695 0.804869
O O3 0.363860 0.637961 0.329731
O O4 0.429799 0.637249 0.558395
O O5 0.441572 0.315876 0.091835
O O6 0.963957 0.051575 0.691523
O O7 0.202050 0.004260 0.091164
O O8 0.221590 0.896177 0.025887
O O9 0.293694 0.296411 0.805136
O O10 0.897531 0.617774 0.569326
O O11 0.000000 0.000000 0.500000
O O12 0.181232 0.927374 0.621693
O O13 0.487814 0.889968 0.218982
O O14 0.172290 0.754398 0.291785
O O15 0.000000 0.000000 0.000000
O O16 0.024121 0.555684 0.879514
#
# Coordination Sequence:
#
# PCOD9052690 Si02
#       8
#     2   2   1   2   2   2   2   2
#     4  12  22  41  71  99 141 181 229 299 354 423
#     4  11  23  46  68  99 139 181 235 289 357 426
#     4  10  26  48  74  96 142 196 228 296 360 420
#     4  11  24  47  74 106 146 189 243 294 360 431
#     4  11  22  41  69 104 136 179 233 293 354 427
#     4  12  28  43  63 102 141 186 237 295 359 426
#     4  12  22  40  74 106 133 179 239 296 359 422
#     4  12  24  42  71 104 139 184 235 294 360 422
#
# _framework density 21.983740000000001
#
# number of rings (size 3 to 8) (size 9 to 14) (size 15 to 20)
#    0.000    0.533    6.667    2.400    1.867    2.133 
#    2.400    1.333    0.000    0.000    0.000    0.000 
#    0.000    0.000    0.000    0.000    0.000    0.000 
#
# Total GULP energy -83635.481575 kJ/mol
# GULP energy per Si atom -5575.698772 kJ/mol
# Density = 2.193370 g / cm^3
# Si number density = 21.983740 Si / 1000 Ang^3
#
#
#
# Elastic Constant Matrix: (Units=GPa)
#
#
# Indices 1 2 3 4 5 6 
#
# 1 144.0650 66.6352 28.8451 -2.6815 24.1828 13.7753
# 2 66.6352 126.3926 17.6505 -9.9677 0.5360 15.6133
# 3 28.8451 17.6505 60.0539 7.1331 5.9764 -0.2086
# 4 -2.6815 -9.9677 7.1331 25.5879 -7.1259 -11.3793
# 5 24.1828 0.5360 5.9764 -7.1259 28.7941 -2.6245
# 6 13.7753 15.6133 -0.2086 -11.3793 -2.6245 52.5251
#
#
#
# Elastic Compliance Matrix: (Units=1/GPa)
#
#
# Indices 1 2 3 4 5 6 
#
# 1 0.012357 -0.006136 -0.002440 -0.004905 -0.011249 -0.003051
# 2 -0.006136 0.011928 -0.002006 0.006392 0.006910 -0.000214
# 3 -0.002440 -0.002006 0.019756 -0.007937 -0.004033 -0.000606
# 4 -0.004905 0.006392 -0.007937 0.054283 0.020186 0.012124
# 5 -0.011249 0.006910 -0.004033 0.020186 0.050590 0.007781
# 6 -0.003051 -0.000214 -0.000606 0.012124 0.007781 0.022915
#
#
# Mechanical properties :
#
#
# Convention : Reuss Voigt Hill
#
# Bulk Modulus (GPa) = 43.71500 61.86367 52.78934
# Shear Modulus (GPa) = 24.92286 35.87345 30.39815
#
# Velocity S-wave (km/s) = 3.37069 4.04396 3.72258
# Velocity P-wave (km/s) = 5.92259 7.07153 6.52241
#
# Compressibility (1/GPa) = 0.02287544
#
# Stress axis : x y z
#
# Youngs Moduli (GPa) = 80.92762 83.83486 50.61868
#
# Poissons Ratio (x) = 0.51441 0.12353
# Poissons Ratio (y) = 0.49657 0.10155
# Poissons Ratio (z) = 0.19749 0.16819
#
# Static dielectric constant tensor:
#      x y z
#    x 1.817290 -0.010430 -0.028300 
#    y -0.010430 1.820120 0.035210 
#    z -0.028300 0.035210 1.838880 
# 
# From -- ./inp_files/255717.got.cif
#   From: 2010.05.17/outbox.cif.g08.bks.cpg/sg2_128_cif.got.tgz:255717.got - 2010.06.03 11:33:40.
