data_PCOD9052800
_publ_section_title
;
Structure prediction by ZEFSAII (Michael W. Deem and Ramdas Pophale) SiO2 
 PCOD9052800
Probable space group: P -1
;
_chemical_formula_sum "Si O2"
_cell_formula_units_Z 14
_cell_length_a 6.227098
_cell_length_b 11.706491
_cell_length_c 11.606767
_cell_angle_alpha 125.286274
_cell_angle_beta 119.431924
_cell_angle_gamma 82.476376
_cell_volume 587.437992
_symmetry_space_group_name_H-M "P -1"
_symmetry_group_IT_number 2
_symmetry_cell_setting 'triclinic'
loop_
_space_group_symop_operation_xyz
x,y,z
-x,-y,-z
loop_
_atom_site_type_symbol
_atom_site_label
_atom_site_fract_x
_atom_site_fract_y
_atom_site_fract_z
Si Si1 0.128496 0.173699 0.335797
Si Si2 0.278901 0.584631 0.992780
Si Si3 0.794048 0.913453 0.209390
Si Si4 0.692477 0.506057 0.440372
Si Si5 0.566086 0.050230 0.416106
Si Si6 0.655107 0.242211 0.122119
Si Si7 0.886745 0.306105 0.764873
O O1 0.281832 0.331660 0.504174
O O2 0.336513 0.085596 0.301577
O O3 0.908326 0.197759 0.206833
O O4 0.982554 0.065634 0.329603
O O5 0.288036 0.685209 0.945038
O O6 0.024358 0.461645 0.849088
O O7 0.500000 0.500000 0.000000
O O8 0.294006 0.666840 0.164995
O O9 0.924416 0.779308 0.172320
O O10 0.672649 0.931001 0.309960
O O11 0.586041 0.884285 0.037735
O O12 0.500000 0.500000 0.500000
O O13 0.579811 0.363217 0.255392
O O14 0.000000 0.500000 0.500000
O O15 0.761730 0.200913 0.570738
O O16 0.500000 0.000000 0.500000
#
# Coordination Sequence:
#
# PCOD9052800 Si02
#       7
#     2   2   2   2   2   2   2
#     4  11  28  46  74 109 147 199 247 316 393 449
#     4  11  25  47  75 110 144 200 249 312 382 452
#     4  12  26  47  74 114 148 196 256 316 393 448
#     4  10  26  50  75 112 152 207 257 314 396 471
#     4  12  27  44  72 104 154 200 250 307 381 467
#     4  11  26  49  77 106 155 191 261 315 387 466
#     4  11  26  45  75 110 147 194 257 316 376 460
#
# _framework density 23.832301000000001
#
# number of rings (size 3 to 8) (size 9 to 14) (size 15 to 20)
#    0.000    0.857    2.857    1.714    8.000    4.000 
#    0.000    0.000    0.000    0.000    0.000    0.000 
#    0.000    0.000    0.000    0.000    0.000    0.000 
#
# Total GULP energy -78138.145190 kJ/mol
# GULP energy per Si atom -5581.296085 kJ/mol
# Density = 2.377806 g / cm^3
# Si number density = 23.832301 Si / 1000 Ang^3
#
#
#
# Elastic Constant Matrix: (Units=GPa)
#
#
# Indices 1 2 3 4 5 6 
#
# 1 94.5831 27.8589 49.0204 3.8176 -11.1524 -3.8035
# 2 27.8589 94.9841 -0.6007 5.7496 7.5120 -7.3565
# 3 49.0204 -0.6007 113.0036 12.3451 -4.8798 1.8282
# 4 3.8176 5.7496 12.3451 32.2567 -3.7912 18.6545
# 5 -11.1524 7.5120 -4.8798 -3.7912 36.1397 5.9482
# 6 -3.8035 -7.3565 1.8282 18.6545 5.9482 51.9657
#
#
#
# Elastic Compliance Matrix: (Units=1/GPa)
#
#
# Indices 1 2 3 4 5 6 
#
# 1 0.016507 -0.005626 -0.007268 0.003168 0.005801 -0.001134
# 2 -0.005626 0.013286 0.002843 -0.005770 -0.005387 0.004057
# 3 -0.007268 0.002843 0.012520 -0.005652 -0.002014 0.001690
# 4 0.003168 -0.005770 -0.005652 0.045055 0.009036 -0.017594
# 5 0.005801 -0.005387 -0.002014 0.009036 0.032445 -0.007225
# 6 -0.001134 0.004057 0.001690 -0.017594 -0.007225 0.026818
#
#
# Mechanical properties :
#
#
# Convention : Reuss Voigt Hill
#
# Bulk Modulus (GPa) = 45.02113 50.56979 47.79546
# Shear Modulus (GPa) = 28.71317 39.15856 33.93586
#
# Velocity S-wave (km/s) = 3.47479 4.05790 3.77761
# Velocity P-wave (km/s) = 5.91867 6.57423 6.25504
#
# Compressibility (1/GPa) = 0.02221179
#
# Stress axis : x y z
#
# Youngs Moduli (GPa) = 60.58005 75.26958 79.87025
#
# Poissons Ratio (x) = 0.42346 0.58049
# Poissons Ratio (y) = 0.34082 -0.22708
# Poissons Ratio (z) = 0.44029 -0.21400
#
# Static dielectric constant tensor:
#      x y z
#    x 2.053250 0.032460 0.123240 
#    y 0.032460 1.887670 0.028540 
#    z 0.123240 0.028540 1.965460 
# 
# From -- ./inp_files/365478.got.cif
#   From: 2010.05.17/outbox.cif.g08.bks.cpg/sg2_183_cif.got.tgz:365478.got - 2010.06.03 11:33:40.
