data_PCOD9052986
_publ_section_title
;
Structure prediction by ZEFSAII (Michael W. Deem and Ramdas Pophale) SiO2 
 PCOD9052986
Probable space group: P -1
;
_chemical_formula_sum "Si O2"
_cell_formula_units_Z 16
_cell_length_a 12.314266
_cell_length_b 9.830294
_cell_length_c 9.825725
_cell_angle_alpha 111.711798
_cell_angle_beta 79.249272
_cell_angle_gamma 144.829154
_cell_volume 621.428728
_symmetry_space_group_name_H-M "P -1"
_symmetry_group_IT_number 2
_symmetry_cell_setting 'triclinic'
loop_
_space_group_symop_operation_xyz
x,y,z
-x,-y,-z
loop_
_atom_site_type_symbol
_atom_site_label
_atom_site_fract_x
_atom_site_fract_y
_atom_site_fract_z
Si Si1 0.414691 0.363958 0.823759
Si Si2 0.921341 0.547028 0.939179
Si Si3 0.644498 0.779827 0.687328
Si Si4 0.455004 0.002141 0.159949
Si Si5 0.934202 0.840356 0.240808
Si Si6 0.496005 0.221986 0.549342
Si Si7 0.886484 0.361968 0.615201
Si Si8 0.815044 0.534516 0.403209
O O1 0.528208 0.584025 0.766972
O O2 0.188033 0.158586 0.790334
O O3 0.452884 0.242887 0.713459
O O4 0.500000 0.500000 0.000000
O O5 0.982575 0.577742 0.781778
O O6 0.693984 0.280231 0.863307
O O7 0.939643 0.716820 0.080191
O O8 0.000000 0.500000 0.000000
O O9 0.658304 0.966141 0.798766
O O10 0.554901 0.712073 0.533156
O O11 0.842257 0.903394 0.678617
O O12 0.655246 0.247635 0.277715
O O13 0.500000 0.000000 0.000000
O O14 0.819045 0.668421 0.341229
O O15 0.724068 0.449079 0.544471
O O16 0.343384 0.922651 0.449277
O O17 0.000000 0.500000 0.500000
O O18 0.971864 0.294363 0.607713
#
# Coordination Sequence:
#
# PCOD9052986 Si02
#       8
#     2   2   2   2   2   2   2   2
#     4  12  29  48  66 100 138 180 232 290 346 392
#     4  12  19  39  67 103 138 170 224 273 323 427
#     4  11  22  42  71 103 127 177 239 274 328 409
#     4  11  17  33  65  98 133 169 219 272 321 394
#     4  12  23  40  75 102 133 183 231 282 335 397
#     4  11  24  48  70  96 133 181 238 275 327 427
#     4  12  26  43  65 106 142 174 217 285 349 397
#     4  11  21  40  68  99 130 176 226 270 339 400
#
# _framework density 25.747119999999999
#
# number of rings (size 3 to 8) (size 9 to 14) (size 15 to 20)
#    0.000    0.500   10.000    0.375    0.000    4.500 
#    2.250    0.000    0.000    0.000    0.000    0.000 
#    0.000    0.000    0.000    0.000    0.000    0.000 
#
# Total GULP energy -89261.077843 kJ/mol
# GULP energy per Si atom -5578.817365 kJ/mol
# Density = 2.568852 g / cm^3
# Si number density = 25.747120 Si / 1000 Ang^3
#
#
#
# Elastic Constant Matrix: (Units=GPa)
#
#
# Indices 1 2 3 4 5 6 
#
# 1 70.2171 14.1951 22.0983 -0.8184 -4.5580 33.4041
# 2 14.1951 84.2099 9.3043 -9.0937 5.9167 21.5481
# 3 22.0983 9.3043 163.7410 -17.1336 -36.0470 -2.3721
# 4 -0.8184 -9.0937 -17.1336 33.5913 6.1127 -1.1176
# 5 -4.5580 5.9167 -36.0470 6.1127 41.8334 -1.4534
# 6 33.4041 21.5481 -2.3721 -1.1176 -1.4534 49.8334
#
#
#
# Elastic Compliance Matrix: (Units=1/GPa)
#
#
# Indices 1 2 3 4 5 6 
#
# 1 0.022669 0.000513 -0.003724 -0.001523 -0.001133 -0.015662
# 2 0.000513 0.014328 -0.001481 0.003644 -0.004010 -0.006645
# 3 -0.003724 -0.001481 0.008557 0.002742 0.006909 0.003807
# 4 -0.001523 0.003644 0.002742 0.032687 -0.003087 0.000219
# 5 -0.001133 -0.004010 0.006909 -0.003087 0.030879 0.003654
# 6 -0.015662 -0.006645 0.003807 0.000219 0.003654 0.033731
#
#
# Mechanical properties :
#
#
# Convention : Reuss Voigt Hill
#
# Bulk Modulus (GPa) = 27.64778 45.48485 36.56632
# Shear Modulus (GPa) = 30.43336 43.22300 36.82818
#
# Velocity S-wave (km/s) = 3.44177 4.10170 3.78614
# Velocity P-wave (km/s) = 5.15324 6.33532 5.77461
#
# Compressibility (1/GPa) = 0.03616926
#
# Stress axis : x y z
#
# Youngs Moduli (GPa) = 44.11226 69.79360 116.86275
#
# Poissons Ratio (x) = -0.03580 0.43524
# Poissons Ratio (y) = -0.02263 0.17309
# Poissons Ratio (z) = 0.16429 0.10338
#
# Static dielectric constant tensor:
#      x y z
#    x 2.301410 -0.152760 0.036230 
#    y -0.152760 2.038570 0.059520 
#    z 0.036230 0.059520 2.067130 
# 
# From -- ./inp_files/308009.got.cif
#   From: 2010.05.17/outbox.cif.g08.bks.cpg/sg2_155_cif.got.tgz:308009.got - 2010.06.03 11:33:40.
