data_PCOD9052032
_publ_section_title
;
Structure prediction by ZEFSAII (Michael W. Deem and Ramdas Pophale) SiO2 
 PCOD9052032
Probable space group: P -1
;
_chemical_formula_sum "Si O2"
_cell_formula_units_Z 16
_cell_length_a 10.152422
_cell_length_b 13.855413
_cell_length_c 16.392177
_cell_angle_alpha 25.715898
_cell_angle_beta 116.078289
_cell_angle_gamma 99.442465
_cell_volume 722.086759
_symmetry_space_group_name_H-M "P -1"
_symmetry_group_IT_number 2
_symmetry_cell_setting 'triclinic'
loop_
_space_group_symop_operation_xyz
x,y,z
-x,-y,-z
loop_
_atom_site_type_symbol
_atom_site_label
_atom_site_fract_x
_atom_site_fract_y
_atom_site_fract_z
Si Si1 0.262200 0.873759 0.739418
Si Si2 0.211093 0.700833 0.570691
Si Si3 0.853550 0.417027 0.185775
Si Si4 0.603543 0.464494 0.805607
Si Si5 0.536277 0.305076 0.734647
Si Si6 0.376888 0.062810 0.497844
Si Si7 0.096843 0.228190 0.176812
Si Si8 0.791572 0.653800 0.300127
O O1 0.224161 0.670929 0.840084
O O2 0.412343 0.881768 0.724554
O O3 0.320418 0.774216 0.923583
O O4 0.069645 0.175697 0.444980
O O5 0.234313 0.563385 0.767976
O O6 0.389211 0.674343 0.610280
O O7 0.190212 0.523775 0.636477
O O8 0.047759 0.031548 0.278292
O O9 0.832375 0.686039 0.943290
O O10 0.606547 0.372848 0.783672
O O11 0.683040 0.640087 0.710966
O O12 0.500000 0.500000 0.500000
O O13 0.346463 0.350641 0.672123
O O14 0.686440 0.979293 0.004947
O O15 0.233839 0.032866 0.434976
O O16 0.500000 0.000000 0.500000
O O17 0.000000 0.500000 0.000000
O O18 0.000000 0.500000 0.500000
#
# Coordination Sequence:
#
# PCOD9052032 Si02
#       8
#     2   2   2   2   2   2   2   2
#     4  11  23  38  61  94 134 182 223 273 336 409
#     4  11  25  42  66  96 133 180 223 285 347 412
#     4  11  22  38  61  90 136 178 222 271 332 403
#     4  11  25  41  67  97 133 179 225 280 352 422
#     4  10  25  51  78 106 146 186 242 316 374 434
#     4  12  23  37  58  96 134 176 224 265 327 413
#     4  12  22  39  58  90 138 179 222 272 327 404
#     4  10  25  49  78 108 142 184 247 310 374 439
#
# _framework density 22.158003999999998
#
# number of rings (size 3 to 8) (size 9 to 14) (size 15 to 20)
#    0.000    1.000    5.000    0.750    3.500    6.500 
#    0.000    0.000    0.000    0.000    0.000    0.000 
#    0.000    0.000    0.000    0.000    0.000    0.000 
#
# Total GULP energy -89206.452794 kJ/mol
# GULP energy per Si atom -5575.403300 kJ/mol
# Density = 2.210757 g / cm^3
# Si number density = 22.158004 Si / 1000 Ang^3
#
#
#
# Elastic Constant Matrix: (Units=GPa)
#
#
# Indices 1 2 3 4 5 6 
#
# 1 85.2053 44.0424 66.6469 0.1139 -25.2886 -9.7850
# 2 44.0424 156.5060 89.4121 -11.7092 -18.0538 -9.2927
# 3 66.6469 89.4121 158.5757 -1.1011 -32.0731 -10.2626
# 4 0.1139 -11.7092 -1.1011 38.6620 -6.3867 -4.2537
# 5 -25.2886 -18.0538 -32.0731 -6.3867 46.9926 6.5472
# 6 -9.7850 -9.2927 -10.2626 -4.2537 6.5472 24.8156
#
#
#
# Elastic Compliance Matrix: (Units=1/GPa)
#
#
# Indices 1 2 3 4 5 6 
#
# 1 0.018996 -0.000975 -0.006145 0.000712 0.005289 0.003310
# 2 -0.000975 0.009861 -0.005013 0.003041 0.000011 0.001753
# 3 -0.006145 -0.005013 0.012332 -0.000649 0.003114 -0.000133
# 4 0.000712 0.003041 -0.000649 0.027998 0.004240 0.004831
# 5 0.005289 0.000011 0.003114 0.004240 0.027263 -0.003088
# 6 0.003310 0.001753 -0.000133 0.004831 -0.003088 0.043847
#
#
# Mechanical properties :
#
#
# Convention : Reuss Voigt Hill
#
# Bulk Modulus (GPa) = 59.09328 88.94333 74.01830
# Shear Modulus (GPa) = 29.37644 35.43976 32.40810
#
# Velocity S-wave (km/s) = 3.64506 4.00360 3.82853
# Velocity P-wave (km/s) = 6.66650 7.84853 7.28154
#
# Compressibility (1/GPa) = 0.01692240
#
# Stress axis : x y z
#
# Youngs Moduli (GPa) = 52.64282 101.40907 81.08764
#
# Poissons Ratio (x) = 0.09888 0.49827
# Poissons Ratio (y) = 0.05133 0.40653
# Poissons Ratio (z) = 0.32348 0.50841
#
# Static dielectric constant tensor:
#      x y z
#    x 2.022160 0.013840 0.150320 
#    y 0.013840 1.807230 -0.033710 
#    z 0.150320 -0.033710 1.938320 
# 
# From -- ./inp_files/519502.got.cif
#   From: 2010.05.17/outbox.cif.g08.bks.cpg/sg2_260_cif.got.tgz:519502.got - 2010.06.03 11:33:40.
