data_PCOD9052561
_publ_section_title
;
Structure prediction by ZEFSAII (Michael W. Deem and Ramdas Pophale) SiO2 
 PCOD9052561
Probable space group: P -1
;
_chemical_formula_sum "Si O2"
_cell_formula_units_Z 16
_cell_length_a 14.763716
_cell_length_b 11.627162
_cell_length_c 6.568492
_cell_angle_alpha 71.707262
_cell_angle_beta 138.194045
_cell_angle_gamma 113.347296
_cell_volume 689.776457
_symmetry_space_group_name_H-M "P -1"
_symmetry_group_IT_number 2
_symmetry_cell_setting 'triclinic'
loop_
_space_group_symop_operation_xyz
x,y,z
-x,-y,-z
loop_
_atom_site_type_symbol
_atom_site_label
_atom_site_fract_x
_atom_site_fract_y
_atom_site_fract_z
Si Si1 0.910152 0.875336 0.807020
Si Si2 0.423869 0.924148 0.604230
Si Si3 0.245667 0.709233 0.895543
Si Si4 0.309112 0.002068 0.733093
Si Si5 0.750951 0.723144 0.997252
Si Si6 0.740404 0.475292 0.320891
Si Si7 0.971974 0.700162 0.692391
Si Si8 0.563825 0.311693 0.429867
O O1 0.994084 0.790541 0.873845
O O2 0.811672 0.931131 0.460629
O O3 0.807356 0.781430 0.843844
O O4 0.000000 0.000000 0.000000
O O5 0.323146 0.990737 0.518875
O O6 0.360852 0.788514 0.486437
O O7 0.500000 0.000000 0.500000
O O8 0.544592 0.919273 0.973046
O O9 0.282719 0.859227 0.841994
O O10 0.220634 0.634350 0.683188
O O11 0.108357 0.680298 0.821655
O O12 0.371327 0.670086 0.246942
O O13 0.715349 0.572419 0.052617
O O14 0.884125 0.763635 0.349303
O O15 0.602963 0.747617 0.801975
O O16 0.865902 0.562303 0.617638
O O17 0.612549 0.424585 0.290398
#
# Coordination Sequence:
#
# PCOD9052561 Si02
#       8
#     2   2   2   2   2   2   2   2
#     4  12  27  46  75 102 142 188 238 286 356 426
#     4  11  22  41  64 101 141 179 221 288 353 412
#     4  12  25  44  74 105 137 185 237 298 346 420
#     4  11  25  41  68 103 142 175 234 287 354 417
#     4  10  26  47  70 102 145 185 233 291 350 423
#     4  10  26  48  70 102 143 184 241 286 354 422
#     4  10  27  48  69  99 144 186 235 290 350 419
#     4  12  24  42  75 103 140 184 236 291 358 413
#
# _framework density 23.195921999999999
#
# number of rings (size 3 to 8) (size 9 to 14) (size 15 to 20)
#    0.750    0.250    2.500    3.000    5.250    6.000 
#    0.000    0.000    0.000    0.000    0.000    0.000 
#    0.000    0.000    0.000    0.000    0.000    0.000 
#
# Total GULP energy -89282.334873 kJ/mol
# GULP energy per Si atom -5580.145930 kJ/mol
# Density = 2.314313 g / cm^3
# Si number density = 23.195922 Si / 1000 Ang^3
#
#
#
# Elastic Constant Matrix: (Units=GPa)
#
#
# Indices 1 2 3 4 5 6 
#
# 1 82.9624 10.7538 6.4477 -10.6247 -6.9034 8.5308
# 2 10.7538 72.8041 11.4560 -3.1186 -21.8750 6.4332
# 3 6.4477 11.4560 53.7022 -1.5060 6.5067 0.7881
# 4 -10.6247 -3.1186 -1.5060 35.2463 0.1105 -11.3805
# 5 -6.9034 -21.8750 6.5067 0.1105 31.8084 -2.1695
# 6 8.5308 6.4332 0.7881 -11.3805 -2.1695 34.3739
#
#
#
# Elastic Compliance Matrix: (Units=1/GPa)
#
#
# Indices 1 2 3 4 5 6 
#
# 1 0.013080 -0.000576 -0.001650 0.003209 0.002641 -0.001871
# 2 -0.000576 0.019157 -0.005673 0.000506 0.014054 -0.002258
# 3 -0.001650 -0.005673 0.021059 0.000081 -0.008535 0.000477
# 4 0.003209 0.000506 0.000081 0.032613 0.001597 0.010005
# 5 0.002641 0.014054 -0.008535 0.001597 0.043429 0.000180
# 6 -0.001871 -0.002258 0.000477 0.010005 0.000180 0.033292
#
#
# Mechanical properties :
#
#
# Convention : Reuss Voigt Hill
#
# Bulk Modulus (GPa) = 26.66832 29.64264 28.15548
# Shear Modulus (GPa) = 26.18795 32.33981 29.26388
#
# Velocity S-wave (km/s) = 3.36369 3.73795 3.55575
# Velocity P-wave (km/s) = 5.15828 5.60684 5.38723
#
# Compressibility (1/GPa) = 0.03749767
#
# Stress axis : x y z
#
# Youngs Moduli (GPa) = 76.45427 52.19955 47.48570
#
# Poissons Ratio (x) = 0.03006 0.07836
# Poissons Ratio (y) = 0.04403 0.26939
# Poissons Ratio (z) = 0.12616 0.29613
#
# Static dielectric constant tensor:
#      x y z
#    x 1.868240 0.006400 -0.004450 
#    y 0.006400 1.903680 -0.007640 
#    z -0.004450 -0.007640 1.965790 
# 
# From -- ./inp_files/70174.got.cif
#   From: 2010.05.17/outbox.cif.g08.bks.cpg/sg2_36_cif.got.tgz:70174.got - 2010.06.03 11:33:40.
