data_PCOD9052178
_publ_section_title
;
Structure prediction by ZEFSAII (Michael W. Deem and Ramdas Pophale) SiO2 
 PCOD9052178
Probable space group: P -1
;
_chemical_formula_sum "Si O2"
_cell_formula_units_Z 16
_cell_length_a 6.598084
_cell_length_b 21.738372
_cell_length_c 8.773396
_cell_angle_alpha 48.173576
_cell_angle_beta 55.760013
_cell_angle_gamma 48.759649
_cell_volume 687.899320
_symmetry_space_group_name_H-M "P -1"
_symmetry_group_IT_number 2
_symmetry_cell_setting 'triclinic'
loop_
_space_group_symop_operation_xyz
x,y,z
-x,-y,-z
loop_
_atom_site_type_symbol
_atom_site_label
_atom_site_fract_x
_atom_site_fract_y
_atom_site_fract_z
Si Si1 0.506621 0.229732 0.005292
Si Si2 0.744832 0.340942 0.290906
Si Si3 0.988875 0.570316 0.157193
Si Si4 0.808091 0.774105 0.443495
Si Si5 0.118333 0.387813 0.526587
Si Si6 0.052329 0.897261 0.187461
Si Si7 0.779116 0.198790 0.246432
Si Si8 0.241493 0.093646 0.401996
O O1 0.725898 0.220978 0.055189
O O2 0.357485 0.168419 0.221157
O O3 0.294496 0.337292 0.906542
O O4 0.654609 0.180794 0.867142
O O5 0.435713 0.371631 0.430049
O O6 0.785912 0.277032 0.227327
O O7 0.967590 0.286516 0.419571
O O8 0.800167 0.423526 0.063538
O O9 0.037460 0.583377 0.294206
O O10 0.981731 0.472555 0.323547
O O11 0.870100 0.705157 0.390675
O O12 0.841168 0.865985 0.250125
O O13 0.496853 0.805134 0.576400
O O14 0.992842 0.890547 0.400049
O O15 0.000000 0.000000 0.000000
O O16 0.069978 0.107130 0.298194
O O17 0.500000 0.000000 0.500000
#
# Coordination Sequence:
#
# PCOD9052178 Si02
#       8
#     2   2   2   2   2   2   2   2
#     4  12  25  44  73 101 138 189 231 285 349 418
#     4  11  21  44  68  96 143 184 230 287 335 411
#     4  11  22  46  67 104 144 180 236 285 343 412
#     4  11  23  46  70 102 140 185 233 289 345 411
#     4  10  26  42  69 104 142 185 231 289 345 411
#     4  12  25  46  71 101 139 179 229 293 346 410
#     4  11  22  44  73  98 137 189 225 286 350 408
#     4  12  25  50  69  99 144 176 231 297 343 413
#
# _framework density 23.259217
#
# number of rings (size 3 to 8) (size 9 to 14) (size 15 to 20)
#    0.000    0.750    6.250    1.125    3.500    1.000 
#    2.250    3.125    0.000    0.000    0.000    0.000 
#    0.000    0.000    0.000    0.000    0.000    0.000 
#
# Total GULP energy -89364.817623 kJ/mol
# GULP energy per Si atom -5585.301101 kJ/mol
# Density = 2.320628 g / cm^3
# Si number density = 23.259217 Si / 1000 Ang^3
#
#
#
# Elastic Constant Matrix: (Units=GPa)
#
#
# Indices 1 2 3 4 5 6 
#
# 1 107.6815 30.3441 26.3063 -16.8557 9.9963 -16.2761
# 2 30.3441 65.9029 9.3839 -9.7344 3.9230 -13.3856
# 3 26.3063 9.3839 88.5135 -10.5459 -1.4973 2.7425
# 4 -16.8557 -9.7344 -10.5459 44.5329 -3.1111 4.3009
# 5 9.9963 3.9230 -1.4973 -3.1111 25.0320 -10.9077
# 6 -16.2761 -13.3856 2.7425 4.3009 -10.9077 36.0391
#
#
#
# Elastic Compliance Matrix: (Units=1/GPa)
#
#
# Indices 1 2 3 4 5 6 
#
# 1 0.012310 -0.004050 -0.003070 0.002549 -0.002778 0.003144
# 2 -0.004050 0.018398 -0.000659 0.001915 0.001193 0.005187
# 3 -0.003070 -0.000659 0.012616 0.002007 0.001267 -0.002447
# 4 0.002549 0.001915 0.002007 0.024493 0.001517 -0.000754
# 5 -0.002778 0.001193 0.001267 0.001517 0.046838 0.013087
# 6 0.003144 0.005187 -0.002447 -0.000754 0.013087 0.035331
#
#
# Mechanical properties :
#
#
# Convention : Reuss Voigt Hill
#
# Bulk Modulus (GPa) = 36.01577 43.79628 39.90603
# Shear Modulus (GPa) = 28.60405 34.19171 31.39788
#
# Velocity S-wave (km/s) = 3.51065 3.83825 3.67810
# Velocity P-wave (km/s) = 5.65252 6.20592 5.93567
#
# Compressibility (1/GPa) = 0.02776561
#
# Stress axis : x y z
#
# Youngs Moduli (GPa) = 81.23407 54.35383 79.26277
#
# Poissons Ratio (x) = 0.22016 0.24332
# Poissons Ratio (y) = 0.32904 0.05224
# Poissons Ratio (z) = 0.24937 0.03582
#
# Static dielectric constant tensor:
#      x y z
#    x 1.897860 -0.020860 0.014380 
#    y -0.020860 1.928810 -0.002780 
#    z 0.014380 -0.002780 1.939720 
# 
# From -- ./inp_files/141088.got.cif
#   From: 2010.05.17/outbox.cif.g08.bks.cpg/sg2_71_cif.got.tgz:141088.got - 2010.06.03 11:33:40.
