data_PCOD9052854
_publ_section_title
;
Structure prediction by ZEFSAII (Michael W. Deem and Ramdas Pophale) SiO2 
 PCOD9052854
Probable space group: P -1
;
_chemical_formula_sum "Si O2"
_cell_formula_units_Z 16
_cell_length_a 9.910716
_cell_length_b 18.076660
_cell_length_c 5.195043
_cell_angle_alpha 64.741893
_cell_angle_beta 90.746741
_cell_angle_gamma 123.966289
_cell_volume 665.843459
_symmetry_space_group_name_H-M "P -1"
_symmetry_group_IT_number 2
_symmetry_cell_setting 'triclinic'
loop_
_space_group_symop_operation_xyz
x,y,z
-x,-y,-z
loop_
_atom_site_type_symbol
_atom_site_label
_atom_site_fract_x
_atom_site_fract_y
_atom_site_fract_z
Si Si1 0.865479 0.639503 0.627066
Si Si2 0.144909 0.827578 0.632705
Si Si3 0.528375 0.238948 0.961630
Si Si4 0.114388 0.592468 0.556775
Si Si5 0.691944 0.733215 0.403056
Si Si6 0.646352 0.412442 0.108730
Si Si7 0.980159 0.936152 0.346914
Si Si8 0.365322 0.885339 0.060741
O O1 0.810011 0.700337 0.384187
O O2 0.963771 0.711395 0.777342
O O3 0.009277 0.635563 0.519764
O O4 0.701994 0.519097 0.827486
O O5 0.229767 0.859544 0.870555
O O6 0.108215 0.906571 0.420227
O O7 0.266529 0.831247 0.410791
O O8 0.699260 0.319973 0.680198
O O9 0.361739 0.221930 0.878302
O O10 0.575973 0.306172 0.117326
O O11 0.522423 0.140822 0.053678
O O12 0.170700 0.552100 0.842993
O O13 0.000000 0.500000 0.500000
O O14 0.510852 0.629163 0.643817
O O15 0.796229 0.823858 0.480752
O O16 0.000000 0.000000 0.500000
O O17 0.000000 0.000000 0.000000
O O18 0.500000 0.000000 0.000000
#
# Coordination Sequence:
#
# PCOD9052854 Si02
#       8
#     2   2   2   2   2   2   2   2
#     4  11  22  45  69 102 144 184 241 293 364 435
#     4  11  26  46  72 110 138 186 250 302 358 436
#     4  11  25  43  68 100 142 186 237 295 361 434
#     4  11  22  41  67 100 134 183 238 291 356 425
#     4  10  27  45  65 104 141 187 240 294 361 442
#     4  11  24  43  70 100 142 188 232 294 365 435
#     4  11  26  48  77 102 143 193 244 305 366 432
#     4  12  27  46  73 104 144 190 241 313 366 421
#
# _framework density 24.029672999999999
#
# number of rings (size 3 to 8) (size 9 to 14) (size 15 to 20)
#    0.000    1.000    2.500    2.625    8.750    0.500 
#    4.500    0.000    0.000    0.000    0.000    0.000 
#    0.000    0.000    0.000    0.000    0.000    0.000 
#
# Total GULP energy -89212.141104 kJ/mol
# GULP energy per Si atom -5575.758819 kJ/mol
# Density = 2.397498 g / cm^3
# Si number density = 24.029673 Si / 1000 Ang^3
#
#
#
# Elastic Constant Matrix: (Units=GPa)
#
#
# Indices 1 2 3 4 5 6 
#
# 1 144.9068 55.7360 33.9464 9.1246 37.3911 -14.0757
# 2 55.7360 180.3644 25.5308 11.7313 23.0340 -4.8111
# 3 33.9464 25.5308 50.8152 12.9154 6.1596 -3.6213
# 4 9.1246 11.7313 12.9154 43.8431 9.5010 1.1256
# 5 37.3911 23.0340 6.1596 9.5010 41.1470 -6.9052
# 6 -14.0757 -4.8111 -3.6213 1.1256 -6.9052 46.3572
#
#
#
# Elastic Compliance Matrix: (Units=1/GPa)
#
#
# Indices 1 2 3 4 5 6 
#
# 1 0.011120 -0.001585 -0.005922 0.001653 -0.008470 0.001448
# 2 -0.001585 0.006569 -0.001914 -0.000450 -0.001883 -0.000219
# 3 -0.005922 -0.001914 0.025871 -0.006829 0.004297 0.000830
# 4 0.001653 -0.000450 -0.006829 0.026054 -0.006526 -0.001683
# 5 -0.008470 -0.001883 0.004297 -0.006526 0.034396 0.002850
# 6 0.001448 -0.000219 0.000830 -0.001683 0.002850 0.022519
#
#
# Mechanical properties :
#
#
# Convention : Reuss Voigt Hill
#
# Bulk Modulus (GPa) = 40.45887 67.39031 53.92459
# Shear Modulus (GPa) = 32.54938 43.66100 38.10519
#
# Velocity S-wave (km/s) = 3.68441 4.26721 3.98647
# Velocity P-wave (km/s) = 5.91384 7.23770 6.60900
#
# Compressibility (1/GPa) = 0.02471646
#
# Stress axis : x y z
#
# Youngs Moduli (GPa) = 89.92627 152.22766 38.65277
#
# Poissons Ratio (x) = 0.24132 0.22892
# Poissons Ratio (y) = 0.14255 0.07400
# Poissons Ratio (z) = 0.53259 0.29142
#
# Static dielectric constant tensor:
#      x y z
#    x 1.854120 0.021690 0.025700 
#    y 0.021690 1.914260 -0.032470 
#    z 0.025700 -0.032470 2.056970 
# 
# From -- ./inp_files/46698.got.cif
#   From: 2010.05.17/outbox.cif.g08.bks.cpg/sg2_24_cif.got.tgz:46698.got - 2010.06.03 11:33:40.
