data_PCOD9052818
_publ_section_title
;
Structure prediction by ZEFSAII (Michael W. Deem and Ramdas Pophale) SiO2 
 PCOD9052818
Probable space group: P -1
;
_chemical_formula_sum "Si O2"
_cell_formula_units_Z 13
_cell_length_a 8.854530
_cell_length_b 12.140953
_cell_length_c 5.376941
_cell_angle_alpha 92.509411
_cell_angle_beta 110.402172
_cell_angle_gamma 113.788827
_cell_volume 484.148983
_symmetry_space_group_name_H-M "P -1"
_symmetry_group_IT_number 2
_symmetry_cell_setting 'triclinic'
loop_
_space_group_symop_operation_xyz
x,y,z
-x,-y,-z
loop_
_atom_site_type_symbol
_atom_site_label
_atom_site_fract_x
_atom_site_fract_y
_atom_site_fract_z
Si Si1 0.570030 0.194474 0.787041
Si Si2 0.379040 0.119257 0.170851
Si Si3 0.933442 0.080934 0.303528
Si Si4 0.000000 0.500000 0.500000
Si Si5 0.647075 0.465199 0.949783
Si Si6 0.114126 0.758828 0.349538
Si Si7 0.784754 0.706869 0.834670
O O1 0.456852 0.114879 0.481709
O O2 0.561513 0.324873 0.798077
O O3 0.772321 0.224142 0.833692
O O4 0.497907 0.131041 0.999987
O O5 0.360577 0.246319 0.178948
O O6 0.185759 0.006104 0.994854
O O7 0.819626 0.126516 0.418206
O O8 0.000000 0.000000 0.500000
O O9 0.098425 0.205262 0.310105
O O10 0.892107 0.358638 0.523954
O O11 0.819362 0.484136 0.220251
O O12 0.500000 0.500000 0.000000
O O13 0.717989 0.560682 0.763881
O O14 0.919520 0.739816 0.147713
#
# Coordination Sequence:
#
# PCOD9052818 Si02
#       7
#     2   2   2   1   2   2   2
#     4  12  29  51  78 126 168 218 274 362 435 513
#     4  12  27  50  80 114 170 215 286 343 424 511
#     4  12  27  51  82 119 162 227 291 351 420 518
#     4  10  26  50  82 122 172 214 280 356 430 514
#     4  11  25  53  85 128 169 226 285 359 438 522
#     4  11  28  48  80 118 166 218 277 353 432 505
#     4  11  26  48  83 116 156 223 282 351 420 511
#
# _framework density 26.851237000000001
#
# number of rings (size 3 to 8) (size 9 to 14) (size 15 to 20)
#    0.000    0.615    3.077    2.308    8.615    3.077 
#    0.000    0.000    0.000    0.000    0.000    0.000 
#    0.000    0.000    0.000    0.000    0.000    0.000 
#
# Total GULP energy -72683.610994 kJ/mol
# GULP energy per Si atom -5591.047000 kJ/mol
# Density = 2.679012 g / cm^3
# Si number density = 26.851237 Si / 1000 Ang^3
#
#
#
# Elastic Constant Matrix: (Units=GPa)
#
#
# Indices 1 2 3 4 5 6 
#
# 1 94.6748 59.6433 68.8020 -9.7725 -8.7591 -9.2320
# 2 59.6433 175.2129 51.9301 -34.5604 -16.7940 5.8778
# 3 68.8020 51.9301 141.2541 -5.6412 -5.3389 0.2933
# 4 -9.7725 -34.5604 -5.6412 52.8862 -1.8708 2.3714
# 5 -8.7591 -16.7940 -5.3389 -1.8708 43.4703 -4.6543
# 6 -9.2320 5.8778 0.2933 2.3714 -4.6543 37.4996
#
#
#
# Elastic Compliance Matrix: (Units=1/GPa)
#
#
# Indices 1 2 3 4 5 6 
#
# 1 0.019937 -0.004486 -0.008014 -0.000300 0.001922 0.005932
# 2 -0.004486 0.008747 -0.000738 0.005003 0.002333 -0.002496
# 3 -0.008014 -0.000738 0.011201 -0.000706 -0.000768 -0.001996
# 4 -0.000300 0.005003 -0.000706 0.022224 0.002534 -0.001943
# 5 0.001922 0.002333 -0.000768 0.002534 0.024630 0.003010
# 6 0.005932 -0.002496 -0.001996 -0.001943 0.003010 0.029031
#
#
# Mechanical properties :
#
#
# Convention : Reuss Voigt Hill
#
# Bulk Modulus (GPa) = 74.56372 85.76586 80.16479
# Shear Modulus (GPa) = 34.07991 42.15564 38.11777
#
# Velocity S-wave (km/s) = 3.56647 3.96658 3.77183
# Velocity P-wave (km/s) = 6.69246 7.27934 6.99206
#
# Compressibility (1/GPa) = 0.01341135
#
# Stress axis : x y z
#
# Youngs Moduli (GPa) = 50.15744 114.32382 89.27874
#
# Poissons Ratio (x) = 0.51280 0.71545
# Poissons Ratio (y) = 0.22498 0.06587
# Poissons Ratio (z) = 0.40194 0.08435
#
# Static dielectric constant tensor:
#      x y z
#    x 2.206440 0.026180 0.004110 
#    y 0.026180 2.088280 0.020430 
#    z 0.004110 0.020430 2.068520 
# 
# From -- ./inp_files/24880.got.cif
#   From: 2010.05.17/outbox.cif.g08.bks.cpg/sg2_13_cif.got.tgz:24880.got - 2010.06.03 11:33:40.
