data_PCOD9052017
_publ_section_title
;
Structure prediction by ZEFSAII (Michael W. Deem and Ramdas Pophale) SiO2 
 PCOD9052017
Probable space group: P -1
;
_chemical_formula_sum "Si O2"
_cell_formula_units_Z 14
_cell_length_a 9.439259
_cell_length_b 5.170601
_cell_length_c 26.848661
_cell_angle_alpha 64.218702
_cell_angle_beta 149.392152
_cell_angle_gamma 105.075268
_cell_volume 581.833456
_symmetry_space_group_name_H-M "P -1"
_symmetry_group_IT_number 2
_symmetry_cell_setting 'triclinic'
loop_
_space_group_symop_operation_xyz
x,y,z
-x,-y,-z
loop_
_atom_site_type_symbol
_atom_site_label
_atom_site_fract_x
_atom_site_fract_y
_atom_site_fract_z
Si Si1 0.453167 0.314989 0.431465
Si Si2 0.964610 0.678519 0.059152
Si Si3 0.268325 0.817696 0.627995
Si Si4 0.919051 0.785858 0.258651
Si Si5 0.658764 0.364292 0.913995
Si Si6 0.109881 0.217669 0.636951
Si Si7 0.157602 0.254374 0.242026
O O1 0.286486 0.324618 0.327863
O O2 0.769243 0.359389 0.514639
O O3 0.233677 0.562705 0.375716
O O4 0.500000 0.000000 0.500000
O O5 0.254842 0.578111 0.121680
O O6 0.001622 0.517784 0.136756
O O7 0.746812 0.574011 0.964263
O O8 0.858214 0.027815 0.008138
O O9 0.272203 0.472337 0.652653
O O10 0.555259 0.896642 0.689037
O O11 0.202707 0.935513 0.653771
O O12 0.000000 0.000000 0.500000
O O13 0.669435 0.638562 0.178450
O O14 0.840199 0.885566 0.282662
O O15 0.952946 0.043148 0.210670
#
# Coordination Sequence:
#
# PCOD9052017 Si02
#       7
#     2   2   2   2   2   2   2
#     4  12  26  47  69 109 156 198 240 302 363 443
#     4  10  25  49  76 108 139 190 242 316 356 444
#     4  12  26  45  69 104 142 194 243 303 344 426
#     4  12  28  45  76 107 145 203 238 304 370 447
#     4  10  25  51  77 102 147 187 247 298 385 430
#     4  12  26  47  72  98 149 197 247 282 362 436
#     4  12  28  44  75 111 150 188 252 303 370 424
#
# _framework density 24.061869999999999
#
# number of rings (size 3 to 8) (size 9 to 14) (size 15 to 20)
#    0.000    0.571    2.857    3.429    6.000    4.571 
#    0.000    0.000    0.000    0.000    0.000    0.000 
#    0.000    0.000    0.000    0.000    0.000    0.000 
#
# Total GULP energy -78471.894938 kJ/mol
# GULP energy per Si atom -5605.135353 kJ/mol
# Density = 2.400710 g / cm^3
# Si number density = 24.061870 Si / 1000 Ang^3
#
#
#
# Elastic Constant Matrix: (Units=GPa)
#
#
# Indices 1 2 3 4 5 6 
#
# 1 91.1510 21.2142 16.6613 -0.7058 -14.9928 16.2738
# 2 21.2142 76.2892 18.7839 1.6654 -12.0605 17.3518
# 3 16.6613 18.7839 69.0535 6.2294 -4.0692 13.0933
# 4 -0.7058 1.6654 6.2294 47.8290 16.5731 4.7418
# 5 -14.9928 -12.0605 -4.0692 16.5731 44.1882 -1.3268
# 6 16.2738 17.3518 13.0933 4.7418 -1.3268 47.2538
#
#
#
# Elastic Compliance Matrix: (Units=1/GPa)
#
#
# Indices 1 2 3 4 5 6 
#
# 1 0.012899 -0.001830 -0.001749 -0.000533 0.003822 -0.003125
# 2 -0.001830 0.015871 -0.002756 -0.001099 0.003743 -0.004219
# 3 -0.001749 -0.002756 0.016405 -0.002102 0.000872 -0.002696
# 4 -0.000533 -0.001099 -0.002102 0.024851 -0.010043 -0.001606
# 5 0.003822 0.003743 0.000872 -0.010043 0.028762 -0.001117
# 6 -0.003125 -0.004219 -0.002696 -0.001606 -0.001117 0.024664
#
#
# Mechanical properties :
#
#
# Convention : Reuss Voigt Hill
#
# Bulk Modulus (GPa) = 30.76364 38.86805 34.81584
# Shear Modulus (GPa) = 34.02361 39.84315 36.93338
#
# Velocity S-wave (km/s) = 3.76441 4.07364 3.92207
# Velocity P-wave (km/s) = 5.63092 6.18987 5.91700
#
# Compressibility (1/GPa) = 0.03250591
#
# Stress axis : x y z
#
# Youngs Moduli (GPa) = 77.52695 63.00975 60.95577
#
# Poissons Ratio (x) = 0.11528 0.10659
# Poissons Ratio (y) = 0.14185 0.16800
# Poissons Ratio (z) = 0.13557 0.17366
#
# Static dielectric constant tensor:
#      x y z
#    x 1.938470 0.004630 0.004140 
#    y 0.004630 1.910780 -0.000360 
#    z 0.004140 -0.000360 1.922210 
# 
# From -- ./inp_files/135244.got.cif
#   From: 2010.05.17/outbox.cif.g08.bks.cpg/sg2_68_cif.got.tgz:135244.got - 2010.06.03 11:33:40.
