data_PCOD9052848
_publ_section_title
;
Structure prediction by ZEFSAII (Michael W. Deem and Ramdas Pophale) SiO2 
 PCOD9052848
Probable space group: P -1
;
_chemical_formula_sum "Si O2"
_cell_formula_units_Z 12
_cell_length_a 12.898187
_cell_length_b 6.687170
_cell_length_c 8.930032
_cell_angle_alpha 90.000017
_cell_angle_beta 46.183734
_cell_angle_gamma 60.918399
_cell_volume 410.764085
_symmetry_space_group_name_H-M "P -1"
_symmetry_group_IT_number 2
_symmetry_cell_setting 'triclinic'
loop_
_space_group_symop_operation_xyz
x,y,z
-x,-y,-z
loop_
_atom_site_type_symbol
_atom_site_label
_atom_site_fract_x
_atom_site_fract_y
_atom_site_fract_z
Si Si1 0.500000 0.750000 0.800227
Si Si2 0.693752 0.449542 0.144175
Si Si3 0.145964 0.366302 0.215261
Si Si4 0.145964 0.866302 0.492812
Si Si5 0.306248 0.050457 0.531679
Si Si6 1.000000 0.250000 0.095952
O O1 0.378412 0.202647 0.415512
O O2 0.333167 0.042293 0.047398
O O3 0.378412 0.702647 0.827664
O O4 0.666833 0.457707 0.713733
O O5 0.500000 0.750000 0.378481
O O6 0.775569 0.493946 0.918699
O O7 0.829678 0.350748 0.151575
O O8 0.024234 0.404683 0.192868
O O9 0.000000 0.500000 0.500000
O O10 0.975766 0.095316 0.241334
O O11 0.224431 0.006054 0.469837
O O12 0.000000 0.000000 0.500000
O O13 0.170322 0.149252 0.810931
#
# Coordination Sequence:
#
# PCOD9052848 Si02
#       6
#     2   2   2   2   2   2
#     4  10  26  54  96 132 184 238 300 376 464 532
#     4  10  26  53  92 138 178 230 308 379 454 548
#     4  11  28  54  87 134 186 238 303 372 456 549
#     4  11  28  54  87 134 186 238 303 372 456 549
#     4  10  26  53  92 138 178 230 308 379 454 548
#     4  12  28  52  96 130 178 244 302 378 454 542
#
# _framework density 29.213850000000001
#
# number of rings (size 3 to 8) (size 9 to 14) (size 15 to 20)
#    0.000    1.333    0.000    1.000   11.667    5.333 
#    0.000    6.667    3.667    4.000    0.000    0.000 
#    0.000    0.000    0.000    0.000    0.000    0.000 
#
# Total GULP energy -67419.597839 kJ/mol
# GULP energy per Si atom -5618.299820 kJ/mol
# Density = 2.914736 g / cm^3
# Si number density = 29.213850 Si / 1000 Ang^3
#
#
#
# Elastic Constant Matrix: (Units=GPa)
#
#
# Indices 1 2 3 4 5 6 
#
# 1 279.8162 146.9405 123.3673 -27.0006 -14.2500 0.0746
# 2 146.9405 225.7485 149.0967 -12.2883 12.2566 -18.1540
# 3 123.3673 149.0967 269.4430 -21.2652 -12.2199 -25.9334
# 4 -27.0006 -12.2883 -21.2652 59.4934 2.7035 -2.9341
# 5 -14.2500 12.2566 -12.2199 2.7035 56.3419 4.8635
# 6 0.0746 -18.1540 -25.9334 -2.9341 4.8635 77.8046
#
#
#
# Elastic Compliance Matrix: (Units=1/GPa)
#
#
# Indices 1 2 3 4 5 6 
#
# 1 0.006025 -0.003625 -0.000636 0.001602 0.002196 -0.001141
# 2 -0.003625 0.009513 -0.003726 -0.000778 -0.003860 0.001193
# 3 -0.000636 -0.003726 0.006356 0.001187 0.001870 0.001178
# 4 0.001602 -0.000778 0.001187 0.017848 -0.000102 0.000892
# 5 0.002196 -0.003860 0.001870 -0.000102 0.019685 -0.001514
# 6 -0.001141 0.001193 0.001178 0.000892 -0.001514 0.013653
#
#
# Mechanical properties :
#
#
# Convention : Reuss Voigt Hill
#
# Bulk Modulus (GPa) = 168.93076 179.31297 174.12187
# Shear Modulus (GPa) = 54.92823 62.43486 58.68154
#
# Velocity S-wave (km/s) = 4.34085 4.62796 4.48670
# Velocity P-wave (km/s) = 9.11455 9.49053 9.30444
#
# Compressibility (1/GPa) = 0.00591958
#
# Stress axis : x y z
#
# Youngs Moduli (GPa) = 165.98649 105.11618 157.32262
#
# Poissons Ratio (x) = 0.38103 0.10011
# Poissons Ratio (y) = 0.60168 0.58620
# Poissons Ratio (z) = 0.10562 0.39167
#
# Static dielectric constant tensor:
#      x y z
#    x 2.172210 0.071150 0.056950 
#    y 0.071150 2.424650 0.280540 
#    z 0.056950 0.280540 2.419530 
# 
# From -- ./inp_files/303651.got.cif
#   From: 2010.05.17/outbox.cif.g08.bks.cpg/sg2_152_cif.got.tgz:303651.got - 2010.06.03 11:33:40.
