data_PCOD9052990
_publ_section_title
;
Structure prediction by ZEFSAII (Michael W. Deem and Ramdas Pophale) SiO2 
 PCOD9052990
Probable space group: P -1
;
_chemical_formula_sum "Si O2"
_cell_formula_units_Z 16
_cell_length_a 9.033580
_cell_length_b 11.819332
_cell_length_c 18.873287
_cell_angle_alpha 47.651992
_cell_angle_beta 78.049976
_cell_angle_gamma 115.702114
_cell_volume 888.193387
_symmetry_space_group_name_H-M "P -1"
_symmetry_group_IT_number 2
_symmetry_cell_setting 'triclinic'
loop_
_space_group_symop_operation_xyz
x,y,z
-x,-y,-z
loop_
_atom_site_type_symbol
_atom_site_label
_atom_site_fract_x
_atom_site_fract_y
_atom_site_fract_z
Si Si1 0.624229 0.823578 0.392134
Si Si2 0.669147 0.023825 0.817572
Si Si3 0.106889 0.743247 0.085590
Si Si4 0.854309 0.499645 0.658966
Si Si5 0.812276 0.231573 0.096175
Si Si6 0.515224 0.234126 0.921958
Si Si7 0.159166 0.326822 0.557725
Si Si8 0.667614 0.248312 0.423939
O O1 0.389930 0.575888 0.474700
O O2 0.798072 0.819101 0.393631
O O3 0.509531 0.803684 0.482822
O O4 0.761711 0.055845 0.230651
O O5 0.734609 0.234618 0.765385
O O6 0.911246 0.168191 0.691289
O O7 0.447301 0.891762 0.843267
O O8 0.588516 0.824661 0.964113
O O9 0.289891 0.746917 0.084366
O O10 0.842939 0.496192 0.252312
O O11 0.096036 0.749278 0.999214
O O12 0.265264 0.001843 0.999387
O O13 0.694478 0.458347 0.752888
O O14 0.846692 0.589762 0.550769
O O15 0.131136 0.686685 0.578291
O O16 0.000000 0.500000 0.000000
O O17 0.500000 0.000000 0.500000
#
# Coordination Sequence:
#
# PCOD9052990 Si02
#       8
#     2   2   2   2   2   2   2   2
#     4  11  22  38  53  85 120 144 188 235 284 323
#     4  11  17  34  58  83 107 145 195 224 274 334
#     4   9  15  29  49  76  99 132 175 227 272 302
#     4  11  17  34  58  83 107 145 195 224 274 334
#     4  11  21  34  57  83 111 143 187 235 276 332
#     4   9  14  28  53  77 100 127 180 238 254 310
#     4  11  22  34  58  85 115 151 182 237 280 329
#     4  11  21  34  57  83 111 143 187 235 276 332
#
# _framework density 18.014095999999999
#
# number of rings (size 3 to 8) (size 9 to 14) (size 15 to 20)
#    0.000    1.500    7.500    1.875    0.000    0.000 
#    0.000    2.500    0.000    4.500    0.000    0.000 
#    0.000    0.000    0.000    0.000    0.000    0.000 
#
# Total GULP energy -89097.837891 kJ/mol
# GULP energy per Si atom -5568.614868 kJ/mol
# Density = 1.797309 g / cm^3
# Si number density = 18.014096 Si / 1000 Ang^3
#
#
#
# Elastic Constant Matrix: (Units=GPa)
#
#
# Indices 1 2 3 4 5 6 
#
# 1 62.3215 39.5139 51.2913 9.3722 -1.6820 2.8024
# 2 39.5139 68.7349 45.1800 -2.3627 6.3924 6.7579
# 3 51.2913 45.1800 115.3445 38.5951 -3.4187 -10.8987
# 4 9.3722 -2.3627 38.5951 42.2580 9.3039 -4.5688
# 5 -1.6820 6.3924 -3.4187 9.3039 -3.9890 -10.9435
# 6 2.8024 6.7579 -10.8987 -4.5688 -10.9435 9.9616
#
#
#
# Elastic Compliance Matrix: (Units=1/GPa)
#
#
# Indices 1 2 3 4 5 6 
#
# 1 0.032525 -0.010910 -0.011053 0.000373 0.004148 -0.009114
# 2 -0.010910 0.019745 -0.002273 0.002416 0.018918 0.009078
# 3 -0.011053 -0.002273 0.016269 -0.008414 -0.020817 -0.004277
# 4 0.000373 0.002416 -0.008414 0.029853 0.018194 0.022730
# 5 0.004148 0.018918 -0.020817 0.018194 -0.020890 -0.051380
# 6 -0.009114 0.009078 -0.004277 0.022730 -0.051380 0.046093
#
#
# Mechanical properties :
#
#
# Convention : Reuss Voigt Hill
#
# Bulk Modulus (GPa) = 49.82745 57.59681 53.71213
# Shear Modulus (GPa) = 27.97113 17.00717 22.48915
#
# Velocity S-wave (km/s) = 3.94475 3.07596 3.53713
# Velocity P-wave (km/s) = 6.96192 6.68266 6.82372
#
# Compressibility (1/GPa) = 0.02006926
#
# Stress axis : x y z
#
# Youngs Moduli (GPa) = 30.74522 50.64518 61.46610
#
# Poissons Ratio (x) = 0.55252 0.67938
# Poissons Ratio (y) = 0.33542 0.13969
# Poissons Ratio (z) = 0.33983 0.11509
#
# Static dielectric constant tensor:
#      x y z
#    x 1.608500 -0.022700 0.012690 
#    y -0.022700 1.631120 0.012080 
#    z 0.012690 0.012080 1.646260 
# 
# From -- ./inp_files/559772.got.cif
#   From: 2010.05.17/outbox.cif.g08.bks.cpg/sg2_280_cif.got.tgz:559772.got - 2010.06.03 11:33:40.
