data_PCOD9052279
_publ_section_title
;
Structure prediction by ZEFSAII (Michael W. Deem and Ramdas Pophale) SiO2 
 PCOD9052279
Probable space group: P -1
;
_chemical_formula_sum "Si O2"
_cell_formula_units_Z 13
_cell_length_a 12.249222
_cell_length_b 8.335282
_cell_length_c 15.005515
_cell_angle_alpha 43.245284
_cell_angle_beta 31.108167
_cell_angle_gamma 53.478269
_cell_volume 540.545527
_symmetry_space_group_name_H-M "P -1"
_symmetry_group_IT_number 2
_symmetry_cell_setting 'triclinic'
loop_
_space_group_symop_operation_xyz
x,y,z
-x,-y,-z
loop_
_atom_site_type_symbol
_atom_site_label
_atom_site_fract_x
_atom_site_fract_y
_atom_site_fract_z
Si Si1 0.011666 0.354020 0.961875
Si Si2 0.500000 0.000000 0.000000
Si Si3 0.370201 0.168727 0.870192
Si Si4 0.725059 0.544631 0.419025
Si Si5 0.394017 0.241074 0.202042
Si Si6 0.070063 0.654141 0.474767
Si Si7 0.601518 0.060059 0.308528
O O1 0.148731 0.141298 0.986938
O O2 0.133746 0.517530 0.737458
O O3 0.000000 0.500000 0.000000
O O4 0.796312 0.247882 0.113940
O O5 0.627401 0.788405 0.044216
O O6 0.267064 0.836997 0.238661
O O7 0.510173 0.378932 0.641398
O O8 0.507031 0.937382 0.866624
O O9 0.847179 0.510140 0.439085
O O10 0.682542 0.811974 0.325467
O O11 0.464296 0.152207 0.286191
O O12 0.140508 0.237207 0.383414
O O13 0.500000 0.500000 0.000000
O O14 0.000000 0.500000 0.500000
O O15 0.500000 0.000000 0.500000
#
# Coordination Sequence:
#
# PCOD9052279 Si02
#       7
#     2   1   2   2   2   2   2
#     4  12  27  44  76 108 152 199 253 321 384 453
#     4  10  26  44  70 112 146 198 254 304 390 464
#     4  11  26  46  74 108 154 193 254 321 382 463
#     4  11  25  49  75 110 149 199 259 314 385 466
#     4  12  27  46  77 111 154 208 255 316 397 461
#     4  11  25  47  79 106 158 201 259 321 386 471
#     4  12  27  46  77 113 147 200 262 313 386 473
#
# _framework density 24.049779999999998
#
# number of rings (size 3 to 8) (size 9 to 14) (size 15 to 20)
#    0.000    0.615    1.538    4.615    8.615    7.385 
#    0.000    0.000    0.000    0.000    0.000    0.000 
#    0.000    0.000    0.000    0.000    0.000    0.000 
#
# Total GULP energy -72556.288055 kJ/mol
# GULP energy per Si atom -5581.252927 kJ/mol
# Density = 2.399504 g / cm^3
# Si number density = 24.049780 Si / 1000 Ang^3
#
#
#
# Elastic Constant Matrix: (Units=GPa)
#
#
# Indices 1 2 3 4 5 6 
#
# 1 124.3844 16.3853 38.5680 -8.6503 -4.6115 -23.5865
# 2 16.3853 93.1266 16.9713 -9.7931 -6.8779 -1.5505
# 3 38.5680 16.9713 125.9304 -18.9641 7.9783 -9.2840
# 4 -8.6503 -9.7931 -18.9641 34.1322 -0.4056 -0.0247
# 5 -4.6115 -6.8779 7.9783 -0.4056 44.4995 -1.9424
# 6 -23.5865 -1.5505 -9.2840 -0.0247 -1.9424 39.3409
#
#
#
# Elastic Compliance Matrix: (Units=1/GPa)
#
#
# Indices 1 2 3 4 5 6 
#
# 1 0.010123 -0.001018 -0.002523 0.000895 0.001593 0.005513
# 2 -0.001018 0.011495 -0.001000 0.002507 0.001860 -0.000300
# 3 -0.002523 -0.001000 0.009695 0.004436 -0.002086 0.000636
# 4 0.000895 0.002507 0.004436 0.032711 0.000057 0.001705
# 5 0.001593 0.001860 -0.002086 0.000057 0.023373 0.001690
# 6 0.005513 -0.000300 0.000636 0.001705 0.001690 0.028947
#
#
# Mechanical properties :
#
#
# Convention : Reuss Voigt Hill
#
# Bulk Modulus (GPa) = 44.97980 54.14342 49.56161
# Shear Modulus (GPa) = 37.64059 41.69562 39.66810
#
# Velocity S-wave (km/s) = 3.96044 4.16832 4.06571
# Velocity P-wave (km/s) = 6.29737 6.76228 6.53396
#
# Compressibility (1/GPa) = 0.02223220
#
# Stress axis : x y z
#
# Youngs Moduli (GPa) = 98.78972 86.99156 103.14167
#
# Poissons Ratio (x) = 0.08854 0.26020
# Poissons Ratio (y) = 0.10055 0.10314
# Poissons Ratio (z) = 0.24923 0.08699
#
# Static dielectric constant tensor:
#      x y z
#    x 1.329180 0.103290 -0.508380 
#    y 0.103290 1.855070 0.257090 
#    z -0.508380 0.257090 1.327160 
# 
# From -- ./inp_files/156491.got.cif
#   From: 2010.05.17/outbox.cif.g08.bks.cpg/sg2_79_cif.got.tgz:156491.got - 2010.06.03 11:33:40.
