data_PCOD9052498
_publ_section_title
;
Structure prediction by ZEFSAII (Michael W. Deem and Ramdas Pophale) SiO2 
 PCOD9052498
Probable space group: P -1
;
_chemical_formula_sum "Si O2"
_cell_formula_units_Z 11
_cell_length_a 4.989754
_cell_length_b 12.676404
_cell_length_c 12.838242
_cell_angle_alpha 42.215202
_cell_angle_beta 110.150928
_cell_angle_gamma 85.578365
_cell_volume 435.420419
_symmetry_space_group_name_H-M "P -1"
_symmetry_group_IT_number 2
_symmetry_cell_setting 'triclinic'
loop_
_space_group_symop_operation_xyz
x,y,z
-x,-y,-z
loop_
_atom_site_type_symbol
_atom_site_label
_atom_site_fract_x
_atom_site_fract_y
_atom_site_fract_z
Si Si1 0.500000 0.500000 0.000000
Si Si2 0.229340 0.097729 0.166935
Si Si3 0.166950 0.905894 0.696971
Si Si4 0.293481 0.226716 0.803599
Si Si5 0.431897 0.548714 0.209330
Si Si6 0.361170 0.733848 0.368539
O O1 0.547587 0.301214 0.141442
O O2 0.512834 0.484677 0.146659
O O3 0.622866 0.021358 0.270305
O O4 0.113880 0.095986 0.270337
O O5 0.171442 0.951386 0.208538
O O6 0.968636 0.304251 0.945302
O O7 0.000000 0.000000 0.500000
O O8 0.415022 0.326154 0.827052
O O9 0.348816 0.293261 0.650068
O O10 0.903240 0.295335 0.708062
O O11 0.500000 0.000000 0.000000
O O12 0.539033 0.382367 0.426542
#
# Coordination Sequence:
#
# PCOD9052498 Si02
#       6
#     1   2   2   2   2   2
#     4  10  26  46  74 104 152 194 244 306 362 438
#     4  11  25  42  72 101 145 187 240 304 365 429
#     4  11  24  44  68 101 141 196 243 294 358 438
#     4  12  26  48  79 108 152 195 247 315 375 440
#     4  11  26  47  75 111 152 196 255 299 378 443
#     4  12  26  47  77 113 147 198 245 314 374 443
#
# _framework density 25.26294
#
# number of rings (size 3 to 8) (size 9 to 14) (size 15 to 20)
#    0.000    0.727    1.818    4.364    2.545    7.273 
#    0.000    0.000    0.000    0.000    0.000    0.000 
#    0.000    0.000    0.000    0.000    0.000    0.000 
#
# Total GULP energy -61316.179337 kJ/mol
# GULP energy per Si atom -5574.198122 kJ/mol
# Density = 2.520544 g / cm^3
# Si number density = 25.262940 Si / 1000 Ang^3
#
#
#
# Elastic Constant Matrix: (Units=GPa)
#
#
# Indices 1 2 3 4 5 6 
#
# 1 106.8781 0.8928 50.4409 13.1740 -21.1151 3.7710
# 2 0.8928 108.5543 1.4932 9.8711 -27.3844 -12.4448
# 3 50.4409 1.4932 112.2494 22.7735 -33.3613 -19.9852
# 4 13.1740 9.8711 22.7735 39.1069 -10.1248 -16.4212
# 5 -21.1151 -27.3844 -33.3613 -10.1248 35.5407 5.3733
# 6 3.7710 -12.4448 -19.9852 -16.4212 5.3733 14.8683
#
#
#
# Elastic Compliance Matrix: (Units=1/GPa)
#
#
# Indices 1 2 3 4 5 6 
#
# 1 0.018965 -0.004355 -0.013952 -0.016660 -0.003211 -0.044449
# 2 -0.004355 0.016974 0.011565 0.010128 0.018910 0.035210
# 3 -0.013952 0.011565 0.030090 0.017489 0.024134 0.064258
# 4 -0.016660 0.010128 0.017489 0.066269 0.017624 0.103032
# 5 -0.003211 0.018910 0.024134 0.017624 0.061469 0.046331
# 6 -0.044449 0.035210 0.064258 0.103032 0.046331 0.291423
#
#
# Mechanical properties :
#
#
# Convention : Reuss Voigt Hill
#
# Bulk Modulus (GPa) = 19.03111 48.14840 33.58975
# Shear Modulus (GPa) = 9.68636 36.22684 22.95660
#
# Velocity S-wave (km/s) = 1.96024 3.79092 3.01775
# Velocity P-wave (km/s) = 3.55991 6.18560 5.04652
#
# Compressibility (1/GPa) = 0.05254554
#
# Stress axis : x y z
#
# Youngs Moduli (GPa) = 52.72810 58.91191 33.23381
#
# Poissons Ratio (x) = 0.25655 0.46369
# Poissons Ratio (y) = 0.22962 -0.38436
# Poissons Ratio (z) = 0.73569 -0.68133
#
# Static dielectric constant tensor:
#      x y z
#    x 2.006480 -0.045510 0.000510 
#    y -0.045510 2.017520 -0.041620 
#    z 0.000510 -0.041620 1.980460 
# 
# From -- ./inp_files/361719.got.cif
#   From: 2010.05.17/outbox.cif.g08.bks.cpg/sg2_181_cif.got.tgz:361719.got - 2010.06.03 11:33:40.
