data_PCOD9052123
_publ_section_title
;
Structure prediction by ZEFSAII (Michael W. Deem and Ramdas Pophale) SiO2 
 PCOD9052123
Probable space group: P -1
;
_chemical_formula_sum "Si O2"
_cell_formula_units_Z 16
_cell_length_a 11.737236
_cell_length_b 8.220866
_cell_length_c 12.140498
_cell_angle_alpha 104.565925
_cell_angle_beta 35.870705
_cell_angle_gamma 114.642561
_cell_volume 615.639408
_symmetry_space_group_name_H-M "P -1"
_symmetry_group_IT_number 2
_symmetry_cell_setting 'triclinic'
loop_
_space_group_symop_operation_xyz
x,y,z
-x,-y,-z
loop_
_atom_site_type_symbol
_atom_site_label
_atom_site_fract_x
_atom_site_fract_y
_atom_site_fract_z
Si Si1 0.919105 0.196694 0.523398
Si Si2 0.899516 0.002168 0.825843
Si Si3 0.180696 0.328001 0.765734
Si Si4 0.038641 0.774577 0.848212
Si Si5 0.293746 0.541658 0.310438
Si Si6 0.313898 0.537508 0.028321
Si Si7 0.427573 0.754748 0.617758
Si Si8 0.497659 0.921702 0.835177
O O1 0.026552 0.094590 0.345153
O O2 0.788367 0.297762 0.575663
O O3 0.108099 0.355611 0.461754
O O4 0.732125 0.045761 0.708657
O O5 0.962330 0.914635 0.869182
O O6 0.031772 0.217398 0.764407
O O7 0.656621 0.970202 0.014048
O O8 0.274097 0.544881 0.725364
O O9 0.375329 0.263383 0.599447
O O10 0.041766 0.260817 0.970670
O O11 0.287170 0.832393 0.667685
O O12 0.915514 0.582481 0.853956
O O13 0.522714 0.548980 0.163961
O O14 0.302113 0.530343 0.168258
O O15 0.404735 0.740942 0.948782
O O16 0.493781 0.858724 0.699977
#
# Coordination Sequence:
#
# PCOD9052123 Si02
#       8
#     2   2   2   2   2   2   2   2
#     4  11  25  49  71 101 139 177 231 298 339 404
#     4  12  25  43  68 104 141 183 230 280 340 413
#     4  11  23  42  63 101 144 179 227 273 335 415
#     4  12  23  42  68  99 138 189 221 275 339 407
#     4  10  25  52  72  97 136 179 241 289 344 408
#     4  11  24  47  78  99 133 188 230 286 349 404
#     4  11  24  41  66 100 144 181 223 272 340 418
#     4  12  25  45  72 105 142 180 225 285 347 412
#
# _framework density 25.989239000000001
#
# number of rings (size 3 to 8) (size 9 to 14) (size 15 to 20)
#    0.000    0.750    5.000    2.250    1.750    3.500 
#    4.500    0.000    0.000    0.000    0.000    0.000 
#    0.000    0.000    0.000    0.000    0.000    0.000 
#
# Total GULP energy -89754.397462 kJ/mol
# GULP energy per Si atom -5609.649841 kJ/mol
# Density = 2.593009 g / cm^3
# Si number density = 25.989239 Si / 1000 Ang^3
#
#
#
# Elastic Constant Matrix: (Units=GPa)
#
#
# Indices 1 2 3 4 5 6 
#
# 1 58.0749 26.2427 29.7840 13.6385 -16.2784 -3.2038
# 2 26.2427 123.0347 44.8236 -2.8557 1.1372 3.5631
# 3 29.7840 44.8236 130.3227 24.2687 -36.4199 -6.3003
# 4 13.6385 -2.8557 24.2687 57.1747 0.7158 -8.3703
# 5 -16.2784 1.1372 -36.4199 0.7158 27.0260 4.4796
# 6 -3.2038 3.5631 -6.3003 -8.3703 4.4796 34.1043
#
#
#
# Elastic Compliance Matrix: (Units=1/GPa)
#
#
# Indices 1 2 3 4 5 6 
#
# 1 0.027074 -0.007930 0.004812 -0.009357 0.023561 -0.001130
# 2 -0.007930 0.013376 -0.008910 0.006580 -0.017542 0.000131
# 3 0.004812 -0.008910 0.020286 -0.010831 0.031166 -0.001622
# 4 -0.009357 0.006580 -0.010831 0.025754 -0.022129 0.005660
# 5 0.023561 -0.017542 0.031166 -0.022129 0.095879 -0.008221
# 6 -0.001130 0.000131 -0.001622 0.005660 -0.008221 0.031371
#
#
# Mechanical properties :
#
#
# Convention : Reuss Voigt Hill
#
# Bulk Modulus (GPa) = 27.26165 57.01474 42.13820
# Shear Modulus (GPa) = 19.99815 37.69980 28.84897
#
# Velocity S-wave (km/s) = 2.77696 3.81280 3.33533
# Velocity P-wave (km/s) = 4.56008 6.43185 5.57508
#
# Compressibility (1/GPa) = 0.03668156
#
# Stress axis : x y z
#
# Youngs Moduli (GPa) = 36.93587 74.75945 49.29462
#
# Poissons Ratio (x) = 0.59285 -0.23722
# Poissons Ratio (y) = 0.29291 0.43919
# Poissons Ratio (z) = -0.17775 0.66607
#
# Static dielectric constant tensor:
#      x y z
#    x 2.044790 -0.011370 0.008310 
#    y -0.011370 2.067130 0.001680 
#    z 0.008310 0.001680 1.989540 
# 
# From -- ./inp_files/529964.got.cif
#   From: 2010.05.17/outbox.cif.g08.bks.cpg/sg2_265_cif.got.tgz:529964.got - 2010.06.03 11:33:40.
