data_PCOD9052475
_publ_section_title
;
Structure prediction by ZEFSAII (Michael W. Deem and Ramdas Pophale) SiO2 
 PCOD9052475
Probable space group: P -1
;
_chemical_formula_sum "Si O2"
_cell_formula_units_Z 13
_cell_length_a 7.768396
_cell_length_b 17.816044
_cell_length_c 5.151933
_cell_angle_alpha 95.339930
_cell_angle_beta 66.150929
_cell_angle_gamma 53.552384
_cell_volume 467.683398
_symmetry_space_group_name_H-M "P -1"
_symmetry_group_IT_number 2
_symmetry_cell_setting 'triclinic'
loop_
_space_group_symop_operation_xyz
x,y,z
-x,-y,-z
loop_
_atom_site_type_symbol
_atom_site_label
_atom_site_fract_x
_atom_site_fract_y
_atom_site_fract_z
Si Si1 0.928954 0.865167 0.088019
Si Si2 0.558758 0.907412 0.712932
Si Si3 0.756923 0.110883 0.803517
Si Si4 0.114618 0.549759 0.995427
Si Si5 0.587382 0.355455 0.361980
Si Si6 0.589567 0.745830 0.338486
Si Si7 0.500000 0.500000 0.000000
O O1 0.825034 0.870386 0.439643
O O2 0.116189 0.884739 0.023688
O O3 0.672652 0.966917 0.133629
O O4 0.112960 0.751625 0.811521
O O5 0.532546 0.844807 0.507662
O O6 0.478234 0.882229 0.003491
O O7 0.623070 0.210716 0.738019
O O8 0.000000 0.000000 0.500000
O O9 0.431548 0.453025 0.698994
O O10 0.179343 0.565891 0.238997
O O11 0.000000 0.500000 0.000000
O O12 0.890502 0.660814 0.038002
O O13 0.435163 0.317339 0.463565
O O14 0.574379 0.404225 0.118246
#
# Coordination Sequence:
#
# PCOD9052475 Si02
#       7
#     2   2   2   2   2   2   1
#     4  11  24  45  73 106 146 190 237 300 363 430
#     4  11  24  46  69 109 147 182 241 297 357 444
#     4  12  24  44  74 104 147 196 232 293 374 429
#     4  10  26  46  72 104 142 190 247 302 360 434
#     4  11  25  46  73 103 145 188 246 304 361 440
#     4  11  24  46  70 106 145 185 240 305 357 433
#     4  12  26  48  72 102 138 200 244 302 372 424
#
# _framework density 27.796582000000001
#
# number of rings (size 3 to 8) (size 9 to 14) (size 15 to 20)
#    0.000    0.923    3.077    2.769    4.308    5.538 
#    5.538    0.000    0.000    0.000    0.000    0.000 
#    0.000    0.000    0.000    0.000    0.000    0.000 
#
# Total GULP energy -72368.245171 kJ/mol
# GULP energy per Si atom -5566.788090 kJ/mol
# Density = 2.773332 g / cm^3
# Si number density = 27.796582 Si / 1000 Ang^3
#
#
#
# Elastic Constant Matrix: (Units=GPa)
#
#
# Indices 1 2 3 4 5 6 
#
# 1 129.1939 43.5769 0.8742 0.8245 -29.1312 10.7025
# 2 43.5769 150.3174 62.8726 4.5691 -22.0583 -5.8627
# 3 0.8742 62.8726 139.8428 26.8875 -20.3791 0.6694
# 4 0.8245 4.5691 26.8875 57.6786 -6.4558 -20.0077
# 5 -29.1312 -22.0583 -20.3791 -6.4558 31.4807 -0.1311
# 6 10.7025 -5.8627 0.6694 -20.0077 -0.1311 55.5899
#
#
#
# Elastic Compliance Matrix: (Units=1/GPa)
#
#
# Indices 1 2 3 4 5 6 
#
# 1 0.011282 -0.003170 0.003057 -0.001255 0.009928 -0.002971
# 2 -0.003170 0.009749 -0.004651 0.002500 0.001410 0.002598
# 3 0.003057 -0.004651 0.011076 -0.005282 0.005644 -0.003100
# 4 -0.001255 0.002500 -0.005282 0.022889 0.001902 0.008811
# 5 0.009928 0.001410 0.005644 0.001902 0.045980 -0.001038
# 6 -0.002971 0.002598 -0.003100 0.008811 -0.001038 0.022041
#
#
# Mechanical properties :
#
#
# Convention : Reuss Voigt Hill
#
# Bulk Modulus (GPa) = 44.29042 70.44459 57.36750
# Shear Modulus (GPa) = 35.69633 49.75186 42.72409
#
# Velocity S-wave (km/s) = 3.58746 4.23526 3.92475
# Velocity P-wave (km/s) = 5.75571 7.02243 6.42038
#
# Compressibility (1/GPa) = 0.02257825
#
# Stress axis : x y z
#
# Youngs Moduli (GPa) = 88.64048 102.57246 90.28796
#
# Poissons Ratio (x) = 0.32516 -0.27600
# Poissons Ratio (y) = 0.28099 0.41992
# Poissons Ratio (z) = -0.27097 0.47706
#
# Static dielectric constant tensor:
#      x y z
#    x 1.945000 0.020490 -0.242260 
#    y 0.020490 2.130440 -0.023200 
#    z -0.242260 -0.023200 2.116740 
# 
# From -- ./inp_files/44504.got.cif
#   From: 2010.05.17/outbox.cif.g08.bks.cpg/sg2_23_cif.got.tgz:44504.got - 2010.06.03 11:33:40.
