data_PCOD9052429
_publ_section_title
;
Structure prediction by ZEFSAII (Michael W. Deem and Ramdas Pophale) SiO2 
 PCOD9052429
Probable space group: P -1
;
_chemical_formula_sum "Si O2"
_cell_formula_units_Z 12
_cell_length_a 4.818058
_cell_length_b 13.554128
_cell_length_c 16.381403
_cell_angle_alpha 154.177666
_cell_angle_beta 89.177921
_cell_angle_gamma 87.219277
_cell_volume 461.271662
_symmetry_space_group_name_H-M "P -1"
_symmetry_group_IT_number 2
_symmetry_cell_setting 'triclinic'
loop_
_space_group_symop_operation_xyz
x,y,z
-x,-y,-z
loop_
_atom_site_type_symbol
_atom_site_label
_atom_site_fract_x
_atom_site_fract_y
_atom_site_fract_z
Si Si1 0.533002 0.625457 0.764871
Si Si2 0.807435 0.408224 0.862496
Si Si3 0.205546 0.933679 0.874036
Si Si4 0.468595 0.992948 0.348757
Si Si5 0.927212 0.154367 0.373135
Si Si6 0.333425 0.421753 0.764034
O O1 0.408542 0.715348 0.745572
O O2 0.761544 0.402937 0.583026
O O3 0.309106 0.562551 0.785320
O O4 0.643039 0.842972 0.967349
O O5 0.663953 0.206478 0.754480
O O6 0.530004 0.535418 0.911427
O O7 0.041628 0.369506 0.762057
O O8 0.000000 0.500000 0.000000
O O9 0.075262 0.878414 0.747967
O O10 0.000000 0.000000 0.000000
O O11 0.759072 0.967684 0.279362
O O12 0.504076 0.178224 0.556534
O O13 0.237562 0.111584 0.374943
#
# Coordination Sequence:
#
# PCOD9052429 Si02
#       6
#     2   2   2   2   2   2
#     4  10  26  46  69 106 138 196 234 296 367 415
#     4  12  26  41  71 107 142 184 231 296 353 423
#     4  11  27  44  74 103 145 185 242 301 359 429
#     4  11  25  46  72 105 139 195 237 288 358 421
#     4  11  26  46  76 104 148 187 243 294 353 439
#     4  11  24  45  70  96 145 185 235 287 349 433
#
# _framework density 26.015035000000001
#
# number of rings (size 3 to 8) (size 9 to 14) (size 15 to 20)
#    0.000    1.000    0.000    5.000   16.333    0.667 
#    0.000    0.000    0.000    0.000    0.000    0.000 
#    0.000    0.000    0.000    0.000    0.000    0.000 
#
# Total GULP energy -67199.536931 kJ/mol
# GULP energy per Si atom -5599.961411 kJ/mol
# Density = 2.595582 g / cm^3
# Si number density = 26.015035 Si / 1000 Ang^3
#
#
#
# Elastic Constant Matrix: (Units=GPa)
#
#
# Indices 1 2 3 4 5 6 
#
# 1 116.3809 34.0309 16.6725 -14.8377 17.8199 -6.6876
# 2 34.0309 148.0494 62.1437 -11.5908 12.1618 -1.6323
# 3 16.6725 62.1437 71.3688 -8.2550 18.3479 -4.3275
# 4 -14.8377 -11.5908 -8.2550 43.6275 3.8765 7.2568
# 5 17.8199 12.1618 18.3479 3.8765 44.2625 -2.8691
# 6 -6.6876 -1.6323 -4.3275 7.2568 -2.8691 46.6032
#
#
#
# Elastic Compliance Matrix: (Units=1/GPa)
#
#
# Indices 1 2 3 4 5 6 
#
# 1 0.010181 -0.002144 0.000987 0.003333 -0.004165 0.000702
# 2 -0.002144 0.011196 -0.009692 0.000387 0.001721 -0.000770
# 3 0.000987 -0.009692 0.024736 0.002979 -0.008175 0.001132
# 4 0.003333 0.000387 0.002979 0.025774 -0.005171 -0.003563
# 5 -0.004165 0.001721 -0.008175 -0.005171 0.027717 0.001215
# 6 0.000702 -0.000770 0.001132 -0.003563 0.001215 0.022266
#
#
# Mechanical properties :
#
#
# Convention : Reuss Voigt Hill
#
# Bulk Modulus (GPa) = 40.95859 62.38815 51.67337
# Shear Modulus (GPa) = 32.95851 41.76212 37.36032
#
# Velocity S-wave (km/s) = 3.56322 4.01098 3.79371
# Velocity P-wave (km/s) = 5.71901 6.74420 6.25265
#
# Compressibility (1/GPa) = 0.02441491
#
# Stress axis : x y z
#
# Youngs Moduli (GPa) = 98.22232 89.31697 40.42744
#
# Poissons Ratio (x) = 0.19147 -0.03991
# Poissons Ratio (y) = 0.21056 0.39184
# Poissons Ratio (z) = -0.09697 0.86570
#
# Static dielectric constant tensor:
#      x y z
#    x 2.022690 -0.011640 -0.044080 
#    y -0.011640 2.026490 0.049420 
#    z -0.044080 0.049420 2.129620 
# 
# From -- ./inp_files/481870.got.cif
#   From: 2010.05.17/outbox.cif.g08.bks.cpg/sg2_241_cif.got.tgz:481870.got - 2010.06.03 11:33:40.
