data_PCOD9052440
_publ_section_title
;
Structure prediction by ZEFSAII (Michael W. Deem and Ramdas Pophale) SiO2 
 PCOD9052440
Probable space group: P -1
;
_chemical_formula_sum "Si O2"
_cell_formula_units_Z 15
_cell_length_a 20.568275
_cell_length_b 13.759234
_cell_length_c 5.496295
_cell_angle_alpha 94.555688
_cell_angle_beta 85.381183
_cell_angle_gamma 23.925711
_cell_volume 581.975378
_symmetry_space_group_name_H-M "P -1"
_symmetry_group_IT_number 2
_symmetry_cell_setting 'triclinic'
loop_
_space_group_symop_operation_xyz
x,y,z
-x,-y,-z
loop_
_atom_site_type_symbol
_atom_site_label
_atom_site_fract_x
_atom_site_fract_y
_atom_site_fract_z
Si Si1 0.616588 0.509790 0.703996
Si Si2 0.434238 0.258764 0.630542
Si Si3 0.260250 0.030747 0.958925
Si Si4 0.219552 0.908079 0.582549
Si Si5 0.017307 0.333651 0.484461
Si Si6 0.000000 0.500000 0.000000
Si Si7 0.902331 0.209079 0.885537
Si Si8 0.369542 0.164114 0.289855
O O1 0.564320 0.646450 0.513090
O O2 0.448556 0.761671 0.974237
O O3 0.641390 0.364580 0.587284
O O4 0.797910 0.295157 0.722269
O O5 0.409374 0.198164 0.462416
O O6 0.599400 0.992074 0.676495
O O7 0.258085 0.513212 0.888125
O O8 0.260162 0.932420 0.778923
O O9 0.223533 0.189740 0.898536
O O10 0.059729 0.313367 0.193682
O O11 0.168202 0.044604 0.395071
O O12 0.049399 0.081477 0.739131
O O13 0.031695 0.383870 0.719310
O O14 0.833547 0.541935 0.617359
O O15 0.000000 0.000000 0.000000
O O16 0.500000 0.000000 0.000000
#
# Coordination Sequence:
#
# PCOD9052440 Si02
#       8
#     2   2   2   2   2   1   2   2
#     4  12  27  45  74 111 147 189 250 301 362 438
#     4  11  25  43  73 107 148 183 243 302 371 427
#     4  11  27  47  73 104 146 197 242 296 365 442
#     4  11  25  47  72 106 146 190 243 296 370 438
#     4  11  25  46  75  99 149 190 239 298 365 436
#     4  10  26  46  70 102 142 190 244 288 360 432
#     4  12  26  46  75 108 144 192 242 303 367 435
#     4  11  25  45  72 111 142 190 241 307 367 432
#
# _framework density 25.774287999999999
#
# number of rings (size 3 to 8) (size 9 to 14) (size 15 to 20)
#    0.000    0.800    1.333    4.400    9.333    4.800 
#    0.000    0.000    0.000    0.000    0.000    0.000 
#    0.000    0.000    0.000    0.000    0.000    0.000 
#
# Total GULP energy -83541.492255 kJ/mol
# GULP energy per Si atom -5569.432817 kJ/mol
# Density = 2.571562 g / cm^3
# Si number density = 25.774288 Si / 1000 Ang^3
#
#
#
# Elastic Constant Matrix: (Units=GPa)
#
#
# Indices 1 2 3 4 5 6 
#
# 1 84.9939 34.8679 27.2435 18.4281 14.7090 8.1502
# 2 34.8679 140.1597 25.5052 37.2912 18.0041 16.9075
# 3 27.2435 25.5052 113.6413 28.3585 7.9637 14.8702
# 4 18.4281 37.2912 28.3585 42.2362 1.3700 13.1458
# 5 14.7090 18.0041 7.9637 1.3700 48.3845 20.4751
# 6 8.1502 16.9075 14.8702 13.1458 20.4751 53.0455
#
#
#
# Elastic Compliance Matrix: (Units=1/GPa)
#
#
# Indices 1 2 3 4 5 6 
#
# 1 0.014529 -0.001981 -0.002075 -0.003480 -0.003793 0.001307
# 2 -0.001981 0.010142 0.000479 -0.008377 -0.003103 0.000211
# 3 -0.002075 0.000479 0.011014 -0.006577 -0.000750 -0.001002
# 4 -0.003480 -0.008377 -0.006577 0.039092 0.007308 -0.007460
# 5 -0.003793 -0.003103 -0.000750 0.007308 0.027376 -0.010596
# 6 0.001307 0.000211 -0.001002 -0.007460 -0.010596 0.024803
#
#
# Mechanical properties :
#
#
# Convention : Reuss Voigt Hill
#
# Bulk Modulus (GPa) = 35.04985 57.11422 46.08204
# Shear Modulus (GPa) = 34.81360 45.47848 40.14604
#
# Velocity S-wave (km/s) = 3.67919 4.20514 3.95093
# Velocity P-wave (km/s) = 5.62822 6.76647 6.22342
#
# Compressibility (1/GPa) = 0.02853079
#
# Stress axis : x y z
#
# Youngs Moduli (GPa) = 68.82707 98.59633 90.78976
#
# Poissons Ratio (x) = 0.19535 0.18841
# Poissons Ratio (y) = 0.13637 -0.04348
# Poissons Ratio (z) = 0.14283 -0.04722
#
# Static dielectric constant tensor:
#      x y z
#    x 1.432330 -0.978270 0.653050 
#    y -0.978270 1.165540 0.836690 
#    z 0.653050 0.836690 1.367740 
# 
# From -- ./inp_files/124324.got.cif
#   From: 2010.05.17/outbox.cif.g08.bks.cpg/sg2_63_cif.got.tgz:124324.got - 2010.06.03 11:33:40.
