data_PCOD9052661
_publ_section_title
;
Structure prediction by ZEFSAII (Michael W. Deem and Ramdas Pophale) SiO2 
 PCOD9052661
Probable space group: P -1
;
_chemical_formula_sum "Si O2"
_cell_formula_units_Z 15
_cell_length_a 19.690291
_cell_length_b 17.009078
_cell_length_c 8.576411
_cell_angle_alpha 35.935013
_cell_angle_beta 147.630547
_cell_angle_gamma 158.982781
_cell_volume 548.136138
_symmetry_space_group_name_H-M "P -1"
_symmetry_group_IT_number 2
_symmetry_cell_setting 'triclinic'
loop_
_space_group_symop_operation_xyz
x,y,z
-x,-y,-z
loop_
_atom_site_type_symbol
_atom_site_label
_atom_site_fract_x
_atom_site_fract_y
_atom_site_fract_z
Si Si1 0.987738 0.140989 0.139319
Si Si2 0.229199 0.528508 0.771455
Si Si3 0.256722 0.257218 0.933181
Si Si4 0.592459 0.172797 0.767424
Si Si5 0.648383 0.769434 0.257239
Si Si6 0.963592 0.647104 0.652701
Si Si7 0.668807 0.867714 0.472858
Si Si8 0.500000 0.000000 0.500000
O O1 0.187050 0.215392 0.455409
O O2 0.088341 0.353984 0.916402
O O3 0.806869 0.022126 0.105608
O O4 0.846966 0.938905 0.068813
O O5 0.087553 0.414873 0.528255
O O6 0.333598 0.756763 0.640564
O O7 0.431102 0.599759 0.018011
O O8 0.214286 0.160212 0.178338
O O9 0.500000 0.500000 0.000000
O O10 0.141014 0.297207 0.600991
O O11 0.834393 0.424199 0.850704
O O12 0.549669 0.102821 0.615815
O O13 0.469401 0.203139 0.536085
O O14 0.500000 0.000000 0.000000
O O15 0.574270 0.729257 0.354596
O O16 0.202722 0.895026 0.720815
#
# Coordination Sequence:
#
# PCOD9052661 Si02
#       8
#     2   2   2   2   2   2   2   1
#     4  11  24  43  67 106 148 181 227 286 358 434
#     4  11  23  45  71  97 142 189 233 292 351 421
#     4  12  22  42  73 104 142 186 228 286 358 437
#     4  11  26  49  71 103 140 187 245 302 356 417
#     4  11  25  40  67 109 145 180 226 286 363 430
#     4  11  23  43  72 104 142 182 237 282 355 436
#     4  12  24  43  73 102 139 186 233 293 359 419
#     4  10  26  48  72 100 136 192 248 294 348 420
#
# _framework density 27.365466000000001
#
# number of rings (size 3 to 8) (size 9 to 14) (size 15 to 20)
#    0.000    0.800    4.000    3.200    1.867    4.800 
#    0.000    6.000    0.000    0.000    0.000    0.000 
#    0.000    0.000    0.000    0.000    0.000    0.000 
#
# Total GULP energy -83639.222173 kJ/mol
# GULP energy per Si atom -5575.948145 kJ/mol
# Density = 2.730318 g / cm^3
# Si number density = 27.365466 Si / 1000 Ang^3
#
#
#
# Elastic Constant Matrix: (Units=GPa)
#
#
# Indices 1 2 3 4 5 6 
#
# 1 118.3643 41.7708 12.2554 6.9138 -21.3956 8.7890
# 2 41.7708 141.2691 40.4092 -44.3654 -4.6434 24.8884
# 3 12.2554 40.4092 88.6942 -20.2527 -35.7696 13.7840
# 4 6.9138 -44.3654 -20.2527 67.8099 13.1678 -0.5566
# 5 -21.3956 -4.6434 -35.7696 13.1678 33.5689 1.2145
# 6 8.7890 24.8884 13.7840 -0.5566 1.2145 45.9545
#
#
#
# Elastic Compliance Matrix: (Units=1/GPa)
#
#
# Indices 1 2 3 4 5 6 
#
# 1 0.015060 -0.008732 0.008596 -0.008779 0.021045 -0.001392
# 2 -0.008732 0.016587 -0.010938 0.012256 -0.019613 -0.003365
# 3 0.008596 -0.010938 0.030168 -0.006630 0.038925 -0.005878
# 4 -0.008779 0.012256 -0.006630 0.025739 -0.020985 -0.002104
# 5 0.021045 -0.019613 0.038925 -0.020985 0.090478 -0.007724
# 6 -0.001392 -0.003365 -0.005878 -0.002104 -0.007724 0.025791
#
#
# Mechanical properties :
#
#
# Convention : Reuss Voigt Hill
#
# Bulk Modulus (GPa) = 25.20964 59.68870 42.44917
# Shear Modulus (GPa) = 20.90347 46.39281 33.64814
#
# Velocity S-wave (km/s) = 2.76681 4.12187 3.51035
# Velocity P-wave (km/s) = 4.40899 6.67174 5.65470
#
# Compressibility (1/GPa) = 0.03966736
#
# Stress axis : x y z
#
# Youngs Moduli (GPa) = 66.39951 60.28861 33.14739
#
# Poissons Ratio (x) = 0.52645 -0.28495
# Poissons Ratio (y) = 0.57981 0.36258
# Poissons Ratio (z) = -0.57080 0.65946
#
# Static dielectric constant tensor:
#      x y z
#    x 2.189350 -0.046280 0.075520 
#    y -0.046280 2.063210 -0.015250 
#    z 0.075520 -0.015250 2.323350 
# 
# From -- ./inp_files/348281.got.cif
#   From: 2010.05.17/outbox.cif.g08.bks.cpg/sg2_175_cif.got.tgz:348281.got - 2010.06.03 11:33:40.
