data_PCOD9052963
_publ_section_title
;
Structure prediction by ZEFSAII (Michael W. Deem and Ramdas Pophale) SiO2 
 PCOD9052963
Probable space group: P -1
;
_chemical_formula_sum "Si O2"
_cell_formula_units_Z 12
_cell_length_a 11.461047
_cell_length_b 15.284154
_cell_length_c 11.665290
_cell_angle_alpha 28.061747
_cell_angle_beta 33.602631
_cell_angle_gamma 51.386316
_cell_volume 481.305705
_symmetry_space_group_name_H-M "P -1"
_symmetry_group_IT_number 2
_symmetry_cell_setting 'triclinic'
loop_
_space_group_symop_operation_xyz
x,y,z
-x,-y,-z
loop_
_atom_site_type_symbol
_atom_site_label
_atom_site_fract_x
_atom_site_fract_y
_atom_site_fract_z
Si Si1 0.822618 0.744322 0.042702
Si Si2 0.630882 0.678575 0.039344
Si Si3 0.616275 0.160791 0.116856
Si Si4 0.247500 0.110744 0.836658
Si Si5 0.207504 0.590712 0.920005
Si Si6 0.228896 0.448604 0.311320
O O1 0.731538 0.796008 0.939013
O O2 0.617168 0.519008 0.505668
O O3 0.855530 0.900605 0.939274
O O4 0.048923 0.704098 0.887562
O O5 0.579337 0.808903 0.833401
O O6 0.795263 0.576469 0.975826
O O7 0.500000 0.000000 0.500000
O O8 0.756441 0.080336 0.009364
O O9 0.760266 0.375425 0.813790
O O10 0.146221 0.235796 0.693896
O O11 0.523828 0.248529 0.471063
O O12 0.135942 0.481873 0.227317
O O13 0.500000 0.500000 0.000000
#
# Coordination Sequence:
#
# PCOD9052963 Si02
#       6
#     2   2   2   2   2   2
#     4  10  21  38  59  84 120 150 194 235 279 350
#     4  10  21  38  59  87 113 156 192 232 291 334
#     4  12  19  36  65  84 114 155 190 235 290 342
#     4  10  21  37  59  87 116 153 187 236 290 335
#     4  10  18  36  61  84 113 154 193 233 285 337
#     4  10  17  35  58  86 112 150 190 228 292 330
#
# _framework density 24.932178
#
# number of rings (size 3 to 8) (size 9 to 14) (size 15 to 20)
#    0.000    1.667    8.333    0.500    0.000    1.333 
#    0.000    3.333    0.000    0.000    0.000    0.000 
#    0.000    0.000    0.000    0.000    0.000    0.000 
#
# Total GULP energy -67253.176549 kJ/mol
# GULP energy per Si atom -5604.431379 kJ/mol
# Density = 2.487543 g / cm^3
# Si number density = 24.932178 Si / 1000 Ang^3
#
#
#
# Elastic Constant Matrix: (Units=GPa)
#
#
# Indices 1 2 3 4 5 6 
#
# 1 139.1311 40.8327 39.5979 1.4210 14.7010 7.4371
# 2 40.8327 167.3645 31.8907 -23.0407 0.6560 12.3266
# 3 39.5979 31.8907 64.9807 -3.8888 3.1942 0.9798
# 4 1.4210 -23.0407 -3.8888 29.0704 6.9722 -3.4349
# 5 14.7010 0.6560 3.1942 6.9722 30.9282 -0.4671
# 6 7.4371 12.3266 0.9798 -3.4349 -0.4671 43.3720
#
#
#
# Elastic Compliance Matrix: (Units=1/GPa)
#
#
# Indices 1 2 3 4 5 6 
#
# 1 0.009502 -0.001484 -0.004959 -0.001581 -0.003636 -0.001260
# 2 -0.001484 0.007719 -0.002488 0.005817 -0.000534 -0.001428
# 3 -0.004959 -0.002488 0.019666 0.001001 0.000171 0.001194
# 4 -0.001581 0.005817 0.001001 0.041547 -0.008814 0.001791
# 5 -0.003636 -0.000534 0.000171 -0.008814 0.036049 0.000462
# 6 -0.001260 -0.001428 0.001194 0.001791 0.000462 0.023798
#
#
# Mechanical properties :
#
#
# Convention : Reuss Voigt Hill
#
# Bulk Modulus (GPa) = 52.56291 66.23546 59.39918
# Shear Modulus (GPa) = 30.77223 37.95112 34.36167
#
# Velocity S-wave (km/s) = 3.51698 3.90574 3.71645
# Velocity P-wave (km/s) = 6.13354 6.85300 6.50323
#
# Compressibility (1/GPa) = 0.01902482
#
# Stress axis : x y z
#
# Youngs Moduli (GPa) = 105.24130 129.54587 50.84997
#
# Poissons Ratio (x) = 0.19224 0.25216
# Poissons Ratio (y) = 0.15617 0.12652
# Poissons Ratio (z) = 0.52189 0.32233
#
# Static dielectric constant tensor:
#      x y z
#    x 1.983630 -0.026810 -0.111490 
#    y -0.026810 1.984430 0.077120 
#    z -0.111490 0.077120 2.120940 
# 
# From -- ./inp_files/248421.got.cif
#   From: 2010.05.17/outbox.cif.g08.bks.cpg/sg2_125_cif.got.tgz:248421.got - 2010.06.03 11:33:40.
