data_PCOD9052527
_publ_section_title
;
Structure prediction by ZEFSAII (Michael W. Deem and Ramdas Pophale) SiO2 
 PCOD9052527
Probable space group: P -1
;
_chemical_formula_sum "Si O2"
_cell_formula_units_Z 16
_cell_length_a 12.360383
_cell_length_b 7.494638
_cell_length_c 11.981335
_cell_angle_alpha 95.619450
_cell_angle_beta 142.018000
_cell_angle_gamma 88.002124
_cell_volume 678.146765
_symmetry_space_group_name_H-M "P -1"
_symmetry_group_IT_number 2
_symmetry_cell_setting 'triclinic'
loop_
_space_group_symop_operation_xyz
x,y,z
-x,-y,-z
loop_
_atom_site_type_symbol
_atom_site_label
_atom_site_fract_x
_atom_site_fract_y
_atom_site_fract_z
Si Si1 0.960975 0.668347 0.237816
Si Si2 0.530727 0.338538 0.597961
Si Si3 0.213390 0.729765 0.889221
Si Si4 0.704456 0.149685 0.534180
Si Si5 0.167896 0.392882 0.099514
Si Si6 0.029845 0.284175 0.508239
Si Si7 0.063124 0.112462 0.164949
Si Si8 0.600427 0.832349 0.295933
O O1 0.853545 0.480685 0.167437
O O2 0.969211 0.778954 0.366112
O O3 0.171170 0.670226 0.381437
O O4 0.869330 0.720649 0.050698
O O5 0.500000 0.500000 0.500000
O O6 0.588159 0.188754 0.549105
O O7 0.690617 0.446046 0.800346
O O8 0.416727 0.260583 0.601907
O O9 0.128436 0.789972 0.706135
O O10 0.102672 0.816990 0.902323
O O11 0.422067 0.775734 0.077997
O O12 0.840616 0.010765 0.679496
O O13 0.610024 0.046519 0.347321
O O14 0.189889 0.268989 0.218356
O O15 0.000000 0.500000 0.000000
O O16 0.219501 0.234667 0.612680
O O17 0.000000 0.500000 0.500000
O O18 0.000000 0.000000 0.000000
#
# Coordination Sequence:
#
# PCOD9052527 Si02
#       8
#     2   2   2   2   2   2   2   2
#     4  11  23  45  72  97 138 190 248 282 350 434
#     4  12  26  42  68 105 148 182 234 297 363 437
#     4  11  23  47  73 101 140 190 244 293 355 423
#     4  12  25  44  69 107 150 185 230 298 373 430
#     4  12  20  41  70 100 136 185 237 287 354 436
#     4  10  26  46  76  99 139 200 249 292 351 420
#     4  12  21  37  72 106 142 188 231 290 374 431
#     4  12  25  46  71 109 144 182 244 302 354 427
#
# _framework density 23.593713000000001
#
# number of rings (size 3 to 8) (size 9 to 14) (size 15 to 20)
#    0.000    0.500    6.250    1.875    3.500    3.500 
#    0.000    0.625    0.000    0.000    0.000    0.000 
#    0.000    0.000    0.000    0.000    0.000    0.000 
#
# Total GULP energy -89268.832645 kJ/mol
# GULP energy per Si atom -5579.302040 kJ/mol
# Density = 2.354001 g / cm^3
# Si number density = 23.593713 Si / 1000 Ang^3
#
#
#
# Elastic Constant Matrix: (Units=GPa)
#
#
# Indices 1 2 3 4 5 6 
#
# 1 118.0759 3.8830 46.0996 5.0840 -10.8125 -29.9513
# 2 3.8830 56.6498 31.4747 15.2456 6.8703 -0.4767
# 3 46.0996 31.4747 154.6291 16.0087 -11.5189 -15.0667
# 4 5.0840 15.2456 16.0087 39.4366 0.1871 3.2551
# 5 -10.8125 6.8703 -11.5189 0.1871 34.2715 12.5054
# 6 -29.9513 -0.4767 -15.0667 3.2551 12.5054 21.9867
#
#
#
# Elastic Compliance Matrix: (Units=1/GPa)
#
#
# Indices 1 2 3 4 5 6 
#
# 1 0.014503 0.002096 -0.002696 -0.003292 -0.004368 0.020926
# 2 0.002096 0.023077 -0.004522 -0.007789 -0.007517 0.005685
# 3 -0.002696 -0.004522 0.008626 -0.001489 0.002652 0.000853
# 4 -0.003292 -0.007789 -0.001489 0.030427 0.004505 -0.012741
# 5 -0.004368 -0.007517 0.002652 0.004505 0.040362 -0.027920
# 6 0.020926 0.005685 0.000853 -0.012741 -0.027920 0.092462
#
#
# Mechanical properties :
#
#
# Convention : Reuss Voigt Hill
#
# Bulk Modulus (GPa) = 27.80760 54.69661 41.25211
# Shear Modulus (GPa) = 21.58078 35.66546 28.62312
#
# Velocity S-wave (km/s) = 3.02765 3.89221 3.48683
# Velocity P-wave (km/s) = 4.90243 6.59031 5.80801
#
# Compressibility (1/GPa) = 0.03596139
#
# Stress axis : x y z
#
# Youngs Moduli (GPa) = 68.95322 43.33404 115.92902
#
# Poissons Ratio (x) = -0.09081 0.31253
# Poissons Ratio (y) = -0.14449 0.52418
# Poissons Ratio (z) = 0.18589 0.19594
#
# Static dielectric constant tensor:
#      x y z
#    x 1.872760 0.035740 -0.009960 
#    y 0.035740 1.894250 0.029380 
#    z -0.009960 0.029380 2.060950 
# 
# From -- ./inp_files/417685.got.cif
#   From: 2010.05.17/outbox.cif.g08.bks.cpg/sg2_209_cif.got.tgz:417685.got - 2010.06.03 11:33:40.
