data_PCOD9052332
_publ_section_title
;
Structure prediction by ZEFSAII (Michael W. Deem and Ramdas Pophale) SiO2 
 PCOD9052332
Probable space group: P -1
;
_chemical_formula_sum "Si O2"
_cell_formula_units_Z 13
_cell_length_a 8.977606
_cell_length_b 13.491613
_cell_length_c 11.372581
_cell_angle_alpha 135.934802
_cell_angle_beta 127.818029
_cell_angle_gamma 31.605529
_cell_volume 502.055032
_symmetry_space_group_name_H-M "P -1"
_symmetry_group_IT_number 2
_symmetry_cell_setting 'triclinic'
loop_
_space_group_symop_operation_xyz
x,y,z
-x,-y,-z
loop_
_atom_site_type_symbol
_atom_site_label
_atom_site_fract_x
_atom_site_fract_y
_atom_site_fract_z
Si Si1 0.000000 0.000000 0.500000
Si Si2 0.702023 0.736386 0.788609
Si Si3 0.198688 0.428116 0.927929
Si Si4 0.919596 0.351276 0.413025
Si Si5 0.537964 0.016054 0.338372
Si Si6 0.692583 0.344059 0.069688
Si Si7 0.146713 0.933179 0.782624
O O1 0.766177 0.012544 0.443427
O O2 0.964695 0.965632 0.315905
O O3 0.769538 0.562979 0.589625
O O4 0.576504 0.924367 0.800634
O O5 0.464696 0.814040 0.828938
O O6 0.987715 0.618583 0.893197
O O7 0.317913 0.213086 0.751720
O O8 0.465273 0.370423 0.046735
O O9 0.000000 0.500000 0.000000
O O10 0.793335 0.401671 0.263253
O O11 0.862393 0.232895 0.347791
O O12 0.253045 0.195110 0.428864
O O13 0.500000 0.500000 0.000000
O O14 0.950654 0.107809 0.938946
#
# Coordination Sequence:
#
# PCOD9052332 Si02
#       7
#     1   2   2   2   2   2   2
#     4  10  26  44  76 110 146 202 250 310 382 448
#     4  11  27  47  76 110 152 202 256 314 382 459
#     4  12  28  48  77 116 154 202 259 313 383 463
#     4  12  25  49  78 111 150 202 261 315 387 456
#     4  11  26  47  77 107 156 197 256 316 384 444
#     4  12  29  47  79 115 156 200 258 315 387 458
#     4  11  25  47  77 107 159 197 251 317 385 445
#
# _framework density 25.893575999999999
#
# number of rings (size 3 to 8) (size 9 to 14) (size 15 to 20)
#    0.000    0.615    1.538    4.154   12.923    3.077 
#    0.000    0.000    0.000    0.000    0.000    0.000 
#    0.000    0.000    0.000    0.000    0.000    0.000 
#
# Total GULP energy -72687.834404 kJ/mol
# GULP energy per Si atom -5591.371877 kJ/mol
# Density = 2.583464 g / cm^3
# Si number density = 25.893576 Si / 1000 Ang^3
#
#
#
# Elastic Constant Matrix: (Units=GPa)
#
#
# Indices 1 2 3 4 5 6 
#
# 1 96.5362 17.7866 10.2240 -1.5820 -9.6023 -27.8872
# 2 17.7866 93.5014 35.0745 -15.7024 -3.4230 -15.5102
# 3 10.2240 35.0745 143.0713 -8.4186 -12.9518 -19.4913
# 4 -1.5820 -15.7024 -8.4186 36.1592 -2.7508 -2.4408
# 5 -9.6023 -3.4230 -12.9518 -2.7508 47.1114 -15.6092
# 6 -27.8872 -15.5102 -19.4913 -2.4408 -15.6092 54.7343
#
#
#
# Elastic Compliance Matrix: (Units=1/GPa)
#
#
# Indices 1 2 3 4 5 6 
#
# 1 0.013602 -0.001088 0.001121 0.001433 0.005999 0.008795
# 2 -0.001088 0.013241 -0.002304 0.005480 0.001431 0.003030
# 3 0.001121 -0.002304 0.008475 0.001591 0.003843 0.004103
# 4 0.001433 0.005480 0.001591 0.031213 0.004810 0.005613
# 5 0.005999 0.001431 0.003843 0.004810 0.028229 0.013096
# 6 0.008795 0.003030 0.004103 0.005613 0.013096 0.029056
#
#
# Mechanical properties :
#
#
# Convention : Reuss Voigt Hill
#
# Bulk Modulus (GPa) = 32.49429 51.03102 41.76265
# Shear Modulus (GPa) = 36.07049 45.60256 40.83653
#
# Velocity S-wave (km/s) = 3.73638 4.20116 3.97557
# Velocity P-wave (km/s) = 5.58484 6.57904 6.10222
#
# Compressibility (1/GPa) = 0.03077464
#
# Stress axis : x y z
#
# Youngs Moduli (GPa) = 73.52014 75.52056 117.99816
#
# Poissons Ratio (x) = 0.08220 -0.13222
# Poissons Ratio (y) = 0.08002 0.27183
# Poissons Ratio (z) = -0.08238 0.17398
#
# Static dielectric constant tensor:
#      x y z
#    x 2.056270 0.066980 -0.005900 
#    y 0.066980 2.107990 0.039940 
#    z -0.005900 0.039940 1.983820 
# 
# From -- ./inp_files/149286.got.cif
#   From: 2010.05.17/outbox.cif.g08.bks.cpg/sg2_75_cif.got.tgz:149286.got - 2010.06.03 11:33:40.
