data_PCOD9052408
_publ_section_title
;
Structure prediction by ZEFSAII (Michael W. Deem and Ramdas Pophale) SiO2 
 PCOD9052408
Probable space group: P -1
;
_chemical_formula_sum "Si O2"
_cell_formula_units_Z 15
_cell_length_a 10.220748
_cell_length_b 6.623452
_cell_length_c 18.069390
_cell_angle_alpha 82.633037
_cell_angle_beta 145.396812
_cell_angle_gamma 93.712151
_cell_volume 687.119254
_symmetry_space_group_name_H-M "P -1"
_symmetry_group_IT_number 2
_symmetry_cell_setting 'triclinic'
loop_
_space_group_symop_operation_xyz
x,y,z
-x,-y,-z
loop_
_atom_site_type_symbol
_atom_site_label
_atom_site_fract_x
_atom_site_fract_y
_atom_site_fract_z
Si Si1 0.000000 0.500000 0.000000
Si Si2 0.948559 0.599220 0.718336
Si Si3 0.339884 0.873303 0.879878
Si Si4 0.829506 0.712679 0.282617
Si Si5 0.258549 0.696114 0.574961
Si Si6 0.589457 0.922220 0.465364
Si Si7 0.331721 0.611026 0.275668
Si Si8 0.489334 0.393369 0.159797
O O1 0.163623 0.625152 0.127151
O O2 0.235877 0.403075 0.073672
O O3 0.789544 0.747143 0.584501
O O4 0.793088 0.523925 0.715401
O O5 0.156092 0.730377 0.837531
O O6 0.051029 0.410479 0.725265
O O7 0.490112 0.725650 0.901963
O O8 0.199816 0.049907 0.759698
O O9 0.500000 0.000000 0.000000
O O10 0.585450 0.616272 0.184083
O O11 0.994398 0.671933 0.431839
O O12 0.429074 0.509542 0.632633
O O13 0.327839 0.715368 0.691733
O O14 0.325111 0.893764 0.551059
O O15 0.390521 0.818983 0.332231
O O16 0.500000 0.000000 0.500000
#
# Coordination Sequence:
#
# PCOD9052408 Si02
#       8
#     1   2   2   2   2   2   2   2
#     4  10  26  48  68  94 136 186 224 278 338 412
#     4  11  23  40  67 100 133 176 228 279 335 402
#     4  11  27  44  67 102 135 179 228 276 339 406
#     4  11  23  43  70  95 137 176 220 283 336 404
#     4  11  22  43  67 102 137 174 225 284 340 401
#     4  12  22  38  67 104 137 175 230 285 338 392
#     4  11  24  42  67 100 140 182 227 277 344 407
#     4  10  26  46  67 100 131 182 229 270 344 407
#
# _framework density 21.830271
#
# number of rings (size 3 to 8) (size 9 to 14) (size 15 to 20)
#    0.000    1.067    4.000    1.600    3.733    3.733 
#    0.000    2.000    0.000    0.000    0.000    0.000 
#    0.000    0.000    0.000    0.000    0.000    0.000 
#
# Total GULP energy -83658.669541 kJ/mol
# GULP energy per Si atom -5577.244636 kJ/mol
# Density = 2.178058 g / cm^3
# Si number density = 21.830271 Si / 1000 Ang^3
#
#
#
# Elastic Constant Matrix: (Units=GPa)
#
#
# Indices 1 2 3 4 5 6 
#
# 1 31.8894 11.5013 11.5409 9.5360 -1.2724 -8.2416
# 2 11.5013 75.6037 20.9496 24.3828 3.8502 -4.3933
# 3 11.5409 20.9496 118.7612 38.8576 14.8588 -18.7055
# 4 9.5360 24.3828 38.8576 40.7666 -10.6514 -5.2698
# 5 -1.2724 3.8502 14.8588 -10.6514 28.0560 -3.0289
# 6 -8.2416 -4.3933 -18.7055 -5.2698 -3.0289 22.0477
#
#
#
# Elastic Compliance Matrix: (Units=1/GPa)
#
#
# Indices 1 2 3 4 5 6 
#
# 1 0.037285 -0.003490 0.000489 -0.005123 0.001328 0.012615
# 2 -0.003490 0.018822 0.004218 -0.017451 -0.011572 0.000264
# 3 0.000489 0.004218 0.019946 -0.025672 -0.019887 0.009078
# 4 -0.005123 -0.017451 -0.025672 0.071121 0.042289 -0.004364
# 5 0.001328 -0.011572 -0.019887 0.042289 0.063900 0.000205
# 6 0.012615 0.000264 0.009078 -0.004364 0.000205 0.056811
#
#
# Mechanical properties :
#
#
# Convention : Reuss Voigt Hill
#
# Bulk Modulus (GPa) = 12.74069 34.91531 23.82800
# Shear Modulus (GPa) = 17.14602 30.32489 23.73546
#
# Velocity S-wave (km/s) = 2.80558 3.73114 3.30096
# Velocity P-wave (km/s) = 4.04277 5.88137 5.04651
#
# Compressibility (1/GPa) = 0.07848869
#
# Stress axis : x y z
#
# Youngs Moduli (GPa) = 26.82030 53.13017 50.13476
#
# Poissons Ratio (x) = 0.18542 -0.02454
# Poissons Ratio (y) = 0.09360 -0.21148
# Poissons Ratio (z) = -0.01313 -0.22411
#
# Static dielectric constant tensor:
#      x y z
#    x 1.794680 0.023990 -0.028280 
#    y 0.023990 1.766750 -0.005860 
#    z -0.028280 -0.005860 1.831970 
# 
# From -- ./inp_files/68500.got.cif
#   From: 2010.05.17/outbox.cif.g08.bks.cpg/sg2_35_cif.got.tgz:68500.got - 2010.06.03 11:33:40.
