data_PCOD9052482
_publ_section_title
;
Structure prediction by ZEFSAII (Michael W. Deem and Ramdas Pophale) SiO2 
 PCOD9052482
Probable space group: P -1
;
_chemical_formula_sum "Si O2"
_cell_formula_units_Z 11
_cell_length_a 4.892933
_cell_length_b 7.749778
_cell_length_c 13.037580
_cell_angle_alpha 124.643605
_cell_angle_beta 81.973776
_cell_angle_gamma 109.633232
_cell_volume 382.234557
_symmetry_space_group_name_H-M "P -1"
_symmetry_group_IT_number 2
_symmetry_cell_setting 'triclinic'
loop_
_space_group_symop_operation_xyz
x,y,z
-x,-y,-z
loop_
_atom_site_type_symbol
_atom_site_label
_atom_site_fract_x
_atom_site_fract_y
_atom_site_fract_z
Si Si1 0.114234 0.792639 0.406637
Si Si2 0.420508 0.228752 0.790308
Si Si3 0.105949 0.167297 0.294382
Si Si4 0.705030 0.328264 0.225237
Si Si5 0.000000 0.500000 0.500000
Si Si6 0.288766 0.657097 0.984686
O O1 0.382035 0.832655 0.325872
O O2 0.206161 0.682284 0.465118
O O3 0.849545 0.591881 0.304531
O O4 0.000000 0.000000 0.500000
O O5 0.461773 0.489400 0.882397
O O6 0.526697 0.185825 0.884667
O O7 0.084103 0.078584 0.754220
O O8 0.362949 0.222625 0.220061
O O9 0.213375 0.338889 0.437162
O O10 0.859689 0.275911 0.302820
O O11 0.786228 0.243753 0.083407
O O12 0.000000 0.500000 0.000000
#
# Coordination Sequence:
#
# PCOD9052482 Si02
#       6
#     2   2   2   2   1   2
#     4  11  26  49  82 113 155 212 261 325 399 471
#     4  11  27  47  75 116 147 206 263 315 399 469
#     4  11  28  46  74 112 159 198 260 325 391 466
#     4  11  26  49  72 114 155 200 258 326 389 471
#     4  10  26  46  72 112 160 196 260 322 386 470
#     4  11  24  47  78 104 154 204 260 324 383 474
#
# _framework density 28.77814
#
# number of rings (size 3 to 8) (size 9 to 14) (size 15 to 20)
#    0.000    1.091    1.818    2.182   12.727    3.636 
#    0.000    0.000    0.000    0.000    0.000    0.000 
#    0.000    0.000    0.000    0.000    0.000    0.000 
#
# Total GULP energy -61411.420294 kJ/mol
# GULP energy per Si atom -5582.856390 kJ/mol
# Density = 2.871264 g / cm^3
# Si number density = 28.778140 Si / 1000 Ang^3
#
#
#
# Elastic Constant Matrix: (Units=GPa)
#
#
# Indices 1 2 3 4 5 6 
#
# 1 113.7291 57.1050 48.5868 -6.8533 2.7134 30.6741
# 2 57.1050 174.4048 60.8921 -4.1926 -8.0599 20.3960
# 3 48.5868 60.8921 107.5039 -10.4892 -3.5066 19.8619
# 4 -6.8533 -4.1926 -10.4892 65.0120 -4.4712 -7.6672
# 5 2.7134 -8.0599 -3.5066 -4.4712 50.2803 0.3014
# 6 30.6741 20.3960 19.8619 -7.6672 0.3014 56.6222
#
#
#
# Elastic Compliance Matrix: (Units=1/GPa)
#
#
# Indices 1 2 3 4 5 6 
#
# 1 0.012897 -0.002467 -0.003584 -0.000039 -0.001316 -0.004839
# 2 -0.002467 0.007746 -0.003190 -0.000241 0.001133 -0.000373
# 3 -0.003584 -0.003190 0.013137 0.001430 0.000733 -0.001328
# 4 -0.000039 -0.000241 0.001430 0.015900 0.001467 0.001752
# 5 -0.001316 0.001133 0.000733 0.001467 0.020322 0.000138
# 6 -0.004839 -0.000373 -0.001328 0.001752 0.000138 0.021119
#
#
# Mechanical properties :
#
#
# Convention : Reuss Voigt Hill
#
# Bulk Modulus (GPa) = 65.36913 80.97841 73.17377
# Shear Modulus (GPa) = 43.59098 49.65315 46.62206
#
# Velocity S-wave (km/s) = 3.89617 4.15827 4.02935
# Velocity P-wave (km/s) = 6.55777 7.15925 6.86510
#
# Compressibility (1/GPa) = 0.01529774
#
# Stress axis : x y z
#
# Youngs Moduli (GPa) = 77.53703 129.10648 76.11912
#
# Poissons Ratio (x) = 0.31855 0.27281
# Poissons Ratio (y) = 0.19131 0.24280
# Poissons Ratio (z) = 0.27789 0.41181
#
# Static dielectric constant tensor:
#      x y z
#    x 2.211010 -0.247010 -0.368290 
#    y -0.247010 2.217880 -0.581960 
#    z -0.368290 -0.581960 0.778730 
# 
# From -- ./inp_files/86951.got.cif
#   From: 2010.05.17/outbox.cif.g08.bks.cpg/sg2_44_cif.got.tgz:86951.got - 2010.06.03 11:33:40.
