data_PCOD9052696
_publ_section_title
;
Structure prediction by ZEFSAII (Michael W. Deem and Ramdas Pophale) SiO2 
 PCOD9052696
Probable space group: P -1
;
_chemical_formula_sum "Si O2"
_cell_formula_units_Z 16
_cell_length_a 8.720256
_cell_length_b 23.085267
_cell_length_c 7.842935
_cell_angle_alpha 45.904235
_cell_angle_beta 34.242554
_cell_angle_gamma 45.216252
_cell_volume 604.559837
_symmetry_space_group_name_H-M "P -1"
_symmetry_group_IT_number 2
_symmetry_cell_setting 'triclinic'
loop_
_space_group_symop_operation_xyz
x,y,z
-x,-y,-z
loop_
_atom_site_type_symbol
_atom_site_label
_atom_site_fract_x
_atom_site_fract_y
_atom_site_fract_z
Si Si1 0.356991 0.252257 0.158012
Si Si2 0.233544 0.083676 0.537591
Si Si3 0.055495 0.578019 0.389614
Si Si4 0.696661 0.361563 0.513470
Si Si5 0.216013 0.905560 0.366399
Si Si6 0.892610 0.918987 0.973529
Si Si7 0.348084 0.234400 0.587631
Si Si8 0.645617 0.532828 0.070193
O O1 0.355574 0.161958 0.276897
O O2 0.470689 0.248119 0.258976
O O3 0.022360 0.308058 0.364266
O O4 0.527720 0.294255 0.788682
O O5 0.046219 0.087780 0.533353
O O6 0.500000 0.000000 0.500000
O O7 0.032640 0.091967 0.874166
O O8 0.863889 0.675365 0.338414
O O9 0.000000 0.500000 0.500000
O O10 0.387253 0.571153 0.095582
O O11 0.936462 0.554667 0.728356
O O12 0.702849 0.431992 0.225574
O O13 0.506241 0.419726 0.718791
O O14 0.429595 0.810404 0.378020
O O15 0.131879 0.920035 0.614225
O O16 0.322878 0.983902 0.049355
O O17 0.794646 0.839275 0.171968
#
# Coordination Sequence:
#
# PCOD9052696 Si02
#       8
#     2   2   2   2   2   2   2   2
#     4  11  25  44  77 108 151 198 253 313 379 449
#     4  11  28  47  73 113 152 196 250 317 375 450
#     4  12  26  45  70 104 151 197 245 313 384 442
#     4  11  22  45  76 106 139 193 255 310 373 450
#     4  11  26  47  77 109 146 199 254 308 386 451
#     4  10  26  48  76 104 149 197 249 311 379 446
#     4  11  25  44  74 103 147 196 258 306 376 466
#     4  11  23  45  72 104 144 187 250 314 370 450
#
# _framework density 26.465534000000002
#
# number of rings (size 3 to 8) (size 9 to 14) (size 15 to 20)
#    0.000    1.000    2.500    1.875   14.000    4.000 
#    4.500    0.000    0.000    0.000    0.000    0.000 
#    0.000    0.000    0.000    0.000    0.000    0.000 
#
# Total GULP energy -89543.130717 kJ/mol
# GULP energy per Si atom -5596.445670 kJ/mol
# Density = 2.640530 g / cm^3
# Si number density = 26.465534 Si / 1000 Ang^3
#
#
#
# Elastic Constant Matrix: (Units=GPa)
#
#
# Indices 1 2 3 4 5 6 
#
# 1 116.0410 78.0580 17.1149 -3.3830 -7.0273 3.5956
# 2 78.0580 178.9532 43.9829 -50.5491 -3.9273 -9.4991
# 3 17.1149 43.9829 124.0146 -22.6116 -7.6254 -4.2235
# 4 -3.3830 -50.5491 -22.6116 53.6565 3.6762 -0.9800
# 5 -7.0273 -3.9273 -7.6254 3.6762 33.6194 -6.6384
# 6 3.5956 -9.4991 -4.2235 -0.9800 -6.6384 41.7740
#
#
#
# Elastic Compliance Matrix: (Units=1/GPa)
#
#
# Indices 1 2 3 4 5 6 
#
# 1 0.014261 -0.008304 -0.000316 -0.007258 0.002145 -0.002977
# 2 -0.008304 0.012858 -0.001319 0.011172 -0.001043 0.003602
# 3 -0.000316 -0.001319 0.009174 0.002500 0.001784 0.000997
# 4 -0.007258 0.011172 0.002500 0.029976 -0.002177 0.003775
# 5 0.002145 -0.001043 0.001784 -0.002177 0.031649 0.004737
# 6 -0.002977 0.003602 0.000997 0.003775 0.004737 0.025956
#
#
# Mechanical properties :
#
#
# Convention : Reuss Voigt Hill
#
# Bulk Modulus (GPa) = 60.91719 77.48002 69.19861
# Shear Modulus (GPa) = 33.50681 44.46684 38.98683
#
# Velocity S-wave (km/s) = 3.56203 4.10345 3.84228
# Velocity P-wave (km/s) = 6.32336 7.19655 6.77404
#
# Compressibility (1/GPa) = 0.01641573
#
# Stress axis : x y z
#
# Youngs Moduli (GPa) = 70.12296 77.77104 108.99932
#
# Poissons Ratio (x) = 0.64581 0.03443
# Poissons Ratio (y) = 0.58230 0.14376
# Poissons Ratio (z) = 0.02215 0.10257
#
# Static dielectric constant tensor:
#      x y z
#    x 2.096270 0.025880 0.066230 
#    y 0.025880 2.166070 0.035120 
#    z 0.066230 0.035120 2.122330 
# 
# From -- ./inp_files/225916.got.cif
#   From: 2010.05.17/outbox.cif.g08.bks.cpg/sg2_113_cif.got.tgz:225916.got - 2010.06.03 11:33:40.
