data_PCOD9052237
_publ_section_title
;
Structure prediction by ZEFSAII (Michael W. Deem and Ramdas Pophale) SiO2 
 PCOD9052237
Probable space group: P -1
;
_chemical_formula_sum "Si O2"
_cell_formula_units_Z 13
_cell_length_a 10.543980
_cell_length_b 4.755648
_cell_length_c 10.778182
_cell_angle_alpha 78.933568
_cell_angle_beta 93.499510
_cell_angle_gamma 72.775158
_cell_volume 502.595281
_symmetry_space_group_name_H-M "P -1"
_symmetry_group_IT_number 2
_symmetry_cell_setting 'triclinic'
loop_
_space_group_symop_operation_xyz
x,y,z
-x,-y,-z
loop_
_atom_site_type_symbol
_atom_site_label
_atom_site_fract_x
_atom_site_fract_y
_atom_site_fract_z
Si Si1 0.500000 0.500000 0.000000
Si Si2 0.921072 0.733143 0.303820
Si Si3 0.255696 0.815228 0.946060
Si Si4 0.899472 0.489434 0.889094
Si Si5 0.636727 0.980232 0.577026
Si Si6 0.388113 0.032619 0.151939
Si Si7 0.818571 0.376177 0.532524
O O1 0.650550 0.500730 0.075026
O O2 0.481385 0.240489 0.126849
O O3 0.847726 0.561316 0.402231
O O4 0.019189 0.517897 0.228705
O O5 0.035456 0.812804 0.386257
O O6 0.819404 0.974714 0.186509
O O7 0.150899 0.787068 0.045417
O O8 0.383380 0.828895 0.046100
O O9 0.764961 0.761041 0.863943
O O10 0.000000 0.500000 0.000000
O O11 0.591996 0.116256 0.700052
O O12 0.730801 0.630135 0.602284
O O13 0.500000 0.000000 0.500000
O O14 0.729386 0.166077 0.511968
#
# Coordination Sequence:
#
# PCOD9052237 Si02
#       7
#     1   2   2   2   2   2   2
#     4  10  26  44  66 108 142 184 242 296 360 434
#     4  11  24  44  73 108 148 188 240 301 368 437
#     4  11  24  43  71 105 143 186 231 302 369 431
#     4  11  22  40  68 107 137 182 225 295 366 437
#     4  12  28  51  75 102 145 202 248 303 360 433
#     4  11  24  44  72  98 145 179 241 296 362 428
#     4  11  28  49  73 110 147 195 250 299 359 437
#
# _framework density 25.865743999999999
#
# number of rings (size 3 to 8) (size 9 to 14) (size 15 to 20)
#    0.000    0.923    3.077    2.308    6.462    4.923 
#    0.000    0.000    0.000    0.000    0.000    0.000 
#    0.000    0.000    0.000    0.000    0.000    0.000 
#
# Total GULP energy -72484.068747 kJ/mol
# GULP energy per Si atom -5575.697596 kJ/mol
# Density = 2.580687 g / cm^3
# Si number density = 25.865744 Si / 1000 Ang^3
#
#
#
# Elastic Constant Matrix: (Units=GPa)
#
#
# Indices 1 2 3 4 5 6 
#
# 1 148.7021 51.4968 51.8619 7.1024 -2.1239 13.9987
# 2 51.4968 95.9589 48.5694 -6.6683 4.7134 7.1368
# 3 51.8619 48.5694 136.1758 12.8797 -2.0179 9.7823
# 4 7.1024 -6.6683 12.8797 28.9844 -2.1107 -2.6794
# 5 -2.1239 4.7134 -2.0179 -2.1107 54.4572 -4.5051
# 6 13.9987 7.1368 9.7823 -2.6794 -4.5051 58.8318
#
#
#
# Elastic Compliance Matrix: (Units=1/GPa)
#
#
# Indices 1 2 3 4 5 6 
#
# 1 0.008964 -0.004085 -0.001607 -0.002525 0.000426 -0.001452
# 2 -0.004085 0.015458 -0.004597 0.006502 -0.001411 0.000049
# 3 -0.001607 -0.004597 0.010165 -0.005238 0.000430 -0.000956
# 4 -0.002525 0.006502 -0.005238 0.039242 0.000876 0.002537
# 5 0.000426 -0.001411 0.000430 0.000876 0.018673 0.001468
# 6 -0.001452 0.000049 -0.000956 0.002537 0.001468 0.017724
#
#
# Mechanical properties :
#
#
# Convention : Reuss Voigt Hill
#
# Bulk Modulus (GPa) = 71.38614 76.07702 73.73158
# Shear Modulus (GPa) = 36.90751 43.71525 40.31138
#
# Velocity S-wave (km/s) = 3.78151 4.11552 3.95205
# Velocity P-wave (km/s) = 6.83558 7.21523 7.02796
#
# Compressibility (1/GPa) = 0.01400832
#
# Stress axis : x y z
#
# Youngs Moduli (GPa) = 111.56276 64.69296 98.37199
#
# Poissons Ratio (x) = 0.26429 0.15810
# Poissons Ratio (y) = 0.45576 0.45219
# Poissons Ratio (z) = 0.17930 0.29738
#
# Static dielectric constant tensor:
#      x y z
#    x 1.843200 -0.002620 0.219190 
#    y -0.002620 2.195140 0.027070 
#    z 0.219190 0.027070 1.834590 
# 
# From -- ./inp_files/127206.got.cif
#   From: 2010.05.17/outbox.cif.g08.bks.cpg/sg2_64_cif.got.tgz:127206.got - 2010.06.03 11:33:40.
