data_PCOD9052910
_publ_section_title
;
Structure prediction by ZEFSAII (Michael W. Deem and Ramdas Pophale) SiO2 
 PCOD9052910
Probable space group: P -1
;
_chemical_formula_sum "Si O2"
_cell_formula_units_Z 14
_cell_length_a 10.766939
_cell_length_b 7.470548
_cell_length_c 22.524252
_cell_angle_alpha 97.406649
_cell_angle_beta 18.138290
_cell_angle_gamma 99.407651
_cell_volume 554.365486
_symmetry_space_group_name_H-M "P -1"
_symmetry_group_IT_number 2
_symmetry_cell_setting 'triclinic'
loop_
_space_group_symop_operation_xyz
x,y,z
-x,-y,-z
loop_
_atom_site_type_symbol
_atom_site_label
_atom_site_fract_x
_atom_site_fract_y
_atom_site_fract_z
Si Si1 0.301622 0.107756 0.261332
Si Si2 0.909880 0.210894 0.176278
Si Si3 0.052215 0.447533 0.349784
Si Si4 0.022433 0.505115 0.228429
Si Si5 0.469887 0.815269 0.344559
Si Si6 0.732003 0.112150 0.846070
Si Si7 0.668460 0.773509 0.123764
O O1 0.392080 0.313066 0.204193
O O2 0.972852 0.125848 0.462080
O O3 0.112128 0.006937 0.282469
O O4 0.603640 0.980779 0.145367
O O5 0.788165 0.360973 0.283142
O O6 0.703507 0.004912 0.270335
O O7 0.374248 0.197910 0.979849
O O8 0.954080 0.268464 0.089537
O O9 0.955528 0.447309 0.324405
O O10 0.258079 0.643086 0.286468
O O11 0.666163 0.353344 0.557435
O O12 0.970508 0.718009 0.257207
O O13 0.500000 0.500000 0.000000
O O14 0.684315 0.756924 0.186294
O O15 0.500000 0.000000 0.000000
#
# Coordination Sequence:
#
# PCOD9052910 Si02
#       7
#     2   2   2   2   2   2   2
#     4   9  20  34  60  84 111 147 196 225 278 330
#     4  10  21  36  60  83 116 151 181 242 290 324
#     4  10  20  35  61  84 112 148 195 227 282 332
#     4  10  17  35  58  83 109 147 192 228 277 349
#     4  10  23  36  56  88 118 146 186 240 291 319
#     4  10  19  35  61  82 112 149 198 226 276 350
#     4  11  19  40  62  80 113 159 196 221 272 351
#
# _framework density 25.254099
#
# number of rings (size 3 to 8) (size 9 to 14) (size 15 to 20)
#    0.857    1.143    4.286    3.000    0.000    0.571 
#    0.000    2.143    0.000    2.571    0.000    0.000 
#    0.000    0.000    0.000    0.000    0.000    0.000 
#
# Total GULP energy -78067.469222 kJ/mol
# GULP energy per Si atom -5576.247802 kJ/mol
# Density = 2.519662 g / cm^3
# Si number density = 25.254099 Si / 1000 Ang^3
#
#
#
# Elastic Constant Matrix: (Units=GPa)
#
#
# Indices 1 2 3 4 5 6 
#
# 1 77.1814 51.3881 51.9740 -11.7799 34.1420 12.7566
# 2 51.3881 96.2121 48.6094 -24.1799 28.9763 14.3506
# 3 51.9740 48.6094 132.8104 -28.8165 41.1258 16.8266
# 4 -11.7799 -24.1799 -28.8165 44.4991 -4.9252 -2.2879
# 5 34.1420 28.9763 41.1258 -4.9252 47.2108 5.1793
# 6 12.7566 14.3506 16.8266 -2.2879 5.1793 35.6807
#
#
#
# Elastic Compliance Matrix: (Units=1/GPa)
#
#
# Indices 1 2 3 4 5 6 
#
# 1 0.026144 -0.009094 -0.003932 -0.001783 -0.009809 -0.002525
# 2 -0.009094 0.018702 -0.000237 0.007038 -0.003612 -0.003183
# 3 -0.003932 -0.000237 0.013314 0.006445 -0.007578 -0.003264
# 4 -0.001783 0.007038 0.006445 0.029278 -0.005307 -0.002585
# 5 -0.009809 -0.003612 -0.007578 -0.005307 0.036217 0.002936
# 6 -0.002525 -0.003183 -0.003264 -0.002585 0.002936 0.031157
#
#
# Mechanical properties :
#
#
# Convention : Reuss Voigt Hill
#
# Bulk Modulus (GPa) = 31.61345 67.79408 49.70377
# Shear Modulus (GPa) = 26.05744 35.76027 30.90886
#
# Velocity S-wave (km/s) = 3.21567 3.76708 3.50224
# Velocity P-wave (km/s) = 5.13154 6.76936 6.00654
#
# Compressibility (1/GPa) = 0.03163210
#
# Stress axis : x y z
#
# Youngs Moduli (GPa) = 38.25017 53.46929 75.11015
#
# Poissons Ratio (x) = 0.48627 0.29533
# Poissons Ratio (y) = 0.34786 0.01784
# Poissons Ratio (z) = 0.15040 0.01270
#
# Static dielectric constant tensor:
#      x y z
#    x 2.146780 0.082420 0.006340 
#    y 0.082420 2.073560 0.027430 
#    z 0.006340 0.027430 2.021550 
# 
# From -- ./inp_files/619103.got.cif
#   From: 2010.05.17/outbox.cif.g08.bks.cpg/sg2_310_cif.got.tgz:619103.got - 2010.06.03 11:33:40.
