data_PCOD9052983
_publ_section_title
;
Structure prediction by ZEFSAII (Michael W. Deem and Ramdas Pophale) SiO2 
 PCOD9052983
Probable space group: P -1
;
_chemical_formula_sum "Si O2"
_cell_formula_units_Z 12
_cell_length_a 19.102968
_cell_length_b 13.453689
_cell_length_c 6.868468
_cell_angle_alpha 40.833151
_cell_angle_beta 130.152964
_cell_angle_gamma 157.868130
_cell_volume 423.436495
_symmetry_space_group_name_H-M "P -1"
_symmetry_group_IT_number 2
_symmetry_cell_setting 'triclinic'
loop_
_space_group_symop_operation_xyz
x,y,z
-x,-y,-z
loop_
_atom_site_type_symbol
_atom_site_label
_atom_site_fract_x
_atom_site_fract_y
_atom_site_fract_z
Si Si1 0.917176 0.572126 0.254504
Si Si2 0.024030 0.136463 0.529064
Si Si3 0.678445 0.434727 0.248704
Si Si4 0.780135 0.310277 0.814854
Si Si5 0.684556 0.937849 0.738175
Si Si6 0.335027 0.195774 0.520448
O O1 0.797289 0.551541 0.101444
O O2 0.925465 0.531522 0.562879
O O3 0.791440 0.253006 0.419611
O O4 0.137258 0.898794 0.099120
O O5 0.167151 0.279837 0.738641
O O6 0.131637 0.455686 0.204350
O O7 0.000000 0.000000 0.500000
O O8 0.828676 0.915537 0.594332
O O9 0.617715 0.185300 0.618242
O O10 0.495518 0.272827 0.145359
O O11 0.731707 0.068994 0.133851
O O12 0.610103 0.756409 0.675097
O O13 0.500000 0.500000 0.500000
#
# Coordination Sequence:
#
# PCOD9052983 Si02
#       6
#     2   2   2   2   2   2
#     4   8  19  33  55  81 112 139 188 220 280 326
#     4   9  18  36  52  79 115 144 176 227 277 326
#     4   8  18  32  56  77 114 137 186 216 279 322
#     4   8  20  38  53  80 115 143 182 231 272 325
#     4  11  17  33  57  86 102 151 179 232 266 335
#     4  12  22  34  56  85 112 147 189 227 272 326
#
# _framework density 28.339551
#
# number of rings (size 3 to 8) (size 9 to 14) (size 15 to 20)
#    2.000    0.333    3.333    2.000    0.000    0.667 
#    0.000    0.833    0.000    0.000    0.000    9.333 
#    0.000    0.000    0.000    0.000    0.000    0.000 
#
# Total GULP energy -67115.325131 kJ/mol
# GULP energy per Si atom -5592.943761 kJ/mol
# Density = 2.827505 g / cm^3
# Si number density = 28.339551 Si / 1000 Ang^3
#
#
#
# Elastic Constant Matrix: (Units=GPa)
#
#
# Indices 1 2 3 4 5 6 
#
# 1 184.2994 86.0311 68.3407 -10.0247 44.3755 18.9073
# 2 86.0311 184.3359 48.4311 -12.4089 25.9467 23.9507
# 3 68.3407 48.4311 158.7174 7.5088 30.8727 -4.1594
# 4 -10.0247 -12.4089 7.5088 38.8677 -12.6457 15.6080
# 5 44.3755 25.9467 30.8727 -12.6457 62.9309 -9.7518
# 6 18.9073 23.9507 -4.1594 15.6080 -9.7518 68.0294
#
#
#
# Elastic Compliance Matrix: (Units=1/GPa)
#
#
# Indices 1 2 3 4 5 6 
#
# 1 0.008818 -0.002435 -0.002407 0.001719 -0.004110 -0.002724
# 2 -0.002435 0.007574 -0.001369 0.003012 -0.000570 -0.002846
# 3 -0.002407 -0.001369 0.008499 -0.004431 -0.002436 0.002338
# 4 0.001719 0.003012 -0.004431 0.033113 0.005028 -0.008685
# 5 -0.004110 -0.000570 -0.002436 0.005028 0.021718 0.003153
# 6 -0.002724 -0.002846 0.002338 -0.008685 0.003153 0.019046
#
#
# Mechanical properties :
#
#
# Convention : Reuss Voigt Hill
#
# Bulk Modulus (GPa) = 80.19677 103.66203 91.92940
# Shear Modulus (GPa) = 43.34821 55.60225 49.47523
#
# Velocity S-wave (km/s) = 3.91525 4.43425 4.18281
# Velocity P-wave (km/s) = 6.98562 7.92936 7.47241
#
# Compressibility (1/GPa) = 0.01246933
#
# Stress axis : x y z
#
# Youngs Moduli (GPa) = 113.41065 132.03737 117.65545
#
# Poissons Ratio (x) = 0.32147 0.28320
# Poissons Ratio (y) = 0.27612 0.16106
# Poissons Ratio (z) = 0.27298 0.18074
#
# Static dielectric constant tensor:
#      x y z
#    x 2.175310 -0.012600 -0.033340 
#    y -0.012600 2.203140 -0.041250 
#    z -0.033340 -0.041250 2.363050 
# 
# From -- ./inp_files/394047.got.cif
#   From: 2010.05.17/outbox.cif.g08.bks.cpg/sg2_198_cif.got.tgz:394047.got - 2010.06.03 11:33:40.
