data_PCOD9052531
_publ_section_title
;
Structure prediction by ZEFSAII (Michael W. Deem and Ramdas Pophale) SiO2 
 PCOD9052531
Probable space group: P -1
;
_chemical_formula_sum "Si O2"
_cell_formula_units_Z 14
_cell_length_a 7.724438
_cell_length_b 14.568491
_cell_length_c 7.653391
_cell_angle_alpha 94.766803
_cell_angle_beta 141.147040
_cell_angle_gamma 80.616386
_cell_volume 531.719799
_symmetry_space_group_name_H-M "P -1"
_symmetry_group_IT_number 2
_symmetry_cell_setting 'triclinic'
loop_
_space_group_symop_operation_xyz
x,y,z
-x,-y,-z
loop_
_atom_site_type_symbol
_atom_site_label
_atom_site_fract_x
_atom_site_fract_y
_atom_site_fract_z
Si Si1 0.230091 0.336975 0.427382
Si Si2 0.909874 0.189790 0.605302
Si Si3 0.790753 0.219882 0.907604
Si Si4 0.000000 0.000000 0.000000
Si Si5 0.500000 0.500000 0.500000
Si Si6 0.055808 0.623071 0.455116
Si Si7 0.453030 0.074272 0.128430
Si Si8 0.368822 0.471339 0.073626
O O1 0.486034 0.275370 0.727560
O O2 0.334706 0.407772 0.388962
O O3 0.039804 0.401182 0.431489
O O4 0.044683 0.265778 0.189460
O O5 0.781712 0.229346 0.692119
O O6 0.745133 0.105012 0.417695
O O7 0.877402 0.273115 0.457773
O O8 0.236292 0.158304 0.890282
O O9 0.859212 0.107825 0.970836
O O10 0.275792 0.040727 0.143216
O O11 0.268172 0.542489 0.156331
O O12 0.338435 0.563668 0.591862
O O13 0.813068 0.605941 0.132187
O O14 0.500000 0.000000 0.000000
O O15 0.500000 0.500000 0.000000
#
# Coordination Sequence:
#
# PCOD9052531 Si02
#       8
#     2   2   2   1   1   2   2   2
#     4  12  27  43  75 107 148 197 255 302 388 444
#     4  11  24  45  69 100 147 187 248 306 378 449
#     4  11  25  47  70 109 141 200 248 314 377 460
#     4  10  26  46  78 102 156 186 254 316 380 444
#     4  12  28  48  78 108 154 200 246 320 372 468
#     4  12  26  47  73 107 151 194 251 321 366 460
#     4  11  25  43  70 108 139 194 241 308 388 455
#     4  12  26  48  72 107 147 193 251 306 382 450
#
# _framework density 26.329658999999999
#
# number of rings (size 3 to 8) (size 9 to 14) (size 15 to 20)
#    0.000    0.571    1.429    6.000    4.000    6.286 
#    0.000    0.000    0.000    0.000    0.000    0.000 
#    0.000    0.000    0.000    0.000    0.000    0.000 
#
# Total GULP energy -77946.298228 kJ/mol
# GULP energy per Si atom -5567.592731 kJ/mol
# Density = 2.626973 g / cm^3
# Si number density = 26.329659 Si / 1000 Ang^3
#
#
#
# Elastic Constant Matrix: (Units=GPa)
#
#
# Indices 1 2 3 4 5 6 
#
# 1 126.4459 23.3129 28.5132 12.5295 -6.2273 2.0570
# 2 23.3129 141.6735 42.1571 16.0970 22.5431 9.0832
# 3 28.5132 42.1571 138.9687 39.9794 7.9950 10.0146
# 4 12.5295 16.0970 39.9794 45.5519 -14.4428 11.6245
# 5 -6.2273 22.5431 7.9950 -14.4428 45.0531 1.7764
# 6 2.0570 9.0832 10.0146 11.6245 1.7764 45.5756
#
#
#
# Elastic Compliance Matrix: (Units=1/GPa)
#
#
# Indices 1 2 3 4 5 6 
#
# 1 0.008589 -0.001319 -0.001518 0.000089 0.002141 0.000103
# 2 -0.001319 0.008901 -0.001075 -0.003507 -0.005555 -0.000367
# 3 -0.001518 -0.001075 0.011205 -0.010883 -0.005181 0.000798
# 4 0.000089 -0.003507 -0.010883 0.040047 0.016843 -0.007784
# 5 0.002141 -0.005555 -0.005181 0.016843 0.031724 -0.003384
# 6 0.000103 -0.000367 0.000798 -0.007784 -0.003384 0.023952
#
#
# Mechanical properties :
#
#
# Convention : Reuss Voigt Hill
#
# Bulk Modulus (GPa) = 47.91196 66.11718 57.01457
# Shear Modulus (GPa) = 35.91996 48.10979 42.01487
#
# Velocity S-wave (km/s) = 3.69757 4.27922 3.99899
# Velocity P-wave (km/s) = 6.03869 7.04141 6.55924
#
# Compressibility (1/GPa) = 0.02087162
#
# Stress axis : x y z
#
# Youngs Moduli (GPa) = 116.42760 112.34320 89.24732
#
# Poissons Ratio (x) = 0.14817 0.13550
# Poissons Ratio (y) = 0.15356 0.09590
# Poissons Ratio (z) = 0.17677 0.12072
#
# Static dielectric constant tensor:
#      x y z
#    x 2.337780 -0.093230 -0.031860 
#    y -0.093230 2.101560 -0.126010 
#    z -0.031860 -0.126010 2.200240 
# 
# From -- ./inp_files/202795.got.cif
#   From: 2010.05.17/outbox.cif.g08.bks.cpg/sg2_102_cif.got.tgz:202795.got - 2010.06.03 11:33:40.
