data_PCOD9052989
_publ_section_title
;
Structure prediction by ZEFSAII (Michael W. Deem and Ramdas Pophale) SiO2 
 PCOD9052989
Probable space group: P -1
;
_chemical_formula_sum "Si O2"
_cell_formula_units_Z 16
_cell_length_a 12.115606
_cell_length_b 21.317290
_cell_length_c 8.778880
_cell_angle_alpha 132.157327
_cell_angle_beta 137.280166
_cell_angle_gamma 29.098865
_cell_volume 745.112129
_symmetry_space_group_name_H-M "P -1"
_symmetry_group_IT_number 2
_symmetry_cell_setting 'triclinic'
loop_
_space_group_symop_operation_xyz
x,y,z
-x,-y,-z
loop_
_atom_site_type_symbol
_atom_site_label
_atom_site_fract_x
_atom_site_fract_y
_atom_site_fract_z
Si Si1 0.685377 0.654186 0.327007
Si Si2 0.510605 0.285818 0.472174
Si Si3 0.011730 0.818665 0.067643
Si Si4 0.775745 0.370220 0.626881
Si Si5 0.941017 0.453687 0.734887
Si Si6 0.022179 0.886987 0.494206
Si Si7 0.752863 0.430442 0.057875
Si Si8 0.135124 0.905818 0.123970
O O1 0.639185 0.706141 0.537807
O O2 0.770642 0.524113 0.234414
O O3 0.414426 0.763588 0.149336
O O4 0.872952 0.618219 0.336253
O O5 0.324386 0.414319 0.391612
O O6 0.724674 0.162159 0.380891
O O7 0.701207 0.269272 0.736304
O O8 0.887199 0.899776 0.229556
O O9 0.971193 0.893638 0.005418
O O10 0.026337 0.713805 0.882264
O O11 0.500000 0.500000 0.500000
O O12 0.940322 0.365304 0.678308
O O13 0.873323 0.235000 0.504654
O O14 0.769194 0.401033 0.847178
O O15 0.000000 0.500000 0.000000
O O16 0.856475 0.020929 0.626623
O O17 0.500000 0.500000 0.000000
O O18 0.000000 0.000000 0.000000
#
# Coordination Sequence:
#
# PCOD9052989 Si02
#       8
#     2   2   2   2   2   2   2   2
#     4  11  23  36  57  89 124 154 198 237 302 360
#     4   9  19  37  56  82 112 156 193 236 292 352
#     4   8  18  34  58  83 111 150 197 239 285 340
#     4  11  21  36  59  86 115 155 197 243 300 341
#     4  12  23  36  58  90 127 152 185 256 308 347
#     4   9  19  36  59  81 110 154 204 232 280 349
#     4  11  17  34  57  85 116 144 195 251 279 342
#     4  11  22  33  55  92 120 152 195 251 287 341
#
# _framework density 21.473277
#
# number of rings (size 3 to 8) (size 9 to 14) (size 15 to 20)
#    0.750    1.000    5.000    0.750    3.500    0.000 
#    0.000    0.625    0.000    0.000    0.000    6.125 
#    0.000    0.000    0.000    0.000    0.000    0.000 
#
# Total GULP energy -89085.263811 kJ/mol
# GULP energy per Si atom -5567.828988 kJ/mol
# Density = 2.142440 g / cm^3
# Si number density = 21.473277 Si / 1000 Ang^3
#
#
#
# Elastic Constant Matrix: (Units=GPa)
#
#
# Indices 1 2 3 4 5 6 
#
# 1 157.5699 30.6976 25.3208 8.9426 -8.7086 24.9128
# 2 30.6976 75.4401 19.8978 11.7910 -2.4682 26.6837
# 3 25.3208 19.8978 30.7373 10.6247 -4.9457 6.0061
# 4 8.9426 11.7910 10.6247 32.4242 7.6980 -4.5849
# 5 -8.7086 -2.4682 -4.9457 7.6980 22.3117 -1.9325
# 6 24.9128 26.6837 6.0061 -4.5849 -1.9325 42.0652
#
#
#
# Elastic Compliance Matrix: (Units=1/GPa)
#
#
# Indices 1 2 3 4 5 6 
#
# 1 0.008004 -0.000279 -0.004690 -0.001674 0.002287 -0.003971
# 2 -0.000279 0.021277 -0.008258 -0.007196 0.001784 -0.012855
# 3 -0.004690 -0.008258 0.049038 -0.014924 0.013275 -0.000002
# 4 -0.001674 -0.007196 -0.014924 0.045044 -0.019284 0.011710
# 5 0.002287 0.001784 0.013275 -0.019284 0.055163 -0.003949
# 6 -0.003971 -0.012855 -0.000002 0.011710 -0.003949 0.035374
#
#
# Mechanical properties :
#
#
# Convention : Reuss Voigt Hill
#
# Bulk Modulus (GPa) = 19.28082 46.17552 32.72817
# Shear Modulus (GPa) = 19.40670 31.88231 25.64450
#
# Velocity S-wave (km/s) = 3.00952 3.85742 3.45954
# Velocity P-wave (km/s) = 4.59073 6.43350 5.58859
#
# Compressibility (1/GPa) = 0.05186501
#
# Stress axis : x y z
#
# Youngs Moduli (GPa) = 124.94341 46.99909 20.39217
#
# Poissons Ratio (x) = 0.01310 0.09565
# Poissons Ratio (y) = 0.03482 0.16840
# Poissons Ratio (z) = 0.58604 0.38811
#
# Static dielectric constant tensor:
#      x y z
#    x 1.898690 -0.011490 0.012000 
#    y -0.011490 1.811230 0.003370 
#    z 0.012000 0.003370 1.864130 
# 
# From -- ./inp_files/282350.got.cif
#   From: 2010.05.17/outbox.cif.g08.bks.cpg/sg2_142_cif.got.tgz:282350.got - 2010.06.03 11:33:40.
