data_PCOD9052528
_publ_section_title
;
Structure prediction by ZEFSAII (Michael W. Deem and Ramdas Pophale) SiO2 
 PCOD9052528
Probable space group: P -1
;
_chemical_formula_sum "Si O2"
_cell_formula_units_Z 15
_cell_length_a 9.283249
_cell_length_b 23.112800
_cell_length_c 8.944294
_cell_angle_alpha 130.593891
_cell_angle_beta 47.976194
_cell_angle_gamma 152.699605
_cell_volume 645.042614
_symmetry_space_group_name_H-M "P -1"
_symmetry_group_IT_number 2
_symmetry_cell_setting 'triclinic'
loop_
_space_group_symop_operation_xyz
x,y,z
-x,-y,-z
loop_
_atom_site_type_symbol
_atom_site_label
_atom_site_fract_x
_atom_site_fract_y
_atom_site_fract_z
Si Si1 0.189966 0.408120 0.451076
Si Si2 0.846978 0.979779 0.915960
Si Si3 0.000000 0.000000 0.500000
Si Si4 0.016072 0.193277 0.112470
Si Si5 0.178898 0.724373 0.035554
Si Si6 0.238394 0.509967 0.288770
Si Si7 0.062523 0.202073 0.766238
Si Si8 0.254637 0.642008 0.120778
O O1 0.500000 0.500000 0.500000
O O2 0.023051 0.273350 0.330885
O O3 0.306388 0.474154 0.319691
O O4 0.910910 0.377239 0.648868
O O5 0.023400 0.027046 0.712600
O O6 0.507278 0.828476 0.885055
O O7 0.000000 0.000000 0.000000
O O8 0.807042 0.058383 0.094483
O O9 0.984003 0.902580 0.388408
O O10 0.911428 0.177794 0.990542
O O11 0.389079 0.281308 0.993631
O O12 0.918912 0.590933 0.902413
O O13 0.253859 0.709496 0.115215
O O14 0.081828 0.781833 0.221125
O O15 0.560084 0.654461 0.255022
O O16 0.000000 0.500000 0.500000
O O17 0.000000 0.500000 0.000000
#
# Coordination Sequence:
#
# PCOD9052528 Si02
#       8
#     2   2   1   2   2   2   2   2
#     4  12  25  42  70 107 142 189 242 300 374 444
#     4  11  25  50  72 103 148 194 250 304 378 445
#     4  10  26  46  78 100 150 198 244 302 382 446
#     4  11  24  46  69 100 150 189 238 314 362 452
#     4  12  25  46  73 103 145 189 240 311 368 439
#     4  12  25  43  72 104 142 187 240 300 368 445
#     4  11  24  47  71 107 144 188 248 303 372 447
#     4  12  24  42  69 105 144 188 237 301 378 436
#
# _framework density 23.254275
#
# number of rings (size 3 to 8) (size 9 to 14) (size 15 to 20)
#    0.000    0.533    4.000    4.400    0.000    5.333 
#    7.200    1.333    0.000    0.000    0.000    0.000 
#    0.000    0.000    0.000    0.000    0.000    0.000 
#
# Total GULP energy -83663.711222 kJ/mol
# GULP energy per Si atom -5577.580748 kJ/mol
# Density = 2.320135 g / cm^3
# Si number density = 23.254275 Si / 1000 Ang^3
#
#
#
# Elastic Constant Matrix: (Units=GPa)
#
#
# Indices 1 2 3 4 5 6 
#
# 1 124.7857 14.7354 15.0535 -0.3253 3.4045 -29.7373
# 2 14.7354 69.1651 24.9185 12.2842 -10.0901 -18.4356
# 3 15.0535 24.9185 106.3791 27.1183 -7.1233 -11.4724
# 4 -0.3253 12.2842 27.1183 41.3678 -8.0323 -6.7375
# 5 3.4045 -10.0901 -7.1233 -8.0323 33.1626 -1.6286
# 6 -29.7373 -18.4356 -11.4724 -6.7375 -1.6286 42.5258
#
#
#
# Elastic Compliance Matrix: (Units=1/GPa)
#
#
# Indices 1 2 3 4 5 6 
#
# 1 0.009800 -0.000321 -0.001106 0.001879 -0.000557 0.006692
# 2 -0.000321 0.018382 -0.002786 -0.001534 0.004997 0.006941
# 3 -0.001106 -0.002786 0.012023 -0.007006 0.000159 0.000158
# 4 0.001879 -0.001534 -0.007006 0.030939 0.005519 0.003872
# 5 -0.000557 0.004997 0.000159 0.005519 0.033298 0.003969
# 6 0.006692 0.006941 0.000158 0.003872 0.003969 0.032012
#
#
# Mechanical properties :
#
#
# Convention : Reuss Voigt Hill
#
# Bulk Modulus (GPa) = 31.46789 45.52720 38.49754
# Shear Modulus (GPa) = 32.15992 39.78608 35.97300
#
# Velocity S-wave (km/s) = 3.72286 4.14081 3.93738
# Velocity P-wave (km/s) = 5.66048 6.51784 6.10423
#
# Compressibility (1/GPa) = 0.03177843
#
# Stress axis : x y z
#
# Youngs Moduli (GPa) = 102.04233 54.40164 83.17131
#
# Poissons Ratio (x) = 0.01745 0.09202
# Poissons Ratio (y) = 0.03272 0.23174
# Poissons Ratio (z) = 0.11290 0.15158
#
# Static dielectric constant tensor:
#      x y z
#    x 1.893260 0.029090 -0.026050 
#    y 0.029090 1.895950 -0.061100 
#    z -0.026050 -0.061100 1.855420 
# 
# From -- ./inp_files/224012.got.cif
#   From: 2010.05.17/outbox.cif.g08.bks.cpg/sg2_113_cif.got.tgz:224012.got - 2010.06.03 11:33:40.
