data_PCOD9052238
_publ_section_title
;
Structure prediction by ZEFSAII (Michael W. Deem and Ramdas Pophale) SiO2 
 PCOD9052238
Probable space group: P -1
;
_chemical_formula_sum "Si O2"
_cell_formula_units_Z 15
_cell_length_a 6.713101
_cell_length_b 13.765096
_cell_length_c 21.468904
_cell_angle_alpha 157.673887
_cell_angle_beta 100.799438
_cell_angle_gamma 90.463450
_cell_volume 646.903414
_symmetry_space_group_name_H-M "P -1"
_symmetry_group_IT_number 2
_symmetry_cell_setting 'triclinic'
loop_
_space_group_symop_operation_xyz
x,y,z
-x,-y,-z
loop_
_atom_site_type_symbol
_atom_site_label
_atom_site_fract_x
_atom_site_fract_y
_atom_site_fract_z
Si Si1 0.862595 0.245562 0.004339
Si Si2 0.637112 0.537534 0.094829
Si Si3 0.085620 0.821813 0.223623
Si Si4 0.000000 0.500000 0.500000
Si Si5 0.626213 0.247531 0.705310
Si Si6 0.832429 0.661516 0.700428
Si Si7 0.309921 0.416332 0.557237
Si Si8 0.749635 0.266460 0.152412
O O1 0.688784 0.278032 0.965088
O O2 0.786780 0.292859 0.096793
O O3 0.124806 0.497115 0.152987
O O4 0.862840 0.940085 0.827631
O O5 0.519280 0.611962 0.189270
O O6 0.891485 0.795862 0.245093
O O7 0.500000 0.500000 0.000000
O O8 0.317384 0.901112 0.321288
O O9 0.143009 0.076051 0.328802
O O10 0.000000 0.500000 0.000000
O O11 0.139407 0.549097 0.471616
O O12 0.240733 0.596045 0.612083
O O13 0.500000 0.000000 0.500000
O O14 0.578589 0.516869 0.628362
O O15 0.037741 0.762806 0.822652
O O16 0.248596 0.463131 0.651389
O O17 0.500000 0.000000 0.000000
#
# Coordination Sequence:
#
# PCOD9052238 Si02
#       8
#     2   2   2   1   2   2   2   2
#     4  11  27  43  77 104 149 187 248 301 385 449
#     4  11  26  48  74 106 143 200 250 305 374 450
#     4  11  26  48  70 107 143 198 251 304 368 449
#     4  10  26  44  66 108 144 190 246 300 376 436
#     4  11  28  45  74 107 146 194 251 308 376 440
#     4  11  25  46  71 109 144 194 240 312 378 450
#     4  11  26  44  75 103 155 186 255 307 377 449
#     4  11  25  46  73 113 146 195 244 308 386 457
#
# _framework density 23.187387000000001
#
# number of rings (size 3 to 8) (size 9 to 14) (size 15 to 20)
#    0.000    1.067    2.667    0.800   11.200    3.200 
#    2.400    0.000    0.000    0.000    0.000    0.000 
#    0.000    0.000    0.000    0.000    0.000    0.000 
#
# Total GULP energy -83594.346625 kJ/mol
# GULP energy per Si atom -5572.956442 kJ/mol
# Density = 2.313461 g / cm^3
# Si number density = 23.187387 Si / 1000 Ang^3
#
#
#
# Elastic Constant Matrix: (Units=GPa)
#
#
# Indices 1 2 3 4 5 6 
#
# 1 152.6578 33.5681 21.6348 1.5956 13.0515 7.8444
# 2 33.5681 108.9930 20.0584 -9.1171 2.6810 1.4951
# 3 21.6348 20.0584 76.7034 7.3989 6.3189 1.9107
# 4 1.5956 -9.1171 7.3989 38.0254 6.1631 2.0272
# 5 13.0515 2.6810 6.3189 6.1631 24.4368 -5.4362
# 6 7.8444 1.4951 1.9107 2.0272 -5.4362 48.3844
#
#
#
# Elastic Compliance Matrix: (Units=1/GPa)
#
#
# Indices 1 2 3 4 5 6 
#
# 1 0.007575 -0.001966 -0.001280 0.000174 -0.003890 -0.001561
# 2 -0.001966 0.010504 -0.002470 0.003129 -0.000268 -0.000070
# 3 -0.001280 -0.002470 0.014519 -0.002996 -0.002134 -0.000404
# 4 0.000174 0.003129 -0.002996 0.028935 -0.007415 -0.002052
# 5 -0.003890 -0.000268 -0.002134 -0.007415 0.046852 0.006298
# 6 -0.001561 -0.000070 -0.000404 -0.002052 0.006298 0.021733
#
#
# Mechanical properties :
#
#
# Convention : Reuss Voigt Hill
#
# Bulk Modulus (GPa) = 47.24508 54.31965 50.78236
# Shear Modulus (GPa) = 33.64584 39.70886 36.67735
#
# Velocity S-wave (km/s) = 3.81339 4.14275 3.98147
# Velocity P-wave (km/s) = 6.30942 6.80885 6.56389
#
# Compressibility (1/GPa) = 0.02116623
#
# Stress axis : x y z
#
# Youngs Moduli (GPa) = 132.00822 95.19927 68.87452
#
# Poissons Ratio (x) = 0.18715 0.08816
# Poissons Ratio (y) = 0.25951 0.17015
# Poissons Ratio (z) = 0.16896 0.23518
#
# Static dielectric constant tensor:
#      x y z
#    x 1.916340 -0.031830 -0.061470 
#    y -0.031830 1.772750 -0.026160 
#    z -0.061470 -0.026160 1.974220 
# 
# From -- ./inp_files/525597.got.cif
#   From: 2010.05.17/outbox.cif.g08.bks.cpg/sg2_263_cif.got.tgz:525597.got - 2010.06.03 11:33:40.
