data_PCOD9052410
_publ_section_title
;
Structure prediction by ZEFSAII (Michael W. Deem and Ramdas Pophale) SiO2 
 PCOD9052410
Probable space group: P -1
;
_chemical_formula_sum "Si O2"
_cell_formula_units_Z 14
_cell_length_a 24.005297
_cell_length_b 12.294588
_cell_length_c 9.760647
_cell_angle_alpha 25.987637
_cell_angle_beta 38.024793
_cell_angle_gamma 26.339219
_cell_volume 557.687507
_symmetry_space_group_name_H-M "P -1"
_symmetry_group_IT_number 2
_symmetry_cell_setting 'triclinic'
loop_
_space_group_symop_operation_xyz
x,y,z
-x,-y,-z
loop_
_atom_site_type_symbol
_atom_site_label
_atom_site_fract_x
_atom_site_fract_y
_atom_site_fract_z
Si Si1 0.687271 0.436210 0.991472
Si Si2 0.438598 0.213343 0.607491
Si Si3 0.302463 0.843633 0.978092
Si Si4 0.981468 0.683511 0.024111
Si Si5 0.387329 0.568209 0.568333
Si Si6 0.762252 0.771787 0.080788
Si Si7 0.955776 0.153516 0.759901
O O1 0.689783 0.191743 0.161271
O O2 0.806243 0.379978 0.791181
O O3 0.553720 0.820780 0.788022
O O4 0.691476 0.377434 0.211746
O O5 0.413735 0.471969 0.251583
O O6 0.459141 0.259193 0.670517
O O7 0.305415 0.330409 0.738831
O O8 0.162429 0.996539 0.104957
O O9 0.292398 0.099659 0.806056
O O10 0.911874 0.485365 0.105738
O O11 0.982934 0.392298 0.403717
O O12 0.010591 0.839503 0.905106
O O13 0.500000 0.500000 0.500000
O O14 0.293580 0.898919 0.276285
O O15 0.000000 0.000000 0.000000
#
# Coordination Sequence:
#
# PCOD9052410 Si02
#       7
#     2   2   2   2   2   2   2
#     4  11  24  46  72 103 145 180 243 302 357 437
#     4  11  25  44  70 107 137 191 237 295 367 426
#     4  10  26  46  67 106 140 193 236 295 363 421
#     4  11  26  46  73 104 144 195 245 295 355 434
#     4  11  24  45  68 107 139 186 238 293 365 431
#     4  11  25  44  74 100 146 186 241 297 356 437
#     4  11  26  46  72 109 144 194 238 300 367 420
#
# _framework density 25.103663999999998
#
# number of rings (size 3 to 8) (size 9 to 14) (size 15 to 20)
#    0.000    1.143    1.429    2.571   10.000    4.571 
#    0.000    0.000    0.000    0.000    0.000    0.000 
#    0.000    0.000    0.000    0.000    0.000    0.000 
#
# Total GULP energy -78308.451108 kJ/mol
# GULP energy per Si atom -5593.460793 kJ/mol
# Density = 2.504653 g / cm^3
# Si number density = 25.103664 Si / 1000 Ang^3
#
#
#
# Elastic Constant Matrix: (Units=GPa)
#
#
# Indices 1 2 3 4 5 6 
#
# 1 142.5388 38.4447 25.9737 -6.4117 1.4629 30.5416
# 2 38.4447 113.3597 38.0298 11.4106 -2.5558 19.9614
# 3 25.9737 38.0298 112.6857 2.2551 9.8973 9.3468
# 4 -6.4117 11.4106 2.2551 31.4090 -7.4536 1.9227
# 5 1.4629 -2.5558 9.8973 -7.4536 45.6518 -1.3994
# 6 30.5416 19.9614 9.3468 1.9227 -1.3994 52.8575
#
#
#
# Elastic Compliance Matrix: (Units=1/GPa)
#
#
# Indices 1 2 3 4 5 6 
#
# 1 0.008827 -0.002211 -0.001015 0.002975 0.000171 -0.004189
# 2 -0.002211 0.011462 -0.003141 -0.004092 0.000654 -0.002330
# 3 -0.001015 -0.003141 0.010403 -0.000391 -0.002466 -0.000118
# 4 0.002975 -0.004092 -0.000391 0.035339 0.005492 -0.001245
# 5 0.000171 0.000654 -0.002466 0.005492 0.023383 0.000510
# 6 -0.004189 -0.002330 -0.000118 -0.001245 0.000510 0.022299
#
#
# Mechanical properties :
#
#
# Convention : Reuss Voigt Hill
#
# Bulk Modulus (GPa) = 55.68950 63.72006 59.70478
# Shear Modulus (GPa) = 38.33417 43.72607 41.03012
#
# Velocity S-wave (km/s) = 3.91197 4.17804 4.04719
# Velocity P-wave (km/s) = 6.52967 6.97944 6.75830
#
# Compressibility (1/GPa) = 0.01795671
#
# Stress axis : x y z
#
# Youngs Moduli (GPa) = 113.29334 87.24662 96.13072
#
# Poissons Ratio (x) = 0.19287 0.09762
# Poissons Ratio (y) = 0.25045 0.30194
# Poissons Ratio (z) = 0.11505 0.27404
#
# Static dielectric constant tensor:
#      x y z
#    x 1.975140 0.038420 -0.058740 
#    y 0.038420 1.995230 0.013920 
#    z -0.058740 0.013920 2.087330 
# 
# From -- ./inp_files/353761.got.cif
#   From: 2010.05.17/outbox.cif.g08.bks.cpg/sg2_177_cif.got.tgz:353761.got - 2010.06.03 11:33:40.
