data_PCOD9052934
_publ_section_title
;
Structure prediction by ZEFSAII (Michael W. Deem and Ramdas Pophale) SiO2 
 PCOD9052934
Probable space group: P -1
;
_chemical_formula_sum "Si O2"
_cell_formula_units_Z 15
_cell_length_a 9.465121
_cell_length_b 9.166419
_cell_length_c 13.546722
_cell_angle_alpha 60.570767
_cell_angle_beta 131.339113
_cell_angle_gamma 127.262198
_cell_volume 694.051495
_symmetry_space_group_name_H-M "P -1"
_symmetry_group_IT_number 2
_symmetry_cell_setting 'triclinic'
loop_
_space_group_symop_operation_xyz
x,y,z
-x,-y,-z
loop_
_atom_site_type_symbol
_atom_site_label
_atom_site_fract_x
_atom_site_fract_y
_atom_site_fract_z
Si Si1 0.414330 0.286709 0.729529
Si Si2 0.030485 0.941413 0.923583
Si Si3 0.670611 0.428323 0.132413
Si Si4 0.187893 0.476020 0.042402
Si Si5 0.446314 0.991529 0.184592
Si Si6 0.062021 0.280562 0.687834
Si Si7 0.500000 0.500000 0.500000
Si Si8 0.610327 0.173329 0.568341
O O1 0.583586 0.382846 0.861616
O O2 0.189122 0.279401 0.649558
O O3 0.513662 0.403521 0.639560
O O4 0.399125 0.085091 0.765737
O O5 0.853021 0.736977 0.888720
O O6 0.043636 0.098912 0.801323
O O7 0.250911 0.931061 0.040175
O O8 0.000000 0.000000 0.000000
O O9 0.557887 0.211249 0.168301
O O10 0.789714 0.536963 0.246078
O O11 0.500000 0.500000 0.000000
O O12 0.826347 0.487156 0.092089
O O13 0.000000 0.500000 0.000000
O O14 0.375143 0.909685 0.288813
O O15 0.836646 0.276754 0.587512
O O16 0.515934 0.320006 0.501157
O O17 0.500000 0.000000 0.500000
#
# Coordination Sequence:
#
# PCOD9052934 Si02
#       8
#     2   2   2   2   2   2   1   2
#     4  11  26  47  67 102 138 185 236 296 340 417
#     4  12  21  38  68 102 139 177 220 275 349 428
#     4  12  23  40  65 109 144 178 221 280 349 434
#     4  12  24  38  67 102 140 187 221 273 354 417
#     4  11  23  45  66 100 149 176 228 287 346 424
#     4  12  26  43  73 104 138 180 231 290 358 415
#     4  10  28  52  72  96 136 182 250 296 346 412
#     4  11  27  51  74  98 134 192 240 300 352 412
#
# _framework density 21.612228999999999
#
# number of rings (size 3 to 8) (size 9 to 14) (size 15 to 20)
#    0.000    0.533    6.667    0.000    7.467    1.600 
#    2.400    1.333    0.000    0.000    0.000    0.000 
#    0.000    0.000    0.000    0.000    0.000    0.000 
#
# Total GULP energy -83569.543812 kJ/mol
# GULP energy per Si atom -5571.302921 kJ/mol
# Density = 2.156304 g / cm^3
# Si number density = 21.612229 Si / 1000 Ang^3
#
#
#
# Elastic Constant Matrix: (Units=GPa)
#
#
# Indices 1 2 3 4 5 6 
#
# 1 97.3645 18.0398 -7.0091 14.4242 14.1334 -26.5512
# 2 18.0398 141.5864 13.2046 -7.7613 24.2842 -20.5358
# 3 -7.0091 13.2046 23.5896 -5.4702 2.5381 -13.4010
# 4 14.4242 -7.7613 -5.4702 31.2509 -0.5586 1.9412
# 5 14.1334 24.2842 2.5381 -0.5586 20.1758 1.2368
# 6 -26.5512 -20.5358 -13.4010 1.9412 1.2368 33.7426
#
#
#
# Elastic Compliance Matrix: (Units=1/GPa)
#
#
# Indices 1 2 3 4 5 6 
#
# 1 0.027071 0.003750 0.027400 -0.009535 -0.029401 0.036093
# 2 0.003750 0.010844 0.003541 0.000564 -0.016817 0.011541
# 3 0.027400 0.003541 0.086116 -0.001060 -0.037959 0.059370
# 4 -0.009535 0.000564 -0.001060 0.037115 0.007774 -0.010000
# 5 -0.029401 -0.016817 -0.037959 0.007774 0.098611 -0.052507
# 6 0.036093 0.011541 0.059370 -0.010000 -0.052507 0.091139
#
#
# Mechanical properties :
#
#
# Convention : Reuss Voigt Hill
#
# Bulk Modulus (GPa) = 5.17023 34.55680 19.86352
# Shear Modulus (GPa) = 14.45152 32.92087 23.68619
#
# Velocity S-wave (km/s) = 2.58868 3.90712 3.31412
# Velocity P-wave (km/s) = 3.36637 6.03144 4.88420
#
# Compressibility (1/GPa) = 0.19341483
#
# Stress axis : x y z
#
# Youngs Moduli (GPa) = 36.93967 92.21776 11.61220
#
# Poissons Ratio (x) = -0.34585 -0.31818
# Poissons Ratio (y) = -0.13854 -0.04112
# Poissons Ratio (z) = -1.01216 -0.32653
#
# Static dielectric constant tensor:
#      x y z
#    x 1.900070 -0.019060 0.065960 
#    y -0.019060 1.788340 0.020270 
#    z 0.065960 0.020270 1.671090 
# 
# From -- ./inp_files/160266.got.cif
#   From: 2010.05.17/outbox.cif.g08.bks.cpg/sg2_81_cif.got.tgz:160266.got - 2010.06.03 11:33:40.
