data_PCOD9052216
_publ_section_title
;
Structure prediction by ZEFSAII (Michael W. Deem and Ramdas Pophale) SiO2 
 PCOD9052216
Probable space group: P -1
;
_chemical_formula_sum "Si O2"
_cell_formula_units_Z 16
_cell_length_a 23.492367
_cell_length_b 10.345703
_cell_length_c 8.475013
_cell_angle_alpha 45.563271
_cell_angle_beta 147.653556
_cell_angle_gamma 143.777196
_cell_volume 650.120679
_symmetry_space_group_name_H-M "P -1"
_symmetry_group_IT_number 2
_symmetry_cell_setting 'triclinic'
loop_
_space_group_symop_operation_xyz
x,y,z
-x,-y,-z
loop_
_atom_site_type_symbol
_atom_site_label
_atom_site_fract_x
_atom_site_fract_y
_atom_site_fract_z
Si Si1 0.967763 0.158009 0.377823
Si Si2 0.315158 0.554003 0.271374
Si Si3 0.381932 0.780324 0.542233
Si Si4 0.329893 0.090598 0.554866
Si Si5 0.471895 0.556503 0.092166
Si Si6 0.131119 0.089269 0.319363
Si Si7 0.757555 0.401010 0.296290
Si Si8 0.302245 0.089949 0.151403
O O1 0.093282 0.400009 0.495360
O O2 0.906408 0.044333 0.496391
O O3 0.000000 0.000000 0.500000
O O4 0.843008 0.121508 0.030198
O O5 0.341465 0.741773 0.296063
O O6 0.426736 0.509637 0.581967
O O7 0.196548 0.346621 0.262254
O O8 0.281042 0.553048 0.007787
O O9 0.301230 0.624800 0.640184
O O10 0.393622 0.002350 0.423404
O O11 0.488420 0.722038 0.852018
O O12 0.286648 0.846352 0.627215
O O13 0.478592 0.265898 0.798720
O O14 0.232014 0.067077 0.476603
O O15 0.308951 0.174339 0.271590
O O16 0.346730 0.311248 0.974100
O O17 0.000000 0.000000 0.000000
#
# Coordination Sequence:
#
# PCOD9052216 Si02
#       8
#     2   2   2   2   2   2   2   2
#     4  12  25  44  75 104 147 188 241 292 361 437
#     4  11  25  45  73 105 145 192 237 300 360 423
#     4  11  27  46  70 108 146 185 245 296 356 433
#     4  10  26  43  70 106 142 183 245 295 356 431
#     4  11  25  46  77 102 146 191 239 301 360 423
#     4  11  22  41  67 101 137 188 235 287 356 421
#     4  11  26  46  72 108 141 192 237 296 365 420
#     4  11  26  45  73 107 141 195 234 298 362 421
#
# _framework density 24.610813
#
# number of rings (size 3 to 8) (size 9 to 14) (size 15 to 20)
#    0.000    1.000    1.250    3.750   10.500    6.000 
#    0.000    0.000    0.000    0.000    0.000    0.000 
#    0.000    0.000    0.000    0.000    0.000    0.000 
#
# Total GULP energy -89076.125910 kJ/mol
# GULP energy per Si atom -5567.257869 kJ/mol
# Density = 2.455480 g / cm^3
# Si number density = 24.610813 Si / 1000 Ang^3
#
#
#
# Elastic Constant Matrix: (Units=GPa)
#
#
# Indices 1 2 3 4 5 6 
#
# 1 127.5684 55.2618 14.3907 -0.4249 -15.4232 1.0695
# 2 55.2618 131.8979 39.3599 2.7113 2.2808 -14.8443
# 3 14.3907 39.3599 92.6034 11.5084 -16.8903 -0.3531
# 4 -0.4249 2.7113 11.5084 45.0924 -8.1128 5.0622
# 5 -15.4232 2.2808 -16.8903 -8.1128 33.6866 -2.8751
# 6 1.0695 -14.8443 -0.3531 5.0622 -2.8751 39.8147
#
#
#
# Elastic Compliance Matrix: (Units=1/GPa)
#
#
# Indices 1 2 3 4 5 6 
#
# 1 0.010742 -0.005322 0.001549 0.001367 0.006215 -0.001984
# 2 -0.005322 0.011947 -0.005155 -0.000956 -0.005697 0.004262
# 3 0.001549 -0.005155 0.014385 -0.001837 0.007739 -0.001044
# 4 0.001367 -0.000956 -0.001837 0.024013 0.005290 -0.003081
# 5 0.006215 -0.005697 0.007739 0.005290 0.038058 -0.000147
# 6 -0.001984 0.004262 -0.001044 -0.003081 -0.000147 0.027130
#
#
# Mechanical properties :
#
#
# Convention : Reuss Voigt Hill
#
# Bulk Modulus (GPa) = 52.03305 63.34382 57.68843
# Shear Modulus (GPa) = 33.21398 39.92257 36.56827
#
# Velocity S-wave (km/s) = 3.67763 4.03197 3.85887
# Velocity P-wave (km/s) = 6.26271 6.88983 6.58374
#
# Compressibility (1/GPa) = 0.01921856
#
# Stress axis : x y z
#
# Youngs Moduli (GPa) = 93.09166 83.70027 69.51646
#
# Poissons Ratio (x) = 0.44542 -0.10766
# Poissons Ratio (y) = 0.49540 0.35836
# Poissons Ratio (z) = -0.14417 0.43148
#
# Static dielectric constant tensor:
#      x y z
#    x 1.919710 0.262220 -0.150820 
#    y 0.262220 1.666610 0.308570 
#    z -0.150820 0.308570 1.847770 
# 
# From -- ./inp_files/357051.got.cif
#   From: 2010.05.17/outbox.cif.g08.bks.cpg/sg2_179_cif.got.tgz:357051.got - 2010.06.03 11:33:40.
