data_PCOD9052675
_publ_section_title
;
Structure prediction by ZEFSAII (Michael W. Deem and Ramdas Pophale) SiO2 
 PCOD9052675
Probable space group: P -1
;
_chemical_formula_sum "Si O2"
_cell_formula_units_Z 15
_cell_length_a 4.935908
_cell_length_b 14.295255
_cell_length_c 9.748391
_cell_angle_alpha 64.617513
_cell_angle_beta 69.075915
_cell_angle_gamma 70.387218
_cell_volume 566.717308
_symmetry_space_group_name_H-M "P -1"
_symmetry_group_IT_number 2
_symmetry_cell_setting 'triclinic'
loop_
_space_group_symop_operation_xyz
x,y,z
-x,-y,-z
loop_
_atom_site_type_symbol
_atom_site_label
_atom_site_fract_x
_atom_site_fract_y
_atom_site_fract_z
Si Si1 0.537336 0.420849 0.797393
Si Si2 0.212381 0.096961 0.018882
Si Si3 0.709854 0.134003 0.562502
Si Si4 0.278988 0.087983 0.314182
Si Si5 0.500000 0.500000 0.000000
Si Si6 0.281499 0.807657 0.162307
Si Si7 0.573316 0.710698 0.716199
Si Si8 0.969848 0.470609 0.361472
O O1 0.327953 0.437947 0.954999
O O2 0.735182 0.312103 0.780718
O O3 0.352029 0.480569 0.668817
O O4 0.787305 0.473312 0.795354
O O5 0.376029 0.194485 0.931829
O O6 0.956371 0.118017 0.939168
O O7 0.112927 0.089683 0.196537
O O8 0.500000 0.000000 0.000000
O O9 0.739484 0.160691 0.697339
O O10 0.562364 0.232442 0.434962
O O11 0.038605 0.098560 0.468380
O O12 0.544244 0.034937 0.638558
O O13 0.421470 0.189942 0.245454
O O14 0.397834 0.624570 0.859657
O O15 0.898238 0.647694 0.639997
O O16 0.000000 0.500000 0.500000
#
# Coordination Sequence:
#
# PCOD9052675 Si02
#       8
#     2   2   2   2   1   2   2   2
#     4  11  25  44  72 106 146 193 252 315 376 455
#     4  12  27  48  77 111 157 206 257 322 386 475
#     4  11  27  47  75 118 158 205 261 324 395 475
#     4  11  27  46  79 112 159 203 263 319 399 470
#     4  10  26  48  72 110 148 198 266 312 386 460
#     4  12  27  48  79 113 158 205 262 321 396 467
#     4  11  26  46  78 105 157 204 258 324 391 461
#     4  11  25  44  72 104 145 190 252 312 381 449
#
# _framework density 26.468222000000001
#
# number of rings (size 3 to 8) (size 9 to 14) (size 15 to 20)
#    0.000    0.800    1.333    3.600   11.200    3.200 
#    0.000    0.000    0.000    0.000    0.000    0.000 
#    0.000    0.000    0.000    0.000    0.000    0.000 
#
# Total GULP energy -83577.870631 kJ/mol
# GULP energy per Si atom -5571.858042 kJ/mol
# Density = 2.640798 g / cm^3
# Si number density = 26.468222 Si / 1000 Ang^3
#
#
#
# Elastic Constant Matrix: (Units=GPa)
#
#
# Indices 1 2 3 4 5 6 
#
# 1 102.5536 53.1509 51.1800 -8.1781 38.4153 -6.0630
# 2 53.1509 173.1968 62.4423 -4.3329 27.0289 11.1058
# 3 51.1800 62.4423 170.6080 11.4448 55.9630 -6.6569
# 4 -8.1781 -4.3329 11.4448 52.3866 5.8068 1.5159
# 5 38.4153 27.0289 55.9630 5.8068 53.9115 -7.4763
# 6 -6.0630 11.1058 -6.6569 1.5159 -7.4763 32.1075
#
#
#
# Elastic Compliance Matrix: (Units=1/GPa)
#
#
# Indices 1 2 3 4 5 6 
#
# 1 0.015359 -0.003101 -0.000767 0.003228 -0.008715 0.001632
# 2 -0.003101 0.007748 -0.002054 0.000730 -0.000142 -0.003759
# 3 -0.000767 -0.002054 0.009658 -0.001514 -0.008185 0.000734
# 4 0.003228 0.000730 -0.001514 0.020426 -0.003537 -0.001745
# 5 -0.008715 -0.000142 -0.008185 -0.003537 0.034384 0.004880
# 6 0.001632 -0.003759 0.000734 -0.001745 0.004880 0.034125
#
#
# Mechanical properties :
#
#
# Convention : Reuss Voigt Hill
#
# Bulk Modulus (GPa) = 47.79905 86.65608 67.22756
# Shear Modulus (GPa) = 35.58280 46.32014 40.95147
#
# Velocity S-wave (km/s) = 3.67053 4.18787 3.93771
# Velocity P-wave (km/s) = 6.00516 7.49634 6.79180
#
# Compressibility (1/GPa) = 0.02092092
#
# Stress axis : x y z
#
# Youngs Moduli (GPa) = 65.10756 129.07383 103.53905
#
# Poissons Ratio (x) = 0.40024 0.07938
# Poissons Ratio (y) = 0.20189 0.21271
# Poissons Ratio (z) = 0.04992 0.26517
#
# Static dielectric constant tensor:
#      x y z
#    x 1.964670 0.333630 0.118690 
#    y 0.333630 1.953070 -0.495680 
#    z 0.118690 -0.495680 1.805110 
# 
# From -- ./inp_files/134053.got.cif
#   From: 2010.05.17/outbox.cif.g08.bks.cpg/sg2_68_cif.got.tgz:134053.got - 2010.06.03 11:33:40.
