data_PCOD9052857
_publ_section_title
;
Structure prediction by ZEFSAII (Michael W. Deem and Ramdas Pophale) SiO2 
 PCOD9052857
Probable space group: P -1
;
_chemical_formula_sum "Si O2"
_cell_formula_units_Z 12
_cell_length_a 7.996018
_cell_length_b 4.965336
_cell_length_c 12.183814
_cell_angle_alpha 98.525177
_cell_angle_beta 86.461369
_cell_angle_gamma 80.366216
_cell_volume 469.780571
_symmetry_space_group_name_H-M "P -1"
_symmetry_group_IT_number 2
_symmetry_cell_setting 'triclinic'
loop_
_space_group_symop_operation_xyz
x,y,z
-x,-y,-z
loop_
_atom_site_type_symbol
_atom_site_label
_atom_site_fract_x
_atom_site_fract_y
_atom_site_fract_z
Si Si1 0.773432 0.579752 0.394136
Si Si2 0.850271 0.841670 0.960270
Si Si3 0.846705 0.550943 0.162077
Si Si4 0.342866 0.840474 0.205295
Si Si5 0.438347 0.702942 0.754250
Si Si6 0.098150 0.131876 0.409782
O O1 0.807073 0.728982 0.286364
O O2 0.615685 0.428006 0.365419
O O3 0.761714 0.743275 0.517556
O O4 0.951937 0.365857 0.381665
O O5 0.720294 0.049696 0.905043
O O6 0.955784 0.582826 0.870697
O O7 0.784302 0.709537 0.063062
O O8 0.000000 0.000000 0.000000
O O9 0.735644 0.309773 0.172842
O O10 0.485628 0.022743 0.241388
O O11 0.187938 0.932059 0.301246
O O12 0.421601 0.522649 0.202283
O O13 0.000000 0.000000 0.500000
#
# Coordination Sequence:
#
# PCOD9052857 Si02
#       6
#     2   2   2   2   2   2
#     4   9  23  46  67  97 136 183 225 284 341 402
#     4  11  25  41  75  95 137 183 235 280 330 416
#     4   9  23  46  67  97 136 183 225 284 341 402
#     4  12  27  45  70 108 134 183 228 281 345 409
#     4  10  27  45  70 100 150 171 224 287 347 407
#     4  11  25  41  75  95 137 183 235 280 330 416
#
# _framework density 25.543838000000001
#
# number of rings (size 3 to 8) (size 9 to 14) (size 15 to 20)
#    1.000    0.667    1.667    0.000   16.333    2.667 
#    0.000    0.000    0.000    0.000    0.000    0.000 
#    0.000    0.000    0.000    0.000    0.000    0.000 
#
# Total GULP energy -67127.803102 kJ/mol
# GULP energy per Si atom -5593.983592 kJ/mol
# Density = 2.548570 g / cm^3
# Si number density = 25.543838 Si / 1000 Ang^3
#
#
#
# Elastic Constant Matrix: (Units=GPa)
#
#
# Indices 1 2 3 4 5 6 
#
# 1 87.0862 6.5875 17.2858 -10.9720 17.7288 3.8565
# 2 6.5875 58.4866 12.9553 -9.8110 -1.2442 -9.6213
# 3 17.2858 12.9553 100.8192 -22.1277 10.5949 -11.2378
# 4 -10.9720 -9.8110 -22.1277 24.4877 3.3658 2.4588
# 5 17.7288 -1.2442 10.5949 3.3658 51.9137 -6.7894
# 6 3.8565 -9.6213 -11.2378 2.4588 -6.7894 48.0808
#
#
#
# Elastic Compliance Matrix: (Units=1/GPa)
#
#
# Indices 1 2 3 4 5 6 
#
# 1 0.013631 -0.000885 -0.000583 0.006201 -0.005283 -0.002470
# 2 -0.000885 0.018972 -0.000646 0.006135 0.000953 0.003537
# 3 -0.000583 -0.000646 0.013186 0.011609 -0.003001 0.001982
# 4 0.006201 0.006135 0.011609 0.057753 -0.008171 -0.000664
# 5 -0.005283 0.000953 -0.003001 -0.008171 0.022694 0.003536
# 6 -0.002470 0.003537 0.001982 -0.000664 0.003536 0.022701
#
#
# Mechanical properties :
#
#
# Convention : Reuss Voigt Hill
#
# Bulk Modulus (GPa) = 24.05977 35.56102 29.81039
# Shear Modulus (GPa) = 29.93701 38.86732 34.40217
#
# Velocity S-wave (km/s) = 3.42714 3.90499 3.67384
# Velocity P-wave (km/s) = 5.00998 5.85523 5.44902
#
# Compressibility (1/GPa) = 0.04156316
#
# Stress axis : x y z
#
# Youngs Moduli (GPa) = 73.35967 52.70942 75.83937
#
# Poissons Ratio (x) = 0.04663 0.04419
# Poissons Ratio (y) = 0.06490 0.04896
# Poissons Ratio (z) = 0.04275 0.03403
#
# Static dielectric constant tensor:
#      x y z
#    x 2.031890 0.022540 0.064340 
#    y 0.022540 2.119190 0.030730 
#    z 0.064340 0.030730 2.058930 
# 
# From -- ./inp_files/53036.got.cif
#   From: 2010.05.17/outbox.cif.g08.bks.cpg/sg2_27_cif.got.tgz:53036.got - 2010.06.03 11:33:40.
