data_PCOD9052381
_publ_section_title
;
Structure prediction by ZEFSAII (Michael W. Deem and Ramdas Pophale) SiO2 
 PCOD9052381
Probable space group: P -1
;
_chemical_formula_sum "Si O2"
_cell_formula_units_Z 16
_cell_length_a 8.600762
_cell_length_b 10.808633
_cell_length_c 14.042223
_cell_angle_alpha 120.679504
_cell_angle_beta 140.439525
_cell_angle_gamma 79.439669
_cell_volume 660.342741
_symmetry_space_group_name_H-M "P -1"
_symmetry_group_IT_number 2
_symmetry_cell_setting 'triclinic'
loop_
_space_group_symop_operation_xyz
x,y,z
-x,-y,-z
loop_
_atom_site_type_symbol
_atom_site_label
_atom_site_fract_x
_atom_site_fract_y
_atom_site_fract_z
Si Si1 0.607792 0.858766 0.582176
Si Si2 0.903866 0.588367 0.909626
Si Si3 0.563874 0.164387 0.035814
Si Si4 0.318847 0.313252 0.832293
Si Si5 0.410076 0.654949 0.714683
Si Si6 0.813522 0.389485 0.605854
Si Si7 0.448116 0.834000 0.282795
Si Si8 0.849269 0.999702 0.023567
O O1 0.480743 0.715408 0.536935
O O2 0.513330 0.802942 0.409586
O O3 0.923876 0.941978 0.766001
O O4 0.486135 0.982027 0.610970
O O5 0.610897 0.570698 0.792177
O O6 0.907753 0.526966 0.780974
O O7 0.000000 0.500000 0.000000
O O8 0.132232 0.758150 0.089924
O O9 0.349631 0.217169 0.902547
O O10 0.713007 0.306107 0.232943
O O11 0.728754 0.131666 0.016321
O O12 0.500000 0.000000 0.000000
O O13 0.410339 0.237344 0.755005
O O14 0.022512 0.306296 0.679629
O O15 0.500000 0.500000 0.000000
O O16 0.220771 0.581824 0.509184
O O17 0.619442 0.830392 0.857694
O O18 0.000000 0.000000 0.000000
#
# Coordination Sequence:
#
# PCOD9052381 Si02
#       8
#     2   2   2   2   2   2   2   2
#     4  11  24  42  71 108 136 189 246 303 362 433
#     4  12  23  45  72  99 147 193 240 301 372 443
#     4  10  26  45  72 105 143 196 237 298 372 429
#     4  12  27  49  74 105 150 195 242 304 374 441
#     4  11  25  44  70 103 146 191 239 301 364 437
#     4  12  26  44  73 108 142 191 248 298 371 441
#     4  11  25  43  73 104 143 188 243 306 365 433
#     4  11  21  43  71 100 146 183 240 301 364 424
#
# _framework density 24.229838999999998
#
# number of rings (size 3 to 8) (size 9 to 14) (size 15 to 20)
#    0.000    0.750    5.000    1.875    3.500    1.500 
#    2.250    0.625    0.000    0.000    0.000    0.000 
#    0.000    0.000    0.000    0.000    0.000    0.000 
#
# Total GULP energy -89402.088006 kJ/mol
# GULP energy per Si atom -5587.630500 kJ/mol
# Density = 2.417469 g / cm^3
# Si number density = 24.229839 Si / 1000 Ang^3
#
#
#
# Elastic Constant Matrix: (Units=GPa)
#
#
# Indices 1 2 3 4 5 6 
#
# 1 59.2260 29.2551 36.7874 11.0140 -13.4942 -9.8734
# 2 29.2551 110.6173 46.0711 -15.6616 -10.9048 -12.4469
# 3 36.7874 46.0711 141.2942 -7.4689 -24.8492 1.2322
# 4 11.0140 -15.6616 -7.4689 38.1859 -0.1456 -0.4782
# 5 -13.4942 -10.9048 -24.8492 -0.1456 49.3570 8.2367
# 6 -9.8734 -12.4469 1.2322 -0.4782 8.2367 39.7053
#
#
#
# Elastic Compliance Matrix: (Units=1/GPa)
#
#
# Indices 1 2 3 4 5 6 
#
# 1 0.026119 -0.005557 -0.005139 -0.010755 0.002585 0.004246
# 2 -0.005557 0.012716 -0.002458 0.006371 -0.000403 0.002841
# 3 -0.005139 -0.002458 0.010006 0.002406 0.003610 -0.003079
# 4 -0.010755 0.006371 0.002406 0.032369 -0.000171 -0.000326
# 5 0.002585 -0.000403 0.003610 -0.000171 0.023440 -0.004460
# 6 0.004246 0.002841 -0.003079 -0.000326 -0.004460 0.028149
#
#
# Mechanical properties :
#
#
# Convention : Reuss Voigt Hill
#
# Bulk Modulus (GPa) = 44.38251 59.48499 51.93375
# Shear Modulus (GPa) = 30.00891 38.71789 34.36340
#
# Velocity S-wave (km/s) = 3.52307 4.00176 3.77002
# Velocity P-wave (km/s) = 5.90816 6.77907 6.35854
#
# Compressibility (1/GPa) = 0.02253140
#
# Stress axis : x y z
#
# Youngs Moduli (GPa) = 38.28687 78.64286 99.94048
#
# Poissons Ratio (x) = 0.43704 0.51360
# Poissons Ratio (y) = 0.21277 0.24566
# Poissons Ratio (z) = 0.19676 0.19331
#
# Static dielectric constant tensor:
#      x y z
#    x 2.048960 0.037650 0.009740 
#    y 0.037650 2.005730 -0.005200 
#    z 0.009740 -0.005200 1.920140 
# 
# From -- ./inp_files/298125.got.cif
#   From: 2010.05.17/outbox.cif.g08.bks.cpg/sg2_150_cif.got.tgz:298125.got - 2010.06.03 11:33:40.
