data_PCOD9052062
_publ_section_title
;
Structure prediction by ZEFSAII (Michael W. Deem and Ramdas Pophale) SiO2 
 PCOD9052062
Probable space group: P -1
;
_chemical_formula_sum "Si O2"
_cell_formula_units_Z 12
_cell_length_a 13.267051
_cell_length_b 16.946890
_cell_length_c 10.788227
_cell_angle_alpha 147.915803
_cell_angle_beta 40.766799
_cell_angle_gamma 155.479722
_cell_volume 533.696072
_symmetry_space_group_name_H-M "P -1"
_symmetry_group_IT_number 2
_symmetry_cell_setting 'triclinic'
loop_
_space_group_symop_operation_xyz
x,y,z
-x,-y,-z
loop_
_atom_site_type_symbol
_atom_site_label
_atom_site_fract_x
_atom_site_fract_y
_atom_site_fract_z
Si Si1 0.433882 0.596402 0.110423
Si Si2 0.716099 0.541888 0.375348
Si Si3 0.063391 0.889082 0.735095
Si Si4 0.930236 0.778203 0.242250
Si Si5 0.407770 0.017686 0.989121
Si Si6 0.309208 0.819666 0.549920
O O1 0.251936 0.601044 0.312102
O O2 0.681518 0.875811 0.251784
O O3 0.500000 0.500000 0.000000
O O4 0.326700 0.445351 0.883319
O O5 0.500000 0.500000 0.500000
O O6 0.902926 0.682226 0.273342
O O7 0.585702 0.288462 0.167394
O O8 0.864545 0.692527 0.559968
O O9 0.100970 0.784316 0.659149
O O10 0.000000 0.000000 0.000000
O O11 0.000000 0.000000 0.500000
O O12 0.140100 0.875066 0.086188
O O13 0.500000 0.000000 0.000000
O O14 0.402343 0.928400 0.744903
O O15 0.500000 0.000000 0.500000
#
# Coordination Sequence:
#
# PCOD9052062 Si02
#       6
#     2   2   2   2   2   2
#     4  11  26  46  73 105 148 198 256 314 380 452
#     4  12  25  49  77 109 159 202 255 320 385 465
#     4  11  25  45  77 106 146 205 250 312 388 451
#     4  12  27  48  79 113 154 202 262 319 388 470
#     4  12  30  48  78 117 155 202 259 319 398 459
#     4  10  25  50  74 107 153 199 259 312 382 458
#
# _framework density 22.484705999999999
#
# number of rings (size 3 to 8) (size 9 to 14) (size 15 to 20)
#    0.000    0.667    1.667    5.000   11.667    1.333 
#    0.000    0.000    0.000    0.000    0.000    0.000 
#    0.000    0.000    0.000    0.000    0.000    0.000 
#
# Total GULP energy -67018.937191 kJ/mol
# GULP energy per Si atom -5584.911433 kJ/mol
# Density = 2.243353 g / cm^3
# Si number density = 22.484706 Si / 1000 Ang^3
#
#
#
# Elastic Constant Matrix: (Units=GPa)
#
#
# Indices 1 2 3 4 5 6 
#
# 1 169.8245 20.5463 93.3198 18.7914 -1.7669 -23.7800
# 2 20.5463 104.2174 45.3021 10.6901 2.1805 -22.9106
# 3 93.3198 45.3021 190.0317 18.7016 12.9720 -11.9141
# 4 18.7914 10.6901 18.7016 44.9045 -3.9820 3.3902
# 5 -1.7669 2.1805 12.9720 -3.9820 57.6734 11.5319
# 6 -23.7800 -22.9106 -11.9141 3.3902 11.5319 40.8455
#
#
#
# Elastic Compliance Matrix: (Units=1/GPa)
#
#
# Indices 1 2 3 4 5 6 
#
# 1 0.009032 0.001442 -0.004184 -0.002768 -0.000045 0.005089
# 2 0.001442 0.012602 -0.002804 -0.003164 -0.001579 0.007799
# 3 -0.004184 -0.002804 0.008138 -0.001042 -0.001712 -0.001066
# 4 -0.002768 -0.003164 -0.001042 0.025425 0.003375 -0.006754
# 5 -0.000045 -0.001579 -0.001712 0.003375 0.019452 -0.007183
# 6 0.005089 0.007799 -0.001066 -0.006754 -0.007183 0.034098
#
#
# Mechanical properties :
#
#
# Convention : Reuss Voigt Hill
#
# Bulk Modulus (GPa) = 53.53648 86.93444 70.23546
# Shear Modulus (GPa) = 39.66194 49.01172 44.33683
#
# Velocity S-wave (km/s) = 4.20450 4.67388 4.44539
# Velocity P-wave (km/s) = 6.88711 8.23860 7.59299
#
# Compressibility (1/GPa) = 0.01867885
#
# Stress axis : x y z
#
# Youngs Moduli (GPa) = 110.71951 79.35218 122.87679
#
# Poissons Ratio (x) = -0.11443 0.51417
# Poissons Ratio (y) = -0.15966 0.34457
# Poissons Ratio (z) = 0.46330 0.22252
#
# Static dielectric constant tensor:
#      x y z
#    x 1.876480 0.073270 -0.062980 
#    y 0.073270 1.866630 -0.102960 
#    z -0.062980 -0.102960 1.847720 
# 
# From -- ./inp_files/167501.got.cif
#   From: 2010.05.17/outbox.cif.g08.bks.cpg/sg2_84_cif.got.tgz:167501.got - 2010.06.03 11:33:40.
