data_PCOD9052100
_publ_section_title
;
Structure prediction by ZEFSAII (Michael W. Deem and Ramdas Pophale) SiO2 
 PCOD9052100
Probable space group: P -1
;
_chemical_formula_sum "Si O2"
_cell_formula_units_Z 16
_cell_length_a 9.242257
_cell_length_b 12.273329
_cell_length_c 14.135572
_cell_angle_alpha 60.523123
_cell_angle_beta 64.259313
_cell_angle_gamma 116.473950
_cell_volume 680.251825
_symmetry_space_group_name_H-M "P -1"
_symmetry_group_IT_number 2
_symmetry_cell_setting 'triclinic'
loop_
_space_group_symop_operation_xyz
x,y,z
-x,-y,-z
loop_
_atom_site_type_symbol
_atom_site_label
_atom_site_fract_x
_atom_site_fract_y
_atom_site_fract_z
Si Si1 0.761243 0.996312 0.755210
Si Si2 0.625307 0.221347 0.874313
Si Si3 0.270622 0.504084 0.409652
Si Si4 0.848479 0.949200 0.467648
Si Si5 0.652441 0.248811 0.201437
Si Si6 0.772061 0.044004 0.287477
Si Si7 0.869807 0.788791 0.075802
Si Si8 0.775818 0.491643 0.361459
O O1 0.936459 0.242322 0.595653
O O2 0.027665 0.075265 0.626936
O O3 0.504229 0.830800 0.820817
O O4 0.609213 0.866009 0.953346
O O5 0.661707 0.313394 0.725301
O O6 0.948838 0.422669 0.742551
O O7 0.500000 0.000000 0.000000
O O8 0.518995 0.585006 0.251695
O O9 0.302920 0.512741 0.508838
O O10 0.519639 0.769172 0.672829
O O11 0.939115 0.132736 0.302797
O O12 0.000000 0.000000 0.500000
O O13 0.627984 0.086334 0.303226
O O14 0.000000 0.500000 0.000000
O O15 0.510105 0.769770 0.480483
O O16 0.968963 0.141682 0.097393
O O17 0.884311 0.678897 0.188082
O O18 0.000000 0.000000 0.000000
#
# Coordination Sequence:
#
# PCOD9052100 Si02
#       8
#     2   2   2   2   2   2   2   2
#     4  11  25  47  73 102 152 193 238 305 373 427
#     4  12  25  41  69 107 151 192 240 282 353 450
#     4  12  25  42  70 106 155 200 232 286 365 445
#     4  10  25  51  72  99 139 186 247 311 361 421
#     4  11  27  50  76 104 138 188 261 316 364 424
#     4  12  26  46  79 105 147 195 240 308 377 424
#     4  12  26  43  72 114 154 194 242 285 361 458
#     4  12  26  42  72 108 155 194 238 290 361 446
#
# _framework density 23.520700999999999
#
# number of rings (size 3 to 8) (size 9 to 14) (size 15 to 20)
#    0.000    0.500    2.500    4.875    8.750    0.000 
#    4.500    1.250    0.000    0.000    0.000    0.000 
#    0.000    0.000    0.000    0.000    0.000    0.000 
#
# Total GULP energy -89428.960231 kJ/mol
# GULP energy per Si atom -5589.310014 kJ/mol
# Density = 2.346717 g / cm^3
# Si number density = 23.520701 Si / 1000 Ang^3
#
#
#
# Elastic Constant Matrix: (Units=GPa)
#
#
# Indices 1 2 3 4 5 6 
#
# 1 121.4918 22.1058 54.6346 10.2969 1.9893 -1.4235
# 2 22.1058 53.2184 43.3109 11.1541 -9.1997 6.7890
# 3 54.6346 43.3109 148.9544 25.8418 -9.4141 10.6073
# 4 10.2969 11.1541 25.8418 42.8815 -2.3730 -6.3974
# 5 1.9893 -9.1997 -9.4141 -2.3730 55.1950 10.7477
# 6 -1.4235 6.7890 10.6073 -6.3974 10.7477 34.2452
#
#
#
# Elastic Compliance Matrix: (Units=1/GPa)
#
#
# Indices 1 2 3 4 5 6 
#
# 1 0.010217 -0.002134 -0.003514 0.000507 -0.001807 0.002598
# 2 -0.002134 0.026497 -0.005609 -0.003600 0.004489 -0.005686
# 3 -0.003514 -0.005609 0.010812 -0.004686 0.001565 -0.003750
# 4 0.000507 -0.003600 -0.004686 0.028051 -0.001765 0.007981
# 5 -0.001807 0.004489 0.001565 -0.001765 0.020736 -0.008287
# 6 0.002598 -0.005686 -0.003750 0.007981 -0.008287 0.035690
#
#
# Mechanical properties :
#
#
# Convention : Reuss Voigt Hill
#
# Bulk Modulus (GPa) = 39.98017 62.64079 51.31048
# Shear Modulus (GPa) = 30.70245 40.03858 35.37051
#
# Velocity S-wave (km/s) = 3.61687 4.13033 3.88210
# Velocity P-wave (km/s) = 5.87172 7.03109 6.47739
#
# Compressibility (1/GPa) = 0.02501240
#
# Stress axis : x y z
#
# Youngs Moduli (GPa) = 97.87967 37.73970 92.49007
#
# Poissons Ratio (x) = 0.08054 0.32501
# Poissons Ratio (y) = 0.20889 0.51874
# Poissons Ratio (z) = 0.34395 0.21167
#
# Static dielectric constant tensor:
#      x y z
#    x 1.986860 0.040800 -0.014460 
#    y 0.040800 1.980210 -0.024750 
#    z -0.014460 -0.024750 1.876280 
# 
# From -- ./inp_files/500150.got.cif
#   From: 2010.05.17/outbox.cif.g08.bks.cpg/sg2_251_cif.got.tgz:500150.got - 2010.06.03 11:33:40.
