data_PCOD9052255
_publ_section_title
;
Structure prediction by ZEFSAII (Michael W. Deem and Ramdas Pophale) SiO2 
 PCOD9052255
Probable space group: P -1
;
_chemical_formula_sum "Si O2"
_cell_formula_units_Z 15
_cell_length_a 9.687423
_cell_length_b 15.369456
_cell_length_c 8.932364
_cell_angle_alpha 48.900058
_cell_angle_beta 93.176236
_cell_angle_gamma 124.183948
_cell_volume 716.246644
_symmetry_space_group_name_H-M "P -1"
_symmetry_group_IT_number 2
_symmetry_cell_setting 'triclinic'
loop_
_space_group_symop_operation_xyz
x,y,z
-x,-y,-z
loop_
_atom_site_type_symbol
_atom_site_label
_atom_site_fract_x
_atom_site_fract_y
_atom_site_fract_z
Si Si1 0.279483 0.851209 0.111043
Si Si2 0.773364 0.393623 0.420146
Si Si3 0.141417 0.719779 0.924292
Si Si4 0.370689 0.444998 0.701158
Si Si5 0.137670 0.978597 0.591241
Si Si6 0.025749 0.911761 0.988292
Si Si7 0.500000 0.500000 0.000000
Si Si8 0.429964 0.730361 0.740672
O O1 0.193983 0.689841 0.369976
O O2 0.144673 0.880093 0.111032
O O3 0.257312 0.819827 0.968199
O O4 0.500000 0.000000 0.000000
O O5 0.704244 0.467876 0.414099
O O6 0.608104 0.260106 0.445075
O O7 0.956670 0.538436 0.168684
O O8 0.075867 0.808180 0.757651
O O9 0.279275 0.720915 0.831990
O O10 0.500000 0.500000 0.500000
O O11 0.181371 0.254122 0.893620
O O12 0.463775 0.484916 0.827076
O O13 0.349492 0.113096 0.382408
O O14 0.000000 0.000000 0.500000
O O15 0.143540 0.008309 0.735430
O O16 0.000000 0.000000 0.000000
O O17 0.586472 0.417784 0.081436
#
# Coordination Sequence:
#
# PCOD9052255 Si02
#       8
#     2   2   2   2   2   2   1   2
#     4  11  25  43  70  99 140 184 232 290 357 431
#     4  11  23  45  69 102 140 177 237 301 346 436
#     4  11  24  45  69  97 137 180 238 292 358 427
#     4  11  25  44  75 104 149 191 241 298 375 430
#     4  11  24  45  68  97 142 183 234 298 357 432
#     4  11  26  45  67 106 142 181 242 299 359 440
#     4  10  26  44  68 110 144 182 248 302 352 448
#     4  11  25  42  71  98 138 184 235 288 370 423
#
# _framework density 20.942505000000001
#
# number of rings (size 3 to 8) (size 9 to 14) (size 15 to 20)
#    0.000    1.067    2.667    3.600    9.333    2.133 
#    0.000    0.000    0.000    0.000    0.000    0.000 
#    0.000    0.000    0.000    0.000    0.000    0.000 
#
# Total GULP energy -83540.004106 kJ/mol
# GULP energy per Si atom -5569.333607 kJ/mol
# Density = 2.089484 g / cm^3
# Si number density = 20.942505 Si / 1000 Ang^3
#
#
#
# Elastic Constant Matrix: (Units=GPa)
#
#
# Indices 1 2 3 4 5 6 
#
# 1 157.2994 55.7921 85.4556 15.0484 10.1187 -38.6568
# 2 55.7921 87.2744 38.0320 2.3181 4.9623 -13.6866
# 3 85.4556 38.0320 91.6530 2.3096 4.4984 -10.0119
# 4 15.0484 2.3181 2.3096 20.8836 7.5631 -6.4437
# 5 10.1187 4.9623 4.4984 7.5631 51.1708 -1.4202
# 6 -38.6568 -13.6866 -10.0119 -6.4437 -1.4202 49.1628
#
#
#
# Elastic Compliance Matrix: (Units=1/GPa)
#
#
# Indices 1 2 3 4 5 6 
#
# 1 0.019033 -0.003930 -0.014812 -0.008433 -0.000564 0.009734
# 2 -0.003930 0.015214 -0.002568 0.001959 -0.000738 0.000858
# 3 -0.014812 -0.002568 0.024928 0.006247 -0.000116 -0.006470
# 4 -0.008433 0.001959 0.006247 0.056446 -0.007349 0.002373
# 5 -0.000564 -0.000738 -0.000116 -0.007349 0.020793 -0.001035
# 6 0.009734 0.000858 -0.006470 0.002373 -0.001035 0.027197
#
#
# Mechanical properties :
#
#
# Convention : Reuss Voigt Hill
#
# Bulk Modulus (GPa) = 60.40441 77.19845 68.80143
# Shear Modulus (GPa) = 23.61263 34.70657 29.15960
#
# Velocity S-wave (km/s) = 3.36147 4.07533 3.73549
# Velocity P-wave (km/s) = 6.63110 7.68677 7.17837
#
# Compressibility (1/GPa) = 0.01655508
#
# Stress axis : x y z
#
# Youngs Moduli (GPa) = 52.53950 65.72807 40.11501
#
# Poissons Ratio (x) = 0.25833 0.59418
# Poissons Ratio (y) = 0.20649 0.10302
# Poissons Ratio (z) = 0.77821 0.16880
#
# Static dielectric constant tensor:
#      x y z
#    x 1.743640 0.026190 -0.001670 
#    y 0.026190 1.762920 -0.030870 
#    z -0.001670 -0.030870 1.784830 
# 
# From -- ./inp_files/199636.got.cif
#   From: 2010.05.17/outbox.cif.g08.bks.cpg/sg2_100_cif.got.tgz:199636.got - 2010.06.03 11:33:40.
