data_PCOD9052837
_publ_section_title
;
Structure prediction by ZEFSAII (Michael W. Deem and Ramdas Pophale) SiO2 
 PCOD9052837
Probable space group: P -1
;
_chemical_formula_sum "Si O2"
_cell_formula_units_Z 14
_cell_length_a 7.985183
_cell_length_b 8.904405
_cell_length_c 11.116287
_cell_angle_alpha 114.394039
_cell_angle_beta 110.969624
_cell_angle_gamma 45.876223
_cell_volume 513.731089
_symmetry_space_group_name_H-M "P -1"
_symmetry_group_IT_number 2
_symmetry_cell_setting 'triclinic'
loop_
_space_group_symop_operation_xyz
x,y,z
-x,-y,-z
loop_
_atom_site_type_symbol
_atom_site_label
_atom_site_fract_x
_atom_site_fract_y
_atom_site_fract_z
Si Si1 0.760245 0.881445 0.272837
Si Si2 0.625220 0.297422 0.051349
Si Si3 0.234532 0.267646 0.017216
Si Si4 0.487537 0.194526 0.516092
Si Si5 0.239341 0.700051 0.445118
Si Si6 0.704451 0.973344 0.808876
Si Si7 0.118055 0.677774 0.653883
O O1 0.026788 0.718233 0.335679
O O2 0.601194 0.107465 0.380486
O O3 0.574643 0.840244 0.231141
O O4 0.763799 0.881834 0.130027
O O5 0.438455 0.278321 0.050403
O O6 0.744706 0.319562 0.200074
O O7 0.500000 0.500000 0.000000
O O8 0.776754 0.100292 0.930394
O O9 0.253011 0.185240 0.127287
O O10 0.000000 0.500000 0.000000
O O11 0.244605 0.432726 0.562392
O O12 0.677653 0.222385 0.612052
O O13 0.500000 0.000000 0.500000
O O14 0.500000 0.500000 0.500000
O O15 0.113901 0.796733 0.574620
O O16 0.859153 0.817253 0.687679
#
# Coordination Sequence:
#
# PCOD9052837 Si02
#       7
#     2   2   2   2   2   2   2
#     4  11  26  49  80 111 165 205 279 325 421 480
#     4  11  25  48  77 116 164 216 272 338 415 487
#     4  11  27  47  82 117 158 220 272 345 407 491
#     4  11  28  49  77 112 158 214 268 343 404 487
#     4  10  26  52  78 114 152 218 267 347 405 489
#     4  11  27  51  81 122 163 217 270 344 412 497
#     4  11  27  49  79 118 165 206 280 334 418 492
#
# _framework density 27.251611
#
# number of rings (size 3 to 8) (size 9 to 14) (size 15 to 20)
#    0.000    1.143    0.000    3.429   16.000    1.714 
#    0.000    0.000    0.000    0.000    0.000    0.000 
#    0.000    0.000    0.000    0.000    0.000    0.000 
#
# Total GULP energy -78054.518105 kJ/mol
# GULP energy per Si atom -5575.322722 kJ/mol
# Density = 2.718959 g / cm^3
# Si number density = 27.251611 Si / 1000 Ang^3
#
#
#
# Elastic Constant Matrix: (Units=GPa)
#
#
# Indices 1 2 3 4 5 6 
#
# 1 155.9953 100.5655 75.4625 -9.3090 -3.4994 -31.0194
# 2 100.5655 152.5466 42.7586 10.7521 0.6020 -13.7600
# 3 75.4625 42.7586 148.6193 0.7035 -4.0210 -5.0476
# 4 -9.3090 10.7521 0.7035 64.4444 -8.7835 -0.8112
# 5 -3.4994 0.6020 -4.0210 -8.7835 58.4772 -11.8834
# 6 -31.0194 -13.7600 -5.0476 -0.8112 -11.8834 66.5127
#
#
#
# Elastic Compliance Matrix: (Units=1/GPa)
#
#
# Indices 1 2 3 4 5 6 
#
# 1 0.016364 -0.009046 -0.005459 0.004353 0.002540 0.005853
# 2 -0.009046 0.012340 0.000954 -0.003609 -0.001533 -0.001912
# 3 -0.005459 0.000954 0.009168 -0.001099 -0.000218 -0.001705
# 4 0.004353 -0.003609 -0.001099 0.017223 0.003212 0.001984
# 5 0.002540 -0.001533 -0.000218 0.003212 0.018592 0.004212
# 6 0.005853 -0.001912 -0.001705 0.001984 0.004212 0.018016
#
#
# Mechanical properties :
#
#
# Convention : Reuss Voigt Hill
#
# Bulk Modulus (GPa) = 92.87221 99.41495 96.14358
# Shear Modulus (GPa) = 40.85139 53.77851 47.31495
#
# Velocity S-wave (km/s) = 3.87595 4.44712 4.17132
# Velocity P-wave (km/s) = 7.36099 7.93277 7.65222
#
# Compressibility (1/GPa) = 0.01076748
#
# Stress axis : x y z
#
# Youngs Moduli (GPa) = 61.11034 81.03845 109.08044
#
# Poissons Ratio (x) = 0.73311 0.59550
# Poissons Ratio (y) = 0.55283 -0.10404
# Poissons Ratio (z) = 0.33362 -0.07730
#
# Static dielectric constant tensor:
#      x y z
#    x 2.360520 0.097990 0.138560 
#    y 0.097990 2.297340 0.084250 
#    z 0.138560 0.084250 2.337450 
# 
# From -- ./inp_files/493399.got.cif
#   From: 2010.05.17/outbox.cif.g08.bks.cpg/sg2_247_cif.got.tgz:493399.got - 2010.06.03 11:33:40.
