data_PCOD9052811
_publ_section_title
;
Structure prediction by ZEFSAII (Michael W. Deem and Ramdas Pophale) SiO2 
 PCOD9052811
Probable space group: P -1
;
_chemical_formula_sum "Si O2"
_cell_formula_units_Z 13
_cell_length_a 12.408433
_cell_length_b 9.543736
_cell_length_c 8.763578
_cell_angle_alpha 133.011462
_cell_angle_beta 73.166794
_cell_angle_gamma 133.690797
_cell_volume 515.329784
_symmetry_space_group_name_H-M "P -1"
_symmetry_group_IT_number 2
_symmetry_cell_setting 'triclinic'
loop_
_space_group_symop_operation_xyz
x,y,z
-x,-y,-z
loop_
_atom_site_type_symbol
_atom_site_label
_atom_site_fract_x
_atom_site_fract_y
_atom_site_fract_z
Si Si1 0.923961 0.198689 0.294854
Si Si2 0.930305 0.024878 0.862328
Si Si3 0.718668 0.614153 0.404520
Si Si4 0.490979 0.067020 0.230353
Si Si5 0.142702 0.522940 0.966004
Si Si6 0.500000 0.000000 0.500000
Si Si7 0.611094 0.724100 0.248242
O O1 0.000000 0.500000 0.500000
O O2 0.785966 0.994433 0.319781
O O3 0.859628 0.073667 0.058814
O O4 0.049186 0.172442 0.244462
O O5 0.099347 0.321851 0.969528
O O6 0.827394 0.895667 0.656393
O O7 0.588538 0.377771 0.397315
O O8 0.828713 0.570925 0.265839
O O9 0.637381 0.606053 0.284953
O O10 0.559155 0.023521 0.310909
O O11 0.500000 0.000000 0.000000
O O12 0.303112 0.827617 0.161274
O O13 0.000000 0.500000 0.000000
O O14 0.524665 0.812307 0.401168
O O15 0.500000 0.500000 0.000000
#
# Coordination Sequence:
#
# PCOD9052811 Si02
#       7
#     2   2   2   2   2   1   2
#     4  11  29  50  76 116 165 206 266 337 406 487
#     4  11  27  47  81 117 154 212 268 329 412 482
#     4  11  26  52  79 116 165 210 274 339 401 492
#     4  10  26  50  78 117 159 212 269 332 406 486
#     4  11  25  45  80 114 159 209 263 333 407 478
#     4  12  30  46  86 110 156 214 272 330 410 472
#     4  12  29  53  79 114 162 211 274 333 409 488
#
# _framework density 25.226562999999999
#
# number of rings (size 3 to 8) (size 9 to 14) (size 15 to 20)
#    0.000    0.923    1.538    2.308   10.769    3.077 
#    0.000    0.000    0.000    0.000    0.000    0.000 
#    0.000    0.000    0.000    0.000    0.000    0.000 
#
# Total GULP energy -72555.196295 kJ/mol
# GULP energy per Si atom -5581.168946 kJ/mol
# Density = 2.516915 g / cm^3
# Si number density = 25.226563 Si / 1000 Ang^3
#
#
#
# Elastic Constant Matrix: (Units=GPa)
#
#
# Indices 1 2 3 4 5 6 
#
# 1 97.4319 45.0174 59.0968 10.0667 -17.3128 -24.0340
# 2 45.0174 203.2840 41.2378 7.3745 1.9568 -23.5940
# 3 59.0968 41.2378 126.0787 -5.8354 -15.3083 -10.6961
# 4 10.0667 7.3745 -5.8354 47.4007 -8.1815 7.4613
# 5 -17.3128 1.9568 -15.3083 -8.1815 44.9531 -4.5592
# 6 -24.0340 -23.5940 -10.6961 7.4613 -4.5592 26.3322
#
#
#
# Elastic Compliance Matrix: (Units=1/GPa)
#
#
# Indices 1 2 3 4 5 6 
#
# 1 0.022332 -0.000810 -0.008100 -0.007585 0.006489 0.019640
# 2 -0.000810 0.005963 -0.001394 -0.001776 -0.000925 0.004381
# 3 -0.008100 -0.001394 0.012160 0.004419 0.001409 -0.004710
# 4 -0.007585 -0.001776 0.004419 0.026039 0.002005 -0.013751
# 5 0.006489 -0.000925 0.001409 0.002005 0.026614 0.009706
# 6 0.019640 0.004381 -0.004710 -0.013751 0.009706 0.063491
#
#
# Mechanical properties :
#
#
# Convention : Reuss Voigt Hill
#
# Bulk Modulus (GPa) = 50.38232 79.72206 65.05219
# Shear Modulus (GPa) = 27.20025 42.50005 34.85015
#
# Velocity S-wave (km/s) = 3.28722 4.10900 3.72087
# Velocity P-wave (km/s) = 5.86711 7.36090 6.65605
#
# Compressibility (1/GPa) = 0.01984823
#
# Stress axis : x y z
#
# Youngs Moduli (GPa) = 44.77822 167.69716 82.23753
#
# Poissons Ratio (x) = 0.13587 0.66611
# Poissons Ratio (y) = 0.03628 0.11460
# Poissons Ratio (z) = 0.36269 0.23370
#
# Static dielectric constant tensor:
#      x y z
#    x 1.672090 -0.591200 0.782850 
#    y -0.591200 1.074310 1.154240 
#    z 0.782850 1.154240 0.472630 
# 
# From -- ./inp_files/245917.got.cif
#   From: 2010.05.17/outbox.cif.g08.bks.cpg/sg2_123_cif.got.tgz:245917.got - 2010.06.03 11:33:40.
