data_PCOD9052524
_publ_section_title
;
Structure prediction by ZEFSAII (Michael W. Deem and Ramdas Pophale) SiO2 
 PCOD9052524
Probable space group: P -1
;
_chemical_formula_sum "Si O2"
_cell_formula_units_Z 12
_cell_length_a 8.678008
_cell_length_b 9.003109
_cell_length_c 6.903946
_cell_angle_alpha 69.219204
_cell_angle_beta 119.795404
_cell_angle_gamma 108.735805
_cell_volume 430.604719
_symmetry_space_group_name_H-M "P -1"
_symmetry_group_IT_number 2
_symmetry_cell_setting 'triclinic'
loop_
_space_group_symop_operation_xyz
x,y,z
-x,-y,-z
loop_
_atom_site_type_symbol
_atom_site_label
_atom_site_fract_x
_atom_site_fract_y
_atom_site_fract_z
Si Si1 0.339207 0.252924 0.539635
Si Si2 0.826691 0.111548 0.400929
Si Si3 0.738193 0.408394 0.729058
Si Si4 0.830045 0.705098 0.228465
Si Si5 0.340506 0.602984 0.864666
Si Si6 0.005744 0.839603 0.952938
O O1 0.540120 0.327264 0.563566
O O2 0.226656 0.398940 0.374736
O O3 0.333156 0.240157 0.776872
O O4 0.250754 0.073830 0.500878
O O5 0.995528 0.200047 0.591902
O O6 0.666818 0.213457 0.278973
O O7 0.905240 0.119675 0.223347
O O8 0.874687 0.288128 0.828396
O O9 0.725528 0.403010 0.954874
O O10 0.806133 0.511679 0.306774
O O11 0.816650 0.745729 0.972057
O O12 0.500000 0.500000 0.000000
O O13 0.000000 0.000000 0.000000
#
# Coordination Sequence:
#
# PCOD9052524 Si02
#       6
#     2   2   2   2   2   2
#     4  11  24  48  75 104 151 190 244 303 367 427
#     4  11  27  47  75 110 149 190 247 308 357 439
#     4  10  26  46  76 109 148 195 243 306 363 440
#     4  12  26  45  78 106 149 191 246 296 371 433
#     4  11  25  47  74 108 148 199 244 298 371 435
#     4  11  26  46  72 111 146 194 245 299 365 432
#
# _framework density 27.867784
#
# number of rings (size 3 to 8) (size 9 to 14) (size 15 to 20)
#    0.000    1.000    3.333    1.000    7.000    5.333 
#    0.000    1.667    0.000    0.000    0.000    0.000 
#    0.000    0.000    0.000    0.000    0.000    0.000 
#
# Total GULP energy -66933.405832 kJ/mol
# GULP energy per Si atom -5577.783819 kJ/mol
# Density = 2.780436 g / cm^3
# Si number density = 27.867784 Si / 1000 Ang^3
#
#
#
# Elastic Constant Matrix: (Units=GPa)
#
#
# Indices 1 2 3 4 5 6 
#
# 1 104.6272 65.8845 33.4185 -12.8827 -4.9969 -21.0726
# 2 65.8845 248.1144 59.4842 -29.0965 10.2737 -8.4225
# 3 33.4185 59.4842 98.7940 -17.6932 -10.7188 -17.7535
# 4 -12.8827 -29.0965 -17.6932 61.0949 -9.9299 -8.4608
# 5 -4.9969 10.2737 -10.7188 -9.9299 54.5299 2.4445
# 6 -21.0726 -8.4225 -17.7535 -8.4608 2.4445 61.3338
#
#
#
# Elastic Compliance Matrix: (Units=1/GPa)
#
#
# Indices 1 2 3 4 5 6 
#
# 1 0.012836 -0.002780 -0.001517 0.001716 0.001546 0.003764
# 2 -0.002780 0.005525 -0.002518 0.000958 -0.001584 -0.000730
# 3 -0.001517 -0.002518 0.013790 0.003530 0.003533 0.003471
# 4 0.001716 0.000958 0.003530 0.019453 0.004022 0.004266
# 5 0.001546 -0.001584 0.003533 0.004022 0.020157 0.001088
# 6 0.003764 -0.000730 0.003471 0.004266 0.001088 0.019047
#
#
# Mechanical properties :
#
#
# Convention : Reuss Voigt Hill
#
# Bulk Modulus (GPa) = 53.98789 85.45666 69.72228
# Shear Modulus (GPa) = 45.20334 54.90828 50.05581
#
# Velocity S-wave (km/s) = 4.03186 4.44364 4.24274
# Velocity P-wave (km/s) = 6.41010 7.55377 7.00532
#
# Compressibility (1/GPa) = 0.01852267
#
# Stress axis : x y z
#
# Youngs Moduli (GPa) = 77.90617 180.98515 72.51400
#
# Poissons Ratio (x) = 0.50310 0.10998
# Poissons Ratio (y) = 0.21656 0.18259
# Poissons Ratio (z) = 0.11816 0.45572
#
# Static dielectric constant tensor:
#      x y z
#    x 2.278900 0.118640 -0.007620 
#    y 0.118640 2.201000 0.021250 
#    z -0.007620 0.021250 2.460590 
# 
# From -- ./inp_files/149581.got.cif
#   From: 2010.05.17/outbox.cif.g08.bks.cpg/sg2_75_cif.got.tgz:149581.got - 2010.06.03 11:33:40.
