data_PCOD9052515
_publ_section_title
;
Structure prediction by ZEFSAII (Michael W. Deem and Ramdas Pophale) SiO2 
 PCOD9052515
Probable space group: P -1
;
_chemical_formula_sum "Si O2"
_cell_formula_units_Z 16
_cell_length_a 15.946936
_cell_length_b 10.562464
_cell_length_c 12.152894
_cell_angle_alpha 76.312860
_cell_angle_beta 26.966097
_cell_angle_gamma 62.717446
_cell_volume 746.157606
_symmetry_space_group_name_H-M "P -1"
_symmetry_group_IT_number 2
_symmetry_cell_setting 'triclinic'
loop_
_space_group_symop_operation_xyz
x,y,z
-x,-y,-z
loop_
_atom_site_type_symbol
_atom_site_label
_atom_site_fract_x
_atom_site_fract_y
_atom_site_fract_z
Si Si1 0.233624 0.967800 0.275437
Si Si2 0.276595 0.978968 0.475376
Si Si3 0.831900 0.284139 0.333935
Si Si4 0.071246 0.826811 0.990876
Si Si5 0.020751 0.517658 0.342721
Si Si6 0.765972 0.813425 0.952360
Si Si7 0.517788 0.643115 0.905216
Si Si8 0.366520 0.613189 0.866970
O O1 0.249184 0.020945 0.368844
O O2 0.270531 0.064080 0.123233
O O3 0.412582 0.780814 0.090117
O O4 0.000000 0.000000 0.500000
O O5 0.215621 0.850512 0.572757
O O6 0.517029 0.891792 0.269183
O O7 0.117056 0.127909 0.707546
O O8 0.608776 0.450172 0.596838
O O9 0.043194 0.228377 0.175424
O O10 0.900314 0.274886 0.127977
O O11 0.296437 0.724222 0.819726
O O12 0.000000 0.000000 0.000000
O O13 0.761073 0.601686 0.595931
O O14 0.000000 0.500000 0.500000
O O15 0.153229 0.347752 0.168182
O O16 0.176217 0.579902 0.121159
O O17 0.377065 0.697391 0.946181
O O18 0.500000 0.500000 0.000000
#
# Coordination Sequence:
#
# PCOD9052515 Si02
#       8
#     2   2   2   2   2   2   2   2
#     4  12  24  40  69 103 145 183 224 278 354 421
#     4  11  23  44  65 101 141 182 226 283 346 409
#     4  11  23  48  68  96 133 182 239 288 335 406
#     4  10  26  46  74  97 132 186 241 291 341 403
#     4  12  25  40  68 106 144 182 223 275 347 431
#     4  12  25  42  69 103 144 180 225 286 351 417
#     4  12  24  42  66 106 145 183 224 275 345 428
#     4  12  24  45  73  99 142 181 232 286 351 406
#
# _framework density 21.443190999999999
#
# number of rings (size 3 to 8) (size 9 to 14) (size 15 to 20)
#    0.000    0.500    5.000    3.750    5.250    0.500 
#    0.000    3.125    0.000    0.000    0.000    0.000 
#    0.000    0.000    0.000    0.000    0.000    0.000 
#
# Total GULP energy -89353.302317 kJ/mol
# GULP energy per Si atom -5584.581395 kJ/mol
# Density = 2.139438 g / cm^3
# Si number density = 21.443191 Si / 1000 Ang^3
#
#
#
# Elastic Constant Matrix: (Units=GPa)
#
#
# Indices 1 2 3 4 5 6 
#
# 1 288.5908 22.4428 -16.9798 72.2395 10.7014 56.6452
# 2 22.4428 40.6840 26.0694 -9.3589 -15.8567 -19.9636
# 3 -16.9798 26.0694 161.3101 -18.8101 -17.7067 -27.5810
# 4 72.2395 -9.3589 -18.8101 57.7607 11.4351 29.2993
# 5 10.7014 -15.8567 -17.7067 11.4351 49.6767 5.5399
# 6 56.6452 -19.9636 -27.5810 29.2993 5.5399 65.6940
#
#
#
# Elastic Compliance Matrix: (Units=1/GPa)
#
#
# Indices 1 2 3 4 5 6 
#
# 1 0.007157 -0.009301 0.000241 -0.007148 -0.002163 -0.005526
# 2 -0.009301 0.046357 -0.003498 0.007323 0.012044 0.016357
# 3 0.000241 -0.003498 0.007220 0.000538 0.001122 0.001426
# 4 -0.007148 0.007323 0.000538 0.030527 -0.002423 -0.004796
# 5 -0.002163 0.012044 0.001122 -0.002423 0.024843 0.004982
# 6 -0.005526 0.016357 0.001426 -0.004796 0.004982 0.027275
#
#
# Mechanical properties :
#
#
# Convention : Reuss Voigt Hill
#
# Bulk Modulus (GPa) = 28.07698 61.51663 44.79681
# Shear Modulus (GPa) = 27.72114 65.22978 46.47546
#
# Velocity S-wave (km/s) = 3.59941 5.52140 4.66056
# Velocity P-wave (km/s) = 5.51330 8.33056 7.06381
#
# Compressibility (1/GPa) = 0.03561636
#
# Stress axis : x y z
#
# Youngs Moduli (GPa) = 139.72789 21.57156 138.51149
#
# Poissons Ratio (x) = 0.20064 -0.03334
# Poissons Ratio (y) = 1.29964 0.48453
# Poissons Ratio (z) = -0.03363 0.07546
#
# Static dielectric constant tensor:
#      x y z
#    x 1.808230 -0.005960 -0.046860 
#    y -0.005960 1.864220 -0.108130 
#    z -0.046860 -0.108130 1.947770 
# 
# From -- ./inp_files/306179.got.cif
#   From: 2010.05.17/outbox.cif.g08.bks.cpg/sg2_154_cif.got.tgz:306179.got - 2010.06.03 11:33:40.
