data_PCOD9052684
_publ_section_title
;
Structure prediction by ZEFSAII (Michael W. Deem and Ramdas Pophale) SiO2 
 PCOD9052684
Probable space group: P -1
;
_chemical_formula_sum "Si O2"
_cell_formula_units_Z 14
_cell_length_a 13.536778
_cell_length_b 14.013354
_cell_length_c 9.771303
_cell_angle_alpha 112.922850
_cell_angle_beta 135.928752
_cell_angle_gamma 32.194067
_cell_volume 554.777701
_symmetry_space_group_name_H-M "P -1"
_symmetry_group_IT_number 2
_symmetry_cell_setting 'triclinic'
loop_
_space_group_symop_operation_xyz
x,y,z
-x,-y,-z
loop_
_atom_site_type_symbol
_atom_site_label
_atom_site_fract_x
_atom_site_fract_y
_atom_site_fract_z
Si Si1 0.755932 0.941688 0.529602
Si Si2 0.172699 0.152013 0.757744
Si Si3 0.447684 0.642270 0.842600
Si Si4 0.145540 0.793871 0.055402
Si Si5 0.197855 0.419571 0.271230
Si Si6 0.939530 0.623932 0.624158
Si Si7 0.052599 0.891938 0.324820
O O1 0.898431 0.831315 0.460385
O O2 0.908973 0.874448 0.786533
O O3 0.680885 0.870156 0.450716
O O4 0.533721 0.181737 0.420895
O O5 0.158319 0.058522 0.782635
O O6 0.920871 0.391995 0.701713
O O7 0.500000 0.000000 0.000000
O O8 0.319622 0.741485 0.616083
O O9 0.169181 0.865737 0.780728
O O10 0.548880 0.455862 0.842745
O O11 0.742792 0.520536 0.108432
O O12 0.163301 0.775823 0.226464
O O13 0.000000 0.000000 0.000000
O O14 0.162852 0.369534 0.339932
O O15 0.000000 0.500000 0.000000
O O16 0.000000 0.500000 0.500000
#
# Coordination Sequence:
#
# PCOD9052684 Si02
#       7
#     2   2   2   2   2   2   2
#     4  11  27  44  67 106 143 186 242 305 361 425
#     4  12  26  45  71 107 145 191 240 296 362 432
#     4  10  26  48  74 103 144 189 242 297 365 430
#     4  11  28  47  74 106 145 189 248 303 360 433
#     4  12  26  41  73 102 141 194 240 294 364 434
#     4  11  24  47  72 103 150 186 237 305 362 426
#     4  11  27  47  77 103 144 194 243 297 364 436
#
# _framework density 25.235334999999999
#
# number of rings (size 3 to 8) (size 9 to 14) (size 15 to 20)
#    0.000    0.857    2.857    1.714   12.000    0.571 
#    0.000    0.000    0.000    0.000    0.000    0.000 
#    0.000    0.000    0.000    0.000    0.000    0.000 
#
# Total GULP energy -78221.908662 kJ/mol
# GULP energy per Si atom -5587.279190 kJ/mol
# Density = 2.517790 g / cm^3
# Si number density = 25.235335 Si / 1000 Ang^3
#
#
#
# Elastic Constant Matrix: (Units=GPa)
#
#
# Indices 1 2 3 4 5 6 
#
# 1 77.7106 31.1803 14.2340 13.8032 -4.4282 8.7972
# 2 31.1803 241.5720 46.8258 6.1993 -4.6138 10.1730
# 3 14.2340 46.8258 108.9717 24.1006 10.5471 -9.4565
# 4 13.8032 6.1993 24.1006 58.3723 -2.0458 -11.4627
# 5 -4.4282 -4.6138 10.5471 -2.0458 38.0156 4.9208
# 6 8.7972 10.1730 -9.4565 -11.4627 4.9208 40.5489
#
#
#
# Elastic Compliance Matrix: (Units=1/GPa)
#
#
# Indices 1 2 3 4 5 6 
#
# 1 0.014927 -0.001377 -0.001146 -0.003711 0.002270 -0.004485
# 2 -0.001377 0.004826 -0.002254 0.000503 0.001265 -0.001449
# 3 -0.001146 -0.002254 0.011841 -0.003943 -0.004290 0.002981
# 4 -0.003711 0.000503 -0.003943 0.020698 0.001128 0.005473
# 5 0.002270 0.001265 -0.004290 0.001128 0.028617 -0.004964
# 6 -0.004485 -0.001449 0.002981 0.005473 -0.004964 0.028843
#
#
# Mechanical properties :
#
#
# Convention : Reuss Voigt Hill
#
# Bulk Modulus (GPa) = 45.37050 68.08159 56.72605
# Shear Modulus (GPa) = 39.47802 49.78830 44.63316
#
# Velocity S-wave (km/s) = 3.95953 4.44662 4.21013
# Velocity P-wave (km/s) = 6.23874 7.30756 6.79420
#
# Compressibility (1/GPa) = 0.02204075
#
# Stress axis : x y z
#
# Youngs Moduli (GPa) = 66.99253 207.19462 84.45309
#
# Poissons Ratio (x) = 0.28531 0.09680
# Poissons Ratio (y) = 0.09225 0.19032
# Poissons Ratio (z) = 0.07679 0.46693
#
# Static dielectric constant tensor:
#      x y z
#    x 1.767680 0.178940 -0.354220 
#    y 0.178940 1.962780 0.183990 
#    z -0.354220 0.183990 1.208980 
# 
# From -- ./inp_files/315698.got.cif
#   From: 2010.05.17/outbox.cif.g08.bks.cpg/sg2_158_cif.got.tgz:315698.got - 2010.06.03 11:33:40.
