data_PCOD9052691
_publ_section_title
;
Structure prediction by ZEFSAII (Michael W. Deem and Ramdas Pophale) SiO2 
 PCOD9052691
Probable space group: P -1
;
_chemical_formula_sum "Si O2"
_cell_formula_units_Z 16
_cell_length_a 11.787119
_cell_length_b 9.595201
_cell_length_c 8.648971
_cell_angle_alpha 120.468314
_cell_angle_beta 78.940156
_cell_angle_gamma 76.086234
_cell_volume 758.645726
_symmetry_space_group_name_H-M "P -1"
_symmetry_group_IT_number 2
_symmetry_cell_setting 'triclinic'
loop_
_space_group_symop_operation_xyz
x,y,z
-x,-y,-z
loop_
_atom_site_type_symbol
_atom_site_label
_atom_site_fract_x
_atom_site_fract_y
_atom_site_fract_z
Si Si1 0.669043 0.762964 0.777621
Si Si2 0.780555 0.891552 0.318340
Si Si3 0.548303 0.016524 0.248386
Si Si4 0.864160 0.490860 0.053232
Si Si5 0.435699 0.761317 0.191617
Si Si6 0.310047 0.529048 0.178728
Si Si7 0.971481 0.121600 0.925389
Si Si8 0.794782 0.980711 0.719519
O O1 0.708996 0.566355 0.717871
O O2 0.778727 0.818169 0.717026
O O3 0.559480 0.814186 0.705819
O O4 0.612857 0.887551 0.012929
O O5 0.660342 0.018636 0.324095
O O6 0.776738 0.696463 0.221938
O O7 0.900403 0.881528 0.182324
O O8 0.799749 0.944516 0.515864
O O9 0.474821 0.920833 0.312043
O O10 0.808194 0.435110 0.883113
O O11 0.000000 0.500000 0.000000
O O12 0.883804 0.332428 0.079547
O O13 0.355363 0.687046 0.278759
O O14 0.338136 0.848809 0.124615
O O15 0.566726 0.608676 0.021091
O O16 0.904589 0.032593 0.778170
O O17 0.000000 0.000000 0.000000
#
# Coordination Sequence:
#
# PCOD9052691 Si02
#       8
#     2   2   2   2   2   2   2   2
#     4   9  18  31  58  85 115 150 195 235 274 340
#     4  11  22  40  59  86 123 152 187 243 298 353
#     4   9  17  34  54  85 113 151 200 232 279 334
#     4  10  21  38  61  83 110 156 199 242 282 349
#     4   9  18  31  57  87 112 153 190 238 278 348
#     4  10  17  35  57  87 115 152 203 237 279 331
#     4  11  24  41  64  86 110 151 206 243 281 345
#     4  11  22  37  59  90 119 153 187 239 307 343
#
# _framework density 21.090214
#
# number of rings (size 3 to 8) (size 9 to 14) (size 15 to 20)
#    0.000    2.000    3.750    1.875    1.750    2.000 
#    0.000    1.875    0.000    1.500    0.000    0.000 
#    0.000    0.000    0.000    0.000    0.000    0.000 
#
# Total GULP energy -89137.533962 kJ/mol
# GULP energy per Si atom -5571.095873 kJ/mol
# Density = 2.104221 g / cm^3
# Si number density = 21.090214 Si / 1000 Ang^3
#
#
#
# Elastic Constant Matrix: (Units=GPa)
#
#
# Indices 1 2 3 4 5 6 
#
# 1 115.5665 52.5238 22.9297 -15.4418 28.9434 3.8850
# 2 52.5238 166.9961 30.4749 -15.2906 14.9189 21.7894
# 3 22.9297 30.4749 57.1437 -12.2094 18.5070 -1.1440
# 4 -15.4418 -15.2906 -12.2094 12.4973 0.5473 -2.3127
# 5 28.9434 14.9189 18.5070 0.5473 28.8496 -7.6126
# 6 3.8850 21.7894 -1.1440 -2.3127 -7.6126 33.5778
#
#
#
# Elastic Compliance Matrix: (Units=1/GPa)
#
#
# Indices 1 2 3 4 5 6 
#
# 1 0.017318 -0.001795 0.006693 0.026000 -0.022253 -0.003865
# 2 -0.001795 0.008359 -0.001720 0.005427 -0.002993 -0.005580
# 3 0.006693 -0.001720 0.033429 0.039656 -0.028623 -0.002277
# 4 0.026000 0.005427 0.039656 0.158700 -0.059375 -0.007709
# 5 -0.022253 -0.002993 -0.028623 -0.059375 0.082834 0.018232
# 6 -0.003865 -0.005580 -0.002277 -0.007709 0.018232 0.037375
#
#
# Mechanical properties :
#
#
# Convention : Reuss Voigt Hill
#
# Bulk Modulus (GPa) = 15.27626 61.28478 38.28052
# Shear Modulus (GPa) = 14.14504 30.57014 22.35759
#
# Velocity S-wave (km/s) = 2.59258 3.81135 3.25944
# Velocity P-wave (km/s) = 4.02753 6.96348 5.68819
#
# Compressibility (1/GPa) = 0.06546106
#
# Stress axis : x y z
#
# Youngs Moduli (GPa) = 57.74274 119.62838 29.91419
#
# Poissons Ratio (x) = 0.21479 -0.20022
# Poissons Ratio (y) = 0.10367 0.05146
# Poissons Ratio (z) = -0.38648 0.20580
#
# Static dielectric constant tensor:
#      x y z
#    x 1.782130 -0.017980 -0.032600 
#    y -0.017980 1.844180 0.059470 
#    z -0.032600 0.059470 1.806230 
# 
# From -- ./inp_files/245055.got.cif
#   From: 2010.05.17/outbox.cif.g08.bks.cpg/sg2_123_cif.got.tgz:245055.got - 2010.06.03 11:33:40.
