data_PCOD9052852
_publ_section_title
;
Structure prediction by ZEFSAII (Michael W. Deem and Ramdas Pophale) SiO2 
 PCOD9052852
Probable space group: P -1
;
_chemical_formula_sum "Si O2"
_cell_formula_units_Z 16
_cell_length_a 12.287442
_cell_length_b 12.047683
_cell_length_c 12.027229
_cell_angle_alpha 66.010438
_cell_angle_beta 87.149410
_cell_angle_gamma 144.249547
_cell_volume 667.999153
_symmetry_space_group_name_H-M "P -1"
_symmetry_group_IT_number 2
_symmetry_cell_setting 'triclinic'
loop_
_space_group_symop_operation_xyz
x,y,z
-x,-y,-z
loop_
_atom_site_type_symbol
_atom_site_label
_atom_site_fract_x
_atom_site_fract_y
_atom_site_fract_z
Si Si1 0.428382 0.643060 0.833661
Si Si2 0.242206 0.347929 0.750872
Si Si3 0.310568 0.816330 0.193284
Si Si4 0.290783 0.020464 0.624148
Si Si5 0.443722 0.286419 0.729792
Si Si6 0.739045 0.261664 0.181370
Si Si7 0.296626 0.076059 0.072569
Si Si8 0.010827 0.260262 0.448654
O O1 0.281881 0.397184 0.862985
O O2 0.277853 0.616917 0.829630
O O3 0.471752 0.666636 0.953223
O O4 0.732828 0.965389 0.645611
O O5 0.437576 0.649072 0.570547
O O6 0.349795 0.328885 0.712338
O O7 0.947298 0.080606 0.839607
O O8 0.193494 0.832790 0.191540
O O9 0.116214 0.505407 0.340565
O O10 0.494707 0.997663 0.217947
O O11 0.500000 0.000000 0.000000
O O12 0.285641 0.050568 0.741111
O O13 0.279381 0.863673 0.677007
O O14 0.059172 0.841984 0.634072
O O15 0.757974 0.587017 0.574438
O O16 0.395951 0.188323 0.895800
O O17 0.000000 0.500000 0.000000
#
# Coordination Sequence:
#
# PCOD9052852 Si02
#       8
#     2   2   2   2   2   2   2   2
#     4  10  27  43  66 106 131 177 222 279 343 393
#     4  11  27  45  68  97 139 181 226 276 328 403
#     4  11  21  40  66 101 132 174 216 275 340 394
#     4  11  25  42  69 101 129 184 220 278 336 392
#     4  12  25  46  68  99 134 184 230 271 332 396
#     4  11  24  40  69 101 140 170 220 278 337 409
#     4  11  25  42  68  97 137 174 225 279 335 392
#     4  11  24  42  69 100 139 173 224 279 334 403
#
# _framework density 23.952127000000001
#
# number of rings (size 3 to 8) (size 9 to 14) (size 15 to 20)
#    0.000    1.000    2.500    2.250    8.750    5.500 
#    0.000    0.000    0.000    0.000    0.000    0.000 
#    0.000    0.000    0.000    0.000    0.000    0.000 
#
# Total GULP energy -89613.137889 kJ/mol
# GULP energy per Si atom -5600.821118 kJ/mol
# Density = 2.389761 g / cm^3
# Si number density = 23.952127 Si / 1000 Ang^3
#
#
#
# Elastic Constant Matrix: (Units=GPa)
#
#
# Indices 1 2 3 4 5 6 
#
# 1 143.6943 31.2447 23.9036 -12.5388 -28.9583 1.5918
# 2 31.2447 83.2336 -1.6801 23.7361 -6.8169 18.7354
# 3 23.9036 -1.6801 48.9636 4.5745 2.3235 3.0355
# 4 -12.5388 23.7361 4.5745 34.3014 2.5392 0.9243
# 5 -28.9583 -6.8169 2.3235 2.5392 27.3051 0.6883
# 6 1.5918 18.7354 3.0355 0.9243 0.6883 23.5180
#
#
#
# Elastic Compliance Matrix: (Units=1/GPa)
#
#
# Indices 1 2 3 4 5 6 
#
# 1 0.013815 -0.009235 -0.009130 0.011596 0.011874 0.006797
# 2 -0.009235 0.026590 0.008855 -0.022300 -0.001311 -0.020786
# 3 -0.009130 0.008855 0.027299 -0.012233 -0.008424 -0.009233
# 4 0.011596 -0.022300 -0.012233 0.049808 0.002723 0.016522
# 5 0.011874 -0.001311 -0.008424 0.002723 0.049358 -0.000223
# 6 0.006797 -0.020786 -0.009233 0.016522 -0.000223 0.059169
#
#
# Mechanical properties :
#
#
# Convention : Reuss Voigt Hill
#
# Bulk Modulus (GPa) = 20.53964 42.53644 31.53804
# Shear Modulus (GPa) = 19.13609 31.85311 25.49460
#
# Velocity S-wave (km/s) = 2.82960 3.65069 3.26605
# Velocity P-wave (km/s) = 4.38970 5.96385 5.23627
#
# Compressibility (1/GPa) = 0.04868634
#
# Stress axis : x y z
#
# Youngs Moduli (GPa) = 72.38346 37.60748 36.63116
#
# Poissons Ratio (x) = 0.34729 0.33443
# Poissons Ratio (y) = 0.66844 -0.32437
# Poissons Ratio (z) = 0.66083 -0.33301
#
# Static dielectric constant tensor:
#      x y z
#    x 1.874400 -0.014260 0.026480 
#    y -0.014260 1.908760 0.042840 
#    z 0.026480 0.042840 1.951710 
# 
# From -- ./inp_files/278118.got.cif
#   From: 2010.05.17/outbox.cif.g08.bks.cpg/sg2_140_cif.got.tgz:278118.got - 2010.06.03 11:33:40.
