data_PCOD9052450
_publ_section_title
;
Structure prediction by ZEFSAII (Michael W. Deem and Ramdas Pophale) SiO2 
 PCOD9052450
Probable space group: P -1
;
_chemical_formula_sum "Si O2"
_cell_formula_units_Z 13
_cell_length_a 9.526037
_cell_length_b 9.249993
_cell_length_c 12.622932
_cell_angle_alpha 145.825579
_cell_angle_beta 55.856494
_cell_angle_gamma 116.778855
_cell_volume 516.863845
_symmetry_space_group_name_H-M "P -1"
_symmetry_group_IT_number 2
_symmetry_cell_setting 'triclinic'
loop_
_space_group_symop_operation_xyz
x,y,z
-x,-y,-z
loop_
_atom_site_type_symbol
_atom_site_label
_atom_site_fract_x
_atom_site_fract_y
_atom_site_fract_z
Si Si1 0.064020 0.953605 0.280327
Si Si2 0.314474 0.259382 0.107154
Si Si3 0.257419 0.162100 0.511503
Si Si4 0.000000 0.000000 0.000000
Si Si5 0.354597 0.586440 0.864101
Si Si6 0.427647 0.192128 0.786557
Si Si7 0.830341 0.266449 0.408936
O O1 0.914887 0.845837 0.351576
O O2 0.194418 0.115909 0.392314
O O3 0.174067 0.723194 0.043203
O O4 0.968189 0.129472 0.343429
O O5 0.497574 0.214566 0.055993
O O6 0.237420 0.483563 0.350471
O O7 0.180513 0.039801 0.012191
O O8 0.356517 0.326717 0.006096
O O9 0.349729 0.424324 0.659881
O O10 0.382725 0.922222 0.345744
O O11 0.918508 0.259285 0.252414
O O12 0.392156 0.371171 0.809244
O O13 0.316861 0.940260 0.663830
#
# Coordination Sequence:
#
# PCOD9052450 Si02
#       7
#     2   2   2   1   2   2   2
#     4  11  25  36  59  99 141 166 198 252 317 381
#     4  11  23  40  69  90 122 164 219 265 309 366
#     4  11  22  37  57  95 141 170 200 240 311 387
#     4  10  26  46  70  90 112 162 238 266 310 362
#     4  12  22  37  63  98 136 170 202 252 312 385
#     4  11  22  37  63  98 130 171 211 241 311 394
#     4  11  23  44  67  91 124 166 213 269 310 370
#
# _framework density 25.151689999999999
#
# number of rings (size 3 to 8) (size 9 to 14) (size 15 to 20)
#    0.000    0.923    4.615    2.769    4.308    1.231 
#    0.000    0.769    0.000    2.769    0.000    0.000 
#    0.000    0.000    0.000    0.000    0.000    0.000 
#
# Total GULP energy -72468.332331 kJ/mol
# GULP energy per Si atom -5574.487102 kJ/mol
# Density = 2.509444 g / cm^3
# Si number density = 25.151690 Si / 1000 Ang^3
#
#
#
# Elastic Constant Matrix: (Units=GPa)
#
#
# Indices 1 2 3 4 5 6 
#
# 1 606.4463 -809.5937 447.4541 653.6312 41.0694 1530.9393
# 2 -809.5937 1442.7133 -666.8929-1097.0412 -51.8113-2534.6419
# 3 447.4541 -666.8929 517.5954 511.7598 35.8386 1224.7835
# 4 653.6312-1097.0412 511.7598 877.0400 55.5838 1994.5049
# 5 41.0694 -51.8113 35.8386 55.5838 68.7247 112.0660
# 6 1530.9393-2534.6419 1224.7835 1994.5049 112.0660 4653.5912
#
#
#
# Elastic Compliance Matrix: (Units=1/GPa)
#
#
# Indices 1 2 3 4 5 6 
#
# 1 0.012203 -0.005399 -0.003015 -0.003223 0.000636 -0.004795
# 2 -0.005399 0.020894 0.002166 0.012167 -0.004176 0.007472
# 3 -0.003015 0.002166 0.006171 0.004790 -0.001252 -0.001475
# 4 -0.003223 0.012167 0.004790 0.056229 -0.008388 -0.017471
# 5 0.000636 -0.004176 -0.001252 -0.008388 0.016768 0.001037
# 6 -0.004795 0.007472 -0.001475 -0.017471 0.001037 0.013713
#
#
# Mechanical properties :
#
#
# Convention : Reuss Voigt Hill
#
# Bulk Modulus (GPa) = 37.35229 56.52112 46.93671
# Shear Modulus (GPa) = 33.92174 1359.59034 696.75604
#
# Velocity S-wave (km/s) = 3.67643 23.27509 16.66202
# Velocity P-wave (km/s) = 5.73625 27.29152 19.71968
#
# Compressibility (1/GPa) = 0.02677212
#
# Stress axis : x y z
#
# Youngs Moduli (GPa) = 81.95008 47.86082 162.04542
#
# Poissons Ratio (x) = 0.25839 0.48862
# Poissons Ratio (y) = 0.44243 -0.35105
# Poissons Ratio (z) = 0.24711 -0.10368
#
# Static dielectric constant tensor:
#      x y z
#    x 1.970200 0.009730 0.016520 
#    y 0.009730 2.166780 -0.017730 
#    z 0.016520 -0.017730 1.982540 
# 
# From -- ./inp_files/168340.got.cif
#   From: 2010.05.17/outbox.cif.g08.bks.cpg/sg2_85_cif.got.tgz:168340.got - 2010.06.03 11:33:40.
