data_PCOD9052907
_publ_section_title
;
Structure prediction by ZEFSAII (Michael W. Deem and Ramdas Pophale) SiO2 
 PCOD9052907
Probable space group: P -1
;
_chemical_formula_sum "Si O2"
_cell_formula_units_Z 15
_cell_length_a 13.453239
_cell_length_b 5.536548
_cell_length_c 21.984458
_cell_angle_alpha 73.654067
_cell_angle_beta 156.860882
_cell_angle_gamma 108.659125
_cell_volume 609.300302
_symmetry_space_group_name_H-M "P -1"
_symmetry_group_IT_number 2
_symmetry_cell_setting 'triclinic'
loop_
_space_group_symop_operation_xyz
x,y,z
-x,-y,-z
loop_
_atom_site_type_symbol
_atom_site_label
_atom_site_fract_x
_atom_site_fract_y
_atom_site_fract_z
Si Si1 0.078656 0.030889 0.677738
Si Si2 0.000000 0.000000 0.000000
Si Si3 0.828351 0.052228 0.025673
Si Si4 0.385414 0.280059 0.717471
Si Si5 0.711507 0.748439 0.095676
Si Si6 0.406249 0.864774 0.654032
Si Si7 0.338818 0.216755 0.373307
Si Si8 0.835939 0.538755 0.619935
O O1 0.214206 0.174602 0.686139
O O2 0.246332 0.101124 0.827743
O O3 0.793426 0.107028 0.514633
O O4 0.008791 0.725294 0.657643
O O5 0.709086 0.949168 0.808181
O O6 0.867207 0.898607 0.997664
O O7 0.663501 0.902364 0.997354
O O8 0.100792 0.149257 0.200666
O O9 0.682055 0.275348 0.903215
O O10 0.353152 0.566422 0.663250
O O11 0.336385 0.065383 0.651976
O O12 0.988514 0.664901 0.247418
O O13 0.500000 0.500000 0.000000
O O14 0.551073 0.428770 0.446377
O O15 0.219754 0.315666 0.360335
O O16 0.500000 0.000000 0.500000
#
# Coordination Sequence:
#
# PCOD9052907 Si02
#       8
#     2   1   2   2   2   2   2   2
#     4  12  27  46  78 113 149 204 258 322 393 458
#     4  10  28  44  78 106 150 208 252 316 382 462
#     4  11  25  49  73 110 155 192 264 312 399 459
#     4  11  28  50  78 110 156 211 259 324 382 470
#     4  12  28  46  77 113 155 198 254 328 390 471
#     4  11  28  52  76 114 153 207 266 319 388 466
#     4  11  23  45  70 109 152 195 247 321 386 470
#     4  11  25  41  74 112 145 198 245 314 404 456
#
# _framework density 24.618402
#
# number of rings (size 3 to 8) (size 9 to 14) (size 15 to 20)
#    0.000    0.800    2.667    1.600   13.067    4.267 
#    0.000    0.000    0.000    0.000    0.000    0.000 
#    0.000    0.000    0.000    0.000    0.000    0.000 
#
# Total GULP energy -83674.401007 kJ/mol
# GULP energy per Si atom -5578.293400 kJ/mol
# Density = 2.456237 g / cm^3
# Si number density = 24.618402 Si / 1000 Ang^3
#
#
#
# Elastic Constant Matrix: (Units=GPa)
#
#
# Indices 1 2 3 4 5 6 
#
# 1 124.3165 24.9333 4.7084 8.3031 -3.9878 0.2734
# 2 24.9333 89.9900 27.2741 2.8046 -7.0981 -3.8924
# 3 4.7084 27.2741 136.5064 13.8963 -14.4700 7.0168
# 4 8.3031 2.8046 13.8963 48.7053 4.9940 7.1024
# 5 -3.9878 -7.0981 -14.4700 4.9940 32.0454 -0.9994
# 6 0.2734 -3.8924 7.0168 7.1024 -0.9994 21.6015
#
#
#
# Elastic Compliance Matrix: (Units=1/GPa)
#
#
# Indices 1 2 3 4 5 6 
#
# 1 0.008646 -0.002413 0.000452 -0.001545 0.000982 -0.000138
# 2 -0.002413 0.012798 -0.002449 -0.000268 0.001573 0.003293
# 3 0.000452 -0.002449 0.008553 -0.002425 0.003683 -0.002258
# 4 -0.001545 -0.000268 -0.002425 0.023061 -0.005161 -0.007062
# 5 0.000982 0.001573 0.003683 -0.005161 0.034217 0.002354
# 6 -0.000138 0.003293 -0.002258 -0.007062 0.002354 0.050052
#
#
# Mechanical properties :
#
#
# Convention : Reuss Voigt Hill
#
# Bulk Modulus (GPa) = 47.22046 51.62717 49.42381
# Shear Modulus (GPa) = 32.63585 40.06358 36.34972
#
# Velocity S-wave (km/s) = 3.64492 4.03846 3.84673
# Velocity P-wave (km/s) = 6.07755 6.53927 6.31263
#
# Compressibility (1/GPa) = 0.02117726
#
# Stress axis : x y z
#
# Youngs Moduli (GPa) = 115.66361 78.13702 116.92229
#
# Poissons Ratio (x) = 0.18854 -0.05289
# Poissons Ratio (y) = 0.27909 0.28635
# Poissons Ratio (z) = -0.05232 0.19136
#
# Static dielectric constant tensor:
#      x y z
#    x 1.977340 -0.046190 0.001850 
#    y -0.046190 1.973420 0.003520 
#    z 0.001850 0.003520 1.948280 
# 
# From -- ./inp_files/611231.got.cif
#   From: 2010.05.17/outbox.cif.g08.bks.cpg/sg2_306_cif.got.tgz:611231.got - 2010.06.03 11:33:40.
