data_PCOD9052262
_publ_section_title
;
Structure prediction by ZEFSAII (Michael W. Deem and Ramdas Pophale) SiO2 
 PCOD9052262
Probable space group: P -1
;
_chemical_formula_sum "Si O2"
_cell_formula_units_Z 16
_cell_length_a 16.126294
_cell_length_b 11.950872
_cell_length_c 18.970897
_cell_angle_alpha 150.743593
_cell_angle_beta 152.466472
_cell_angle_gamma 48.645946
_cell_volume 715.413349
_symmetry_space_group_name_H-M "P -1"
_symmetry_group_IT_number 2
_symmetry_cell_setting 'triclinic'
loop_
_space_group_symop_operation_xyz
x,y,z
-x,-y,-z
loop_
_atom_site_type_symbol
_atom_site_label
_atom_site_fract_x
_atom_site_fract_y
_atom_site_fract_z
Si Si1 0.914124 0.121132 0.761978
Si Si2 0.737020 0.183280 0.806144
Si Si3 0.998685 0.269385 0.635834
Si Si4 0.053491 0.491290 0.414280
Si Si5 0.689923 0.366596 0.684763
Si Si6 0.354411 0.644228 0.519191
Si Si7 0.719977 0.745313 0.635387
Si Si8 0.807539 0.123894 0.143798
O O1 0.881289 0.195525 0.856920
O O2 0.711788 0.104984 0.565042
O O3 0.993696 0.914987 0.713962
O O4 0.098111 0.365784 0.993956
O O5 0.500000 0.000000 0.500000
O O6 0.794587 0.047899 0.839825
O O7 0.802688 0.476904 0.040702
O O8 0.988270 0.349188 0.590635
O O9 0.797716 0.250376 0.512487
O O10 0.000000 0.000000 0.500000
O O11 0.182185 0.366917 0.407652
O O12 0.185043 0.688296 0.684787
O O13 0.851329 0.265103 0.178177
O O14 0.644353 0.383263 0.578262
O O15 0.525632 0.369080 0.614987
O O16 0.263747 0.362946 0.335878
O O17 0.589967 0.853449 0.833524
#
# Coordination Sequence:
#
# PCOD9052262 Si02
#       8
#     2   2   2   2   2   2   2   2
#     4  11  23  41  68  97 150 182 232 293 351 420
#     4  12  25  44  72 109 142 185 241 300 355 412
#     4  11  28  49  70 101 149 193 236 292 356 436
#     4  10  26  44  69 101 141 190 239 295 358 417
#     4  11  23  40  65 104 134 186 232 291 355 412
#     4  11  25  43  70 103 139 190 234 292 356 421
#     4  11  23  41  69 102 137 177 238 295 344 421
#     4  11  24  45  69 102 142 190 237 291 356 430
#
# _framework density 22.364695999999999
#
# number of rings (size 3 to 8) (size 9 to 14) (size 15 to 20)
#    0.000    1.000    5.000    0.375    3.500    6.000 
#    0.000    0.625    0.000    0.000    0.000    0.000 
#    0.000    0.000    0.000    0.000    0.000    0.000 
#
# Total GULP energy -89315.674902 kJ/mol
# GULP energy per Si atom -5582.229681 kJ/mol
# Density = 2.231379 g / cm^3
# Si number density = 22.364696 Si / 1000 Ang^3
#
#
#
# Elastic Constant Matrix: (Units=GPa)
#
#
# Indices 1 2 3 4 5 6 
#
# 1 122.8040 49.0324 40.7125 -0.2266 6.7575 9.2547
# 2 49.0324 162.2025 46.3323 20.3503 -2.5123 3.2184
# 3 40.7125 46.3323 98.5327 6.3226 9.3241 -1.5320
# 4 -0.2266 20.3503 6.3226 32.0386 -1.1727 7.1503
# 5 6.7575 -2.5123 9.3241 -1.1727 29.3673 -0.4423
# 6 9.2547 3.2184 -1.5320 7.1503 -0.4423 38.0113
#
#
#
# Elastic Compliance Matrix: (Units=1/GPa)
#
#
# Indices 1 2 3 4 5 6 
#
# 1 0.010582 -0.002614 -0.003236 0.003002 -0.001558 -0.003068
# 2 -0.002614 0.008360 -0.002714 -0.004890 0.001995 0.000762
# 3 -0.003236 -0.002714 0.013235 -0.001444 -0.003720 0.001779
# 4 0.003002 -0.004890 -0.001444 0.036254 0.000689 -0.007187
# 5 -0.001558 0.001995 -0.003720 0.000689 0.035794 0.000347
# 6 -0.003068 0.000762 0.001779 -0.007187 0.000347 0.028418
#
#
# Mechanical properties :
#
#
# Convention : Reuss Voigt Hill
#
# Bulk Modulus (GPa) = 66.45393 72.85484 69.65439
# Shear Modulus (GPa) = 32.30227 36.38090 34.34158
#
# Velocity S-wave (km/s) = 3.80457 4.03763 3.92283
# Velocity P-wave (km/s) = 7.00557 7.37449 7.19239
#
# Compressibility (1/GPa) = 0.01504802
#
# Stress axis : x y z
#
# Youngs Moduli (GPa) = 94.49803 119.61776 75.56002
#
# Poissons Ratio (x) = 0.31273 0.24451
# Poissons Ratio (y) = 0.24706 0.20506
# Poissons Ratio (z) = 0.30580 0.32463
#
# Static dielectric constant tensor:
#      x y z
#    x 1.806460 0.022070 0.033160 
#    y 0.022070 1.941420 -0.042160 
#    z 0.033160 -0.042160 1.870110 
# 
# From -- ./inp_files/403421.got.cif
#   From: 2010.05.17/outbox.cif.g08.bks.cpg/sg2_202_cif.got.tgz:403421.got - 2010.06.03 11:33:40.
