data_PCOD9052337
_publ_section_title
;
Structure prediction by ZEFSAII (Michael W. Deem and Ramdas Pophale) SiO2 
 PCOD9052337
Probable space group: P -1
;
_chemical_formula_sum "Si O2"
_cell_formula_units_Z 15
_cell_length_a 13.934393
_cell_length_b 9.295245
_cell_length_c 5.684536
_cell_angle_alpha 108.930215
_cell_angle_beta 72.122604
_cell_angle_gamma 118.072077
_cell_volume 603.930201
_symmetry_space_group_name_H-M "P -1"
_symmetry_group_IT_number 2
_symmetry_cell_setting 'triclinic'
loop_
_space_group_symop_operation_xyz
x,y,z
-x,-y,-z
loop_
_atom_site_type_symbol
_atom_site_label
_atom_site_fract_x
_atom_site_fract_y
_atom_site_fract_z
Si Si1 0.191858 0.057979 0.010630
Si Si2 0.883005 0.488375 0.184822
Si Si3 0.558227 0.999982 0.703387
Si Si4 0.737679 0.597746 0.074087
Si Si5 0.366522 0.269540 0.372751
Si Si6 0.212430 0.809068 0.526958
Si Si7 0.026393 0.841703 0.351838
Si Si8 0.500000 0.500000 0.000000
O O1 0.270106 0.133219 0.215723
O O2 0.083891 0.896973 0.083782
O O3 0.180980 0.217541 0.988214
O O4 0.248202 0.976163 0.748003
O O5 0.801826 0.484564 0.031574
O O6 0.829507 0.348628 0.349044
O O7 0.917756 0.673398 0.360564
O O8 0.000000 0.500000 0.000000
O O9 0.677770 0.156162 0.686026
O O10 0.500000 0.000000 0.500000
O O11 0.576091 0.830388 0.584208
O O12 0.500000 0.000000 0.000000
O O13 0.686617 0.639632 0.370957
O O14 0.633066 0.524698 0.942316
O O15 0.463482 0.390403 0.202175
O O16 0.114299 0.813843 0.440748
O O17 0.000000 0.000000 0.500000
#
# Coordination Sequence:
#
# PCOD9052337 Si02
#       8
#     2   2   2   2   2   2   2   1
#     4  11  21  45  77 103 149 204 263 326 394 484
#     4  12  28  48  74 116 162 207 264 336 418 475
#     4  12  28  46  79 116 158 211 267 337 424 493
#     4  11  25  48  75 107 150 208 264 329 403 491
#     4  11  23  47  73 110 145 202 274 325 405 487
#     4  12  26  49  74 111 161 203 264 337 403 494
#     4  12  26  47  78 110 147 211 268 325 400 491
#     4  10  26  44  78 104 150 196 270 340 394 472
#
# _framework density 24.837306000000002
#
# number of rings (size 3 to 8) (size 9 to 14) (size 15 to 20)
#    0.000    0.533    4.000    3.200    5.600    2.133 
#    4.800    0.000    0.000    0.000    0.000    0.000 
#    0.000    0.000    0.000    0.000    0.000    0.000 
#
# Total GULP energy -83685.799264 kJ/mol
# GULP energy per Si atom -5579.053284 kJ/mol
# Density = 2.478078 g / cm^3
# Si number density = 24.837306 Si / 1000 Ang^3
#
#
#
# Elastic Constant Matrix: (Units=GPa)
#
#
# Indices 1 2 3 4 5 6 
#
# 1 176.9752 86.7528 23.9244 -19.6912 10.8539 -15.4934
# 2 86.7528 135.4055 67.1814 -48.0419 8.7446 -36.0638
# 3 23.9244 67.1814 54.7031 -27.3645 -13.8765 3.7331
# 4 -19.6912 -48.0419 -27.3645 56.5143 -0.2544 12.2844
# 5 10.8539 8.7446 -13.8765 -0.2544 35.2889 1.8838
# 6 -15.4934 -36.0638 3.7331 12.2844 1.8838 31.7689
#
#
#
# Elastic Compliance Matrix: (Units=1/GPa)
#
#
# Indices 1 2 3 4 5 6 
#
# 1 0.006481 0.003412 -0.010644 -0.002104 -0.007549 0.009546
# 2 0.003412 -0.030409 0.051233 0.009937 0.029076 -0.044443
# 3 -0.010644 0.051233 -0.051704 0.001529 -0.032967 0.060407
# 4 -0.002104 0.009937 0.001529 0.026139 -0.001027 0.000028
# 5 -0.007549 0.029076 -0.032967 -0.001027 0.008718 0.033079
# 6 0.009546 -0.044443 0.060407 0.000028 0.033079 -0.023389
#
#
# Mechanical properties :
#
#
# Convention : Reuss Voigt Hill
#
# Bulk Modulus (GPa) = 80.84014 80.31125 80.57569
# Shear Modulus (GPa) = -33.77409 37.32943 1.77767
#
# Velocity S-wave (km/s) = -3.69156 3.88101 0.84692
# Velocity P-wave (km/s) = 3.80110 7.24486 5.78517
#
# Compressibility (1/GPa) = 0.01237009
#
# Stress axis : x y z
#
# Youngs Moduli (GPa) = 154.28590 -32.88494 -19.34082
#
# Poissons Ratio (x) = 0.11221 -0.20587
# Poissons Ratio (y) = -0.52645 0.99089
# Poissons Ratio (z) = 1.64227 1.68480
#
# Static dielectric constant tensor:
#      x y z
#    x 2.059910 0.008770 0.016740 
#    y 0.008770 1.964180 0.007420 
#    z 0.016740 0.007420 2.044890 
# 
# From -- ./inp_files/90904.got.cif
#   From: 2010.05.17/outbox.cif.g08.bks.cpg/sg2_46_cif.got.tgz:90904.got - 2010.06.03 11:33:40.
