data_PCOD9052066
_publ_section_title
;
Structure prediction by ZEFSAII (Michael W. Deem and Ramdas Pophale) SiO2 
 PCOD9052066
Probable space group: P -1
;
_chemical_formula_sum "Si O2"
_cell_formula_units_Z 16
_cell_length_a 13.526791
_cell_length_b 6.438261
_cell_length_c 15.402107
_cell_angle_alpha 94.770075
_cell_angle_beta 145.554015
_cell_angle_gamma 72.964433
_cell_volume 693.589773
_symmetry_space_group_name_H-M "P -1"
_symmetry_group_IT_number 2
_symmetry_cell_setting 'triclinic'
loop_
_space_group_symop_operation_xyz
x,y,z
-x,-y,-z
loop_
_atom_site_type_symbol
_atom_site_label
_atom_site_fract_x
_atom_site_fract_y
_atom_site_fract_z
Si Si1 0.902194 0.148664 0.205561
Si Si2 0.080750 0.711081 0.581758
Si Si3 0.784798 0.782276 0.665940
Si Si4 0.268172 0.364666 0.064234
Si Si5 0.480697 0.531212 0.090445
Si Si6 0.566104 0.955614 0.684084
Si Si7 0.894043 0.303169 0.733295
Si Si8 0.196752 0.783840 0.149844
O O1 0.922417 0.255272 0.315083
O O2 0.010895 0.226038 0.211837
O O3 0.026979 0.882105 0.289712
O O4 0.685299 0.211391 0.019058
O O5 0.307232 0.574153 0.719694
O O6 0.000000 0.500000 0.500000
O O7 0.000000 0.000000 0.500000
O O8 0.727603 0.809112 0.726027
O O9 0.775334 0.549713 0.620101
O O10 0.628474 0.978659 0.505098
O O11 0.363177 0.402366 0.046786
O O12 0.426915 0.166844 0.226272
O O13 0.203935 0.572384 0.092728
O O14 0.085548 0.308495 0.914404
O O15 0.500000 0.500000 0.000000
O O16 0.626359 0.163085 0.751626
O O17 0.787461 0.254738 0.736550
O O18 0.000000 0.000000 0.000000
#
# Coordination Sequence:
#
# PCOD9052066 Si02
#       8
#     2   2   2   2   2   2   2   2
#     4  11  25  47  74 102 145 199 239 312 386 454
#     4  11  29  54  82 116 148 191 258 328 386 459
#     4  11  24  43  63 100 147 195 245 301 374 452
#     4  12  24  40  69 102 134 192 243 302 369 437
#     4  10  25  50  75 106 141 189 251 310 382 458
#     4  11  25  40  64 100 149 195 244 307 366 447
#     4  12  23  40  71 100 142 194 246 297 374 459
#     4  12  22  38  63 100 141 183 241 299 354 442
#
# _framework density 23.068390000000001
#
# number of rings (size 3 to 8) (size 9 to 14) (size 15 to 20)
#    0.000    0.750    5.000    1.875    3.500    3.500 
#    0.000    3.125    0.000    0.000    0.000    0.000 
#    0.000    0.000    0.000    0.000    0.000    0.000 
#
# Total GULP energy -89081.567121 kJ/mol
# GULP energy per Si atom -5567.597945 kJ/mol
# Density = 2.301589 g / cm^3
# Si number density = 23.068390 Si / 1000 Ang^3
#
#
#
# Elastic Constant Matrix: (Units=GPa)
#
#
# Indices 1 2 3 4 5 6 
#
# 1 92.4698 14.9980 32.2370 -10.2564 -3.2782 0.8445
# 2 14.9980 93.1667 27.8106 8.8910 -0.1281 -13.4606
# 3 32.2370 27.8106 99.5760 -4.4038 7.9869 4.9694
# 4 -10.2564 8.8910 -4.4038 29.2128 -5.4274 -8.0694
# 5 -3.2782 -0.1281 7.9869 -5.4274 31.1389 -1.2768
# 6 0.8445 -13.4606 4.9694 -8.0694 -1.2768 31.2011
#
#
#
# Elastic Compliance Matrix: (Units=1/GPa)
#
#
# Indices 1 2 3 4 5 6 
#
# 1 0.013112 -0.001241 -0.003996 0.005359 0.003386 0.001271
# 2 -0.001241 0.013162 -0.003738 -0.003405 0.000512 0.005447
# 3 -0.003996 -0.003738 0.012876 -0.000082 -0.003906 -0.003736
# 4 0.005359 -0.003405 -0.000082 0.041247 0.008146 0.009400
# 5 0.003386 0.000512 -0.003906 0.008146 0.035071 0.004293
# 6 0.001271 0.005447 -0.003736 0.009400 0.004293 0.037568
#
#
# Mechanical properties :
#
#
# Convention : Reuss Voigt Hill
#
# Bulk Modulus (GPa) = 47.17015 48.36708 47.76861
# Shear Modulus (GPa) = 28.08184 32.32169 30.20176
#
# Velocity S-wave (km/s) = 3.49281 3.74722 3.62225
# Velocity P-wave (km/s) = 6.06289 6.30353 6.18438
#
# Compressibility (1/GPa) = 0.02119985
#
# Stress axis : x y z
#
# Youngs Moduli (GPa) = 76.26817 75.97860 77.66159
#
# Poissons Ratio (x) = 0.09429 0.31036
# Poissons Ratio (y) = 0.09465 0.29027
# Poissons Ratio (z) = 0.30479 0.28398
#
# Static dielectric constant tensor:
#      x y z
#    x 1.834110 0.046680 -0.000270 
#    y 0.046680 2.066550 -0.048760 
#    z -0.000270 -0.048760 1.911800 
# 
# From -- ./inp_files/571730.got.cif
#   From: 2010.05.17/outbox.cif.g08.bks.cpg/sg2_286_cif.got.tgz:571730.got - 2010.06.03 11:33:40.
