data_PCOD9052883
_publ_section_title
;
Structure prediction by ZEFSAII (Michael W. Deem and Ramdas Pophale) SiO2 
 PCOD9052883
Probable space group: P -1
;
_chemical_formula_sum "Si O2"
_cell_formula_units_Z 16
_cell_length_a 12.525856
_cell_length_b 8.483903
_cell_length_c 9.112420
_cell_angle_alpha 122.923132
_cell_angle_beta 122.176072
_cell_angle_gamma 72.041578
_cell_volume 687.758752
_symmetry_space_group_name_H-M "P -1"
_symmetry_group_IT_number 2
_symmetry_cell_setting 'triclinic'
loop_
_space_group_symop_operation_xyz
x,y,z
-x,-y,-z
loop_
_atom_site_type_symbol
_atom_site_label
_atom_site_fract_x
_atom_site_fract_y
_atom_site_fract_z
Si Si1 0.336294 0.555908 0.243391
Si Si2 0.868317 0.741868 0.114404
Si Si3 0.397547 0.607546 0.633143
Si Si4 0.375056 0.924864 0.294735
Si Si5 0.637785 0.036843 0.044787
Si Si6 0.899562 0.535464 0.314512
Si Si7 0.997848 0.785860 0.937933
Si Si8 0.756000 0.720034 0.547144
O O1 0.351277 0.658373 0.462340
O O2 0.451659 0.402497 0.249910
O O3 0.358754 0.708736 0.212542
O O4 0.209369 0.442889 0.080022
O O5 0.928488 0.689312 0.288986
O O6 0.758161 0.904923 0.113561
O O7 0.975622 0.775992 0.089929
O O8 0.337021 0.751573 0.776302
O O9 0.356147 0.395185 0.523688
O O10 0.500000 0.000000 0.500000
O O11 0.268782 0.058077 0.360415
O O12 0.373929 0.966577 0.141627
O O13 0.500000 0.000000 0.000000
O O14 0.781773 0.627208 0.361618
O O15 0.000000 0.500000 0.500000
O O16 0.893352 0.337534 0.124759
O O17 0.873072 0.695303 0.730682
O O18 0.000000 0.000000 0.000000
#
# Coordination Sequence:
#
# PCOD9052883 Si02
#       8
#     2   2   2   2   2   2   2   2
#     4  11  24  41  70 105 145 195 227 280 366 434
#     4  12  25  47  76 103 143 192 234 299 370 423
#     4  11  23  43  67 103 154 187 228 285 352 443
#     4  12  25  42  69 105 151 193 235 284 346 439
#     4  12  26  42  69 110 150 189 240 280 349 448
#     4  10  27  49  72 101 137 184 247 312 355 415
#     4  11  25  50  74  98 134 186 252 307 357 417
#     4  11  24  46  70 100 146 187 231 295 365 415
#
# _framework density 23.263973
#
# number of rings (size 3 to 8) (size 9 to 14) (size 15 to 20)
#    0.000    0.750    5.000    1.125    8.750    0.500 
#    0.000    2.500    0.000    0.000    0.000    0.000 
#    0.000    0.000    0.000    0.000    0.000    0.000 
#
# Total GULP energy -89414.877404 kJ/mol
# GULP energy per Si atom -5588.429838 kJ/mol
# Density = 2.321102 g / cm^3
# Si number density = 23.263973 Si / 1000 Ang^3
#
#
#
# Elastic Constant Matrix: (Units=GPa)
#
#
# Indices 1 2 3 4 5 6 
#
# 1 82.4420 34.5837 35.3264 -5.6867 -31.5592 7.9096
# 2 34.5837 124.2252 57.5669 -9.2864 -32.7397 3.6084
# 3 35.3264 57.5669 80.2011 -13.4504 -16.6657 -8.3199
# 4 -5.6867 -9.2864 -13.4504 42.3016 -2.2300 -8.2116
# 5 -31.5592 -32.7397 -16.6657 -2.2300 45.4065 4.2353
# 6 7.9096 3.6084 -8.3199 -8.2116 4.2353 43.1211
#
#
#
# Elastic Compliance Matrix: (Units=1/GPa)
#
#
# Indices 1 2 3 4 5 6 
#
# 1 0.020689 0.001813 -0.008400 -0.000132 0.013240 -0.006893
# 2 0.001813 0.014479 -0.009899 -0.000115 0.008463 -0.004307
# 3 -0.008400 -0.009899 0.024181 0.005811 -0.004617 0.008595
# 4 -0.000132 -0.000115 0.005811 0.026749 0.002714 0.005982
# 5 0.013240 0.008463 -0.004617 0.002714 0.036428 -0.007089
# 6 -0.006893 -0.004307 0.008595 0.005982 -0.007089 0.028309
#
#
# Mechanical properties :
#
#
# Convention : Reuss Voigt Hill
#
# Bulk Modulus (GPa) = 37.91212 60.20246 49.05729
# Shear Modulus (GPa) = 25.96044 36.79193 31.37619
#
# Velocity S-wave (km/s) = 3.34414 3.98112 3.67645
# Velocity P-wave (km/s) = 5.58954 6.86051 6.25738
#
# Compressibility (1/GPa) = 0.02637679
#
# Stress axis : x y z
#
# Youngs Moduli (GPa) = 48.33379 69.06320 41.35503
#
# Poissons Ratio (x) = -0.12519 0.34739
# Poissons Ratio (y) = -0.08761 0.40938
# Poissons Ratio (z) = 0.40601 0.68366
#
# Static dielectric constant tensor:
#      x y z
#    x 1.928050 -0.061670 0.033030 
#    y -0.061670 1.922420 -0.046740 
#    z 0.033030 -0.046740 1.904330 
# 
# From -- ./inp_files/188206.got.cif
#   From: 2010.05.17/outbox.cif.g08.bks.cpg/sg2_95_cif.got.tgz:188206.got - 2010.06.03 11:33:40.
