data_PCOD9052683
_publ_section_title
;
Structure prediction by ZEFSAII (Michael W. Deem and Ramdas Pophale) SiO2 
 PCOD9052683
Probable space group: P -1
;
_chemical_formula_sum "Si O2"
_cell_formula_units_Z 12
_cell_length_a 12.310037
_cell_length_b 9.454825
_cell_length_c 10.383764
_cell_angle_alpha 113.466236
_cell_angle_beta 37.027498
_cell_angle_gamma 87.290353
_cell_volume 500.903007
_symmetry_space_group_name_H-M "P -1"
_symmetry_group_IT_number 2
_symmetry_cell_setting 'triclinic'
loop_
_space_group_symop_operation_xyz
x,y,z
-x,-y,-z
loop_
_atom_site_type_symbol
_atom_site_label
_atom_site_fract_x
_atom_site_fract_y
_atom_site_fract_z
Si Si1 0.001586 0.141213 0.726768
Si Si2 0.294456 0.709710 0.341979
Si Si3 0.931479 0.660272 0.735475
Si Si4 0.663200 0.609878 0.154569
Si Si5 0.416597 0.719622 0.682773
Si Si6 0.461771 0.075270 0.210368
O O1 0.218889 0.140179 0.520174
O O2 0.135178 0.908166 0.470159
O O3 0.787529 0.368538 0.953267
O O4 0.869262 0.142712 0.978424
O O5 0.442898 0.730498 0.307430
O O6 0.133453 0.675294 0.554092
O O7 0.500000 0.500000 0.000000
O O8 0.000000 0.500000 0.500000
O O9 0.868978 0.605293 0.904229
O O10 0.689215 0.881044 0.000913
O O11 0.543285 0.729436 0.445004
O O12 0.500000 0.500000 0.500000
O O13 0.515559 0.754557 0.726181
O O14 0.500000 0.000000 0.000000
#
# Coordination Sequence:
#
# PCOD9052683 Si02
#       6
#     2   2   2   2   2   2
#     4  11  25  47  75 106 151 198 249 305 382 440
#     4  12  25  46  72 107 150 193 254 305 374 447
#     4  12  24  47  69 113 150 194 254 309 376 444
#     4  11  26  46  74 108 149 195 248 313 369 451
#     4  10  26  48  73 114 150 201 254 300 387 448
#     4  12  26  46  78 111 149 200 252 313 378 446
#
# _framework density 23.956737
#
# number of rings (size 3 to 8) (size 9 to 14) (size 15 to 20)
#    0.000    0.667    5.000    1.000    0.000   14.667 
#    0.000    0.000    0.000    0.000    0.000    0.000 
#    0.000    0.000    0.000    0.000    0.000    0.000 
#
# Total GULP energy -66970.386007 kJ/mol
# GULP energy per Si atom -5580.865501 kJ/mol
# Density = 2.390221 g / cm^3
# Si number density = 23.956737 Si / 1000 Ang^3
#
#
#
# Elastic Constant Matrix: (Units=GPa)
#
#
# Indices 1 2 3 4 5 6 
#
# 1 72.2101 30.4932 43.5011 -9.1679 9.2825 16.9163
# 2 30.4932 138.2360 60.9478 -14.6321 -9.1388 13.6186
# 3 43.5011 60.9478 170.7921 -28.9822 -13.5123 9.0993
# 4 -9.1679 -14.6321 -28.9822 63.0703 9.2410 -13.2220
# 5 9.2825 -9.1388 -13.5123 9.2410 32.0281 2.0053
# 6 16.9163 13.6186 9.0993 -13.2220 2.0053 42.9255
#
#
#
# Elastic Compliance Matrix: (Units=1/GPa)
#
#
# Indices 1 2 3 4 5 6 
#
# 1 0.019992 -0.002351 -0.004545 0.000262 -0.008101 -0.005710
# 2 -0.002351 0.009115 -0.002382 0.000001 0.002375 -0.001571
# 3 -0.004545 -0.002382 0.008480 0.002465 0.003419 0.001349
# 4 0.000262 0.000001 0.002465 0.018866 -0.004818 0.005410
# 5 -0.008101 0.002375 0.003419 -0.004818 0.037175 -0.001507
# 6 -0.005710 -0.001571 0.001349 0.005410 -0.001507 0.027496
#
#
# Mechanical properties :
#
#
# Convention : Reuss Voigt Hill
#
# Bulk Modulus (GPa) = 52.55033 72.34694 62.44864
# Shear Modulus (GPa) = 34.24111 44.02452 39.13282
#
# Velocity S-wave (km/s) = 3.78470 4.29145 4.04602
# Velocity P-wave (km/s) = 6.40950 7.40405 6.92465
#
# Compressibility (1/GPa) = 0.01902938
#
# Stress axis : x y z
#
# Youngs Moduli (GPa) = 50.02091 109.71195 117.92855
#
# Poissons Ratio (x) = 0.25797 0.53600
# Poissons Ratio (y) = 0.11761 0.28090
# Poissons Ratio (z) = 0.22735 0.26133
#
# Static dielectric constant tensor:
#      x y z
#    x 1.908160 -0.024580 0.044170 
#    y -0.024580 1.934440 0.002670 
#    z 0.044170 0.002670 1.932180 
# 
# From -- ./inp_files/446164.got.cif
#   From: 2010.05.17/outbox.cif.g08.bks.cpg/sg2_224_cif.got.tgz:446164.got - 2010.06.03 11:33:40.
