data_PCOD9052161
_publ_section_title
;
Structure prediction by ZEFSAII (Michael W. Deem and Ramdas Pophale) SiO2 
 PCOD9052161
Probable space group: P -1
;
_chemical_formula_sum "Si O2"
_cell_formula_units_Z 13
_cell_length_a 21.950358
_cell_length_b 11.100991
_cell_length_c 22.356252
_cell_angle_alpha 147.532058
_cell_angle_beta 13.086440
_cell_angle_gamma 147.189340
_cell_volume 654.275343
_symmetry_space_group_name_H-M "P -1"
_symmetry_group_IT_number 2
_symmetry_cell_setting 'triclinic'
loop_
_space_group_symop_operation_xyz
x,y,z
-x,-y,-z
loop_
_atom_site_type_symbol
_atom_site_label
_atom_site_fract_x
_atom_site_fract_y
_atom_site_fract_z
Si Si1 0.520528 0.129978 0.845430
Si Si2 0.500000 0.000000 0.500000
Si Si3 0.393770 0.413590 0.970476
Si Si4 0.977140 0.819423 0.258464
Si Si5 0.806241 0.238510 0.421907
Si Si6 0.144138 0.246509 0.787566
Si Si7 0.289522 0.641257 0.656146
O O1 0.411275 0.233001 0.932006
O O2 0.774059 0.001924 0.536419
O O3 0.599426 0.344861 0.903196
O O4 0.280470 0.950076 0.027792
O O5 0.325785 0.840957 0.548084
O O6 0.369402 0.818240 0.600964
O O7 0.645141 0.405350 0.682645
O O8 0.121960 0.340958 0.162025
O O9 0.943588 0.714878 0.179555
O O10 0.880663 0.601559 0.300816
O O11 0.785679 0.007767 0.383493
O O12 0.424888 0.398778 0.603521
O O13 0.903109 0.253610 0.068474
#
# Coordination Sequence:
#
# PCOD9052161 Si02
#       7
#     2   1   2   2   2   2   2
#     4  11  22  36  61  92 123 156 200 232 316 358
#     4  10  26  42  64  88 114 168 208 242 284 366
#     4  11  21  38  60  90 122 159 190 255 289 360
#     4  12  21  37  59  89 126 156 189 254 298 368
#     4  11  21  38  62  86 123 154 205 244 293 339
#     4  11  20  36  57  89 119 158 191 245 303 368
#     4  11  24  38  58  85 123 158 204 241 299 345
#
# _framework density 19.869311
#
# number of rings (size 3 to 8) (size 9 to 14) (size 15 to 20)
#    0.000    0.923    3.077    5.538    0.000    8.000 
#    0.000    0.000    0.000    5.538    0.000    0.000 
#    0.000    0.000    0.000    0.000    0.000    0.000 
#
# Total GULP energy -72403.698221 kJ/mol
# GULP energy per Si atom -5569.515248 kJ/mol
# Density = 1.982409 g / cm^3
# Si number density = 19.869311 Si / 1000 Ang^3
#
#
#
# Elastic Constant Matrix: (Units=GPa)
#
#
# Indices 1 2 3 4 5 6 
#
# 1 77.2368 19.8577 11.7826 6.8932 8.2855 6.8707
# 2 19.8577 59.5132 -4.6194 4.0348 7.1785 -0.2437
# 3 11.7826 -4.6194 63.5188 8.6173 -0.3699 -1.1563
# 4 6.8932 4.0348 8.6173 31.3479 8.2553 4.7633
# 5 8.2855 7.1785 -0.3699 8.2553 3.4905 -12.0596
# 6 6.8707 -0.2437 -1.1563 4.7633 -12.0596 24.1121
#
#
#
# Elastic Compliance Matrix: (Units=1/GPa)
#
#
# Indices 1 2 3 4 5 6 
#
# 1 0.013120 -0.005993 -0.001757 -0.006757 0.016248 0.005578
# 2 -0.005993 0.018708 0.003180 -0.004234 0.005397 0.005585
# 3 -0.001757 0.003180 0.016337 -0.001210 -0.010434 -0.003663
# 4 -0.006757 -0.004234 -0.001210 0.020246 0.042280 0.018971
# 5 0.016248 0.005397 -0.010434 0.042280 -0.122705 -0.074799
# 6 0.005578 0.005585 -0.003663 0.018971 -0.074799 -0.001394
#
#
# Mechanical properties :
#
#
# Convention : Reuss Voigt Hill
#
# Bulk Modulus (GPa) = 25.62410 28.25674 26.94042
# Shear Modulus (GPa) = -149.08178 23.33995 -62.87092
#
# Velocity S-wave (km/s) = -8.67145 3.43107 -5.63124
# Velocity P-wave (km/s) = 9.34529 5.47252 5.35658
#
# Compressibility (1/GPa) = 0.03902576
#
# Stress axis : x y z
#
# Youngs Moduli (GPa) = 76.22011 53.45180 61.21020
#
# Poissons Ratio (x) = 0.32033 0.10753
# Poissons Ratio (y) = 0.45678 -0.19463
# Poissons Ratio (z) = 0.13390 -0.16996
#
# Static dielectric constant tensor:
#      x y z
#    x 1.660160 -0.003750 -0.020350 
#    y -0.003750 1.718760 0.011110 
#    z -0.020350 0.011110 1.722730 
# 
# From -- ./inp_files/61795.got.cif
#   From: 2010.05.17/outbox.cif.g08.bks.cpg/sg2_31_cif.got.tgz:61795.got - 2010.06.03 11:33:40.
