data_PCOD9052686
_publ_section_title
;
Structure prediction by ZEFSAII (Michael W. Deem and Ramdas Pophale) SiO2 
 PCOD9052686
Probable space group: P -1
;
_chemical_formula_sum "Si O2"
_cell_formula_units_Z 15
_cell_length_a 9.580799
_cell_length_b 18.173558
_cell_length_c 9.011250
_cell_angle_alpha 122.606852
_cell_angle_beta 148.989417
_cell_angle_gamma 56.115756
_cell_volume 664.195315
_symmetry_space_group_name_H-M "P -1"
_symmetry_group_IT_number 2
_symmetry_cell_setting 'triclinic'
loop_
_space_group_symop_operation_xyz
x,y,z
-x,-y,-z
loop_
_atom_site_type_symbol
_atom_site_label
_atom_site_fract_x
_atom_site_fract_y
_atom_site_fract_z
Si Si1 0.965812 0.154945 0.317367
Si Si2 0.976616 0.700851 0.693166
Si Si3 0.268041 0.515516 0.181087
Si Si4 0.500000 0.000000 0.000000
Si Si5 0.591008 0.199891 0.287231
Si Si6 0.575902 0.585849 0.084961
Si Si7 0.988598 0.282608 0.919068
Si Si8 0.460687 0.964978 0.258110
O O1 0.766223 0.216346 0.320479
O O2 0.096366 0.214365 0.387705
O O3 0.231461 0.092331 0.568603
O O4 0.771792 0.094191 0.003417
O O5 0.824383 0.622127 0.424825
O O6 0.304936 0.664336 0.934599
O O7 0.917639 0.727482 0.837197
O O8 0.500000 0.500000 0.500000
O O9 0.187141 0.616547 0.155726
O O10 0.350156 0.445650 0.047987
O O11 0.000000 0.500000 0.000000
O O12 0.413088 0.904400 0.830970
O O13 0.606744 0.975929 0.889633
O O14 0.777689 0.221305 0.615505
O O15 0.276791 0.257334 0.063318
O O16 0.500000 0.500000 0.000000
O O17 0.500000 0.000000 0.500000
#
# Coordination Sequence:
#
# PCOD9052686 Si02
#       8
#     2   2   2   1   2   2   2   2
#     4  11  26  47  69 108 140 185 239 299 361 428
#     4  12  27  45  75 100 143 184 239 292 365 426
#     4  12  28  46  71 104 141 188 240 294 360 427
#     4  10  26  48  74 104 146 198 236 292 384 422
#     4  11  26  46  74 104 147 185 240 302 356 440
#     4  12  26  48  70  99 140 189 230 294 353 435
#     4  12  27  45  73 108 139 187 245 296 359 432
#     4  11  25  46  75 106 145 186 248 299 363 449
#
# _framework density 22.58372
#
# number of rings (size 3 to 8) (size 9 to 14) (size 15 to 20)
#    0.000    0.533    1.333    5.600   11.200    4.800 
#    0.000    0.000    0.000    0.000    0.000    0.000 
#    0.000    0.000    0.000    0.000    0.000    0.000 
#
# Total GULP energy -83665.131959 kJ/mol
# GULP energy per Si atom -5577.675464 kJ/mol
# Density = 2.253232 g / cm^3
# Si number density = 22.583720 Si / 1000 Ang^3
#
#
#
# Elastic Constant Matrix: (Units=GPa)
#
#
# Indices 1 2 3 4 5 6 
#
# 1 99.4267 8.1464 28.6016 15.2358 -10.0863 0.6220
# 2 8.1464 30.9265 12.2421 13.4987 0.8301 3.2901
# 3 28.6016 12.2421 122.3115 17.9014 -2.7116 -4.2803
# 4 15.2358 13.4987 17.9014 33.2141 -17.6152 11.2841
# 5 -10.0863 0.8301 -2.7116 -17.6152 40.0619 -2.4294
# 6 0.6220 3.2901 -4.2803 11.2841 -2.4294 40.4802
#
#
#
# Elastic Compliance Matrix: (Units=1/GPa)
#
#
# Indices 1 2 3 4 5 6 
#
# 1 0.011347 -0.000860 -0.002034 -0.003281 0.001335 0.000675
# 2 -0.000860 0.043229 -0.000855 -0.023521 -0.011374 0.002283
# 3 -0.002034 -0.000855 0.009670 -0.006091 -0.002356 0.002680
# 4 -0.003281 -0.023521 -0.006091 0.063382 0.026222 -0.014776
# 5 0.001335 -0.011374 -0.002356 0.026222 0.036633 -0.004456
# 6 0.000675 0.002283 0.002680 -0.014776 -0.004456 0.028642
#
#
# Mechanical properties :
#
#
# Convention : Reuss Voigt Hill
#
# Bulk Modulus (GPa) = 17.62181 38.96055 28.29118
# Shear Modulus (GPa) = 22.79801 36.32956 29.56379
#
# Velocity S-wave (km/s) = 3.18069 4.01516 3.62204
# Velocity P-wave (km/s) = 4.61616 6.22772 5.48148
#
# Compressibility (1/GPa) = 0.05674785
#
# Stress axis : x y z
#
# Youngs Moduli (GPa) = 88.12779 23.13281 103.41138
#
# Poissons Ratio (x) = 0.01989 0.21034
# Poissons Ratio (y) = 0.07576 0.08846
# Poissons Ratio (z) = 0.17926 0.01979
#
# Static dielectric constant tensor:
#      x y z
#    x 1.830020 0.087610 -0.063520 
#    y 0.087610 1.137950 0.117540 
#    z -0.063520 0.117540 1.768010 
# 
# From -- ./inp_files/216903.got.cif
#   From: 2010.05.17/outbox.cif.g08.bks.cpg/sg2_109_cif.got.tgz:216903.got - 2010.06.03 11:33:40.
