data_PCOD9052299
_publ_section_title
;
Structure prediction by ZEFSAII (Michael W. Deem and Ramdas Pophale) SiO2 
 PCOD9052299
Probable space group: P -1
;
_chemical_formula_sum "Si O2"
_cell_formula_units_Z 15
_cell_length_a 5.155071
_cell_length_b 12.614024
_cell_length_c 11.449185
_cell_angle_alpha 122.569009
_cell_angle_beta 98.178789
_cell_angle_gamma 93.984476
_cell_volume 611.443270
_symmetry_space_group_name_H-M "P -1"
_symmetry_group_IT_number 2
_symmetry_cell_setting 'triclinic'
loop_
_space_group_symop_operation_xyz
x,y,z
-x,-y,-z
loop_
_atom_site_type_symbol
_atom_site_label
_atom_site_fract_x
_atom_site_fract_y
_atom_site_fract_z
Si Si1 0.243147 0.899071 0.737541
Si Si2 0.738051 0.395217 0.412134
Si Si3 0.000000 0.000000 0.000000
Si Si4 0.688731 0.261949 0.695488
Si Si5 0.106879 0.129859 0.515890
Si Si6 0.378835 0.492788 0.285050
Si Si7 0.365846 0.857025 0.126821
Si Si8 0.202646 0.221830 0.062405
O O1 0.251168 0.751627 0.665387
O O2 0.986976 0.896314 0.636744
O O3 0.209062 0.961151 0.895502
O O4 0.475320 0.001782 0.752784
O O5 0.619287 0.420245 0.292431
O O6 0.607195 0.426017 0.545716
O O7 0.000000 0.500000 0.500000
O O8 0.775321 0.861764 0.872190
O O9 0.943452 0.234455 0.622800
O O10 0.640775 0.406314 0.757124
O O11 0.716592 0.221988 0.807632
O O12 0.418897 0.174874 0.579860
O O13 0.000000 0.000000 0.500000
O O14 0.164272 0.365234 0.170442
O O15 0.573072 0.787908 0.025285
O O16 0.089898 0.864324 0.044144
#
# Coordination Sequence:
#
# PCOD9052299 Si02
#       8
#     2   2   1   2   2   2   2   2
#     4  11  24  46  78 109 149 192 250 308 380 433
#     4  11  24  47  72 107 144 193 243 314 361 448
#     4  10  26  44  72 106 148 192 244 304 362 446
#     4  12  26  47  73 112 148 191 248 308 373 440
#     4  12  25  44  76 112 148 193 244 311 370 436
#     4  11  27  44  73 106 147 194 250 296 377 438
#     4  11  27  46  73 107 146 191 249 302 371 434
#     4  11  27  47  72 105 146 200 243 302 363 446
#
# _framework density 24.532122999999999
#
# number of rings (size 3 to 8) (size 9 to 14) (size 15 to 20)
#    0.000    0.800    2.667    2.800    7.467    3.200 
#    2.400    0.000    0.000    0.000    0.000    0.000 
#    0.000    0.000    0.000    0.000    0.000    0.000 
#
# Total GULP energy -83662.868928 kJ/mol
# GULP energy per Si atom -5577.524595 kJ/mol
# Density = 2.447629 g / cm^3
# Si number density = 24.532123 Si / 1000 Ang^3
#
#
#
# Elastic Constant Matrix: (Units=GPa)
#
#
# Indices 1 2 3 4 5 6 
#
# 1 72.8486 -8.0975 19.9486 -12.4243 -4.5296 -7.0513
# 2 -8.0975 160.9730 38.7678 18.6144 -10.7650 -13.9139
# 3 19.9486 38.7678 82.4768 8.3817 -8.0895 -5.6491
# 4 -12.4243 18.6144 8.3817 52.8792 -0.6838 -1.3127
# 5 -4.5296 -10.7650 -8.0895 -0.6838 38.5335 -1.7750
# 6 -7.0513 -13.9139 -5.6491 -1.3127 -1.7750 27.6328
#
#
#
# Elastic Compliance Matrix: (Units=1/GPa)
#
#
# Indices 1 2 3 4 5 6 
#
# 1 0.016542 0.002052 -0.004894 0.004076 0.001773 0.004562
# 2 0.002052 0.007805 -0.003568 -0.001583 0.001818 0.003766
# 3 -0.004894 -0.003568 0.015385 -0.002309 0.001621 0.000095
# 4 0.004076 -0.001583 -0.002309 0.020810 -0.000044 0.000757
# 5 0.001773 0.001818 0.001621 -0.000044 0.027166 0.003442
# 6 0.004562 0.003766 0.000095 0.000757 0.003442 0.039525
#
#
# Mechanical properties :
#
#
# Convention : Reuss Voigt Hill
#
# Bulk Modulus (GPa) = 37.15548 46.39293 41.77420
# Shear Modulus (GPa) = 33.55166 41.52106 37.53636
#
# Velocity S-wave (km/s) = 3.70220 4.11849 3.91588
# Velocity P-wave (km/s) = 5.78391 6.44733 6.12461
#
# Compressibility (1/GPa) = 0.02691393
#
# Stress axis : x y z
#
# Youngs Moduli (GPa) = 60.45143 128.12591 64.99639
#
# Poissons Ratio (x) = -0.26294 0.31806
# Poissons Ratio (y) = -0.12406 0.23190
# Poissons Ratio (z) = 0.29582 0.45714
#
# Static dielectric constant tensor:
#      x y z
#    x 2.082080 -0.019440 0.111290 
#    y -0.019440 1.622550 -0.239550 
#    z 0.111290 -0.239550 2.206570 
# 
# From -- ./inp_files/363461.got.cif
#   From: 2010.05.17/outbox.cif.g08.bks.cpg/sg2_182_cif.got.tgz:363461.got - 2010.06.03 11:33:40.
