data_PCOD9052186
_publ_section_title
;
Structure prediction by ZEFSAII (Michael W. Deem and Ramdas Pophale) SiO2 
 PCOD9052186
Probable space group: P -1
;
_chemical_formula_sum "Si O2"
_cell_formula_units_Z 13
_cell_length_a 15.089671
_cell_length_b 8.178415
_cell_length_c 22.600304
_cell_angle_alpha 146.860679
_cell_angle_beta 19.810782
_cell_angle_gamma 146.152169
_cell_volume 502.822502
_symmetry_space_group_name_H-M "P -1"
_symmetry_group_IT_number 2
_symmetry_cell_setting 'triclinic'
loop_
_space_group_symop_operation_xyz
x,y,z
-x,-y,-z
loop_
_atom_site_type_symbol
_atom_site_label
_atom_site_fract_x
_atom_site_fract_y
_atom_site_fract_z
Si Si1 0.201192 0.206590 0.136102
Si Si2 0.754677 0.164436 0.196992
Si Si3 0.292510 0.339189 0.714930
Si Si4 0.514742 0.704083 0.788233
Si Si5 0.851774 0.465599 0.348011
Si Si6 0.000000 0.000000 0.500000
Si Si7 0.294624 0.565157 0.305179
O O1 0.275436 0.463953 0.217966
O O2 0.098048 0.338555 0.181556
O O3 0.949476 0.940087 0.234059
O O4 0.432487 0.025188 0.926310
O O5 0.743681 0.350350 0.200325
O O6 0.805663 0.415404 0.292960
O O7 0.479787 0.906200 0.298566
O O8 0.000000 0.000000 0.000000
O O9 0.310276 0.423637 0.798964
O O10 0.572741 0.284829 0.498104
O O11 0.784534 0.731592 0.589469
O O12 0.550165 0.641749 0.815436
O O13 0.916798 0.814461 0.433883
O O14 0.000000 0.500000 0.500000
#
# Coordination Sequence:
#
# PCOD9052186 Si02
#       7
#     2   2   2   2   2   1   2
#     4  12  25  44  75 105 142 188 241 299 356 427
#     4  12  27  46  73 108 147 189 238 296 361 432
#     4  11  24  45  72 103 144 191 236 287 366 430
#     4  11  25  45  71 101 149 184 243 291 364 420
#     4  11  25  45  70 101 148 186 241 286 367 422
#     4  10  26  42  72  98 138 184 238 294 348 414
#     4  12  27  45  73 108 147 188 240 296 365 425
#
# _framework density 25.854054000000001
#
# number of rings (size 3 to 8) (size 9 to 14) (size 15 to 20)
#    0.000    0.615    0.000    7.385   12.923    0.615 
#    0.000    0.000    0.000    0.000    0.000    0.000 
#    0.000    0.000    0.000    0.000    0.000    0.000 
#
# Total GULP energy -72680.404333 kJ/mol
# GULP energy per Si atom -5590.800333 kJ/mol
# Density = 2.579521 g / cm^3
# Si number density = 25.854054 Si / 1000 Ang^3
#
#
#
# Elastic Constant Matrix: (Units=GPa)
#
#
# Indices 1 2 3 4 5 6 
#
# 1 101.8264 29.4246 37.7768 1.1691 -21.0952 25.0517
# 2 29.4246 137.2434 9.3674 -18.3669 4.8383 34.6005
# 3 37.7768 9.3674 65.7147 10.1987 -21.1469 3.5107
# 4 1.1691 -18.3669 10.1987 32.2149 -3.3131 9.8320
# 5 -21.0952 4.8383 -21.1469 -3.3131 42.8439 17.0793
# 6 25.0517 34.6005 3.5107 9.8320 17.0793 48.3621
#
#
#
# Elastic Compliance Matrix: (Units=1/GPa)
#
#
# Indices 1 2 3 4 5 6 
#
# 1 0.018686 0.001323 -0.007354 0.008674 0.012591 -0.016302
# 2 0.001323 0.011827 -0.002209 0.011767 0.004273 -0.012887
# 3 -0.007354 -0.002209 0.022801 -0.008656 0.005846 0.003430
# 4 0.008674 0.011767 -0.008656 0.049825 0.013334 -0.027122
# 5 0.012591 0.004273 0.005846 0.013334 0.044276 -0.028350
# 6 -0.016302 -0.012887 0.003430 -0.027122 -0.028350 0.053619
#
#
# Mechanical properties :
#
#
# Convention : Reuss Voigt Hill
#
# Bulk Modulus (GPa) = 27.14941 50.88023 39.01482
# Shear Modulus (GPa) = 21.75880 39.89855 30.82867
#
# Velocity S-wave (km/s) = 2.90418 3.93265 3.45688
# Velocity P-wave (km/s) = 4.66578 6.35165 5.57284
#
# Compressibility (1/GPa) = 0.03683321
#
# Stress axis : x y z
#
# Youngs Moduli (GPa) = 53.51519 84.55524 43.85735
#
# Poissons Ratio (x) = -0.11183 0.32253
# Poissons Ratio (y) = -0.07078 0.09687
# Poissons Ratio (z) = 0.39356 0.18677
#
# Static dielectric constant tensor:
#      x y z
#    x 1.980650 0.001250 -0.079260 
#    y 0.001250 1.971910 0.025650 
#    z -0.079260 0.025650 2.174750 
# 
# From -- ./inp_files/183684.got.cif
#   From: 2010.05.17/outbox.cif.g08.bks.cpg/sg2_92_cif.got.tgz:183684.got - 2010.06.03 11:33:40.
