data_PCOD9052139
_publ_section_title
;
Structure prediction by ZEFSAII (Michael W. Deem and Ramdas Pophale) SiO2 
 PCOD9052139
Probable space group: P -1
;
_chemical_formula_sum "Si O2"
_cell_formula_units_Z 15
_cell_length_a 14.025114
_cell_length_b 4.985473
_cell_length_c 11.690528
_cell_angle_alpha 77.394360
_cell_angle_beta 53.794826
_cell_angle_gamma 102.855317
_cell_volume 576.040727
_symmetry_space_group_name_H-M "P -1"
_symmetry_group_IT_number 2
_symmetry_cell_setting 'triclinic'
loop_
_space_group_symop_operation_xyz
x,y,z
-x,-y,-z
loop_
_atom_site_type_symbol
_atom_site_label
_atom_site_fract_x
_atom_site_fract_y
_atom_site_fract_z
Si Si1 0.038947 0.283382 0.070597
Si Si2 0.391187 0.929917 0.845765
Si Si3 0.060298 0.599382 0.654008
Si Si4 0.806044 0.775557 0.621857
Si Si5 0.673906 0.426074 0.518342
Si Si6 0.000000 0.500000 0.500000
Si Si7 0.770917 0.836986 0.210880
Si Si8 0.627945 0.669072 0.972882
O O1 0.041552 0.399926 0.183870
O O2 0.900069 0.976901 0.189474
O O3 0.000000 0.500000 0.000000
O O4 0.160269 0.250318 0.934947
O O5 0.539216 0.135335 0.673816
O O6 0.291045 0.955822 0.820505
O O7 0.378306 0.081357 0.960202
O O8 0.367711 0.591236 0.923795
O O9 0.203439 0.653723 0.588261
O O10 0.996132 0.310917 0.644609
O O11 0.092358 0.859941 0.506856
O O12 0.718805 0.648802 0.578597
O O13 0.863371 0.534184 0.624682
O O14 0.735921 0.788411 0.786323
O O15 0.663989 0.587071 0.392743
O O16 0.500000 0.500000 0.000000
#
# Coordination Sequence:
#
# PCOD9052139 Si02
#       8
#     2   2   2   2   2   1   2   2
#     4  11  24  45  71  98 145 190 235 301 374 428
#     4  12  29  46  78 110 146 194 247 307 359 436
#     4  11  23  43  70  99 140 190 236 300 371 434
#     4  11  24  43  69  98 143 191 237 295 371 430
#     4  11  23  46  70 104 141 189 237 297 368 434
#     4  10  26  38  66 104 136 180 250 300 350 438
#     4  11  26  46  71 108 141 187 249 303 359 444
#     4  12  27  49  73 106 149 191 242 299 370 432
#
# _framework density 26.039825
#
# number of rings (size 3 to 8) (size 9 to 14) (size 15 to 20)
#    0.000    0.800    4.000    2.000    7.467    1.067 
#    0.000    2.000    0.000    0.000    0.000    0.000 
#    0.000    0.000    0.000    0.000    0.000    0.000 
#
# Total GULP energy -83783.010424 kJ/mol
# GULP energy per Si atom -5585.534028 kJ/mol
# Density = 2.598056 g / cm^3
# Si number density = 26.039825 Si / 1000 Ang^3
#
#
#
# Elastic Constant Matrix: (Units=GPa)
#
#
# Indices 1 2 3 4 5 6 
#
# 1 112.6220 -3.1691 5.4465 -9.2391 5.0355 -7.1812
# 2 -3.1691 55.0974 4.8863 -7.8943 -17.1511 -4.7269
# 3 5.4465 4.8863 158.2170 -3.1416 4.5566 0.5556
# 4 -9.2391 -7.8943 -3.1416 41.6155 -1.0081 10.4287
# 5 5.0355 -17.1511 4.5566 -1.0081 31.7252 1.7367
# 6 -7.1812 -4.7269 0.5556 10.4287 1.7367 44.0912
#
#
#
# Elastic Compliance Matrix: (Units=1/GPa)
#
#
# Indices 1 2 3 4 5 6 
#
# 1 0.009181 0.000562 -0.000269 0.001802 -0.001122 0.001177
# 2 0.000562 0.022890 -0.001002 0.004440 0.012515 0.001015
# 3 -0.000269 -0.001002 0.006407 0.000260 -0.001398 -0.000238
# 4 0.001802 0.004440 0.000260 0.026798 0.003240 -0.005700
# 5 -0.001122 0.012515 -0.001398 0.003240 0.038829 -0.001119
# 6 0.001177 0.001015 -0.000238 -0.005700 -0.001119 0.024376
#
#
# Mechanical properties :
#
#
# Convention : Reuss Voigt Hill
#
# Bulk Modulus (GPa) = 26.98419 37.80710 32.39564
# Shear Modulus (GPa) = 35.14849 44.73792 39.94321
#
# Velocity S-wave (km/s) = 3.67794 4.14944 3.92079
# Velocity P-wave (km/s) = 5.33118 6.12435 5.74148
#
# Compressibility (1/GPa) = 0.03705874
#
# Stress axis : x y z
#
# Youngs Moduli (GPa) = 108.91851 43.68762 156.08157
#
# Poissons Ratio (x) = -0.02455 0.04206
# Poissons Ratio (y) = -0.06121 0.15641
# Poissons Ratio (z) = 0.02935 0.04378
#
# Static dielectric constant tensor:
#      x y z
#    x 3.325170 1.920090 0.483760 
#    y 1.920090 4.973680 0.694120 
#    z 0.483760 0.694120 2.219500 
# 
# From -- ./inp_files/66593.got.cif
#   From: 2010.05.17/outbox.cif.g08.bks.cpg/sg2_34_cif.got.tgz:66593.got - 2010.06.03 11:33:40.
