data_PCOD9052501
_publ_section_title
;
Structure prediction by ZEFSAII (Michael W. Deem and Ramdas Pophale) SiO2 
 PCOD9052501
Probable space group: P -1
;
_chemical_formula_sum "Si O2"
_cell_formula_units_Z 13
_cell_length_a 5.222058
_cell_length_b 9.227778
_cell_length_c 22.019137
_cell_angle_alpha 35.957724
_cell_angle_beta 83.218378
_cell_angle_gamma 104.026203
_cell_volume 504.166651
_symmetry_space_group_name_H-M "P -1"
_symmetry_group_IT_number 2
_symmetry_cell_setting 'triclinic'
loop_
_space_group_symop_operation_xyz
x,y,z
-x,-y,-z
loop_
_atom_site_type_symbol
_atom_site_label
_atom_site_fract_x
_atom_site_fract_y
_atom_site_fract_z
Si Si1 0.148955 0.007362 0.857516
Si Si2 0.000000 0.500000 0.000000
Si Si3 0.049857 0.738462 0.571473
Si Si4 0.693120 0.168592 0.339562
Si Si5 0.827538 0.709209 0.809324
Si Si6 0.271534 0.890217 0.248418
Si Si7 0.343189 0.297143 0.875533
O O1 0.362324 0.900913 0.855955
O O2 0.375000 0.223162 0.830699
O O3 0.993293 0.138482 0.779111
O O4 0.875351 0.663757 0.997287
O O5 0.885236 0.615826 0.903990
O O6 0.094064 0.661720 0.664349
O O7 0.797095 0.441304 0.640217
O O8 0.370737 0.889216 0.472468
O O9 0.000000 0.000000 0.500000
O O10 0.637608 0.399583 0.232376
O O11 0.867979 0.100290 0.308434
O O12 0.610498 0.394138 0.884175
O O13 0.744145 0.948614 0.746944
O O14 0.000000 0.000000 0.000000
#
# Coordination Sequence:
#
# PCOD9052501 Si02
#       7
#     2   1   2   2   2   2   2
#     4  11  25  46  72 111 154 206 265 317 393 464
#     4  10  26  46  74 106 156 212 254 324 388 464
#     4  11  24  47  80 111 151 206 261 327 399 464
#     4  11  24  46  74 114 148 201 267 321 387 480
#     4  11  27  47  74 113 158 206 264 323 397 467
#     4  11  26  46  76 110 157 201 261 328 391 474
#     4  12  27  45  77 112 155 206 264 327 391 477
#
# _framework density 25.785122999999999
#
# number of rings (size 3 to 8) (size 9 to 14) (size 15 to 20)
#    0.000    0.923    1.538    3.692   10.769    3.077 
#    0.000    3.077    0.000    0.000    0.000    0.000 
#    0.000    0.000    0.000    0.000    0.000    0.000 
#
# Total GULP energy -72479.789003 kJ/mol
# GULP energy per Si atom -5575.368385 kJ/mol
# Density = 2.572644 g / cm^3
# Si number density = 25.785123 Si / 1000 Ang^3
#
#
#
# Elastic Constant Matrix: (Units=GPa)
#
#
# Indices 1 2 3 4 5 6 
#
# 1 85.2786 73.8654 20.1727 8.7370 -21.7773 -5.7215
# 2 73.8654 217.6720 51.4363 -18.2495 -12.6886 -3.2798
# 3 20.1727 51.4363 67.5909 -5.6497 -18.2989 5.6846
# 4 8.7370 -18.2495 -5.6497 39.3026 -3.3999 2.3906
# 5 -21.7773 -12.6886 -18.2989 -3.3999 44.0188 3.4126
# 6 -5.7215 -3.2798 5.6846 2.3906 3.4126 55.8923
#
#
#
# Elastic Compliance Matrix: (Units=1/GPa)
#
#
# Indices 1 2 3 4 5 6 
#
# 1 0.020765 -0.007372 0.000787 -0.007340 0.007796 0.001451
# 2 -0.007372 0.008406 -0.004578 0.004632 -0.002783 0.000176
# 3 0.000787 -0.004578 0.020562 0.001515 0.007954 -0.002830
# 4 -0.007340 0.004632 0.001515 0.029629 0.000774 -0.001948
# 5 0.007796 -0.002783 0.007954 0.000774 0.029293 -0.001996
# 6 0.001451 0.000176 -0.002830 -0.001948 -0.001996 0.018543
#
#
# Mechanical properties :
#
#
# Convention : Reuss Voigt Hill
#
# Bulk Modulus (GPa) = 36.48449 73.49893 54.99171
# Shear Modulus (GPa) = 31.51395 42.84721 37.18058
#
# Velocity S-wave (km/s) = 3.49976 4.08082 3.80141
# Velocity P-wave (km/s) = 5.52369 7.12534 6.37501
#
# Compressibility (1/GPa) = 0.02740891
#
# Stress axis : x y z
#
# Youngs Moduli (GPa) = 48.15741 118.96000 48.63411
#
# Poissons Ratio (x) = 0.87693 -0.03830
# Poissons Ratio (y) = 0.35500 0.22264
# Poissons Ratio (z) = -0.03792 0.54459
#
# Static dielectric constant tensor:
#      x y z
#    x 2.437960 -0.240170 -0.080220 
#    y -0.240170 2.335490 0.014760 
#    z -0.080220 0.014760 2.090770 
# 
# From -- ./inp_files/359535.got.cif
#   From: 2010.05.17/outbox.cif.g08.bks.cpg/sg2_180_cif.got.tgz:359535.got - 2010.06.03 11:33:40.
