data_PCOD9052105
_publ_section_title
;
Structure prediction by ZEFSAII (Michael W. Deem and Ramdas Pophale) SiO2 
 PCOD9052105
Probable space group: P -1
;
_chemical_formula_sum "Si O2"
_cell_formula_units_Z 14
_cell_length_a 6.732183
_cell_length_b 6.800971
_cell_length_c 15.779738
_cell_angle_alpha 93.788656
_cell_angle_beta 120.742494
_cell_angle_gamma 109.181206
_cell_volume 561.579261
_symmetry_space_group_name_H-M "P -1"
_symmetry_group_IT_number 2
_symmetry_cell_setting 'triclinic'
loop_
_space_group_symop_operation_xyz
x,y,z
-x,-y,-z
loop_
_atom_site_type_symbol
_atom_site_label
_atom_site_fract_x
_atom_site_fract_y
_atom_site_fract_z
Si Si1 0.824785 0.978114 0.541595
Si Si2 0.233605 0.517571 0.923635
Si Si3 0.694932 0.376994 0.832202
Si Si4 0.250853 0.614045 0.503857
Si Si5 0.158109 0.154464 0.786136
Si Si6 0.979018 0.137557 0.081379
Si Si7 0.394387 0.555003 0.371541
O O1 0.613359 0.735788 0.481224
O O2 0.705420 0.143813 0.498758
O O3 0.000000 0.000000 0.500000
O O4 0.981281 0.046123 0.664360
O O5 0.166992 0.392459 0.815812
O O6 0.226674 0.752060 0.943125
O O7 0.063487 0.005742 0.845779
O O8 0.500000 0.500000 0.000000
O O9 0.452530 0.216221 0.826161
O O10 0.636830 0.342724 0.718828
O O11 0.764512 0.635108 0.862099
O O12 0.966780 0.372026 0.911296
O O13 0.479552 0.612263 0.612767
O O14 0.000000 0.500000 0.500000
O O15 0.823500 0.508107 0.608334
O O16 0.000000 0.000000 0.000000
#
# Coordination Sequence:
#
# PCOD9052105 Si02
#       7
#     2   2   2   2   2   2   2
#     4  12  24  45  72 116 158 211 263 309 386 474
#     4  10  27  53  82 117 159 200 273 350 405 485
#     4  10  25  51  76 116 160 208 269 329 415 477
#     4  11  23  39  70 100 152 208 263 314 381 445
#     4  12  26  49  80 115 164 218 263 333 404 487
#     4  10  28  53  83 120 157 210 277 331 418 491
#     4  11  24  45  71 108 161 207 259 327 381 475
#
# _framework density 24.929694000000001
#
# number of rings (size 3 to 8) (size 9 to 14) (size 15 to 20)
#    0.857    0.286    2.857    1.286    6.000    2.857 
#    5.143    0.714    0.000    0.000    0.000    0.000 
#    0.000    0.000    0.000    0.000    0.000    0.000 
#
# Total GULP energy -77959.110054 kJ/mol
# GULP energy per Si atom -5568.507861 kJ/mol
# Density = 2.487295 g / cm^3
# Si number density = 24.929694 Si / 1000 Ang^3
#
#
#
# Elastic Constant Matrix: (Units=GPa)
#
#
# Indices 1 2 3 4 5 6 
#
# 1 131.7386 30.5733 61.5759 -8.7743 -13.5798 -1.2544
# 2 30.5733 107.5211 54.7993 -8.0337 1.9019 -5.4721
# 3 61.5759 54.7993 172.3230 0.8056 -24.6518 -4.5983
# 4 -8.7743 -8.0337 0.8056 44.8259 0.6867 -0.5448
# 5 -13.5798 1.9019 -24.6518 0.6867 46.3404 2.5854
# 6 -1.2544 -5.4721 -4.5983 -0.5448 2.5854 48.7806
#
#
#
# Elastic Compliance Matrix: (Units=1/GPa)
#
#
# Indices 1 2 3 4 5 6 
#
# 1 0.009422 -0.001144 -0.002832 0.001668 0.001288 -0.000203
# 2 -0.001144 0.011787 -0.003734 0.002014 -0.002897 0.001117
# 3 -0.002832 -0.003734 0.008569 -0.001436 0.003898 0.000093
# 4 0.001668 0.002014 -0.001436 0.023038 -0.000723 0.000429
# 5 0.001288 -0.002897 0.003898 -0.000723 0.024228 -0.001217
# 6 -0.000203 0.001117 0.000093 0.000429 -0.001217 0.020698
#
#
# Mechanical properties :
#
#
# Convention : Reuss Voigt Hill
#
# Bulk Modulus (GPa) = 69.64323 78.38663 74.01493
# Shear Modulus (GPa) = 42.39155 45.63166 44.01161
#
# Velocity S-wave (km/s) = 4.12812 4.28298 4.20626
# Velocity P-wave (km/s) = 7.12168 7.48130 7.30370
#
# Compressibility (1/GPa) = 0.01435890
#
# Stress axis : x y z
#
# Youngs Moduli (GPa) = 106.13593 84.83698 116.69917
#
# Poissons Ratio (x) = 0.09708 0.33046
# Poissons Ratio (y) = 0.12146 0.43571
# Poissons Ratio (z) = 0.30055 0.31675
#
# Static dielectric constant tensor:
#      x y z
#    x -60.674140 -2.948200 14.024010 
#    y -2.948200 1.916180 0.673940 
#    z 14.024010 0.673940 -1.107100 
# 
# From -- ./inp_files/115961.got.cif
#   From: 2010.05.17/outbox.cif.g08.bks.cpg/sg2_58_cif.got.tgz:115961.got - 2010.06.03 11:33:40.
