data_PCOD9052010
_publ_section_title
;
Structure prediction by ZEFSAII (Michael W. Deem and Ramdas Pophale) SiO2 
 PCOD9052010
Probable space group: P -1
;
_chemical_formula_sum "Si O2"
_cell_formula_units_Z 16
_cell_length_a 5.672360
_cell_length_b 15.233726
_cell_length_c 11.856317
_cell_angle_alpha 73.830389
_cell_angle_beta 50.790932
_cell_angle_gamma 95.500379
_cell_volume 709.730176
_symmetry_space_group_name_H-M "P -1"
_symmetry_group_IT_number 2
_symmetry_cell_setting 'triclinic'
loop_
_space_group_symop_operation_xyz
x,y,z
-x,-y,-z
loop_
_atom_site_type_symbol
_atom_site_label
_atom_site_fract_x
_atom_site_fract_y
_atom_site_fract_z
Si Si1 0.710941 0.851468 0.886834
Si Si2 0.285269 0.634183 0.150612
Si Si3 0.228238 0.462820 0.864227
Si Si4 0.265611 0.947652 0.253856
Si Si5 0.692441 0.585973 0.498975
Si Si6 0.662720 0.793288 0.384421
Si Si7 0.829830 0.884522 0.071810
Si Si8 0.264402 0.914023 0.520177
O O1 0.925814 0.867813 0.704826
O O2 0.608960 0.946956 0.881734
O O3 0.435976 0.746768 0.024774
O O4 0.934952 0.861362 0.927256
O O5 0.593234 0.600131 0.097059
O O6 0.023104 0.584086 0.147842
O O7 0.072907 0.615841 0.337745
O O8 0.545741 0.544848 0.679871
O O9 0.000000 0.500000 0.000000
O O10 0.457181 0.878590 0.182242
O O11 0.281658 0.964613 0.375975
O O12 0.901540 0.882441 0.354720
O O13 0.500000 0.500000 0.500000
O O14 0.620745 0.684746 0.467169
O O15 0.820844 0.816857 0.203641
O O16 0.342667 0.818627 0.490734
O O17 0.000000 0.000000 0.000000
O O18 0.500000 0.000000 0.500000
#
# Coordination Sequence:
#
# PCOD9052010 Si02
#       8
#     2   2   2   2   2   2   2   2
#     4  12  24  40  70 104 147 186 244 298 368 445
#     4  11  27  47  77 111 145 195 245 309 382 443
#     4  11  26  52  78 110 146 190 250 318 377 444
#     4  11  23  43  63  99 142 188 236 292 357 445
#     4  10  25  49  75 103 145 191 250 311 374 442
#     4  11  24  44  68 100 139 193 238 296 371 432
#     4  11  23  39  65  96 140 184 240 293 356 435
#     4  11  24  44  65  99 148 196 239 293 366 441
#
# _framework density 22.543780000000002
#
# number of rings (size 3 to 8) (size 9 to 14) (size 15 to 20)
#    0.000    1.000    2.500    3.000    7.000    2.000 
#    9.000    0.000    0.000    0.000    0.000    0.000 
#    0.000    0.000    0.000    0.000    0.000    0.000 
#
# Total GULP energy -89224.515404 kJ/mol
# GULP energy per Si atom -5576.532213 kJ/mol
# Density = 2.249247 g / cm^3
# Si number density = 22.543780 Si / 1000 Ang^3
#
#
#
# Elastic Constant Matrix: (Units=GPa)
#
#
# Indices 1 2 3 4 5 6 
#
# 1 80.1787 41.5181 35.2994 1.6293 17.0702 -7.6195
# 2 41.5181 120.2531 63.0150 -14.1422 6.3654 -27.6795
# 3 35.2994 63.0150 137.8007 -2.6169 9.3635 4.2898
# 4 1.6293 -14.1422 -2.6169 46.0607 -4.2932 0.2226
# 5 17.0702 6.3654 9.3635 -4.2932 42.6799 9.0230
# 6 -7.6195 -27.6795 4.2898 0.2226 9.0230 29.7272
#
#
#
# Elastic Compliance Matrix: (Units=1/GPa)
#
#
# Indices 1 2 3 4 5 6 
#
# 1 0.017353 -0.004030 -0.002289 -0.002626 -0.006756 0.003096
# 2 -0.004030 0.018831 -0.007862 0.005122 -0.002860 0.018466
# 3 -0.002289 -0.007862 0.011620 -0.001484 0.001511 -0.010032
# 4 -0.002626 0.005122 -0.001484 0.023484 0.002244 0.003453
# 5 -0.006756 -0.002860 0.001511 0.002244 0.029313 -0.013527
# 6 0.003096 0.018466 -0.010032 0.003453 -0.013527 0.057154
#
#
# Mechanical properties :
#
#
# Convention : Reuss Voigt Hill
#
# Bulk Modulus (GPa) = 51.43832 68.65528 60.04680
# Shear Modulus (GPa) = 25.96069 36.92022 31.44046
#
# Velocity S-wave (km/s) = 3.39716 4.05126 3.73854
# Velocity P-wave (km/s) = 6.18500 7.23905 6.73268
#
# Compressibility (1/GPa) = 0.01944076
#
# Stress axis : x y z
#
# Youngs Moduli (GPa) = 57.62765 53.10320 86.05761
#
# Poissons Ratio (x) = 0.21401 0.19702
# Poissons Ratio (y) = 0.23224 0.67660
# Poissons Ratio (z) = 0.13193 0.41751
#
# Static dielectric constant tensor:
#      x y z
#    x 2.048570 -0.055330 -0.087490 
#    y -0.055330 1.819580 0.042430 
#    z -0.087490 0.042430 1.961220 
# 
# From -- ./inp_files/367660.got.cif
#   From: 2010.05.17/outbox.cif.g08.bks.cpg/sg2_184_cif.got.tgz:367660.got - 2010.06.03 11:33:40.
