data_PCOD9052930
_publ_section_title
;
Structure prediction by ZEFSAII (Michael W. Deem and Ramdas Pophale) SiO2 
 PCOD9052930
Probable space group: P -1
;
_chemical_formula_sum "Si O2"
_cell_formula_units_Z 11
_cell_length_a 14.480838
_cell_length_b 14.687599
_cell_length_c 12.429429
_cell_angle_alpha 32.064457
_cell_angle_beta 141.140676
_cell_angle_gamma 160.863725
_cell_volume 456.393559
_symmetry_space_group_name_H-M "P -1"
_symmetry_group_IT_number 2
_symmetry_cell_setting 'triclinic'
loop_
_space_group_symop_operation_xyz
x,y,z
-x,-y,-z
loop_
_atom_site_type_symbol
_atom_site_label
_atom_site_fract_x
_atom_site_fract_y
_atom_site_fract_z
Si Si1 0.603641 0.195867 0.789574
Si Si2 0.500000 0.000000 0.500000
Si Si3 0.565338 0.450975 0.821211
Si Si4 0.112182 0.156950 0.562415
Si Si5 0.191821 0.661909 0.789886
Si Si6 0.721768 0.838429 0.923997
O O1 0.748930 0.519611 0.625562
O O2 0.855276 0.346407 0.805038
O O3 0.348385 0.956856 0.712317
O O4 0.500000 0.000000 0.000000
O O5 0.678201 0.210787 0.338794
O O6 0.312163 0.998317 0.310747
O O7 0.365880 0.288041 0.701987
O O8 0.724844 0.430041 0.982565
O O9 0.355238 0.239264 0.942840
O O10 0.823346 0.840669 0.684831
O O11 0.000000 0.000000 0.500000
O O12 0.500000 0.500000 0.000000
O O13 0.000000 0.000000 0.000000
#
# Coordination Sequence:
#
# PCOD9052930 Si02
#       6
#     2   1   2   2   2   2
#     4  12  27  47  74 109 146 202 254 313 385 464
#     4  10  28  50  78 120 156 212 256 324 402 456
#     4  11  25  46  71 109 143 197 247 311 385 445
#     4  12  26  46  73 106 148 194 251 316 380 457
#     4  11  26  48  77 106 156 193 255 318 380 473
#     4  11  26  46  78 111 157 199 258 320 381 475
#
# _framework density 24.102004000000001
#
# number of rings (size 3 to 8) (size 9 to 14) (size 15 to 20)
#    0.000    0.727    0.000    5.455    7.636    8.727 
#    0.000    0.000    0.000    0.000    0.000    0.000 
#    0.000    0.000    0.000    0.000    0.000    0.000 
#
# Total GULP energy -61323.981625 kJ/mol
# GULP energy per Si atom -5574.907420 kJ/mol
# Density = 2.404715 g / cm^3
# Si number density = 24.102004 Si / 1000 Ang^3
#
#
#
# Elastic Constant Matrix: (Units=GPa)
#
#
# Indices 1 2 3 4 5 6 
#
# 1 69.2900 6.3346 39.6910 5.2387 6.2236 21.6960
# 2 6.3346 131.4934 50.4648 2.1366 10.8447 16.5889
# 3 39.6910 50.4648 163.8926 8.3584 14.8638 13.7886
# 4 5.2387 2.1366 8.3584 39.6407 1.4708 8.1472
# 5 6.2236 10.8447 14.8638 1.4708 45.7312 -1.5270
# 6 21.6960 16.5889 13.7886 8.1472 -1.5270 46.9842
#
#
#
# Elastic Compliance Matrix: (Units=1/GPa)
#
#
# Indices 1 2 3 4 5 6 
#
# 1 0.019670 0.002017 -0.004489 0.000070 -0.001984 -0.008555
# 2 0.002017 0.009189 -0.002907 0.000629 -0.001645 -0.003485
# 3 -0.004489 -0.002907 0.008186 -0.001102 -0.001297 0.000846
# 4 0.000070 0.000629 -0.001102 0.026377 -0.000800 -0.004531
# 5 -0.001984 -0.001645 -0.001297 -0.000800 0.023067 0.002766
# 6 -0.008555 -0.003485 0.000846 -0.004531 0.002766 0.027092
#
#
# Mechanical properties :
#
#
# Convention : Reuss Voigt Hill
#
# Bulk Modulus (GPa) = 38.04142 61.96187 50.00164
# Shear Modulus (GPa) = 37.56527 44.35027 40.95777
#
# Velocity S-wave (km/s) = 3.95219 4.29430 4.12679
# Velocity P-wave (km/s) = 6.05344 7.09592 6.59531
#
# Compressibility (1/GPa) = 0.02628714
#
# Stress axis : x y z
#
# Youngs Moduli (GPa) = 50.83760 108.82942 122.15242
#
# Poissons Ratio (x) = -0.21949 0.54830
# Poissons Ratio (y) = -0.10253 0.35515
# Poissons Ratio (z) = 0.22819 0.31641
#
# Static dielectric constant tensor:
#      x y z
#    x 1.909940 0.081040 0.052250 
#    y 0.081040 1.735700 -0.055100 
#    z 0.052250 -0.055100 1.991770 
# 
# From -- ./inp_files/454420.got.cif
#   From: 2010.05.17/outbox.cif.g08.bks.cpg/sg2_228_cif.got.tgz:454420.got - 2010.06.03 11:33:40.
