data_PCOD9052342
_publ_section_title
;
Structure prediction by ZEFSAII (Michael W. Deem and Ramdas Pophale) SiO2 
 PCOD9052342
Probable space group: P -1
;
_chemical_formula_sum "Si O2"
_cell_formula_units_Z 13
_cell_length_a 7.413791
_cell_length_b 8.634346
_cell_length_c 7.962902
_cell_angle_alpha 71.087705
_cell_angle_beta 91.327927
_cell_angle_gamma 89.462056
_cell_volume 482.007236
_symmetry_space_group_name_H-M "P -1"
_symmetry_group_IT_number 2
_symmetry_cell_setting 'triclinic'
loop_
_space_group_symop_operation_xyz
x,y,z
-x,-y,-z
loop_
_atom_site_type_symbol
_atom_site_label
_atom_site_fract_x
_atom_site_fract_y
_atom_site_fract_z
Si Si1 0.468714 0.389370 0.196095
Si Si2 0.949284 0.673632 0.846443
Si Si3 0.338753 0.872976 0.538594
Si Si4 0.500000 0.000000 0.000000
Si Si5 0.124072 0.984194 0.216420
Si Si6 0.459921 0.312522 0.668237
Si Si7 0.057321 0.314257 0.536075
O O1 0.265643 0.331125 0.189428
O O2 0.612256 0.236998 0.259177
O O3 0.497230 0.516473 0.304344
O O4 0.500000 0.500000 0.000000
O O5 0.986205 0.846170 0.878476
O O6 0.023828 0.700498 0.649690
O O7 0.000000 0.500000 0.000000
O O8 0.381643 0.747656 0.431378
O O9 0.500000 0.000000 0.500000
O O10 0.181937 0.985508 0.417312
O O11 0.557615 0.822520 0.140168
O O12 0.300143 0.986680 0.102622
O O13 0.013021 0.817014 0.283786
O O14 0.272977 0.305683 0.564503
O O15 0.000000 0.500000 0.500000
#
# Coordination Sequence:
#
# PCOD9052342 Si02
#       7
#     2   2   2   1   2   2   2
#     4  12  26  45  76 108 151 201 257 320 374 464
#     4  12  29  50  74 115 160 207 262 321 402 467
#     4  11  22  45  75 102 145 195 259 310 376 457
#     4  10  26  44  80 112 144 196 260 324 378 448
#     4  11  25  50  78 111 155 203 260 324 394 472
#     4  11  25  46  73 109 149 196 259 310 387 455
#     4  12  28  48  78 113 160 207 254 324 402 474
#
# _framework density 26.970548999999998
#
# number of rings (size 3 to 8) (size 9 to 14) (size 15 to 20)
#    0.000    0.615    3.077    2.769   12.923    1.846 
#    0.000    0.000    0.000    0.000    0.000    0.000 
#    0.000    0.000    0.000    0.000    0.000    0.000 
#
# Total GULP energy -72411.242240 kJ/mol
# GULP energy per Si atom -5570.095557 kJ/mol
# Density = 2.690916 g / cm^3
# Si number density = 26.970549 Si / 1000 Ang^3
#
#
#
# Elastic Constant Matrix: (Units=GPa)
#
#
# Indices 1 2 3 4 5 6 
#
# 1 118.9616 22.7772 35.9728 -14.5471 1.1295 -10.4629
# 2 22.7772 124.3953 61.7010 -45.4255 -4.2193 -14.3916
# 3 35.9728 61.7010 195.9472 -64.0055 -15.4944 -5.6494
# 4 -14.5471 -45.4255 -64.0055 70.2905 -0.7095 3.5442
# 5 1.1295 -4.2193 -15.4944 -0.7095 60.9189 -5.2507
# 6 -10.4629 -14.3916 -5.6494 3.5442 -5.2507 37.5912
#
#
#
# Elastic Compliance Matrix: (Units=1/GPa)
#
#
# Indices 1 2 3 4 5 6 
#
# 1 0.009159 -0.000753 -0.001414 0.000017 -0.000410 0.001989
# 2 -0.000753 0.011417 -0.001404 0.005774 0.000818 0.003520
# 3 -0.001414 -0.001404 0.007941 0.006052 0.002017 -0.000027
# 4 0.000017 0.005774 0.006052 0.023434 0.002319 0.001239
# 5 -0.000410 0.000818 0.002017 0.002319 0.017252 0.002693
# 6 0.001989 0.003520 -0.000027 0.001239 0.002693 0.028759
#
#
# Mechanical properties :
#
#
# Convention : Reuss Voigt Hill
#
# Bulk Modulus (GPa) = 46.78668 75.57847 61.18258
# Shear Modulus (GPa) = 44.55198 55.01701 49.78450
#
# Velocity S-wave (km/s) = 4.06874 4.52142 4.30104
# Velocity P-wave (km/s) = 6.28154 7.43916 6.88472
#
# Compressibility (1/GPa) = 0.02137360
#
# Stress axis : x y z
#
# Youngs Moduli (GPa) = 109.18528 87.58846 125.93072
#
# Poissons Ratio (x) = 0.06599 0.17803
# Poissons Ratio (y) = 0.08226 0.17686
# Poissons Ratio (z) = 0.15436 0.12301
#
# Static dielectric constant tensor:
#      x y z
#    x 6.620010 1.943830 -1.333160 
#    y 1.943830 3.026630 -0.583150 
#    z -1.333160 -0.583150 2.506160 
# 
# From -- ./inp_files/156818.got.cif
#   From: 2010.05.17/outbox.cif.g08.bks.cpg/sg2_79_cif.got.tgz:156818.got - 2010.06.03 11:33:40.
