data_PCOD9052390
_publ_section_title
;
Structure prediction by ZEFSAII (Michael W. Deem and Ramdas Pophale) SiO2 
 PCOD9052390
Probable space group: P -1
;
_chemical_formula_sum "Si O2"
_cell_formula_units_Z 14
_cell_length_a 8.079172
_cell_length_b 11.793505
_cell_length_c 9.040780
_cell_angle_alpha 119.433669
_cell_angle_beta 108.416051
_cell_angle_gamma 50.357556
_cell_volume 577.706815
_symmetry_space_group_name_H-M "P -1"
_symmetry_group_IT_number 2
_symmetry_cell_setting 'triclinic'
loop_
_space_group_symop_operation_xyz
x,y,z
-x,-y,-z
loop_
_atom_site_type_symbol
_atom_site_label
_atom_site_fract_x
_atom_site_fract_y
_atom_site_fract_z
Si Si1 0.275281 0.120827 0.602333
Si Si2 0.940664 0.875192 0.930454
Si Si3 0.794899 0.280548 0.550462
Si Si4 0.494389 0.157504 0.929848
Si Si5 0.853395 0.686225 0.571024
Si Si6 0.666421 0.314525 0.877157
Si Si7 0.580993 0.655906 0.692061
O O1 0.333221 0.128735 0.789424
O O2 0.202398 0.278406 0.592416
O O3 0.051330 0.138518 0.537748
O O4 0.500000 0.000000 0.500000
O O5 0.103444 0.756211 0.025530
O O6 0.954081 0.772318 0.726770
O O7 0.686670 0.997009 0.960962
O O8 0.000000 0.000000 0.000000
O O9 0.696600 0.296003 0.696531
O O10 0.722222 0.461821 0.608437
O O11 0.663893 0.263803 0.374731
O O12 0.589070 0.210539 0.859918
O O13 0.394445 0.296823 0.109083
O O14 0.655880 0.730438 0.644212
O O15 0.000000 0.500000 0.500000
O O16 0.500000 0.500000 0.000000
#
# Coordination Sequence:
#
# PCOD9052390 Si02
#       7
#     2   2   2   2   2   2   2
#     4  12  27  48  74 107 153 200 252 319 383 451
#     4  10  26  45  74 107 152 198 252 309 390 448
#     4  11  26  46  72 117 155 193 259 320 377 457
#     4  11  25  47  72 105 153 199 251 310 387 456
#     4  12  26  46  78 109 152 203 259 311 382 455
#     4  11  24  43  76 108 146 200 257 311 381 454
#     4  11  26  44  76 111 154 198 254 316 385 455
#
# _framework density 24.233747999999999
#
# number of rings (size 3 to 8) (size 9 to 14) (size 15 to 20)
#    0.000    0.857    4.286    0.857   10.000    2.286 
#    0.000    2.143    0.000    0.000    0.000    0.000 
#    0.000    0.000    0.000    0.000    0.000    0.000 
#
# Total GULP energy -78182.791234 kJ/mol
# GULP energy per Si atom -5584.485088 kJ/mol
# Density = 2.417859 g / cm^3
# Si number density = 24.233748 Si / 1000 Ang^3
#
#
#
# Elastic Constant Matrix: (Units=GPa)
#
#
# Indices 1 2 3 4 5 6 
#
# 1 110.5250 15.2476 23.8920 -5.2638 4.8109 -18.4596
# 2 15.2476 103.2801 6.5921 -3.7872 16.6420 -22.4177
# 3 23.8920 6.5921 99.7102 0.5033 22.5819 -11.6239
# 4 -5.2638 -3.7872 0.5033 46.6853 2.7051 -1.6558
# 5 4.8109 16.6420 22.5819 2.7051 40.0078 -15.1229
# 6 -18.4596 -22.4177 -11.6239 -1.6558 -15.1229 37.9978
#
#
#
# Elastic Compliance Matrix: (Units=1/GPa)
#
#
# Indices 1 2 3 4 5 6 
#
# 1 0.010424 -0.000628 -0.002372 0.001200 0.002101 0.004857
# 2 -0.000628 0.011469 0.000732 0.001227 -0.003112 0.005500
# 3 -0.002372 0.000732 0.012112 0.000063 -0.006745 0.000303
# 4 0.001200 0.001227 0.000063 0.021802 -0.001535 0.001666
# 5 0.002101 -0.003112 -0.006745 -0.001535 0.033941 0.010563
# 6 0.004857 0.005500 0.000303 0.001666 0.010563 0.036290
#
#
# Mechanical properties :
#
#
# Convention : Reuss Voigt Hill
#
# Bulk Modulus (GPa) = 33.93445 44.99764 39.46604
# Shear Modulus (GPa) = 35.61345 42.79041 39.20193
#
# Velocity S-wave (km/s) = 3.83767 4.20663 4.02638
# Velocity P-wave (km/s) = 5.80261 6.49636 6.15926
#
# Compressibility (1/GPa) = 0.02946858
#
# Stress axis : x y z
#
# Youngs Moduli (GPa) = 95.93307 87.19404 82.56501
#
# Poissons Ratio (x) = 0.05475 0.19584
# Poissons Ratio (y) = 0.06024 -0.06044
# Poissons Ratio (z) = 0.22755 -0.06383
#
# Static dielectric constant tensor:
#      x y z
#    x 2.081120 -0.009430 -0.023250 
#    y -0.009430 1.869890 0.034130 
#    z -0.023250 0.034130 1.913770 
# 
# From -- ./inp_files/190213.got.cif
#   From: 2010.05.17/outbox.cif.g08.bks.cpg/sg2_96_cif.got.tgz:190213.got - 2010.06.03 11:33:40.
