data_PCOD9052108
_publ_section_title
;
Structure prediction by ZEFSAII (Michael W. Deem and Ramdas Pophale) SiO2 
 PCOD9052108
Probable space group: P -1
;
_chemical_formula_sum "Si O2"
_cell_formula_units_Z 12
_cell_length_a 8.454576
_cell_length_b 15.973574
_cell_length_c 8.714609
_cell_angle_alpha 78.611482
_cell_angle_beta 145.273243
_cell_angle_gamma 124.056371
_cell_volume 461.374879
_symmetry_space_group_name_H-M "P -1"
_symmetry_group_IT_number 2
_symmetry_cell_setting 'triclinic'
loop_
_space_group_symop_operation_xyz
x,y,z
-x,-y,-z
loop_
_atom_site_type_symbol
_atom_site_label
_atom_site_fract_x
_atom_site_fract_y
_atom_site_fract_z
Si Si1 0.517815 0.773541 0.086669
Si Si2 0.995856 0.175309 0.240433
Si Si3 0.385891 0.380660 0.887669
Si Si4 0.988546 0.995318 0.808513
Si Si5 0.073545 0.757718 0.136860
Si Si6 0.293261 0.490323 0.191520
O O1 0.355139 0.650275 0.920024
O O2 0.744225 0.792380 0.415427
O O3 0.256685 0.796710 0.926284
O O4 0.814098 0.880944 0.160418
O O5 0.801099 0.042533 0.082558
O O6 0.171057 0.241101 0.186455
O O7 0.363588 0.403370 0.686219
O O8 0.053894 0.272231 0.775847
O O9 0.500000 0.500000 0.000000
O O10 0.524802 0.885251 0.438033
O O11 0.000000 0.000000 0.000000
O O12 0.976479 0.640548 0.052410
O O13 0.500000 0.500000 0.500000
O O14 0.000000 0.500000 0.000000
#
# Coordination Sequence:
#
# PCOD9052108 Si02
#       6
#     2   2   2   2   2   2
#     4  12  27  49  79 111 156 212 260 324 389 458
#     4  12  26  50  76 113 155 206 266 318 383 467
#     4  10  25  51  77 115 153 203 259 324 392 466
#     4  12  29  49  77 116 167 209 261 321 393 470
#     4  11  26  49  77 115 158 202 262 317 399 464
#     4  11  25  51  79 112 147 200 258 325 385 458
#
# _framework density 26.009217
#
# number of rings (size 3 to 8) (size 9 to 14) (size 15 to 20)
#    0.000    0.667    1.667    4.000    7.000    1.333 
#    3.000    3.333    0.000    0.000    0.000    0.000 
#    0.000    0.000    0.000    0.000    0.000    0.000 
#
# Total GULP energy -66975.052359 kJ/mol
# GULP energy per Si atom -5581.254363 kJ/mol
# Density = 2.595002 g / cm^3
# Si number density = 26.009217 Si / 1000 Ang^3
#
#
#
# Elastic Constant Matrix: (Units=GPa)
#
#
# Indices 1 2 3 4 5 6 
#
# 1 165.5992 76.1661 67.6948 -25.9161 -18.1280 6.8192
# 2 76.1661 174.1697 38.2065 -28.8149 -6.0931 -20.0062
# 3 67.6948 38.2065 144.4687 -36.4877 -6.8235 -3.4501
# 4 -25.9161 -28.8149 -36.4877 42.3827 -5.1646 -7.5264
# 5 -18.1280 -6.0931 -6.8235 -5.1646 38.0436 -19.6872
# 6 6.8192 -20.0062 -3.4501 -7.5264 -19.6872 92.2460
#
#
#
# Elastic Compliance Matrix: (Units=1/GPa)
#
#
# Indices 1 2 3 4 5 6 
#
# 1 0.009326 -0.003186 -0.003117 0.001105 0.003144 -0.000736
# 2 -0.003186 0.008216 0.000774 0.005082 0.002136 0.002917
# 3 -0.003117 0.000774 0.010453 0.008312 0.002699 0.002044
# 4 0.001105 0.005082 0.008312 0.037491 0.011458 0.006836
# 5 0.003144 0.002136 0.002699 0.011458 0.034647 0.008661
# 6 -0.000736 0.002917 0.002044 0.006836 0.008661 0.014010
#
#
# Mechanical properties :
#
#
# Convention : Reuss Voigt Hill
#
# Bulk Modulus (GPa) = 59.04399 94.26358 76.65378
# Shear Modulus (GPa) = 38.21260 54.67915 46.44588
#
# Velocity S-wave (km/s) = 3.83717 4.59006 4.23039
# Velocity P-wave (km/s) = 6.51016 8.02574 7.30735
#
# Compressibility (1/GPa) = 0.01693653
#
# Stress axis : x y z
#
# Youngs Moduli (GPa) = 107.22952 121.72029 95.66359
#
# Poissons Ratio (x) = 0.38782 0.29821
# Poissons Ratio (y) = 0.34165 -0.07408
# Poissons Ratio (z) = 0.33426 -0.09426
#
# Static dielectric constant tensor:
#      x y z
#    x 2.108910 0.002340 0.017960 
#    y 0.002340 2.079270 0.031440 
#    z 0.017960 0.031440 2.095630 
# 
# From -- ./inp_files/206624.got.cif
#   From: 2010.05.17/outbox.cif.g08.bks.cpg/sg2_104_cif.got.tgz:206624.got - 2010.06.03 11:33:40.
