data_PCOD9052858
_publ_section_title
;
Structure prediction by ZEFSAII (Michael W. Deem and Ramdas Pophale) SiO2 
 PCOD9052858
Probable space group: P -1
;
_chemical_formula_sum "Si O2"
_cell_formula_units_Z 16
_cell_length_a 12.450176
_cell_length_b 13.059993
_cell_length_c 6.265060
_cell_angle_alpha 122.149202
_cell_angle_beta 100.106254
_cell_angle_gamma 61.652077
_cell_volume 754.978902
_symmetry_space_group_name_H-M "P -1"
_symmetry_group_IT_number 2
_symmetry_cell_setting 'triclinic'
loop_
_space_group_symop_operation_xyz
x,y,z
-x,-y,-z
loop_
_atom_site_type_symbol
_atom_site_label
_atom_site_fract_x
_atom_site_fract_y
_atom_site_fract_z
Si Si1 0.735228 0.145655 0.925677
Si Si2 0.073515 0.775758 0.079813
Si Si3 0.066808 0.585903 0.213004
Si Si4 0.791139 0.942225 0.078405
Si Si5 0.822015 0.729947 0.494375
Si Si6 0.362954 0.037044 0.558434
Si Si7 0.558067 0.464769 0.232238
Si Si8 0.794653 0.488685 0.418340
O O1 0.678826 0.057740 0.696243
O O2 0.849287 0.141378 0.826124
O O3 0.634113 0.301224 0.077977
O O4 0.778881 0.073118 0.088828
O O5 0.119367 0.670073 0.780328
O O6 0.113305 0.665308 0.159167
O O7 0.927926 0.868824 0.143960
O O8 0.175980 0.495444 0.309070
O O9 0.952621 0.704356 0.425565
O O10 0.000000 0.500000 0.000000
O O11 0.677186 0.980002 0.237811
O O12 0.788614 0.829606 0.793247
O O13 0.721710 0.806955 0.365571
O O14 0.832048 0.586653 0.407123
O O15 0.500000 0.000000 0.500000
O O16 0.500000 0.500000 0.500000
O O17 0.657696 0.521729 0.345741
O O18 0.500000 0.500000 0.000000
#
# Coordination Sequence:
#
# PCOD9052858 Si02
#       8
#     2   2   2   2   2   2   2   2
#     4  10  27  45  71 102 139 187 246 300 369 440
#     4  11  22  42  69 105 145 180 238 296 381 436
#     4  12  22  38  70 108 151 186 231 304 374 449
#     4  11  23  44  68  99 142 189 231 301 367 446
#     4  11  23  41  63 105 133 186 234 291 373 437
#     4  11  27  45  69  94 137 189 246 297 358 440
#     4  11  29  50  76 107 145 195 253 311 375 448
#     4  11  25  40  71 103 147 186 240 309 371 444
#
# _framework density 21.192644999999999
#
# number of rings (size 3 to 8) (size 9 to 14) (size 15 to 20)
#    0.000    1.000    3.750    1.500    7.000    4.500 
#    0.000    0.000    0.000    0.000    0.000    0.000 
#    0.000    0.000    0.000    0.000    0.000    0.000 
#
# Total GULP energy -89157.233891 kJ/mol
# GULP energy per Si atom -5572.327118 kJ/mol
# Density = 2.114441 g / cm^3
# Si number density = 21.192645 Si / 1000 Ang^3
#
#
#
# Elastic Constant Matrix: (Units=GPa)
#
#
# Indices 1 2 3 4 5 6 
#
# 1 133.7858 36.8801 45.7133 -23.2701 -7.8371 18.6250
# 2 36.8801 103.6478 17.6043 -21.4150 7.8210 12.3617
# 3 45.7133 17.6043 72.2385 -16.1070 -6.5561 3.0069
# 4 -23.2701 -21.4150 -16.1070 34.9813 0.2261 -3.9114
# 5 -7.8371 7.8210 -6.5561 0.2261 34.7105 -1.6336
# 6 18.6250 12.3617 3.0069 -3.9114 -1.6336 27.6643
#
#
#
# Elastic Compliance Matrix: (Units=1/GPa)
#
#
# Indices 1 2 3 4 5 6 
#
# 1 0.011350 -0.001878 -0.005636 0.003164 0.001635 -0.005646
# 2 -0.001878 0.012281 -0.000739 0.005553 -0.003535 -0.003567
# 3 -0.005636 -0.000739 0.018757 0.004744 0.002543 0.002907
# 4 0.003164 0.005553 0.004744 0.036275 0.000123 0.000009
# 5 0.001635 -0.003535 0.002543 0.000123 0.030550 0.002024
# 6 -0.005646 -0.003567 0.002907 0.000009 0.002024 0.041347
#
#
# Mechanical properties :
#
#
# Convention : Reuss Voigt Hill
#
# Bulk Modulus (GPa) = 38.63495 56.67416 47.65455
# Shear Modulus (GPa) = 28.45857 33.43618 30.94738
#
# Velocity S-wave (km/s) = 3.66847 3.97637 3.82552
# Velocity P-wave (km/s) = 6.01776 6.91971 6.48444
#
# Compressibility (1/GPa) = 0.02588330
#
# Stress axis : x y z
#
# Youngs Moduli (GPa) = 88.10505 81.42564 53.31311
#
# Poissons Ratio (x) = 0.15289 0.30048
# Poissons Ratio (y) = 0.16543 0.03939
# Poissons Ratio (z) = 0.49656 0.06016
#
# Static dielectric constant tensor:
#      x y z
#    x 1.751820 -0.014640 -0.011710 
#    y -0.014640 1.779400 -0.059950 
#    z -0.011710 -0.059950 1.937530 
# 
# From -- ./inp_files/71827.got.cif
#   From: 2010.05.17/outbox.cif.g08.bks.cpg/sg2_36_cif.got.tgz:71827.got - 2010.06.03 11:33:40.
