data_PCOD9052055
_publ_section_title
;
Structure prediction by ZEFSAII (Michael W. Deem and Ramdas Pophale) SiO2 
 PCOD9052055
Probable space group: P -1
;
_chemical_formula_sum "Si O2"
_cell_formula_units_Z 16
_cell_length_a 13.892649
_cell_length_b 11.630752
_cell_length_c 9.124179
_cell_angle_alpha 90.394562
_cell_angle_beta 78.740736
_cell_angle_gamma 31.474437
_cell_volume 710.338998
_symmetry_space_group_name_H-M "P -1"
_symmetry_group_IT_number 2
_symmetry_cell_setting 'triclinic'
loop_
_space_group_symop_operation_xyz
x,y,z
-x,-y,-z
loop_
_atom_site_type_symbol
_atom_site_label
_atom_site_fract_x
_atom_site_fract_y
_atom_site_fract_z
Si Si1 0.904937 0.761670 0.986671
Si Si2 0.733065 0.306606 0.689045
Si Si3 0.104612 0.113166 0.302831
Si Si4 0.316988 0.669545 0.850205
Si Si5 0.651731 0.519640 0.430475
Si Si6 0.732893 0.762334 0.241579
Si Si7 0.352975 0.009516 0.452372
Si Si8 0.970048 0.170848 0.843952
O O1 0.829071 0.924665 0.883795
O O2 0.073265 0.510810 0.858534
O O3 0.737602 0.855459 0.115510
O O4 0.011766 0.725872 0.082800
O O5 0.520586 0.520978 0.835509
O O6 0.671672 0.399915 0.543431
O O7 0.882112 0.250525 0.708796
O O8 0.835850 0.078239 0.676494
O O9 0.865094 0.364491 0.373941
O O10 0.205320 0.097890 0.385303
O O11 0.371861 0.509110 0.724041
O O12 0.179972 0.756948 0.017736
O O13 0.182965 0.893207 0.797256
O O14 0.471401 0.791228 0.507999
O O15 0.528542 0.898204 0.312518
O O16 0.750216 0.802575 0.397090
#
# Coordination Sequence:
#
# PCOD9052055 Si02
#       8
#     2   2   2   2   2   2   2   2
#     4  11  24  47  73  97 139 181 228 290 343 391
#     4  12  26  38  69 105 140 182 220 258 341 430
#     4  12  24  43  74 101 137 183 217 277 351 409
#     4  11  22  42  63  96 145 180 216 272 330 413
#     4  12  24  44  65 103 144 176 222 277 337 408
#     4  10  25  50  71  98 133 176 238 298 336 388
#     4  11  25  47  75 100 135 177 232 291 340 396
#     4  11  23  42  66  96 142 178 219 276 333 407
#
# _framework density 22.524457000000002
#
# number of rings (size 3 to 8) (size 9 to 14) (size 15 to 20)
#    0.000    0.750    5.000    1.875    3.500    1.000 
#    0.000    0.000    0.000    0.000    0.000    0.000 
#    0.000    0.000    0.000    0.000    0.000    0.000 
#
# Total GULP energy -89530.398342 kJ/mol
# GULP energy per Si atom -5595.649896 kJ/mol
# Density = 2.247319 g / cm^3
# Si number density = 22.524457 Si / 1000 Ang^3
#
#
#
# Elastic Constant Matrix: (Units=GPa)
#
#
# Indices 1 2 3 4 5 6 
#
# 1 108.9032 30.8028 35.6579 -5.1958 13.1585 -8.4406
# 2 30.8028 50.9965 9.1175 3.0442 9.5204 -8.2588
# 3 35.6579 9.1175 72.6606 0.9476 -3.0273 7.8819
# 4 -5.1958 3.0442 0.9476 41.0723 8.5517 0.1749
# 5 13.1585 9.5204 -3.0273 8.5517 46.3894 -4.9965
# 6 -8.4406 -8.2588 7.8819 0.1749 -4.9965 30.0271
#
#
#
# Elastic Compliance Matrix: (Units=1/GPa)
#
#
# Indices 1 2 3 4 5 6 
#
# 1 0.013908 -0.006248 -0.006582 0.003046 -0.003293 0.003353
# 2 -0.006248 0.024874 -0.000657 -0.002127 -0.002460 0.004861
# 3 -0.006582 -0.000657 0.017893 -0.001757 0.002820 -0.006248
# 4 0.003046 -0.002127 -0.001757 0.026052 -0.005378 -0.000314
# 5 -0.003293 -0.002460 0.002820 -0.005378 0.024359 0.001742
# 6 0.003353 0.004861 -0.006248 -0.000314 0.001742 0.037515
#
#
# Mechanical properties :
#
#
# Convention : Reuss Voigt Hill
#
# Bulk Modulus (GPa) = 33.66850 42.63520 38.15185
# Shear Modulus (GPa) = 27.55214 33.96321 30.75768
#
# Velocity S-wave (km/s) = 3.50124 3.88730 3.69931
# Velocity P-wave (km/s) = 5.59686 6.25441 5.93475
#
# Compressibility (1/GPa) = 0.02970136
#
# Stress axis : x y z
#
# Youngs Moduli (GPa) = 71.90238 40.20278 55.88692
#
# Poissons Ratio (x) = 0.25118 0.36784
# Poissons Ratio (y) = 0.44924 0.03672
# Poissons Ratio (z) = 0.47325 0.02642
#
# Static dielectric constant tensor:
#      x y z
#    x 1.842590 0.032180 -0.031000 
#    y 0.032180 1.813340 -0.016610 
#    z -0.031000 -0.016610 1.884900 
# 
# From -- ./inp_files/307527.got.cif
#   From: 2010.05.17/outbox.cif.g08.bks.cpg/sg2_154_cif.got.tgz:307527.got - 2010.06.03 11:33:40.
