data_PCOD9052400
_publ_section_title
;
Structure prediction by ZEFSAII (Michael W. Deem and Ramdas Pophale) SiO2 
 PCOD9052400
Probable space group: P -1
;
_chemical_formula_sum "Si O2"
_cell_formula_units_Z 11
_cell_length_a 9.697880
_cell_length_b 10.985084
_cell_length_c 10.123733
_cell_angle_alpha 151.733886
_cell_angle_beta 72.550651
_cell_angle_gamma 108.825411
_cell_volume 483.126774
_symmetry_space_group_name_H-M "P -1"
_symmetry_group_IT_number 2
_symmetry_cell_setting 'triclinic'
loop_
_space_group_symop_operation_xyz
x,y,z
-x,-y,-z
loop_
_atom_site_type_symbol
_atom_site_label
_atom_site_fract_x
_atom_site_fract_y
_atom_site_fract_z
Si Si1 0.830579 0.293224 0.624256
Si Si2 0.397814 0.230072 0.243718
Si Si3 0.000000 0.000000 0.500000
Si Si4 0.308683 0.257058 0.572997
Si Si5 0.566990 0.223722 0.829699
Si Si6 0.251878 0.206532 0.976561
O O1 0.672921 0.257452 0.707076
O O2 0.945853 0.230062 0.639765
O O3 0.825711 0.077631 0.306008
O O4 0.848892 0.578858 0.830556
O O5 0.500000 0.500000 0.500000
O O6 0.285124 0.209833 0.378911
O O7 0.314147 0.231578 0.130711
O O8 0.500000 0.000000 0.000000
O O9 0.166391 0.150492 0.593910
O O10 0.425475 0.062781 0.389213
O O11 0.365307 0.552069 0.874221
O O12 0.601147 0.747372 0.111365
#
# Coordination Sequence:
#
# PCOD9052400 Si02
#       6
#     2   2   1   2   2   2
#     4  11  24  39  61  92 127 172 207 261 307 372
#     4  12  22  41  65  95 133 162 203 256 325 385
#     4  10  26  46  64  86 132 172 222 248 308 378
#     4  11  22  41  66  94 122 177 207 252 309 383
#     4  11  21  38  64  95 130 157 207 266 324 367
#     4  12  22  38  63  97 129 156 212 262 321 369
#
# _framework density 22.768350999999999
#
# number of rings (size 3 to 8) (size 9 to 14) (size 15 to 20)
#    0.000    0.727    3.636    5.455    0.000    6.545 
#    0.000    1.818    0.000    0.000    0.000    0.000 
#    0.000    0.000    0.000    0.000    0.000    0.000 
#
# Total GULP energy -61290.752957 kJ/mol
# GULP energy per Si atom -5571.886632 kJ/mol
# Density = 2.271653 g / cm^3
# Si number density = 22.768351 Si / 1000 Ang^3
#
#
#
# Elastic Constant Matrix: (Units=GPa)
#
#
# Indices 1 2 3 4 5 6 
#
# 1 84.6331 9.1306 24.2098 12.1183 -3.4075 -39.7707
# 2 9.1306 64.7577 43.6191 -2.7883 -13.8975 -37.8345
# 3 24.2098 43.6191 157.0744 0.3230 -16.2008 -24.6702
# 4 12.1183 -2.7883 0.3230 25.7962 -9.6628 -5.4786
# 5 -3.4075 -13.8975 -16.2008 -9.6628 9.1675 16.3463
# 6 -39.7707 -37.8345 -24.6702 -5.4786 16.3463 46.7949
#
#
#
# Elastic Compliance Matrix: (Units=1/GPa)
#
#
# Indices 1 2 3 4 5 6 
#
# 1 -0.004003 0.002237 0.005312 0.031771 0.095438 -0.028412
# 2 0.002237 0.040050 -0.003080 0.028346 0.057884 0.015757
# 3 0.005312 -0.003080 0.005724 -0.010201 -0.027025 0.013288
# 4 0.031771 0.028346 -0.010201 0.008301 -0.094534 0.078536
# 5 0.095438 0.057884 -0.027025 -0.094534 -0.259943 0.193400
# 6 -0.028412 0.015757 0.013288 0.078536 0.193400 -0.041396
#
#
# Mechanical properties :
#
#
# Convention : Reuss Voigt Hill
#
# Bulk Modulus (GPa) = 19.72090 51.15381 35.43736
# Shear Modulus (GPa) = -20.55062 31.65211 5.55074
#
# Velocity S-wave (km/s) = -3.00758 3.73256 1.56308
# Velocity P-wave (km/s) = 1.83859 6.41029 4.34232
#
# Compressibility (1/GPa) = 0.05070762
#
# Stress axis : x y z
#
# Youngs Moduli (GPa) = -249.80595 24.96871 174.71639
#
# Poissons Ratio (x) = -0.05584 -0.92804
# Poissons Ratio (y) = 0.55871 0.53809
# Poissons Ratio (z) = 1.32690 0.07690
#
# Static dielectric constant tensor:
#      x y z
#    x 1.777080 0.011650 -0.037280 
#    y 0.011650 1.917420 -0.022190 
#    z -0.037280 -0.022190 1.866000 
# 
# From -- ./inp_files/233065.got.cif
#   From: 2010.05.17/outbox.cif.g08.bks.cpg/sg2_117_cif.got.tgz:233065.got - 2010.06.03 11:33:40.
