data_PCOD9052333
_publ_section_title
;
Structure prediction by ZEFSAII (Michael W. Deem and Ramdas Pophale) SiO2 
 PCOD9052333
Probable space group: P -1
;
_chemical_formula_sum "Si O2"
_cell_formula_units_Z 15
_cell_length_a 8.569620
_cell_length_b 8.990654
_cell_length_c 11.050579
_cell_angle_alpha 93.483997
_cell_angle_beta 131.606427
_cell_angle_gamma 79.059388
_cell_volume 622.573179
_symmetry_space_group_name_H-M "P -1"
_symmetry_group_IT_number 2
_symmetry_cell_setting 'triclinic'
loop_
_space_group_symop_operation_xyz
x,y,z
-x,-y,-z
loop_
_atom_site_type_symbol
_atom_site_label
_atom_site_fract_x
_atom_site_fract_y
_atom_site_fract_z
Si Si1 0.000000 0.000000 0.500000
Si Si2 0.552206 0.129567 0.620375
Si Si3 0.757920 0.281967 0.525291
Si Si4 0.172561 0.432093 0.758818
Si Si5 0.902878 0.386935 0.029243
Si Si6 0.181723 0.093741 0.084408
Si Si7 0.443889 0.432725 0.678206
Si Si8 0.714336 0.886469 0.132833
O O1 0.812079 0.149090 0.446866
O O2 0.140483 0.047127 0.691876
O O3 0.716417 0.203038 0.626672
O O4 0.384642 0.282288 0.578170
O O5 0.500000 0.000000 0.500000
O O6 0.618824 0.027376 0.768842
O O7 0.558893 0.417818 0.396899
O O8 0.951060 0.373059 0.636334
O O9 0.264499 0.492217 0.689223
O O10 0.334512 0.272787 0.856172
O O11 0.157677 0.545119 0.867293
O O12 0.679372 0.371243 0.851107
O O13 0.000000 0.500000 0.000000
O O14 0.092330 0.239729 0.127373
O O15 0.186766 0.144711 0.951779
O O16 0.000000 0.000000 0.000000
O O17 0.500000 0.000000 0.000000
#
# Coordination Sequence:
#
# PCOD9052333 Si02
#       8
#     1   2   2   2   2   2   2   2
#     4  10  26  44  76 110 148 196 254 304 402 444
#     4  12  29  46  75 112 150 204 258 311 388 462
#     4  11  27  50  75 107 155 197 257 326 382 459
#     4  11  25  47  73 109 146 196 256 316 382 460
#     4  12  26  46  75 105 151 202 247 314 393 459
#     4  12  25  49  72 108 150 195 255 318 377 460
#     4  12  27  48  74 111 149 197 263 312 387 467
#     4  11  25  45  76 107 157 194 251 317 385 459
#
# _framework density 24.093553
#
# number of rings (size 3 to 8) (size 9 to 14) (size 15 to 20)
#    0.000    0.533    2.667    4.400   11.200    2.133 
#    0.000    0.000    0.000    0.000    0.000    0.000 
#    0.000    0.000    0.000    0.000    0.000    0.000 
#
# Total GULP energy -83553.762421 kJ/mol
# GULP energy per Si atom -5570.250828 kJ/mol
# Density = 2.403872 g / cm^3
# Si number density = 24.093553 Si / 1000 Ang^3
#
#
#
# Elastic Constant Matrix: (Units=GPa)
#
#
# Indices 1 2 3 4 5 6 
#
# 1 84.9735 26.2385 23.4611 10.4851 -15.8316 -3.7697
# 2 26.2385 145.9067 49.2431 -7.5490 -22.0758 -38.0939
# 3 23.4611 49.2431 89.5287 0.2485 -18.2796 -9.6529
# 4 10.4851 -7.5490 0.2485 46.8604 -8.4987 -9.1921
# 5 -15.8316 -22.0758 -18.2796 -8.4987 32.1200 7.0865
# 6 -3.7697 -38.0939 -9.6529 -9.1921 7.0865 55.2581
#
#
#
# Elastic Compliance Matrix: (Units=1/GPa)
#
#
# Indices 1 2 3 4 5 6 
#
# 1 0.013929 -0.001803 -0.001999 -0.002985 0.004065 -0.001660
# 2 -0.001803 0.011286 -0.004141 0.004387 0.004097 0.007138
# 3 -0.001999 -0.004141 0.014879 0.000412 0.004957 -0.000959
# 4 -0.002985 0.004387 0.000412 0.025209 0.007086 0.006177
# 5 0.004065 0.004097 0.004957 0.007086 0.040664 -0.000068
# 6 -0.001660 0.007138 -0.000959 0.006177 -0.000068 0.023774
#
#
# Mechanical properties :
#
#
# Convention : Reuss Voigt Hill
#
# Bulk Modulus (GPa) = 41.30954 57.58825 49.44890
# Shear Modulus (GPa) = 32.53179 41.61212 37.07195
#
# Velocity S-wave (km/s) = 3.67853 4.16036 3.92684
# Velocity P-wave (km/s) = 5.93505 6.85798 6.41314
#
# Compressibility (1/GPa) = 0.02420748
#
# Stress axis : x y z
#
# Youngs Moduli (GPa) = 71.79215 88.60414 67.21026
#
# Poissons Ratio (x) = 0.15974 0.13437
# Poissons Ratio (y) = 0.12943 0.27833
# Poissons Ratio (z) = 0.14353 0.36693
#
# Static dielectric constant tensor:
#      x y z
#    x 1.948110 -0.041470 0.039320 
#    y -0.041470 1.868230 0.005420 
#    z 0.039320 0.005420 1.972750 
# 
# From -- ./inp_files/379336.got.cif
#   From: 2010.05.17/outbox.cif.g08.bks.cpg/sg2_190_cif.got.tgz:379336.got - 2010.06.03 11:33:40.
