data_PCOD9052786
_publ_section_title
;
Structure prediction by ZEFSAII (Michael W. Deem and Ramdas Pophale) SiO2 
 PCOD9052786
Probable space group: P -1
;
_chemical_formula_sum "Si O2"
_cell_formula_units_Z 14
_cell_length_a 6.842199
_cell_length_b 7.367679
_cell_length_c 15.656791
_cell_angle_alpha 116.748456
_cell_angle_beta 50.275505
_cell_angle_gamma 117.078175
_cell_volume 525.712580
_symmetry_space_group_name_H-M "P -1"
_symmetry_group_IT_number 2
_symmetry_cell_setting 'triclinic'
loop_
_space_group_symop_operation_xyz
x,y,z
-x,-y,-z
loop_
_atom_site_type_symbol
_atom_site_label
_atom_site_fract_x
_atom_site_fract_y
_atom_site_fract_z
Si Si1 0.033844 0.297013 0.690227
Si Si2 0.414140 0.754678 0.451490
Si Si3 0.644514 0.801101 0.028305
Si Si4 0.538681 0.099844 0.715406
Si Si5 0.932663 0.263330 0.305053
Si Si6 0.506765 0.777063 0.884227
Si Si7 0.039291 0.529181 0.894541
O O1 0.339761 0.320288 0.596748
O O2 0.984464 0.512737 0.715373
O O3 0.979202 0.319110 0.810817
O O4 0.835641 0.098203 0.660819
O O5 0.412214 0.750592 0.349244
O O6 0.154200 0.685734 0.565055
O O7 0.500000 0.000000 0.500000
O O8 0.556642 0.806107 0.151873
O O9 0.636898 0.032016 0.044429
O O10 0.483727 0.678740 0.966199
O O11 0.898479 0.708291 0.940436
O O12 0.317375 0.893941 0.705029
O O13 0.184961 0.166765 0.210016
O O14 0.352967 0.621893 0.822836
O O15 0.000000 0.500000 0.000000
#
# Coordination Sequence:
#
# PCOD9052786 Si02
#       7
#     2   2   2   2   2   2   2
#     4  12  26  48  75 108 142 195 247 300 369 428
#     4  10  26  50  73 107 145 191 249 301 369 434
#     4  11  25  44  72 106 148 196 238 299 365 437
#     4  11  27  47  75 106 149 188 247 296 370 434
#     4  11  26  50  73 110 146 191 249 302 365 435
#     4  11  26  45  73 108 151 194 244 298 368 439
#     4  12  26  44  73 109 152 190 247 302 363 442
#
# _framework density 26.630521000000002
#
# number of rings (size 3 to 8) (size 9 to 14) (size 15 to 20)
#    0.000    0.857    1.429    3.429   12.000    4.000 
#    2.571    0.000    0.000    0.000    0.000    0.000 
#    0.000    0.000    0.000    0.000    0.000    0.000 
#
# Total GULP energy -78229.462168 kJ/mol
# GULP energy per Si atom -5587.818726 kJ/mol
# Density = 2.656991 g / cm^3
# Si number density = 26.630521 Si / 1000 Ang^3
#
#
#
# Elastic Constant Matrix: (Units=GPa)
#
#
# Indices 1 2 3 4 5 6 
#
# 1 181.7345 53.4673 53.1458 5.7031 7.3358 19.1996
# 2 53.4673 73.3206 24.2550 6.3169 4.1944 4.0869
# 3 53.1458 24.2550 133.1700 -14.7975 5.1798 -12.7587
# 4 5.7031 6.3169 -14.7975 42.3185 -8.2415 0.8983
# 5 7.3358 4.1944 5.1798 -8.2415 34.5473 -0.7081
# 6 19.1996 4.0869 -12.7587 0.8983 -0.7081 49.4243
#
#
#
# Elastic Compliance Matrix: (Units=1/GPa)
#
#
# Indices 1 2 3 4 5 6 
#
# 1 0.008172 -0.004602 -0.002891 -0.001583 -0.001193 -0.003529
# 2 -0.004602 0.017913 -0.001702 -0.002968 -0.001653 -0.000103
# 3 -0.002891 -0.001702 0.009764 0.004057 0.000400 0.003716
# 4 -0.001583 -0.002968 0.004057 0.026948 0.006548 0.001512
# 5 -0.001193 -0.001653 0.000400 0.006548 0.030923 0.001028
# 6 -0.003529 -0.000103 0.003716 0.001512 0.001028 0.022559
#
#
# Mechanical properties :
#
#
# Convention : Reuss Voigt Hill
#
# Bulk Modulus (GPa) = 57.26927 72.21794 64.74361
# Shear Modulus (GPa) = 35.58991 42.41517 39.00254
#
# Velocity S-wave (km/s) = 3.65969 3.99523 3.83114
# Velocity P-wave (km/s) = 6.27771 6.96131 6.62833
#
# Compressibility (1/GPa) = 0.01746137
#
# Stress axis : x y z
#
# Youngs Moduli (GPa) = 122.36182 55.82382 102.41650
#
# Poissons Ratio (x) = 0.25690 0.29607
# Poissons Ratio (y) = 0.56311 0.17426
# Poissons Ratio (z) = 0.35373 0.09498
#
# Static dielectric constant tensor:
#      x y z
#    x 2.094520 0.076560 0.159960 
#    y 0.076560 2.148640 -0.066960 
#    z 0.159960 -0.066960 1.940110 
# 
# From -- ./inp_files/548260.got.cif
#   From: 2010.05.17/outbox.cif.g08.bks.cpg/sg2_275_cif.got.tgz:548260.got - 2010.06.03 11:33:40.
