data_PCOD9052142
_publ_section_title
;
Structure prediction by ZEFSAII (Michael W. Deem and Ramdas Pophale) SiO2 
 PCOD9052142
Probable space group: P -1
;
_chemical_formula_sum "Si O2"
_cell_formula_units_Z 14
_cell_length_a 12.315004
_cell_length_b 9.682448
_cell_length_c 7.383372
_cell_angle_alpha 93.367060
_cell_angle_beta 113.272419
_cell_angle_gamma 49.230878
_cell_volume 586.847146
_symmetry_space_group_name_H-M "P -1"
_symmetry_group_IT_number 2
_symmetry_cell_setting 'triclinic'
loop_
_space_group_symop_operation_xyz
x,y,z
-x,-y,-z
loop_
_atom_site_type_symbol
_atom_site_label
_atom_site_fract_x
_atom_site_fract_y
_atom_site_fract_z
Si Si1 0.629647 0.799166 0.473691
Si Si2 0.974122 0.564452 0.697257
Si Si3 0.105064 0.045683 0.312463
Si Si4 0.211616 0.773246 0.031359
Si Si5 0.374190 0.936530 0.729442
Si Si6 0.504078 0.697434 0.125244
Si Si7 0.267353 0.432087 0.050120
O O1 0.807202 0.628077 0.658939
O O2 0.547537 0.727284 0.346747
O O3 0.500000 0.000000 0.500000
O O4 0.664746 0.873596 0.328661
O O5 0.000000 0.500000 0.500000
O O6 0.134969 0.422106 0.914248
O O7 0.936970 0.757838 0.708517
O O8 0.244986 0.937967 0.549330
O O9 0.175614 0.921279 0.166240
O O10 0.928530 0.112955 0.206994
O O11 0.204068 0.626979 0.106455
O O12 0.393803 0.653223 0.074877
O O13 0.388274 0.894211 0.947870
O O14 0.559473 0.755014 0.771880
O O15 0.670101 0.565103 0.109754
#
# Coordination Sequence:
#
# PCOD9052142 Si02
#       7
#     2   2   2   2   2   2   2
#     4  11  21  36  59  82 111 145 187 227 279 329
#     4  10  17  35  56  80 107 144 184 222 273 326
#     4   9  20  34  55  79 111 149 183 226 274 326
#     4  10  19  36  55  80 112 148 187 220 272 332
#     4   9  20  35  53  83 108 145 183 230 279 316
#     4  10  19  32  56  81 110 143 185 228 266 328
#     4   9  20  33  57  79 111 142 183 227 270 323
#
# _framework density 23.856296
#
# number of rings (size 3 to 8) (size 9 to 14) (size 15 to 20)
#    0.857    1.429    1.429    2.571    0.000    1.143 
#    0.000    0.714    0.000   10.286    0.000    0.000 
#    0.000    0.000    0.000    0.000    0.000    0.000 
#
# Total GULP energy -77971.457281 kJ/mol
# GULP energy per Si atom -5569.389806 kJ/mol
# Density = 2.380200 g / cm^3
# Si number density = 23.856296 Si / 1000 Ang^3
#
#
#
# Elastic Constant Matrix: (Units=GPa)
#
#
# Indices 1 2 3 4 5 6 
#
# 1 58.4245 2.9806 39.2242 -5.3354 38.6187 -11.8946
# 2 2.9806 89.2941 33.9289 6.5072 9.2068 -13.1790
# 3 39.2242 33.9289 161.1350 -17.0383 51.1890 -14.0917
# 4 -5.3354 6.5072 -17.0383 33.4018 -4.0356 4.7284
# 5 38.6187 9.2068 51.1890 -4.0356 50.6521 -9.6801
# 6 -11.8946 -13.1790 -14.0917 4.7284 -9.6801 33.2436
#
#
#
# Elastic Compliance Matrix: (Units=1/GPa)
#
#
# Indices 1 2 3 4 5 6 
#
# 1 0.035839 0.002387 -0.000237 0.001132 -0.026312 0.005846
# 2 0.002387 0.013586 -0.003417 -0.004798 -0.000182 0.005421
# 3 -0.000237 -0.003417 0.010471 0.004889 -0.009478 -0.000456
# 4 0.001132 -0.004798 0.004889 0.033892 -0.003222 -0.005184
# 5 -0.026312 -0.000182 -0.009478 -0.003222 0.049415 0.001343
# 6 0.005846 0.005421 -0.000456 -0.005184 0.001343 0.035257
#
#
# Mechanical properties :
#
#
# Convention : Reuss Voigt Hill
#
# Bulk Modulus (GPa) = 17.43307 51.23568 34.33438
# Shear Modulus (GPa) = 24.98553 38.97414 31.97983
#
# Velocity S-wave (km/s) = 3.23977 4.04630 3.66528
# Velocity P-wave (km/s) = 4.61716 6.58433 5.68646
#
# Compressibility (1/GPa) = 0.05736223
#
# Stress axis : x y z
#
# Youngs Moduli (GPa) = 27.90240 73.60398 95.50012
#
# Poissons Ratio (x) = -0.17570 0.02265
# Poissons Ratio (y) = -0.06661 0.32634
# Poissons Ratio (z) = 0.00662 0.25151
#
# Static dielectric constant tensor:
#      x y z
#    x 2.007640 -0.104130 -0.023500 
#    y -0.104130 1.714330 0.043420 
#    z -0.023500 0.043420 1.950090 
# 
# From -- ./inp_files/301389.got.cif
#   From: 2010.05.17/outbox.cif.g08.bks.cpg/sg2_151_cif.got.tgz:301389.got - 2010.06.03 11:33:40.
