data_PCOD9052330
_publ_section_title
;
Structure prediction by ZEFSAII (Michael W. Deem and Ramdas Pophale) SiO2 
 PCOD9052330
Probable space group: P -1
;
_chemical_formula_sum "Si O2"
_cell_formula_units_Z 15
_cell_length_a 8.283784
_cell_length_b 12.172853
_cell_length_c 18.759523
_cell_angle_alpha 137.352983
_cell_angle_beta 146.186506
_cell_angle_gamma 35.301326
_cell_volume 598.535892
_symmetry_space_group_name_H-M "P -1"
_symmetry_group_IT_number 2
_symmetry_cell_setting 'triclinic'
loop_
_space_group_symop_operation_xyz
x,y,z
-x,-y,-z
loop_
_atom_site_type_symbol
_atom_site_label
_atom_site_fract_x
_atom_site_fract_y
_atom_site_fract_z
Si Si1 0.405094 0.231619 0.783864
Si Si2 0.619187 0.552299 0.906287
Si Si3 0.328941 0.414040 0.286925
Si Si4 0.644591 0.665831 0.483003
Si Si5 0.609318 0.183021 0.683345
Si Si6 0.626557 0.111097 0.376354
Si Si7 0.357965 0.873297 0.861673
Si Si8 0.500000 0.500000 0.000000
O O1 0.387331 0.193726 0.675397
O O2 0.698064 0.267747 0.930090
O O3 0.083565 0.455125 0.786869
O O4 0.401378 0.065175 0.744786
O O5 0.588138 0.384221 0.779896
O O6 0.349132 0.754844 0.867798
O O7 0.549105 0.567044 0.970825
O O8 0.000000 0.500000 0.000000
O O9 0.438024 0.565570 0.382249
O O10 0.547060 0.268118 0.361608
O O11 0.399529 0.285836 0.183131
O O12 0.481780 0.820933 0.433684
O O13 0.651350 0.765721 0.605176
O O14 0.000000 0.500000 0.500000
O O15 0.990106 0.006769 0.754262
O O16 0.000000 0.000000 0.500000
O O17 0.500000 0.000000 0.000000
#
# Coordination Sequence:
#
# PCOD9052330 Si02
#       8
#     2   2   2   2   2   2   2   1
#     4  11  27  48  73 107 149 196 246 312 376 453
#     4  11  22  46  74 103 153 196 247 313 378 450
#     4  12  27  48  74 106 150 196 249 309 386 450
#     4  12  27  48  77 106 149 199 249 322 380 441
#     4  11  26  47  71 109 146 193 254 307 378 456
#     4  12  27  47  76 106 143 198 253 310 374 449
#     4  12  26  42  78 112 144 198 249 303 380 461
#     4  10  26  44  76 104 150 196 248 308 374 452
#
# _framework density 25.061153999999998
#
# number of rings (size 3 to 8) (size 9 to 14) (size 15 to 20)
#    0.000    0.533    4.000    2.800    7.467    2.667 
#    0.000    3.333    0.000    0.000    0.000    0.000 
#    0.000    0.000    0.000    0.000    0.000    0.000 
#
# Total GULP energy -83829.841143 kJ/mol
# GULP energy per Si atom -5588.656076 kJ/mol
# Density = 2.500411 g / cm^3
# Si number density = 25.061154 Si / 1000 Ang^3
#
#
#
# Elastic Constant Matrix: (Units=GPa)
#
#
# Indices 1 2 3 4 5 6 
#
# 1 144.1081 50.1473 25.5967 -8.6672 -30.6173 20.7421
# 2 50.1473 142.1548 19.9268 -2.7280 -5.0880 15.8583
# 3 25.5967 19.9268 58.4450 14.8620 -15.0718 2.9832
# 4 -8.6672 -2.7280 14.8620 48.8426 6.6028 -6.3677
# 5 -30.6173 -5.0880 -15.0718 6.6028 42.5922 3.8358
# 6 20.7421 15.8583 2.9832 -6.3677 3.8358 43.2222
#
#
#
# Elastic Compliance Matrix: (Units=1/GPa)
#
#
# Indices 1 2 3 4 5 6 
#
# 1 0.010270 -0.002627 -0.001856 0.000775 0.006681 -0.004315
# 2 -0.002627 0.008388 -0.002254 0.000731 -0.001671 -0.001405
# 3 -0.001856 -0.002254 0.023132 -0.008840 0.008123 -0.001902
# 4 0.000775 0.000731 -0.008840 0.024799 -0.006708 0.004219
# 5 0.006681 -0.001671 0.008123 -0.006708 0.032629 -0.007037
# 6 -0.004315 -0.001405 -0.001902 0.004219 -0.007037 0.027100
#
#
# Mechanical properties :
#
#
# Convention : Reuss Voigt Hill
#
# Bulk Modulus (GPa) = 35.31794 59.56107 47.43951
# Shear Modulus (GPa) = 33.50466 43.53387 38.51927
#
# Velocity S-wave (km/s) = 3.66035 4.17238 3.92473
# Velocity P-wave (km/s) = 5.65575 6.85781 6.28558
#
# Compressibility (1/GPa) = 0.02831422
#
# Stress axis : x y z
#
# Youngs Moduli (GPa) = 97.36804 119.21146 43.23102
#
# Poissons Ratio (x) = 0.31322 0.08024
# Poissons Ratio (y) = 0.25583 0.09746
# Poissons Ratio (z) = 0.18073 0.26875
#
# Static dielectric constant tensor:
#      x y z
#    x 1.939110 0.011050 -0.163530 
#    y 0.011050 1.958500 0.027440 
#    z -0.163530 0.027440 1.615540 
# 
# From -- ./inp_files/589147.got.cif
#   From: 2010.05.17/outbox.cif.g08.bks.cpg/sg2_295_cif.got.tgz:589147.got - 2010.06.03 11:33:40.
