data_PCOD9052965
_publ_section_title
;
Structure prediction by ZEFSAII (Michael W. Deem and Ramdas Pophale) SiO2 
 PCOD9052965
Probable space group: P -1
;
_chemical_formula_sum "Si O2"
_cell_formula_units_Z 16
_cell_length_a 13.935719
_cell_length_b 7.699552
_cell_length_c 12.227064
_cell_angle_alpha 48.305474
_cell_angle_beta 133.167962
_cell_angle_gamma 102.743722
_cell_volume 644.888265
_symmetry_space_group_name_H-M "P -1"
_symmetry_group_IT_number 2
_symmetry_cell_setting 'triclinic'
loop_
_space_group_symop_operation_xyz
x,y,z
-x,-y,-z
loop_
_atom_site_type_symbol
_atom_site_label
_atom_site_fract_x
_atom_site_fract_y
_atom_site_fract_z
Si Si1 0.359478 0.309602 0.842549
Si Si2 0.986606 0.616926 0.727427
Si Si3 0.743548 0.092810 0.429790
Si Si4 0.544741 0.879124 0.758407
Si Si5 0.899042 0.843009 0.339796
Si Si6 0.955254 0.202259 0.754232
Si Si7 0.204182 0.067799 0.162526
Si Si8 0.351957 0.710737 0.973592
O O1 0.293428 0.616709 0.683897
O O2 0.231981 0.245379 0.725211
O O3 0.404438 0.170035 0.054383
O O4 0.501444 0.252946 0.901871
O O5 0.899010 0.451307 0.685967
O O6 0.000714 0.736131 0.570871
O O7 0.900016 0.851033 0.641585
O O8 0.128266 0.378760 0.983312
O O9 0.629043 0.999598 0.432883
O O10 0.695103 0.154111 0.238204
O O11 0.629720 0.016954 0.703721
O O12 0.597027 0.591229 0.872620
O O13 0.993976 0.753709 0.343074
O O14 0.796456 0.149230 0.132930
O O15 0.845101 0.070129 0.723900
O O16 0.111806 0.027056 0.006391
#
# Coordination Sequence:
#
# PCOD9052965 Si02
#       8
#     2   2   2   2   2   2   2   2
#     4   9  15  27  47  73 101 130 153 196 249 291
#     4   9  18  32  49  75 102 120 156 209 242 281
#     4   8  16  29  48  73 100 122 162 202 237 285
#     4   9  15  31  50  69  94 136 163 192 236 292
#     4  11  17  29  49  77 100 125 154 204 250 275
#     4   9  19  32  49  68 101 128 165 195 235 287
#     4   9  18  34  52  66  97 133 167 192 234 287
#     4   8  17  27  45  74 104 121 161 200 240 291
#
# _framework density 24.810497999999999
#
# number of rings (size 3 to 8) (size 9 to 14) (size 15 to 20)
#    0.750    2.250    1.250    2.250    0.000    0.000 
#    0.000   12.500    0.000    0.000    0.000    4.375 
#    0.000    0.500    0.000    0.000    0.000    0.000 
#
# Total GULP energy -89284.175878 kJ/mol
# GULP energy per Si atom -5580.260992 kJ/mol
# Density = 2.475403 g / cm^3
# Si number density = 24.810498 Si / 1000 Ang^3
#
#
#
# Elastic Constant Matrix: (Units=GPa)
#
#
# Indices 1 2 3 4 5 6 
#
# 1 138.1042 17.8974 19.2316 -2.3619 20.7411 26.4729
# 2 17.8974 59.6196 0.5306 -11.6449 2.8625 12.7685
# 3 19.2316 0.5306 45.7194 -5.3766 16.7744 -4.4761
# 4 -2.3619 -11.6449 -5.3766 24.7971 1.1962 12.0397
# 5 20.7411 2.8625 16.7744 1.1962 40.4829 6.4054
# 6 26.4729 12.7685 -4.4761 12.0397 6.4054 40.3052
#
#
#
# Elastic Compliance Matrix: (Units=1/GPa)
#
#
# Indices 1 2 3 4 5 6 
#
# 1 0.009586 -0.000498 -0.003424 0.003546 -0.002424 -0.007193
# 2 -0.000498 0.022617 0.000873 0.016405 -0.000358 -0.011585
# 3 -0.003424 0.000873 0.028403 0.004014 -0.011095 0.005691
# 4 0.003546 0.016405 0.004014 0.061529 -0.002493 -0.025064
# 5 -0.002424 -0.000358 -0.011095 -0.002493 0.031233 -0.003746
# 6 -0.007193 -0.011585 0.005691 -0.025064 -0.003746 0.041919
#
#
# Mechanical properties :
#
#
# Convention : Reuss Voigt Hill
#
# Bulk Modulus (GPa) = 18.34588 35.41805 26.88197
# Shear Modulus (GPa) = 22.77356 34.83596 28.80476
#
# Velocity S-wave (km/s) = 3.03297 3.75117 3.41103
# Velocity P-wave (km/s) = 4.43573 5.75049 5.13536
#
# Compressibility (1/GPa) = 0.05450814
#
# Stress axis : x y z
#
# Youngs Moduli (GPa) = 104.32270 44.21442 35.20767
#
# Poissons Ratio (x) = 0.02200 0.12056
# Poissons Ratio (y) = 0.05192 -0.03074
# Poissons Ratio (z) = 0.35723 -0.03861
#
# Static dielectric constant tensor:
#      x y z
#    x 2.014400 0.004990 -0.014350 
#    y 0.004990 2.079940 0.002110 
#    z -0.014350 0.002110 2.030660 
# 
# From -- ./inp_files/514029.got.cif
#   From: 2010.05.17/outbox.cif.g08.bks.cpg/sg2_258_cif.got.tgz:514029.got - 2010.06.03 11:33:40.
