data_PCOD9052351
_publ_section_title
;
Structure prediction by ZEFSAII (Michael W. Deem and Ramdas Pophale) SiO2 
 PCOD9052351
Probable space group: P -1
;
_chemical_formula_sum "Si O2"
_cell_formula_units_Z 14
_cell_length_a 19.179902
_cell_length_b 10.958268
_cell_length_c 8.847002
_cell_angle_alpha 119.063568
_cell_angle_beta 39.371837
_cell_angle_gamma 144.388111
_cell_volume 633.520716
_symmetry_space_group_name_H-M "P -1"
_symmetry_group_IT_number 2
_symmetry_cell_setting 'triclinic'
loop_
_space_group_symop_operation_xyz
x,y,z
-x,-y,-z
loop_
_atom_site_type_symbol
_atom_site_label
_atom_site_fract_x
_atom_site_fract_y
_atom_site_fract_z
Si Si1 0.500117 0.794073 0.287950
Si Si2 0.633389 0.599557 0.559514
Si Si3 0.995569 0.565719 0.384833
Si Si4 0.295194 0.426186 0.900598
Si Si5 0.386194 0.778713 0.153206
Si Si6 0.800053 0.298394 0.146203
Si Si7 0.971059 0.064694 0.437008
O O1 0.463280 0.600741 0.282314
O O2 0.493189 0.812249 0.130340
O O3 0.332362 0.712675 0.588047
O O4 0.680616 0.038306 0.204577
O O5 0.480632 0.542753 0.711360
O O6 0.716845 0.600944 0.275898
O O7 0.785807 0.836328 0.533086
O O8 0.789933 0.332235 0.539173
O O9 0.000000 0.500000 0.500000
O O10 0.024802 0.762950 0.438548
O O11 0.148899 0.644483 0.080615
O O12 0.310307 0.594388 0.047301
O O13 0.128938 0.192563 0.128530
O O14 0.500000 0.000000 0.000000
O O15 0.000000 0.500000 0.000000
O O16 0.000000 0.000000 0.500000
#
# Coordination Sequence:
#
# PCOD9052351 Si02
#       7
#     2   2   2   2   2   2   2
#     4  11  26  43  71 102 134 183 232 284 345 416
#     4  11  25  46  71  99 137 183 228 289 347 408
#     4  11  25  44  69 105 135 184 228 284 350 408
#     4  10  26  45  67 102 135 181 231 283 346 409
#     4  11  24  44  69 101 141 177 231 288 341 416
#     4  11  25  45  66 102 137 177 226 282 346 411
#     4  11  26  46  70 102 141 183 233 282 344 425
#
# _framework density 22.098724000000001
#
# number of rings (size 3 to 8) (size 9 to 14) (size 15 to 20)
#    0.000    1.143    1.429    3.000   14.000    1.143 
#    2.571    0.000    0.000    0.000    0.000    0.000 
#    0.000    0.000    0.000    0.000    0.000    0.000 
#
# Total GULP energy -78215.394300 kJ/mol
# GULP energy per Si atom -5586.813879 kJ/mol
# Density = 2.204843 g / cm^3
# Si number density = 22.098724 Si / 1000 Ang^3
#
#
#
# Elastic Constant Matrix: (Units=GPa)
#
#
# Indices 1 2 3 4 5 6 
#
# 1 118.5134 45.8964 27.5407 -15.1034 23.9814 2.2061
# 2 45.8964 89.9830 29.8102 -37.1156 2.0586 4.0550
# 3 27.5407 29.8102 106.5372 -11.8879 8.2613 1.1862
# 4 -15.1034 -37.1156 -11.8879 41.3645 4.7314 -6.0908
# 5 23.9814 2.0586 8.2613 4.7314 37.1764 -13.2479
# 6 2.2061 4.0550 1.1862 -6.0908 -13.2479 29.4442
#
#
#
# Elastic Compliance Matrix: (Units=1/GPa)
#
#
# Indices 1 2 3 4 5 6 
#
# 1 0.012899 -0.006128 -0.000925 -0.000641 -0.009256 -0.004382
# 2 -0.006128 0.021940 -0.002863 0.016682 0.001916 0.001866
# 3 -0.000925 -0.002863 0.010611 0.000248 -0.001909 -0.000772
# 4 -0.000641 0.016682 0.000248 0.040070 -0.004188 0.004145
# 5 -0.009256 0.001916 -0.001909 -0.004188 0.040007 0.017641
# 6 -0.004382 0.001866 -0.000772 0.004145 0.017641 0.042860
#
#
# Mechanical properties :
#
#
# Convention : Reuss Voigt Hill
#
# Bulk Modulus (GPa) = 39.03428 57.94757 48.49092
# Shear Modulus (GPa) = 25.41206 35.71609 30.56408
#
# Velocity S-wave (km/s) = 3.39475 4.02457 3.72300
# Velocity P-wave (km/s) = 5.75045 6.91919 6.36172
#
# Compressibility (1/GPa) = 0.02561851
#
# Stress axis : x y z
#
# Youngs Moduli (GPa) = 77.52712 45.57864 94.24341
#
# Poissons Ratio (x) = 0.27930 0.08715
# Poissons Ratio (y) = 0.47508 0.26981
# Poissons Ratio (z) = 0.07170 0.13049
#
# Static dielectric constant tensor:
#      x y z
#    x 1.860520 0.051210 -0.017550 
#    y 0.051210 1.830690 0.036230 
#    z -0.017550 0.036230 1.896850 
# 
# From -- ./inp_files/346270.got.cif
#   From: 2010.05.17/outbox.cif.g08.bks.cpg/sg2_174_cif.got.tgz:346270.got - 2010.06.03 11:33:40.
