data_PCOD9052499
_publ_section_title
;
Structure prediction by ZEFSAII (Michael W. Deem and Ramdas Pophale) SiO2 
 PCOD9052499
Probable space group: P -1
;
_chemical_formula_sum "Si O2"
_cell_formula_units_Z 15
_cell_length_a 9.091520
_cell_length_b 12.093854
_cell_length_c 12.242275
_cell_angle_alpha 41.775122
_cell_angle_beta 50.020108
_cell_angle_gamma 59.293405
_cell_volume 685.848988
_symmetry_space_group_name_H-M "P -1"
_symmetry_group_IT_number 2
_symmetry_cell_setting 'triclinic'
loop_
_space_group_symop_operation_xyz
x,y,z
-x,-y,-z
loop_
_atom_site_type_symbol
_atom_site_label
_atom_site_fract_x
_atom_site_fract_y
_atom_site_fract_z
Si Si1 0.635337 0.524282 0.314044
Si Si2 0.742973 0.309608 0.220673
Si Si3 0.509426 0.861303 0.003391
Si Si4 0.893294 0.175341 0.890138
Si Si5 0.500000 0.000000 0.500000
Si Si6 0.913608 0.940039 0.697276
Si Si7 0.923134 0.466600 0.830710
Si Si8 0.090315 0.210902 0.550687
O O1 0.500000 0.500000 0.500000
O O2 0.650228 0.374587 0.330263
O O3 0.551760 0.685900 0.171070
O O4 0.853582 0.544425 0.233166
O O5 0.952559 0.217829 0.211105
O O6 0.611185 0.174378 0.332974
O O7 0.785951 0.458483 0.007829
O O8 0.318496 0.859792 0.024599
O O9 0.695257 0.898795 0.816064
O O10 0.500000 0.000000 0.000000
O O11 0.885500 0.303214 0.899026
O O12 0.010919 0.253777 0.677112
O O13 0.000000 0.000000 0.000000
O O14 0.709799 0.896434 0.461466
O O15 0.000000 0.000000 0.500000
O O16 0.936753 0.089726 0.661000
O O17 0.890394 0.630293 0.652317
#
# Coordination Sequence:
#
# PCOD9052499 Si02
#       8
#     2   2   2   2   1   2   2   2
#     4  12  28  48  79 112 147 199 250 311 371 454
#     4  11  26  50  73 112 152 196 251 311 380 446
#     4  12  26  48  76 108 146 199 256 300 381 449
#     4  12  26  47  76 105 155 196 255 318 375 447
#     4  10  26  46  74 104 156 192 250 300 380 452
#     4  11  24  44  74 106 147 199 248 311 371 446
#     4  12  26  48  76 107 155 196 246 322 376 442
#     4  11  25  46  71 110 149 201 247 312 379 447
#
# _framework density 21.870704
#
# number of rings (size 3 to 8) (size 9 to 14) (size 15 to 20)
#    0.000    0.533    2.667    4.800    7.467    4.800 
#    0.000    0.000    0.000    0.000    0.000    0.000 
#    0.000    0.000    0.000    0.000    0.000    0.000 
#
# Total GULP energy -83774.603614 kJ/mol
# GULP energy per Si atom -5584.973574 kJ/mol
# Density = 2.182092 g / cm^3
# Si number density = 21.870704 Si / 1000 Ang^3
#
#
#
# Elastic Constant Matrix: (Units=GPa)
#
#
# Indices 1 2 3 4 5 6 
#
# 1 97.5392 17.3115 50.6903 8.1771 -31.9874 -16.6017
# 2 17.3115 81.0975 43.9272 -4.2687 -6.9545 6.2820
# 3 50.6903 43.9272 151.4322 23.5816 -12.6903 -6.3096
# 4 8.1771 -4.2687 23.5816 38.0328 -0.2615 0.5632
# 5 -31.9874 -6.9545 -12.6903 -0.2615 36.8174 10.4204
# 6 -16.6017 6.2820 -6.3096 0.5632 10.4204 24.6761
#
#
#
# Elastic Compliance Matrix: (Units=1/GPa)
#
#
# Indices 1 2 3 4 5 6 
#
# 1 0.017672 -0.001038 -0.004145 -0.001353 0.012005 0.006055
# 2 -0.001038 0.016588 -0.005435 0.005583 0.002522 -0.007503
# 3 -0.004145 -0.005435 0.010494 -0.006268 -0.001656 0.002120
# 4 -0.001353 0.005583 -0.006268 0.031155 -0.000846 -0.004288
# 5 0.012005 0.002522 -0.001656 -0.000846 0.040320 -0.009996
# 6 0.006055 -0.007503 0.002120 -0.004288 -0.009996 0.051370
#
#
# Mechanical properties :
#
#
# Convention : Reuss Voigt Hill
#
# Bulk Modulus (GPa) = 42.52319 61.54743 52.03531
# Shear Modulus (GPa) = 25.42298 34.44792 29.93545
#
# Velocity S-wave (km/s) = 3.41313 3.97302 3.70367
# Velocity P-wave (km/s) = 5.91758 7.01777 6.49103
#
# Compressibility (1/GPa) = 0.02351658
#
# Stress axis : x y z
#
# Youngs Moduli (GPa) = 56.58713 60.28592 95.29704
#
# Poissons Ratio (x) = 0.06255 0.39505
# Poissons Ratio (y) = 0.05871 0.51795
# Poissons Ratio (z) = 0.23458 0.32766
#
# Static dielectric constant tensor:
#      x y z
#    x 1.766160 0.023320 0.021100 
#    y 0.023320 1.830210 0.022190 
#    z 0.021100 0.022190 1.795290 
# 
# From -- ./inp_files/261803.got.cif
#   From: 2010.05.17/outbox.cif.g08.bks.cpg/sg2_131_cif.got.tgz:261803.got - 2010.06.03 11:33:40.
