data_PCOD9052876
_publ_section_title
;
Structure prediction by ZEFSAII (Michael W. Deem and Ramdas Pophale) SiO2 
 PCOD9052876
Probable space group: P -1
;
_chemical_formula_sum "Si O2"
_cell_formula_units_Z 12
_cell_length_a 5.222416
_cell_length_b 21.211041
_cell_length_c 12.663791
_cell_angle_alpha 21.628634
_cell_angle_beta 91.310858
_cell_angle_gamma 92.652051
_cell_volume 515.731824
_symmetry_space_group_name_H-M "P -1"
_symmetry_group_IT_number 2
_symmetry_cell_setting 'triclinic'
loop_
_space_group_symop_operation_xyz
x,y,z
-x,-y,-z
loop_
_atom_site_type_symbol
_atom_site_label
_atom_site_fract_x
_atom_site_fract_y
_atom_site_fract_z
Si Si1 0.483061 0.087600 0.084961
Si Si2 0.188826 0.367554 0.749581
Si Si3 0.650544 0.371402 0.496971
Si Si4 0.844141 0.561551 0.745289
Si Si5 0.884705 0.052153 0.308553
Si Si6 0.134977 0.776170 0.594525
O O1 0.599882 0.065961 0.238022
O O2 0.360443 0.898982 0.350406
O O3 0.287388 0.236050 0.869963
O O4 0.663613 0.187406 0.844021
O O5 0.389486 0.478971 0.649428
O O6 0.000000 0.500000 0.500000
O O7 0.005200 0.243373 0.009793
O O8 0.410916 0.375821 0.408720
O O9 0.916212 0.425532 0.354470
O O10 0.948022 0.683501 0.651843
O O11 0.787218 0.372644 0.092216
O O12 0.000000 0.000000 0.500000
O O13 0.989667 0.916479 0.439032
#
# Coordination Sequence:
#
# PCOD9052876 Si02
#       6
#     2   2   2   2   2   2
#     4  11  26  43  73 106 146 183 241 306 356 427
#     4  11  23  43  68 104 147 184 234 299 359 426
#     4  12  26  45  75 108 142 192 242 290 369 422
#     4  11  28  48  76 102 142 200 239 298 350 440
#     4  11  25  42  71 104 144 187 236 298 366 423
#     4  10  27  48  69 105 144 187 246 296 356 424
#
# _framework density 23.267904999999999
#
# number of rings (size 3 to 8) (size 9 to 14) (size 15 to 20)
#    0.000    1.000    1.667    2.500   14.000    4.000 
#    0.000    0.000    0.000    0.000    0.000    0.000 
#    0.000    0.000    0.000    0.000    0.000    0.000 
#
# Total GULP energy -66951.765875 kJ/mol
# GULP energy per Si atom -5579.313823 kJ/mol
# Density = 2.321495 g / cm^3
# Si number density = 23.267905 Si / 1000 Ang^3
#
#
#
# Elastic Constant Matrix: (Units=GPa)
#
#
# Indices 1 2 3 4 5 6 
#
# 1 70.8206 18.4623 43.2718 -1.6702 1.6811 16.4342
# 2 18.4623 85.3146 55.3898 -2.6983 -0.7794 11.8638
# 3 43.2718 55.3898 191.5269 -13.3509 -8.7789 19.3362
# 4 -1.6702 -2.6983 -13.3509 30.2356 17.7123 1.0722
# 5 1.6811 -0.7794 -8.7789 17.7123 31.2632 -1.7769
# 6 16.4342 11.8638 19.3362 1.0722 -1.7769 38.9471
#
#
#
# Elastic Compliance Matrix: (Units=1/GPa)
#
#
# Indices 1 2 3 4 5 6 
#
# 1 0.017771 -0.000948 -0.003192 0.001475 -0.003041 -0.005805
# 2 -0.000948 0.014733 -0.003852 0.000154 -0.000877 -0.002220
# 3 -0.003192 -0.003852 0.007372 0.002333 0.000758 -0.001169
# 4 0.001475 0.000154 0.002333 0.051147 -0.028656 -0.004543
# 5 -0.003041 -0.000877 0.000758 -0.028656 0.048814 0.004190
# 6 -0.005805 -0.002220 -0.001169 -0.004543 0.004190 0.029698
#
#
# Mechanical properties :
#
#
# Convention : Reuss Voigt Hill
#
# Bulk Modulus (GPa) = 41.85234 64.65667 53.25450
# Shear Modulus (GPa) = 25.84221 35.45841 30.65031
#
# Velocity S-wave (km/s) = 3.33624 3.90798 3.63337
# Velocity P-wave (km/s) = 5.73296 6.94343 6.36703
#
# Compressibility (1/GPa) = 0.02389353
#
# Stress axis : x y z
#
# Youngs Moduli (GPa) = 56.27049 67.87568 135.65447
#
# Poissons Ratio (x) = 0.06432 0.43295
# Poissons Ratio (y) = 0.05332 0.52254
# Poissons Ratio (z) = 0.17959 0.26146
#
# Static dielectric constant tensor:
#      x y z
#    x 1.997630 0.066060 -0.040270 
#    y 0.066060 2.181400 0.138580 
#    z -0.040270 0.138580 1.889310 
# 
# From -- ./inp_files/23883.got.cif
#   From: 2010.05.17/outbox.cif.g08.bks.cpg/sg2_12_cif.got.tgz:23883.got - 2010.06.03 11:33:40.
