data_PCOD9052937
_publ_section_title
;
Structure prediction by ZEFSAII (Michael W. Deem and Ramdas Pophale) SiO2 
 PCOD9052937
Probable space group: P -1
;
_chemical_formula_sum "Si O2"
_cell_formula_units_Z 13
_cell_length_a 11.473603
_cell_length_b 4.970580
_cell_length_c 18.637429
_cell_angle_alpha 95.571433
_cell_angle_beta 150.398523
_cell_angle_gamma 79.956304
_cell_volume 513.727394
_symmetry_space_group_name_H-M "P -1"
_symmetry_group_IT_number 2
_symmetry_cell_setting 'triclinic'
loop_
_space_group_symop_operation_xyz
x,y,z
-x,-y,-z
loop_
_atom_site_type_symbol
_atom_site_label
_atom_site_fract_x
_atom_site_fract_y
_atom_site_fract_z
Si Si1 0.245112 0.490671 0.084274
Si Si2 0.973091 0.498359 0.646764
Si Si3 0.463382 0.834576 0.405057
Si Si4 0.000000 0.500000 0.500000
Si Si5 0.523532 0.959766 0.285235
Si Si6 0.678110 0.213624 0.094547
Si Si7 0.954212 0.752956 0.163669
O O1 0.338590 0.775671 0.149402
O O2 0.466075 0.254211 0.223639
O O3 0.191719 0.398978 0.973290
O O4 0.000000 0.500000 0.000000
O O5 0.694930 0.603923 0.513284
O O6 0.012935 0.376548 0.586418
O O7 0.136090 0.737262 0.742945
O O8 0.047697 0.334334 0.756285
O O9 0.454641 0.012181 0.332972
O O10 0.224709 0.712006 0.281066
O O11 0.500000 0.000000 0.500000
O O12 0.784723 0.766133 0.415749
O O13 0.848320 0.079219 0.117427
O O14 0.500000 0.500000 0.000000
O O15 0.500000 0.000000 0.000000
#
# Coordination Sequence:
#
# PCOD9052937 Si02
#       7
#     2   2   2   1   2   2   2
#     4  12  28  47  78 114 158 198 253 322 393 450
#     4  11  26  50  75 110 153 198 260 310 379 459
#     4  11  24  46  79 113 150 202 256 317 381 453
#     4  10  28  54  74 110 152 216 250 316 380 464
#     4  11  28  52  76 113 156 205 257 320 381 465
#     4  12  27  47  74 111 151 198 253 311 382 455
#     4  12  27  46  82 110 154 200 257 324 384 455
#
# _framework density 25.305250999999998
#
# number of rings (size 3 to 8) (size 9 to 14) (size 15 to 20)
#    0.000    0.615    4.615    0.923    8.615    3.077 
#    0.000    0.000    0.000    0.000    0.000    0.000 
#    0.000    0.000    0.000    0.000    0.000    0.000 
#
# Total GULP energy -72527.029991 kJ/mol
# GULP energy per Si atom -5579.002307 kJ/mol
# Density = 2.524765 g / cm^3
# Si number density = 25.305251 Si / 1000 Ang^3
#
#
#
# Elastic Constant Matrix: (Units=GPa)
#
#
# Indices 1 2 3 4 5 6 
#
# 1 145.1584 32.9639 52.8543 -3.7562 -33.4726 -31.8641
# 2 32.9639 103.5438 35.4215 -0.5180 -9.8258 -6.9881
# 3 52.8543 35.4215 118.7793 4.2020 -7.4772 -9.4509
# 4 -3.7562 -0.5180 4.2020 32.3647 -2.5829 -3.4531
# 5 -33.4726 -9.8258 -7.4772 -2.5829 66.0834 3.2154
# 6 -31.8641 -6.9881 -9.4509 -3.4531 3.2154 40.2278
#
#
#
# Elastic Compliance Matrix: (Units=1/GPa)
#
#
# Indices 1 2 3 4 5 6 
#
# 1 0.011570 -0.001324 -0.003923 0.003067 0.004956 0.007880
# 2 -0.001324 0.011074 -0.002668 0.000449 0.000680 0.000233
# 3 -0.003923 -0.002668 0.010873 -0.002122 -0.001183 -0.001104
# 4 0.003067 0.000449 -0.002122 0.032218 0.002417 0.004581
# 5 0.004956 0.000680 -0.001183 0.002417 0.017580 0.002568
# 6 0.007880 0.000233 -0.001104 0.004581 0.002568 0.031069
#
#
# Mechanical properties :
#
#
# Convention : Reuss Voigt Hill
#
# Bulk Modulus (GPa) = 56.53687 67.77343 62.15515
# Shear Modulus (GPa) = 36.73480 44.15130 40.44305
#
# Velocity S-wave (km/s) = 3.81421 4.18155 4.00210
# Velocity P-wave (km/s) = 6.46437 7.08197 6.78020
#
# Compressibility (1/GPa) = 0.01768757
#
# Stress axis : x y z
#
# Youngs Moduli (GPa) = 86.42896 90.29821 91.96992
#
# Poissons Ratio (x) = 0.11954 0.36082
# Poissons Ratio (y) = 0.11442 0.24538
# Poissons Ratio (z) = 0.33908 0.24092
#
# Static dielectric constant tensor:
#      x y z
#    x 2.007900 0.056850 0.010640 
#    y 0.056850 2.120860 -0.038940 
#    z 0.010640 -0.038940 2.006210 
# 
# From -- ./inp_files/564222.got.cif
#   From: 2010.05.17/outbox.cif.g08.bks.cpg/sg2_283_cif.got.tgz:564222.got - 2010.06.03 11:33:40.
