data_PCOD9052521
_publ_section_title
;
Structure prediction by ZEFSAII (Michael W. Deem and Ramdas Pophale) SiO2 
 PCOD9052521
Probable space group: P -1
;
_chemical_formula_sum "Si O2"
_cell_formula_units_Z 11
_cell_length_a 5.525064
_cell_length_b 14.836345
_cell_length_c 12.630258
_cell_angle_alpha 27.229170
_cell_angle_beta 69.802524
_cell_angle_gamma 80.560690
_cell_volume 419.210583
_symmetry_space_group_name_H-M "P -1"
_symmetry_group_IT_number 2
_symmetry_cell_setting 'triclinic'
loop_
_space_group_symop_operation_xyz
x,y,z
-x,-y,-z
loop_
_atom_site_type_symbol
_atom_site_label
_atom_site_fract_x
_atom_site_fract_y
_atom_site_fract_z
Si Si1 0.473385 0.802966 0.502350
Si Si2 0.914264 0.595758 0.308096
Si Si3 0.576477 0.820520 0.234088
Si Si4 0.000000 0.000000 0.500000
Si Si5 0.260676 0.805944 0.836818
Si Si6 0.835864 0.620295 0.782351
O O1 0.617475 0.879166 0.289288
O O2 0.160631 0.677691 0.654037
O O3 0.659232 0.684819 0.651975
O O4 0.467023 0.001422 0.370320
O O5 0.817536 0.780476 0.174401
O O6 0.661846 0.405582 0.498965
O O7 0.000000 0.500000 0.500000
O O8 0.133958 0.683589 0.090689
O O9 0.500000 0.000000 0.000000
O O10 0.926321 0.075505 0.312542
O O11 0.153354 0.246990 0.252925
O O12 0.280048 0.630688 0.935458
#
# Coordination Sequence:
#
# PCOD9052521 Si02
#       6
#     2   2   2   1   2   2
#     4  11  26  45  74 107 145 193 244 297 374 432
#     4  11  24  44  71 107 145 197 242 300 373 437
#     4  11  25  41  70 107 148 190 246 303 367 443
#     4  10  26  46  76 108 142 196 246 302 374 428
#     4  11  24  46  75 103 152 188 251 300 366 438
#     4  11  25  49  73 105 145 194 243 308 361 439
#
# _framework density 26.239795999999998
#
# number of rings (size 3 to 8) (size 9 to 14) (size 15 to 20)
#    0.000    1.091    1.818    2.727    5.091    8.727 
#    0.000    5.455    0.000    0.000    0.000    0.000 
#    0.000    0.000    0.000    0.000    0.000    0.000 
#
# Total GULP energy -61449.395695 kJ/mol
# GULP energy per Si atom -5586.308700 kJ/mol
# Density = 2.618007 g / cm^3
# Si number density = 26.239796 Si / 1000 Ang^3
#
#
#
# Elastic Constant Matrix: (Units=GPa)
#
#
# Indices 1 2 3 4 5 6 
#
# 1 137.5909 32.5851 61.5134 -1.8994 10.0553 15.0722
# 2 32.5851 143.8239 47.6803 -23.2321 6.7030 1.5849
# 3 61.5134 47.6803 148.8301 -0.5671 6.3449 0.5459
# 4 -1.8994 -23.2321 -0.5671 60.4936 7.3034 11.9191
# 5 10.0553 6.7030 6.3449 7.3034 74.9879 -9.3786
# 6 15.0722 1.5849 0.5459 11.9191 -9.3786 27.8694
#
#
#
# Elastic Compliance Matrix: (Units=1/GPa)
#
#
# Indices 1 2 3 4 5 6 
#
# 1 0.010015 -0.000571 -0.003842 0.001606 -0.001955 -0.006653
# 2 -0.000571 0.008584 -0.002444 0.003813 -0.001123 -0.002140
# 3 -0.003842 -0.002444 0.009053 -0.001602 0.000485 0.002888
# 4 0.001606 0.003813 -0.001602 0.020700 -0.003837 -0.011198
# 5 -0.001955 -0.001123 0.000485 -0.003837 0.015007 0.007803
# 6 -0.006653 -0.002140 0.002888 -0.011198 0.007803 0.046960
#
#
# Mechanical properties :
#
#
# Convention : Reuss Voigt Hill
#
# Bulk Modulus (GPa) = 71.75094 79.31138 75.53116
# Shear Modulus (GPa) = 38.85616 51.90127 45.37871
#
# Velocity S-wave (km/s) = 3.85230 4.45225 4.16310
# Velocity P-wave (km/s) = 6.86955 7.53135 7.20805
#
# Compressibility (1/GPa) = 0.01393710
#
# Stress axis : x y z
#
# Youngs Moduli (GPa) = 99.85066 116.49017 110.46406
#
# Poissons Ratio (x) = 0.06655 0.42445
# Poissons Ratio (y) = 0.05705 0.26995
# Poissons Ratio (z) = 0.38367 0.28468
#
# Static dielectric constant tensor:
#      x y z
#    x 3.355820 -0.795290 0.201620 
#    y -0.795290 2.508210 -0.195380 
#    z 0.201620 -0.195380 2.038760 
# 
# From -- ./inp_files/92361.got.cif
#   From: 2010.05.17/outbox.cif.g08.bks.cpg/sg2_47_cif.got.tgz:92361.got - 2010.06.03 11:33:40.
