data_PCOD9052820
_publ_section_title
;
Structure prediction by ZEFSAII (Michael W. Deem and Ramdas Pophale) SiO2 
 PCOD9052820
Probable space group: P -1
;
_chemical_formula_sum "Si O2"
_cell_formula_units_Z 16
_cell_length_a 14.430426
_cell_length_b 15.256432
_cell_length_c 11.808513
_cell_angle_alpha 151.784548
_cell_angle_beta 57.775091
_cell_angle_gamma 142.348507
_cell_volume 617.265447
_symmetry_space_group_name_H-M "P -1"
_symmetry_group_IT_number 2
_symmetry_cell_setting 'triclinic'
loop_
_space_group_symop_operation_xyz
x,y,z
-x,-y,-z
loop_
_atom_site_type_symbol
_atom_site_label
_atom_site_fract_x
_atom_site_fract_y
_atom_site_fract_z
Si Si1 0.279673 0.260702 0.131602
Si Si2 0.564808 0.770773 0.202099
Si Si3 0.978157 0.250689 0.739222
Si Si4 0.301164 0.599129 0.782754
Si Si5 0.684575 0.292600 0.369178
Si Si6 0.236040 0.608363 0.181526
Si Si7 0.908712 0.236990 0.132990
Si Si8 0.327848 0.232975 0.450410
O O1 0.252816 0.431682 0.297453
O O2 0.468062 0.545799 0.402773
O O3 0.319716 0.157063 0.895281
O O4 0.138112 0.988111 0.004287
O O5 0.395599 0.674518 0.168089
O O6 0.685897 0.081839 0.548587
O O7 0.500000 0.500000 0.000000
O O8 0.086087 0.328439 0.648737
O O9 0.104420 0.356869 0.882762
O O10 0.778244 0.917844 0.531887
O O11 0.000000 0.500000 0.000000
O O12 0.305237 0.652836 0.709896
O O13 0.341539 0.448079 0.625858
O O14 0.467568 0.940651 0.125915
O O15 0.828397 0.320727 0.330710
O O16 0.112041 0.483845 0.230766
O O17 0.780179 0.040943 0.880146
#
# Coordination Sequence:
#
# PCOD9052820 Si02
#       8
#     2   2   2   2   2   2   2   2
#     4  12  24  43  70 101 138 191 232 284 352 417
#     4  11  28  50  77  97 137 191 246 295 339 413
#     4  11  23  39  68 105 147 182 226 292 365 426
#     4  11  20  36  58  96 144 189 222 272 345 428
#     4  11  23  36  63  99 145 184 223 277 346 430
#     4  10  26  51  71 104 138 184 240 298 347 409
#     4  11  23  44  69 103 145 176 227 296 353 425
#     4  11  21  39  63 104 144 179 229 286 355 430
#
# _framework density 25.920779
#
# number of rings (size 3 to 8) (size 9 to 14) (size 15 to 20)
#    0.000    1.000    2.500    5.250    3.500    3.500 
#    0.000    1.250    0.000    0.000    0.000    0.000 
#    0.000    0.000    0.000    0.000    0.000    0.000 
#
# Total GULP energy -89599.949742 kJ/mol
# GULP energy per Si atom -5599.996859 kJ/mol
# Density = 2.586178 g / cm^3
# Si number density = 25.920779 Si / 1000 Ang^3
#
#
#
# Elastic Constant Matrix: (Units=GPa)
#
#
# Indices 1 2 3 4 5 6 
#
# 1 81.0526 -0.1732 28.1941 5.0785 -27.5837 7.3960
# 2 -0.1732 120.3631 30.5267 16.0268 -9.2850 -6.8805
# 3 28.1941 30.5267 95.3397 3.4193 -34.2096 7.1196
# 4 5.0785 16.0268 3.4193 40.3699 -1.0442 -8.8484
# 5 -27.5837 -9.2850 -34.2096 -1.0442 45.4966 2.1352
# 6 7.3960 -6.8805 7.1196 -8.8484 2.1352 30.5441
#
#
#
# Elastic Compliance Matrix: (Units=1/GPa)
#
#
# Indices 1 2 3 4 5 6 
#
# 1 0.016746 0.001284 -0.001466 -0.003356 0.009473 -0.005058
# 2 0.001284 0.009747 -0.003525 -0.003353 -0.000041 0.001738
# 3 -0.001466 -0.003525 0.016393 -0.000665 0.010947 -0.005218
# 4 -0.003356 -0.003353 -0.000665 0.028399 -0.002973 0.008647
# 5 0.009473 -0.000041 0.010947 -0.002973 0.036265 -0.008251
# 6 -0.005058 0.001738 -0.005218 0.008647 -0.008251 0.038654
#
#
# Mechanical properties :
#
#
# Convention : Reuss Voigt Hill
#
# Bulk Modulus (GPa) = 28.19149 45.98340 37.08744
# Shear Modulus (GPa) = 30.22240 39.16264 34.69252
#
# Velocity S-wave (km/s) = 3.41831 3.89119 3.66239
# Velocity P-wave (km/s) = 5.14582 6.16174 5.67655
#
# Compressibility (1/GPa) = 0.03547170
#
# Stress axis : x y z
#
# Youngs Moduli (GPa) = 59.71545 102.59984 61.00326
#
# Poissons Ratio (x) = -0.13179 0.08945
# Poissons Ratio (y) = -0.07670 0.21503
# Poissons Ratio (z) = 0.08757 0.36165
#
# Static dielectric constant tensor:
#      x y z
#    x 0.178960 -0.260260 0.405050 
#    y -0.260260 2.032580 0.015590 
#    z 0.405050 0.015590 2.014290 
# 
# From -- ./inp_files/456009.got.cif
#   From: 2010.05.17/outbox.cif.g08.bks.cpg/sg2_229_cif.got.tgz:456009.got - 2010.06.03 11:33:40.
