data_PCOD9052244
_publ_section_title
;
Structure prediction by ZEFSAII (Michael W. Deem and Ramdas Pophale) SiO2 
 PCOD9052244
Probable space group: P -1
;
_chemical_formula_sum "Si O2"
_cell_formula_units_Z 16
_cell_length_a 11.787051
_cell_length_b 18.843217
_cell_length_c 21.311388
_cell_angle_alpha 161.008185
_cell_angle_beta 31.834844
_cell_angle_gamma 139.330558
_cell_volume 784.303361
_symmetry_space_group_name_H-M "P -1"
_symmetry_group_IT_number 2
_symmetry_cell_setting 'triclinic'
loop_
_space_group_symop_operation_xyz
x,y,z
-x,-y,-z
loop_
_atom_site_type_symbol
_atom_site_label
_atom_site_fract_x
_atom_site_fract_y
_atom_site_fract_z
Si Si1 0.538749 0.060101 0.346584
Si Si2 0.500953 0.338975 0.233059
Si Si3 0.591545 0.617233 0.114987
Si Si4 0.231809 0.551171 0.911638
Si Si5 0.224508 0.842976 0.793557
Si Si6 0.224604 0.957231 0.654062
Si Si7 0.784710 0.203505 0.754669
Si Si8 0.728816 0.066043 0.008422
O O1 0.392859 0.306358 0.635010
O O2 0.598461 0.055537 0.241814
O O3 0.731910 0.034317 0.284549
O O4 0.387023 0.891203 0.284379
O O5 0.710299 0.355627 0.104678
O O6 0.308166 0.574407 0.514431
O O7 0.400235 0.129474 0.088525
O O8 0.588351 0.277650 0.211197
O O9 0.384522 0.740543 0.361744
O O10 0.702414 0.820798 0.217021
O O11 0.500000 0.500000 0.000000
O O12 0.782180 0.427930 0.903876
O O13 0.297763 0.706920 0.063334
O O14 0.000000 0.500000 0.000000
O O15 0.228741 0.864632 0.883574
O O16 0.000000 0.000000 0.000000
O O17 0.964036 0.973183 0.783871
O O18 0.000000 0.000000 0.500000
#
# Coordination Sequence:
#
# PCOD9052244 Si02
#       8
#     2   2   2   2   2   2   2   2
#     4  11  22  41  63  99 131 170 223 275 331 401
#     4  10  26  44  67 100 134 176 224 283 334 402
#     4  11  25  42  64  99 135 171 227 281 327 407
#     4  11  23  42  67  94 136 175 220 275 338 395
#     4  11  23  42  70  98 131 174 222 277 332 397
#     4  11  24  41  69  93 132 182 221 273 342 396
#     4  12  24  38  65  96 132 173 217 274 336 397
#     4  11  24  46  69  97 135 177 226 278 340 399
#
# _framework density 20.400269999999999
#
# number of rings (size 3 to 8) (size 9 to 14) (size 15 to 20)
#    0.000    1.000    5.000    1.125    1.750    3.500 
#    0.000    1.250    0.000    0.000    0.000    0.000 
#    0.000    0.000    0.000    0.000    0.000    0.000 
#
# Total GULP energy -89078.378892 kJ/mol
# GULP energy per Si atom -5567.398681 kJ/mol
# Density = 2.035384 g / cm^3
# Si number density = 20.400270 Si / 1000 Ang^3
#
#
#
# Elastic Constant Matrix: (Units=GPa)
#
#
# Indices 1 2 3 4 5 6 
#
# 1 88.7097 17.1019 44.3038 9.5677 3.1193 -15.2239
# 2 17.1019 82.9345 57.9459 13.4878 -4.9146 -8.3715
# 3 44.3038 57.9459 94.8334 -1.1525 -4.3965 -11.3363
# 4 9.5677 13.4878 -1.1525 26.8506 -3.9972 -3.7278
# 5 3.1193 -4.9146 -4.3965 -3.9972 37.5412 1.6228
# 6 -15.2239 -8.3715 -11.3363 -3.7278 1.6228 33.7816
#
#
#
# Elastic Compliance Matrix: (Units=1/GPa)
#
#
# Indices 1 2 3 4 5 6 
#
# 1 0.018196 0.006884 -0.012419 -0.010315 -0.003369 0.004762
# 2 0.006884 0.027597 -0.020184 -0.017177 -0.001209 0.001330
# 3 -0.012419 -0.020184 0.029142 0.016454 0.003519 0.000827
# 4 -0.010315 -0.017177 0.016454 0.051414 0.005923 0.002005
# 5 -0.003369 -0.001209 0.003519 0.005923 0.027859 -0.001322
# 6 0.004762 0.001330 0.000827 0.002005 -0.001322 0.032640
#
#
# Mechanical properties :
#
#
# Convention : Reuss Voigt Hill
#
# Bulk Modulus (GPa) = 42.56124 56.13121 49.34623
# Shear Modulus (GPa) = 20.31533 29.44309 24.87921
#
# Velocity S-wave (km/s) = 3.15911 3.80316 3.49600
# Velocity P-wave (km/s) = 5.84936 6.84544 6.36691
#
# Compressibility (1/GPa) = 0.02349556
#
# Stress axis : x y z
#
# Youngs Moduli (GPa) = 54.95572 36.23585 34.31486
#
# Poissons Ratio (x) = -0.24944 0.42617
# Poissons Ratio (y) = -0.37830 0.69262
# Poissons Ratio (z) = 0.68251 0.73139
#
# Static dielectric constant tensor:
#      x y z
#    x 1.754230 -0.069710 0.002820 
#    y -0.069710 1.946020 -0.157570 
#    z 0.002820 -0.157570 1.811510 
# 
# From -- ./inp_files/311308.got.cif
#   From: 2010.05.17/outbox.cif.g08.bks.cpg/sg2_156_cif.got.tgz:311308.got - 2010.06.03 11:33:40.
