data_PCOD9052190
_publ_section_title
;
Structure prediction by ZEFSAII (Michael W. Deem and Ramdas Pophale) SiO2 
 PCOD9052190
Probable space group: P -1
;
_chemical_formula_sum "Si O2"
_cell_formula_units_Z 15
_cell_length_a 21.311645
_cell_length_b 11.575364
_cell_length_c 15.575365
_cell_angle_alpha 145.648930
_cell_angle_beta 19.342951
_cell_angle_gamma 147.849121
_cell_volume 669.404218
_symmetry_space_group_name_H-M "P -1"
_symmetry_group_IT_number 2
_symmetry_cell_setting 'triclinic'
loop_
_space_group_symop_operation_xyz
x,y,z
-x,-y,-z
loop_
_atom_site_type_symbol
_atom_site_label
_atom_site_fract_x
_atom_site_fract_y
_atom_site_fract_z
Si Si1 0.223884 0.126461 0.824251
Si Si2 0.953382 0.383682 0.896861
Si Si3 0.384623 0.450143 0.959823
Si Si4 0.362937 0.887496 0.190974
Si Si5 0.768024 0.311082 0.405907
Si Si6 0.908322 0.660333 0.569956
Si Si7 0.486186 0.260721 0.398781
Si Si8 0.000000 0.000000 0.500000
O O1 0.370326 0.211961 0.607575
O O2 0.291284 0.946570 0.674756
O O3 0.246250 0.320908 0.980199
O O4 0.000000 0.000000 0.000000
O O5 0.045104 0.581457 0.833087
O O6 0.041997 0.198330 0.641173
O O7 0.713632 0.265655 0.119630
O O8 0.000000 0.500000 0.000000
O O9 0.437500 0.708621 0.032092
O O10 0.260212 0.363139 0.154608
O O11 0.583616 0.387089 0.665515
O O12 0.132038 0.758110 0.381410
O O13 0.378682 0.079505 0.355097
O O14 0.500000 0.000000 0.000000
O O15 0.847249 0.415585 0.460523
O O16 0.918942 0.812726 0.566818
O O17 0.500000 0.500000 0.500000
#
# Coordination Sequence:
#
# PCOD9052190 Si02
#       8
#     2   2   2   2   2   2   2   1
#     4  12  25  45  71 102 147 189 245 296 369 447
#     4  11  26  45  73 102 152 185 247 297 377 428
#     4  12  26  44  72 105 142 190 242 302 370 437
#     4  12  26  45  73 102 144 189 244 302 370 438
#     4  11  25  44  68 106 140 187 241 301 361 437
#     4  11  25  45  71  99 144 185 243 296 375 426
#     4  12  27  46  71 106 142 193 248 302 369 440
#     4  10  26  42  74 106 142 190 246 300 362 444
#
# _framework density 22.407985
#
# number of rings (size 3 to 8) (size 9 to 14) (size 15 to 20)
#    0.000    0.533    0.000    7.600   13.067    0.000 
#    0.000    0.000    0.000    0.000    0.000    0.000 
#    0.000    0.000    0.000    0.000    0.000    0.000 
#
# Total GULP energy -83727.042318 kJ/mol
# GULP energy per Si atom -5581.802821 kJ/mol
# Density = 2.235698 g / cm^3
# Si number density = 22.407985 Si / 1000 Ang^3
#
#
#
# Elastic Constant Matrix: (Units=GPa)
#
#
# Indices 1 2 3 4 5 6 
#
# 1 72.4316 26.2405 32.0867 3.6606 20.1480 13.5922
# 2 26.2405 115.2917 28.3320 25.6142 6.7322 -3.9232
# 3 32.0867 28.3320 62.4673 -9.3243 16.2789 -5.8963
# 4 3.6606 25.6142 -9.3243 57.3996 5.7676 7.3906
# 5 20.1480 6.7322 16.2789 5.7676 56.6316 -1.0831
# 6 13.5922 -3.9232 -5.8963 7.3906 -1.0831 62.6738
#
#
#
# Elastic Compliance Matrix: (Units=1/GPa)
#
#
# Indices 1 2 3 4 5 6 
#
# 1 0.021087 -0.002324 -0.009191 -0.000616 -0.004628 -0.005591
# 2 -0.002324 0.011928 -0.005465 -0.006425 0.001663 0.001523
# 3 -0.009191 -0.005465 0.025656 0.007203 -0.004129 0.003144
# 4 -0.000616 -0.006425 0.007203 0.022129 -0.003384 -0.002259
# 5 -0.004628 0.001663 -0.004129 -0.003384 0.020667 0.001476
# 6 -0.005591 0.001523 0.003144 -0.002259 0.001476 0.017851
#
#
# Mechanical properties :
#
#
# Convention : Reuss Voigt Hill
#
# Bulk Modulus (GPa) = 40.46797 47.05657 43.76227
# Shear Modulus (GPa) = 30.95684 46.24307 38.59996
#
# Velocity S-wave (km/s) = 3.72090 4.54771 4.15492
# Velocity P-wave (km/s) = 6.04640 6.97288 6.52610
#
# Compressibility (1/GPa) = 0.02471090
#
# Stress axis : x y z
#
# Youngs Moduli (GPa) = 47.42176 83.83777 38.97742
#
# Poissons Ratio (x) = 0.19484 0.35825
# Poissons Ratio (y) = 0.11021 0.21301
# Poissons Ratio (z) = 0.43586 0.45817
#
# Static dielectric constant tensor:
#      x y z
#    x 1.859960 -0.046830 -0.039660 
#    y -0.046830 1.915850 0.020590 
#    z -0.039660 0.020590 1.844210 
# 
# From -- ./inp_files/501017.got.cif
#   From: 2010.05.17/outbox.cif.g08.bks.cpg/sg2_251_cif.got.tgz:501017.got - 2010.06.03 11:33:40.
