data_PCOD9052353
_publ_section_title
;
Structure prediction by ZEFSAII (Michael W. Deem and Ramdas Pophale) SiO2 
 PCOD9052353
Probable space group: P -1
;
_chemical_formula_sum "Si O2"
_cell_formula_units_Z 16
_cell_length_a 8.658153
_cell_length_b 13.179257
_cell_length_c 8.315871
_cell_angle_alpha 90.633113
_cell_angle_beta 76.596593
_cell_angle_gamma 48.426990
_cell_volume 672.597048
_symmetry_space_group_name_H-M "P -1"
_symmetry_group_IT_number 2
_symmetry_cell_setting 'triclinic'
loop_
_space_group_symop_operation_xyz
x,y,z
-x,-y,-z
loop_
_atom_site_type_symbol
_atom_site_label
_atom_site_fract_x
_atom_site_fract_y
_atom_site_fract_z
Si Si1 0.004810 0.806746 0.484347
Si Si2 0.228375 0.347921 0.899876
Si Si3 0.892262 0.804636 0.161334
Si Si4 0.435244 0.271125 0.167410
Si Si5 0.174535 0.508017 0.433126
Si Si6 0.557616 0.938150 0.668430
Si Si7 0.507605 0.375711 0.632305
Si Si8 0.644692 0.381794 0.103431
O O1 0.071117 0.660947 0.481124
O O2 0.236675 0.757529 0.462351
O O3 0.959031 0.837900 0.305115
O O4 0.779514 0.906844 0.641198
O O5 0.173368 0.282961 0.787805
O O6 0.404942 0.348068 0.790032
O O7 0.344337 0.256118 0.031330
O O8 0.000000 0.500000 0.000000
O O9 0.656818 0.949374 0.169543
O O10 0.099194 0.708286 0.992707
O O11 0.269470 0.438453 0.236942
O O12 0.417262 0.194213 0.309854
O O13 0.638876 0.259673 0.105865
O O14 0.367026 0.413480 0.511888
O O15 0.000000 0.500000 0.500000
O O16 0.500000 0.000000 0.500000
O O17 0.443854 0.516766 0.716980
O O18 0.500000 0.500000 0.000000
#
# Coordination Sequence:
#
# PCOD9052353 Si02
#       8
#     2   2   2   2   2   2   2   2
#     4  11  21  42  65  95 139 177 227 284 338 404
#     4  12  23  39  69 105 135 172 227 285 358 409
#     4  11  23  43  68  94 141 184 228 281 339 410
#     4  12  24  42  68 100 138 181 230 280 350 404
#     4  12  23  38  66 102 135 171 223 287 350 407
#     4  10  26  45  67  93 138 198 235 271 329 416
#     4  12  24  38  67 109 135 170 217 287 358 406
#     4  12  21  41  69 104 138 167 218 298 359 399
#
# _framework density 23.788388999999999
#
# number of rings (size 3 to 8) (size 9 to 14) (size 15 to 20)
#    0.000    0.500    6.250    2.625    1.750    1.000 
#    0.000    0.625    2.750    0.000    0.000    0.000 
#    0.000    0.000    0.000    0.000    0.000    0.000 
#
# Total GULP energy -89140.278109 kJ/mol
# GULP energy per Si atom -5571.267382 kJ/mol
# Density = 2.373425 g / cm^3
# Si number density = 23.788389 Si / 1000 Ang^3
#
#
#
# Elastic Constant Matrix: (Units=GPa)
#
#
# Indices 1 2 3 4 5 6 
#
# 1 128.1281 32.0871 34.1779 -4.8456 -22.7579 -24.2435
# 2 32.0871 77.6954 25.8054 8.2453 -16.4223 -22.7528
# 3 34.1779 25.8054 54.0944 -4.3067 -10.9621 -15.8907
# 4 -4.8456 8.2453 -4.3067 38.5431 -3.0364 -20.0065
# 5 -22.7579 -16.4223 -10.9621 -3.0364 46.2626 5.2110
# 6 -24.2435 -22.7528 -15.8907 -20.0065 5.2110 44.4283
#
#
#
# Elastic Compliance Matrix: (Units=1/GPa)
#
#
# Indices 1 2 3 4 5 6 
#
# 1 0.010989 -0.001422 -0.003505 0.004496 0.003735 0.005601
# 2 -0.001422 0.017718 -0.005410 -0.001574 0.003616 0.005230
# 3 -0.003505 -0.005410 0.026866 0.008244 0.002320 0.008366
# 4 0.004496 -0.001574 0.008244 0.039439 0.003726 0.021918
# 5 0.003735 0.003616 0.002320 0.003726 0.025142 0.003448
# 6 0.005601 0.005230 0.008366 0.021918 0.003448 0.040701
#
#
# Mechanical properties :
#
#
# Convention : Reuss Voigt Hill
#
# Bulk Modulus (GPa) = 28.65394 49.33985 38.99690
# Shear Modulus (GPa) = 25.88534 37.03663 31.46099
#
# Velocity S-wave (km/s) = 3.30229 3.95006 3.64061
# Velocity P-wave (km/s) = 5.15865 6.44905 5.83960
#
# Compressibility (1/GPa) = 0.03489921
#
# Stress axis : x y z
#
# Youngs Moduli (GPa) = 91.00235 56.44091 37.22241
#
# Poissons Ratio (x) = 0.08024 0.13045
# Poissons Ratio (y) = 0.12937 0.20138
# Poissons Ratio (z) = 0.31893 0.30535
#
# Static dielectric constant tensor:
#      x y z
#    x 0.698750 0.464340 0.292740 
#    y 0.464340 1.793840 -0.111570 
#    z 0.292740 -0.111570 1.986480 
# 
# From -- ./inp_files/207315.got.cif
#   From: 2010.05.17/outbox.cif.g08.bks.cpg/sg2_104_cif.got.tgz:207315.got - 2010.06.03 11:33:40.
