data_PCOD9052074
_publ_section_title
;
Structure prediction by ZEFSAII (Michael W. Deem and Ramdas Pophale) SiO2 
 PCOD9052074
Probable space group: P -1
;
_chemical_formula_sum "Si O2"
_cell_formula_units_Z 16
_cell_length_a 8.781259
_cell_length_b 12.037282
_cell_length_c 7.487718
_cell_angle_alpha 77.100049
_cell_angle_beta 53.122661
_cell_angle_gamma 74.001587
_cell_volume 606.868684
_symmetry_space_group_name_H-M "P -1"
_symmetry_group_IT_number 2
_symmetry_cell_setting 'triclinic'
loop_
_space_group_symop_operation_xyz
x,y,z
-x,-y,-z
loop_
_atom_site_type_symbol
_atom_site_label
_atom_site_fract_x
_atom_site_fract_y
_atom_site_fract_z
Si Si1 0.223908 0.894946 0.470477
Si Si2 0.416250 0.718798 0.665636
Si Si3 0.542344 0.897755 0.779949
Si Si4 0.745045 0.716597 0.978715
Si Si5 0.008703 0.232644 0.884670
Si Si6 0.471690 0.534624 0.217045
Si Si7 0.033121 0.626129 0.490234
Si Si8 0.890879 0.029876 0.858317
O O1 0.365036 0.787026 0.493481
O O2 0.915709 0.673432 0.731140
O O3 0.318710 0.010335 0.383833
O O4 0.160489 0.889704 0.313528
O O5 0.529440 0.799853 0.676117
O O6 0.514267 0.585331 0.642062
O O7 0.209000 0.719642 0.908756
O O8 0.609931 0.826003 0.938501
O O9 0.324314 0.969650 0.920845
O O10 0.633000 0.610126 0.118867
O O11 0.834644 0.746522 0.090423
O O12 0.027993 0.918882 0.717928
O O13 0.034982 0.294758 0.659321
O O14 0.008346 0.099784 0.881597
O O15 0.261657 0.611239 0.362315
O O16 0.500000 0.500000 0.000000
O O17 0.000000 0.500000 0.500000
#
# Coordination Sequence:
#
# PCOD9052074 Si02
#       8
#     2   2   2   2   2   2   2   2
#     4  11  25  47  80 114 148 198 265 310 394 460
#     4  11  24  46  77 110 154 198 249 322 374 463
#     4  11  23  48  73 111 157 195 251 319 386 455
#     4  12  27  49  80 115 159 204 256 321 383 460
#     4  11  26  47  75 115 154 204 261 311 388 465
#     4  12  22  51  77 111 160 199 259 321 377 459
#     4  12  24  47  80 107 155 210 252 317 390 442
#     4  10  25  50  76 106 156 202 246 328 379 456
#
# _framework density 26.364847000000001
#
# number of rings (size 3 to 8) (size 9 to 14) (size 15 to 20)
#    0.000    0.750    3.750    2.250    5.250    4.000 
#    9.000    6.250    2.750    0.000    0.000    0.000 
#    0.000    0.000    0.000    0.000    0.000    0.000 
#
# Total GULP energy -89947.761225 kJ/mol
# GULP energy per Si atom -5621.735077 kJ/mol
# Density = 2.630484 g / cm^3
# Si number density = 26.364847 Si / 1000 Ang^3
#
#
#
# Elastic Constant Matrix: (Units=GPa)
#
#
# Indices 1 2 3 4 5 6 
#
# 1 186.9090 88.8248 52.9821 0.0955 1.9186 18.7114
# 2 88.8248 153.7482 52.8727 -22.6669 3.5973 16.5212
# 3 52.9821 52.8727 100.9069 -8.7441 -3.9269 5.9167
# 4 0.0955 -22.6669 -8.7441 52.8594 -12.5559 -1.8707
# 5 1.9186 3.5973 -3.9269 -12.5559 47.9644 -0.0271
# 6 18.7114 16.5212 5.9167 -1.8707 -0.0271 63.8036
#
#
#
# Elastic Compliance Matrix: (Units=1/GPa)
#
#
# Indices 1 2 3 4 5 6 
#
# 1 0.008058 -0.004084 -0.002261 -0.002377 -0.000824 -0.001166
# 2 -0.004084 0.010610 -0.002988 0.004066 0.000187 -0.001153
# 3 -0.002261 -0.002988 0.012821 0.001256 0.001693 0.000285
# 4 -0.002377 0.004066 0.001256 0.022238 0.005714 0.000182
# 5 -0.000824 0.000187 0.001693 0.005714 0.022502 0.000213
# 6 -0.001166 -0.001153 0.000285 0.000182 0.000213 0.016293
#
#
# Mechanical properties :
#
#
# Convention : Reuss Voigt Hill
#
# Bulk Modulus (GPa) = 77.97925 92.32482 85.15203
# Shear Modulus (GPa) = 43.30444 49.38444 46.34444
#
# Velocity S-wave (km/s) = 4.05718 4.33265 4.19717
# Velocity P-wave (km/s) = 7.18254 7.75392 7.47369
#
# Compressibility (1/GPa) = 0.01282392
#
# Stress axis : x y z
#
# Youngs Moduli (GPa) = 124.09670 94.25036 77.99824
#
# Poissons Ratio (x) = 0.38490 0.17635
# Poissons Ratio (y) = 0.50678 0.23305
# Poissons Ratio (z) = 0.28057 0.28161
#
# Static dielectric constant tensor:
#      x y z
#    x 2.051480 -0.006680 0.046660 
#    y -0.006680 2.014400 -0.022920 
#    z 0.046660 -0.022920 2.105410 
# 
# From -- ./inp_files/185762.got.cif
#   From: 2010.05.17/outbox.cif.g08.bks.cpg/sg2_93_cif.got.tgz:185762.got - 2010.06.03 11:33:40.
