data_PCOD9052676
_publ_section_title
;
Structure prediction by ZEFSAII (Michael W. Deem and Ramdas Pophale) SiO2 
 PCOD9052676
Probable space group: P -1
;
_chemical_formula_sum "Si O2"
_cell_formula_units_Z 15
_cell_length_a 16.939336
_cell_length_b 8.341987
_cell_length_c 22.957886
_cell_angle_alpha 146.450664
_cell_angle_beta 158.775121
_cell_angle_gamma 42.528800
_cell_volume 636.012172
_symmetry_space_group_name_H-M "P -1"
_symmetry_group_IT_number 2
_symmetry_cell_setting 'triclinic'
loop_
_space_group_symop_operation_xyz
x,y,z
-x,-y,-z
loop_
_atom_site_type_symbol
_atom_site_label
_atom_site_fract_x
_atom_site_fract_y
_atom_site_fract_z
Si Si1 0.461913 0.662717 0.670275
Si Si2 0.590026 0.840464 0.425517
Si Si3 0.160128 0.535172 0.176126
Si Si4 0.144747 0.747154 0.020042
Si Si5 0.004885 0.173488 0.381298
Si Si6 0.648101 0.799625 0.169261
Si Si7 0.980732 0.347961 0.684518
Si Si8 0.500000 0.000000 0.000000
O O1 0.495139 0.432272 0.673145
O O2 0.680334 0.703076 0.792879
O O3 0.240173 0.527302 0.441231
O O4 0.401302 0.947966 0.745373
O O5 0.391934 0.848618 0.246197
O O6 0.813145 0.782813 0.530820
O O7 0.671510 0.150619 0.607869
O O8 0.000000 0.500000 0.000000
O O9 0.001556 0.495136 0.110832
O O10 0.140213 0.587719 0.906647
O O11 0.000000 0.000000 0.000000
O O12 0.748527 0.030572 0.149488
O O13 0.000000 0.500000 0.500000
O O14 0.086919 0.959192 0.419780
O O15 0.893140 0.723915 0.308165
O O16 0.599189 0.898478 0.099806
O O17 0.500000 0.500000 0.000000
#
# Coordination Sequence:
#
# PCOD9052676 Si02
#       8
#     2   2   2   2   2   2   2   1
#     4  12  28  47  76 111 155 198 259 315 388 459
#     4  12  27  49  77 111 150 198 257 311 379 467
#     4  12  28  49  76 110 152 202 250 314 384 454
#     4  12  29  50  78 111 150 199 259 316 385 459
#     4  11  26  44  78 103 152 193 249 310 380 449
#     4  11  28  46  77 111 158 199 260 316 393 460
#     4  11  27  49  73 113 149 193 259 315 382 462
#     4  10  26  48  72 110 150 202 258 302 388 456
#
# _framework density 23.584455999999999
#
# number of rings (size 3 to 8) (size 9 to 14) (size 15 to 20)
#    0.000    0.533    2.667    3.200   18.667    1.067 
#    0.000    0.000    0.000    0.000    0.000    0.000 
#    0.000    0.000    0.000    0.000    0.000    0.000 
#
# Total GULP energy -83690.065312 kJ/mol
# GULP energy per Si atom -5579.337687 kJ/mol
# Density = 2.353078 g / cm^3
# Si number density = 23.584456 Si / 1000 Ang^3
#
#
#
# Elastic Constant Matrix: (Units=GPa)
#
#
# Indices 1 2 3 4 5 6 
#
# 1 83.2594 6.9405 28.7037 1.4305 13.8095 -43.4804
# 2 6.9405 85.4706 47.3460 -9.6109 -12.7597 -29.2893
# 3 28.7037 47.3460 124.1627 -17.2139 -8.3595 -18.4346
# 4 1.4305 -9.6109 -17.2139 58.0518 -10.1385 6.7756
# 5 13.8095 -12.7597 -8.3595 -10.1385 41.5498 -4.2430
# 6 -43.4804 -29.2893 -18.4346 6.7756 -4.2430 50.7454
#
#
#
# Elastic Compliance Matrix: (Units=1/GPa)
#
#
# Indices 1 2 3 4 5 6 
#
# 1 0.030518 0.010245 -0.007913 -0.006069 -0.007067 0.029407
# 2 0.010245 0.022272 -0.007834 -0.000479 0.003698 0.019160
# 3 -0.007913 -0.007834 0.012583 0.003973 0.003010 -0.007009
# 4 -0.006069 -0.000479 0.003973 0.020421 0.007022 -0.006172
# 5 -0.007067 0.003698 0.003010 0.007022 0.029740 -0.001278
# 6 0.029407 0.019160 -0.007009 -0.006172 -0.001278 0.054133
#
#
# Mechanical properties :
#
#
# Convention : Reuss Voigt Hill
#
# Bulk Modulus (GPa) = 18.39246 50.98591 34.68919
# Shear Modulus (GPa) = 25.15165 44.06291 34.60728
#
# Velocity S-wave (km/s) = 3.26920 4.32708 3.83479
# Velocity P-wave (km/s) = 4.69741 6.82863 5.86071
#
# Compressibility (1/GPa) = 0.05437009
#
# Stress axis : x y z
#
# Youngs Moduli (GPa) = 32.76736 44.90008 79.47130
#
# Poissons Ratio (x) = -0.46000 0.62884
# Poissons Ratio (y) = -0.33570 0.62255
# Poissons Ratio (z) = 0.25928 0.35173
#
# Static dielectric constant tensor:
#      x y z
#    x 1.977950 -0.020870 -0.056440 
#    y -0.020870 1.918480 0.013030 
#    z -0.056440 0.013030 1.953210 
# 
# From -- ./inp_files/613016.got.cif
#   From: 2010.05.17/outbox.cif.g08.bks.cpg/sg2_307_cif.got.tgz:613016.got - 2010.06.03 11:33:40.
