data_PCOD9052768
_publ_section_title
;
Structure prediction by ZEFSAII (Michael W. Deem and Ramdas Pophale) SiO2 
 PCOD9052768
Probable space group: P -1
;
_chemical_formula_sum "Si O2"
_cell_formula_units_Z 9
_cell_length_a 9.459925
_cell_length_b 10.012265
_cell_length_c 5.328949
_cell_angle_alpha 45.198655
_cell_angle_beta 70.684083
_cell_angle_gamma 85.571297
_cell_volume 328.692266
_symmetry_space_group_name_H-M "P -1"
_symmetry_group_IT_number 2
_symmetry_cell_setting 'triclinic'
loop_
_space_group_symop_operation_xyz
x,y,z
-x,-y,-z
loop_
_atom_site_type_symbol
_atom_site_label
_atom_site_fract_x
_atom_site_fract_y
_atom_site_fract_z
Si Si1 0.951112 0.696357 0.830911
Si Si2 0.282045 0.893988 0.303550
Si Si3 0.651993 0.456752 0.592378
Si Si4 0.500000 0.000000 0.500000
Si Si5 0.286301 0.244136 0.472183
O O1 0.879717 0.782604 0.521851
O O2 0.115803 0.832121 0.618971
O O3 0.805520 0.613388 0.200705
O O4 0.000000 0.500000 0.000000
O O5 0.317586 0.750217 0.245728
O O6 0.409107 0.903895 0.425569
O O7 0.281528 0.089673 0.900335
O O8 0.500000 0.500000 0.500000
O O9 0.661807 0.531496 0.774412
O O10 0.595435 0.825390 0.689782
#
# Coordination Sequence:
#
# PCOD9052768 Si02
#       5
#     2   2   2   1   2
#     4  10  26  49  75 111 149 195 247 311 374 435
#     4  11  26  49  75 114 149 193 251 304 375 443
#     4  11  25  48  76 108 149 194 247 303 372 443
#     4  12  26  44  76 112 152 192 242 306 372 436
#     4  12  26  46  77 110 148 197 250 306 371 441
#
# _framework density 27.381233000000002
#
# number of rings (size 3 to 8) (size 9 to 14) (size 15 to 20)
#    0.000    0.889    2.222    2.667    3.111   13.333 
#    0.000    0.000    0.000    0.000    0.000    0.000 
#    0.000    0.000    0.000    0.000    0.000    0.000 
#
# Total GULP energy -50170.665605 kJ/mol
# GULP energy per Si atom -5574.518401 kJ/mol
# Density = 2.731891 g / cm^3
# Si number density = 27.381233 Si / 1000 Ang^3
#
#
#
# Elastic Constant Matrix: (Units=GPa)
#
#
# Indices 1 2 3 4 5 6 
#
# 1 195.5184 32.0199 39.9347 -3.7421 10.7016 -17.9825
# 2 32.0199 192.9550 29.0267 -38.2980 5.5703 -33.3485
# 3 39.9347 29.0267 86.9502 -25.4785 15.6793 -8.1359
# 4 -3.7421 -38.2980 -25.4785 40.2783 -7.2265 9.2930
# 5 10.7016 5.5703 15.6793 -7.2265 52.5333 -1.9374
# 6 -17.9825 -33.3485 -8.1359 9.2930 -1.9374 47.0714
#
#
#
# Elastic Compliance Matrix: (Units=1/GPa)
#
#
# Indices 1 2 3 4 5 6 
#
# 1 0.005984 -0.000730 -0.002985 -0.002521 -0.000534 0.001728
# 2 -0.000730 0.007087 -0.000033 0.005884 0.000349 0.003589
# 3 -0.002985 -0.000033 0.016150 0.009466 -0.002920 -0.000362
# 4 -0.002521 0.005884 0.009466 0.037102 0.002080 -0.002398
# 5 -0.000534 0.000349 -0.002920 0.002080 0.020263 -0.000038
# 6 0.001728 0.003589 -0.000362 -0.002398 -0.000038 0.024856
#
#
# Mechanical properties :
#
#
# Convention : Reuss Voigt Hill
#
# Bulk Modulus (GPa) = 46.03582 75.26514 60.65048
# Shear Modulus (GPa) = 39.62576 52.93943 46.28259
#
# Velocity S-wave (km/s) = 3.80832 4.40184 4.11579
# Velocity P-wave (km/s) = 6.01557 7.30633 6.69214
#
# Compressibility (1/GPa) = 0.02172222
#
# Stress axis : x y z
#
# Youngs Moduli (GPa) = 167.11549 141.10764 61.92129
#
# Poissons Ratio (x) = 0.10304 0.18486
# Poissons Ratio (y) = 0.12203 0.00207
# Poissons Ratio (z) = 0.49890 0.00472
#
# Static dielectric constant tensor:
#      x y z
#    x 2.101330 -0.051080 -0.350210 
#    y -0.051080 2.236530 0.235890 
#    z -0.350210 0.235890 2.556990 
# 
# From -- ./inp_files/15838.got.cif
#   From: 2010.05.17/outbox.cif.g08.bks.cpg/sg2_8_cif.got.tgz:15838.got - 2010.06.03 11:33:40.
