data_PCOD9052340
_publ_section_title
;
Structure prediction by ZEFSAII (Michael W. Deem and Ramdas Pophale) SiO2 
 PCOD9052340
Probable space group: P -1
;
_chemical_formula_sum "Si O2"
_cell_formula_units_Z 12
_cell_length_a 5.420714
_cell_length_b 24.030692
_cell_length_c 4.932885
_cell_angle_alpha 73.641157
_cell_angle_beta 84.105720
_cell_angle_gamma 51.533973
_cell_volume 480.499706
_symmetry_space_group_name_H-M "P -1"
_symmetry_group_IT_number 2
_symmetry_cell_setting 'triclinic'
loop_
_space_group_symop_operation_xyz
x,y,z
-x,-y,-z
loop_
_atom_site_type_symbol
_atom_site_label
_atom_site_fract_x
_atom_site_fract_y
_atom_site_fract_z
Si Si1 0.415751 0.270416 0.124431
Si Si2 0.634586 0.045281 0.891903
Si Si3 0.169426 0.629051 0.341675
Si Si4 0.159269 0.507669 0.722849
Si Si5 0.435618 0.142746 0.274174
Si Si6 0.752893 0.280364 0.364138
O O1 0.582993 0.185427 0.158665
O O2 0.494771 0.265654 0.451382
O O3 0.095687 0.319425 0.928085
O O4 0.601003 0.304932 0.040959
O O5 0.607181 0.074448 0.552788
O O6 0.500000 0.000000 0.000000
O O7 0.576434 0.885081 0.976823
O O8 0.000000 0.000000 0.000000
O O9 0.081682 0.586440 0.600132
O O10 0.469866 0.558973 0.243839
O O11 0.240714 0.668558 0.502307
O O12 0.000000 0.500000 0.500000
O O13 0.000000 0.500000 0.000000
O O14 0.101572 0.206193 0.368938
#
# Coordination Sequence:
#
# PCOD9052340 Si02
#       6
#     2   2   2   2   2   2
#     4  10  26  44  79 107 152 192 256 315 385 445
#     4  12  27  44  77 106 154 197 246 301 376 450
#     4  11  27  50  73 116 150 204 260 324 390 464
#     4  11  30  47  79 106 160 200 264 316 396 468
#     4  10  26  48  72 113 148 194 254 308 372 451
#     4  10  26  44  79 107 152 192 256 315 385 445
#
# _framework density 24.974001999999999
#
# number of rings (size 3 to 8) (size 9 to 14) (size 15 to 20)
#    1.000    0.333    0.000    2.000   14.000    1.333 
#    0.000    2.500    0.000    0.000    0.000    0.000 
#    0.000    0.000    0.000    0.000    0.000    0.000 
#
# Total GULP energy -66883.614480 kJ/mol
# GULP energy per Si atom -5573.634540 kJ/mol
# Density = 2.491716 g / cm^3
# Si number density = 24.974002 Si / 1000 Ang^3
#
#
#
# Elastic Constant Matrix: (Units=GPa)
#
#
# Indices 1 2 3 4 5 6 
#
# 1 142.8984 43.6667 38.4905 -1.3738 14.0444 37.9348
# 2 43.6667 103.1748 19.2618 11.3023 -0.1116 30.2986
# 3 38.4905 19.2618 133.1506 7.3838 0.6739 10.0943
# 4 -1.3738 11.3023 7.3838 34.0732 -3.9258 4.6436
# 5 14.0444 -0.1116 0.6739 -3.9258 25.3433 13.5093
# 6 37.9348 30.2986 10.0943 4.6436 13.5093 54.2773
#
#
#
# Elastic Compliance Matrix: (Units=1/GPa)
#
#
# Indices 1 2 3 4 5 6 
#
# 1 0.009903 -0.002679 -0.002234 0.002074 -0.002714 -0.004512
# 2 -0.002679 0.013061 -0.000505 -0.002988 0.004375 -0.006158
# 3 -0.002234 -0.000505 0.008298 -0.001693 0.000595 0.000297
# 4 0.002074 -0.002988 -0.001693 0.031951 0.005770 -0.003637
# 5 -0.002714 0.004375 0.000595 0.005770 0.048969 -0.013338
# 6 -0.004512 -0.006158 0.000297 -0.003637 -0.013338 0.028591
#
#
# Mechanical properties :
#
#
# Convention : Reuss Voigt Hill
#
# Bulk Modulus (GPa) = 48.95950 64.67355 56.81652
# Shear Modulus (GPa) = 31.56241 41.25908 36.41075
#
# Velocity S-wave (km/s) = 3.55887 4.06899 3.82245
# Velocity P-wave (km/s) = 6.04435 6.93023 6.50239
#
# Compressibility (1/GPa) = 0.02042505
#
# Stress axis : x y z
#
# Youngs Moduli (GPa) = 100.97919 76.56535 120.51777
#
# Poissons Ratio (x) = 0.20514 0.26928
# Poissons Ratio (y) = 0.27055 0.06080
# Poissons Ratio (z) = 0.22562 0.03863
#
# Static dielectric constant tensor:
#      x y z
#    x 1.994410 -0.057490 -0.129110 
#    y -0.057490 1.941010 -0.001610 
#    z -0.129110 -0.001610 2.050720 
# 
# From -- ./inp_files/8548.got.cif
#   From: 2010.05.17/outbox.cif.g08.bks.cpg/sg2_5_cif.got.tgz:8548.got - 2010.06.03 11:33:40.
