data_PCOD9052566
_publ_section_title
;
Structure prediction by ZEFSAII (Michael W. Deem and Ramdas Pophale) SiO2 
 PCOD9052566
Probable space group: P -1
;
_chemical_formula_sum "Si O2"
_cell_formula_units_Z 14
_cell_length_a 8.819539
_cell_length_b 4.990101
_cell_length_c 21.587759
_cell_angle_alpha 106.533520
_cell_angle_beta 136.211069
_cell_angle_gamma 58.197009
_cell_volume 551.282021
_symmetry_space_group_name_H-M "P -1"
_symmetry_group_IT_number 2
_symmetry_cell_setting 'triclinic'
loop_
_space_group_symop_operation_xyz
x,y,z
-x,-y,-z
loop_
_atom_site_type_symbol
_atom_site_label
_atom_site_fract_x
_atom_site_fract_y
_atom_site_fract_z
Si Si1 0.714874 0.650654 0.357664
Si Si2 0.582472 0.707623 0.760031
Si Si3 0.904767 0.398658 0.632287
Si Si4 0.784022 0.271430 0.995204
Si Si5 0.614793 0.914809 0.159611
Si Si6 0.129829 0.176947 0.898382
Si Si7 0.393711 0.939084 0.528876
O O1 0.626885 0.390501 0.324548
O O2 0.961492 0.512261 0.378203
O O3 0.500082 0.954945 0.275717
O O4 0.725869 0.794179 0.436564
O O5 0.850281 0.408562 0.806634
O O6 0.566732 0.774492 0.833567
O O7 0.663453 0.663522 0.615301
O O8 0.791253 0.196450 0.552234
O O9 0.129047 0.228715 0.735351
O O10 0.810027 0.586035 0.027338
O O11 0.836748 0.116384 0.069372
O O12 0.522701 0.299762 0.897628
O O13 0.000000 0.000000 0.000000
O O14 0.689096 0.944283 0.114464
O O15 0.500000 0.000000 0.500000
#
# Coordination Sequence:
#
# PCOD9052566 Si02
#       7
#     2   2   2   2   2   2   2
#     4  11  26  45  74 103 147 186 234 285 358 416
#     4  11  26  44  74 108 140 189 234 295 345 415
#     4  10  26  47  70 105 140 187 231 298 348 421
#     4  12  26  48  72 105 146 189 233 292 351 417
#     4  11  26  47  74 104 142 182 246 283 356 420
#     4  12  26  46  74 103 144 191 231 296 349 412
#     4  11  26  46  72 105 141 186 236 292 353 422
#
# _framework density 25.395350000000001
#
# number of rings (size 3 to 8) (size 9 to 14) (size 15 to 20)
#    0.000    0.857    1.429    3.429   12.000    2.857 
#    0.000    0.000    0.000    0.000    0.000    0.000 
#    0.000    0.000    0.000    0.000    0.000    0.000 
#
# Total GULP energy -78480.530015 kJ/mol
# GULP energy per Si atom -5605.752144 kJ/mol
# Density = 2.533755 g / cm^3
# Si number density = 25.395350 Si / 1000 Ang^3
#
#
#
# Elastic Constant Matrix: (Units=GPa)
#
#
# Indices 1 2 3 4 5 6 
#
# 1 89.7173 8.9279 19.2357 0.9933 4.5164 -26.4758
# 2 8.9279 62.6659 -0.5102 -9.5983 6.0960 -20.4032
# 3 19.2357 -0.5102 89.5162 -17.3568 15.2670 -18.2607
# 4 0.9933 -9.5983 -17.3568 35.5955 -12.7376 -4.8672
# 5 4.5164 6.0960 15.2670 -12.7376 57.2354 4.5927
# 6 -26.4758 -20.4032 -18.2607 -4.8672 4.5927 40.1408
#
#
#
# Elastic Compliance Matrix: (Units=1/GPa)
#
#
# Indices 1 2 3 4 5 6 
#
# 1 0.014199 0.001529 -0.000566 0.000469 -0.001843 0.010153
# 2 0.001529 0.023231 0.005826 0.010238 -0.003241 0.017079
# 3 -0.000566 0.005826 0.016199 0.009759 -0.003652 0.011558
# 4 0.000469 0.010238 0.009759 0.038900 0.003784 0.014236
# 5 -0.001843 -0.003241 -0.003652 0.003784 0.020291 -0.006387
# 6 0.010153 0.017079 0.011558 0.014236 -0.006387 0.048005
#
#
# Mechanical properties :
#
#
# Convention : Reuss Voigt Hill
#
# Bulk Modulus (GPa) = 14.87951 33.02291 23.95121
# Shear Modulus (GPa) = 29.47232 40.87740 35.17486
#
# Velocity S-wave (km/s) = 3.41037 4.01639 3.72572
# Velocity P-wave (km/s) = 4.62378 5.87709 5.28770
#
# Compressibility (1/GPa) = 0.06720653
#
# Stress axis : x y z
#
# Youngs Moduli (GPa) = 70.42763 43.04517 61.73252
#
# Poissons Ratio (x) = -0.06582 0.03495
# Poissons Ratio (y) = -0.10769 -0.35964
# Poissons Ratio (z) = 0.03988 -0.25077
#
# Static dielectric constant tensor:
#      x y z
#    x 1.966550 0.013290 -0.031270 
#    y 0.013290 2.048910 -0.109670 
#    z -0.031270 -0.109670 2.037410 
# 
# From -- ./inp_files/107510.got.cif
#   From: 2010.05.17/outbox.cif.g08.bks.cpg/sg2_54_cif.got.tgz:107510.got - 2010.06.03 11:33:40.
