data_PCOD9052030
_publ_section_title
;
Structure prediction by ZEFSAII (Michael W. Deem and Ramdas Pophale) SiO2 
 PCOD9052030
Probable space group: P -1
;
_chemical_formula_sum "Si O2"
_cell_formula_units_Z 14
_cell_length_a 6.766252
_cell_length_b 8.714904
_cell_length_c 19.207340
_cell_angle_alpha 137.033682
_cell_angle_beta 48.549065
_cell_angle_gamma 130.032993
_cell_volume 549.918568
_symmetry_space_group_name_H-M "P -1"
_symmetry_group_IT_number 2
_symmetry_cell_setting 'triclinic'
loop_
_space_group_symop_operation_xyz
x,y,z
-x,-y,-z
loop_
_atom_site_type_symbol
_atom_site_label
_atom_site_fract_x
_atom_site_fract_y
_atom_site_fract_z
Si Si1 0.705995 0.105488 0.742075
Si Si2 0.881469 0.614477 0.897708
Si Si3 0.727292 0.403313 0.314152
Si Si4 0.818429 0.014872 0.940183
Si Si5 0.151538 0.075503 0.739648
Si Si6 0.272916 0.713548 0.347491
Si Si7 0.299214 0.691584 0.494670
O O1 0.446296 0.871858 0.730973
O O2 0.792415 0.132135 0.649606
O O3 0.662337 0.351121 0.861185
O O4 0.944438 0.076486 0.726068
O O5 0.143850 0.566324 0.782837
O O6 0.994722 0.747013 0.986017
O O7 0.812108 0.799049 0.922288
O O8 0.526042 0.563984 0.418958
O O9 0.708871 0.119106 0.382775
O O10 0.993782 0.490801 0.331734
O O11 0.969012 0.017822 0.832213
O O12 0.500000 0.000000 0.000000
O O13 0.427646 0.305510 0.753980
O O14 0.318993 0.782288 0.440103
O O15 0.000000 0.500000 0.500000
#
# Coordination Sequence:
#
# PCOD9052030 Si02
#       7
#     2   2   2   2   2   2   2
#     4  11  25  45  78 111 153 202 259 316 390 460
#     4  10  25  49  77 116 148 199 263 324 389 469
#     4  11  25  51  77 116 159 208 260 322 390 471
#     4  11  26  51  85 113 157 205 261 329 395 462
#     4  12  27  51  77 118 161 210 264 325 389 469
#     4  11  27  47  74 109 159 204 259 318 385 461
#     4  12  28  48  78 116 164 210 262 318 392 469
#
# _framework density 25.458316
#
# number of rings (size 3 to 8) (size 9 to 14) (size 15 to 20)
#    0.000    0.857    1.429    3.857    6.000    6.857 
#    0.000   15.000    0.000    0.000    0.000    0.000 
#    0.000    0.000    0.000    0.000    0.000    0.000 
#
# Total GULP energy -78344.771475 kJ/mol
# GULP energy per Si atom -5596.055105 kJ/mol
# Density = 2.540037 g / cm^3
# Si number density = 25.458316 Si / 1000 Ang^3
#
#
#
# Elastic Constant Matrix: (Units=GPa)
#
#
# Indices 1 2 3 4 5 6 
#
# 1 208.4810 95.6403 82.5004 -4.1800 3.7322 24.7904
# 2 95.6403 133.3574 68.8445 -4.9801 15.0176 20.8147
# 3 82.5004 68.8445 149.4163 -1.6444 9.1240 0.9890
# 4 -4.1800 -4.9801 -1.6444 48.6556 3.9383 4.9871
# 5 3.7322 15.0176 9.1240 3.9383 50.9868 -5.8671
# 6 24.7904 20.8147 0.9890 4.9871 -5.8671 43.7797
#
#
#
# Elastic Compliance Matrix: (Units=1/GPa)
#
#
# Indices 1 2 3 4 5 6 
#
# 1 0.007962 -0.004091 -0.002538 0.000368 0.000766 -0.002445
# 2 -0.004091 0.013574 -0.003719 0.001699 -0.003710 -0.004744
# 3 -0.002538 -0.003719 0.009786 -0.000573 -0.000076 0.003039
# 4 0.000368 0.001699 -0.000573 0.021328 -0.002506 -0.003769
# 5 0.000766 -0.003710 -0.000076 -0.002506 0.021372 0.004481
# 6 -0.002445 -0.004744 0.003039 -0.003769 0.004481 0.027443
#
#
# Mechanical properties :
#
#
# Convention : Reuss Voigt Hill
#
# Bulk Modulus (GPa) = 94.10454 109.46947 101.78700
# Shear Modulus (GPa) = 39.77641 44.96905 42.37273
#
# Velocity S-wave (km/s) = 3.95703 4.20739 4.08413
# Velocity P-wave (km/s) = 7.61064 8.16674 7.89359
#
# Compressibility (1/GPa) = 0.01062648
#
# Stress axis : x y z
#
# Youngs Moduli (GPa) = 125.59610 73.67003 102.18942
#
# Poissons Ratio (x) = 0.30137 0.25935
# Poissons Ratio (y) = 0.51379 0.38003
# Poissons Ratio (z) = 0.31875 0.27397
#
# Static dielectric constant tensor:
#      x y z
#    x 2.000540 0.052930 -0.002440 
#    y 0.052930 2.287540 0.056280 
#    z -0.002440 0.056280 2.009540 
# 
# From -- ./inp_files/547441.got.cif
#   From: 2010.05.17/outbox.cif.g08.bks.cpg/sg2_274_cif.got.tgz:547441.got - 2010.06.03 11:33:40.
