data_PCOD9052413
_publ_section_title
;
Structure prediction by ZEFSAII (Michael W. Deem and Ramdas Pophale) SiO2 
 PCOD9052413
Probable space group: P -1
;
_chemical_formula_sum "Si O2"
_cell_formula_units_Z 14
_cell_length_a 13.148431
_cell_length_b 9.078895
_cell_length_c 19.002908
_cell_angle_alpha 44.111724
_cell_angle_beta 155.620439
_cell_angle_gamma 139.928147
_cell_volume 600.900853
_symmetry_space_group_name_H-M "P -1"
_symmetry_group_IT_number 2
_symmetry_cell_setting 'triclinic'
loop_
_space_group_symop_operation_xyz
x,y,z
-x,-y,-z
loop_
_atom_site_type_symbol
_atom_site_label
_atom_site_fract_x
_atom_site_fract_y
_atom_site_fract_z
Si Si1 0.823972 0.948714 0.236770
Si Si2 0.276327 0.637286 0.941115
Si Si3 0.312474 0.840187 0.636709
Si Si4 0.808321 0.791951 0.902503
Si Si5 0.101462 0.480815 0.750296
Si Si6 0.875698 0.970637 0.726696
Si Si7 0.574060 0.306662 0.574158
O O1 0.040687 0.846713 0.429923
O O2 0.902194 0.065156 0.169119
O O3 0.820124 0.158339 0.208587
O O4 0.536896 0.757910 0.110927
O O5 0.325370 0.529831 0.935641
O O6 0.107786 0.420314 0.956474
O O7 0.498735 0.732453 0.750166
O O8 0.208705 0.698242 0.691611
O O9 0.511589 0.109281 0.662788
O O10 0.836967 0.865288 0.815060
O O11 0.000000 0.000000 0.000000
O O12 0.993661 0.246058 0.718287
O O13 0.850486 0.431558 0.663297
O O14 0.613875 0.845455 0.556530
O O15 0.500000 0.500000 0.500000
#
# Coordination Sequence:
#
# PCOD9052413 Si02
#       7
#     2   2   2   2   2   2   2
#     4  10  26  46  68 103 146 191 241 301 358 439
#     4  11  25  47  67 104 151 186 241 302 362 428
#     4  11  26  45  78 107 142 191 250 294 363 428
#     4  12  25  44  73 109 145 189 244 305 358 433
#     4  12  24  44  76 105 144 191 242 302 360 431
#     4  11  24  43  74 101 144 189 242 296 368 422
#     4  11  25  46  68 108 148 183 239 307 355 437
#
# _framework density 23.298352000000001
#
# number of rings (size 3 to 8) (size 9 to 14) (size 15 to 20)
#    0.000    0.857    2.857    3.000    6.000    6.857 
#    2.571    0.000    0.000    0.000    0.000    0.000 
#    0.000    0.000    0.000    0.000    0.000    0.000 
#
# Total GULP energy -78003.728238 kJ/mol
# GULP energy per Si atom -5571.694874 kJ/mol
# Density = 2.324532 g / cm^3
# Si number density = 23.298352 Si / 1000 Ang^3
#
#
#
# Elastic Constant Matrix: (Units=GPa)
#
#
# Indices 1 2 3 4 5 6 
#
# 1 103.5421 56.2563 29.8795 -5.8553 -8.5482 29.6362
# 2 56.2563 157.7758 39.0589 6.0169 -27.1972 14.2754
# 3 29.8795 39.0589 81.4423 2.5057 -15.4932 -2.6303
# 4 -5.8553 6.0169 2.5057 41.3248 2.2332 -9.0869
# 5 -8.5482 -27.1972 -15.4932 2.2332 34.6686 -5.2715
# 6 29.6362 14.2754 -2.6303 -9.0869 -5.2715 57.2412
#
#
#
# Elastic Compliance Matrix: (Units=1/GPa)
#
#
# Indices 1 2 3 4 5 6 
#
# 1 0.015021 -0.004190 -0.004279 0.001620 -0.002651 -0.006916
# 2 -0.004190 0.009336 -0.001808 -0.002162 0.005611 -0.000068
# 3 -0.004279 -0.001808 0.015856 -0.000761 0.005232 0.003756
# 4 0.001620 -0.002162 -0.000761 0.025706 -0.002761 0.003492
# 5 -0.002651 0.005611 0.005232 -0.002761 0.035573 0.003051
# 6 -0.006916 -0.000068 0.003756 0.003492 0.003051 0.022076
#
#
# Mechanical properties :
#
#
# Convention : Reuss Voigt Hill
#
# Bulk Modulus (GPa) = 50.86934 65.90551 58.38742
# Shear Modulus (GPa) = 33.18403 41.15130 37.16766
#
# Velocity S-wave (km/s) = 3.77809 4.20727 3.99844
# Velocity P-wave (km/s) = 6.39635 7.20767 6.81409
#
# Compressibility (1/GPa) = 0.01965821
#
# Stress axis : x y z
#
# Youngs Moduli (GPa) = 66.57174 107.11747 63.06761
#
# Poissons Ratio (x) = 0.44879 0.26989
# Poissons Ratio (y) = 0.27892 0.11405
# Poissons Ratio (z) = 0.28488 0.19371
#
# Static dielectric constant tensor:
#      x y z
#    x 1.855980 -0.012760 0.033140 
#    y -0.012760 1.975340 0.096810 
#    z 0.033140 0.096810 2.075620 
# 
# From -- ./inp_files/566604.got.cif
#   From: 2010.05.17/outbox.cif.g08.bks.cpg/sg2_284_cif.got.tgz:566604.got - 2010.06.03 11:33:40.
