data_PCOD9052752
_publ_section_title
;
Structure prediction by ZEFSAII (Michael W. Deem and Ramdas Pophale) SiO2 
 PCOD9052752
Probable space group: P -1
;
_chemical_formula_sum "Si O2"
_cell_formula_units_Z 10
_cell_length_a 9.639189
_cell_length_b 10.067928
_cell_length_c 8.177807
_cell_angle_alpha 120.090533
_cell_angle_beta 30.871348
_cell_angle_gamma 126.044647
_cell_volume 329.248776
_symmetry_space_group_name_H-M "P -1"
_symmetry_group_IT_number 2
_symmetry_cell_setting 'triclinic'
loop_
_space_group_symop_operation_xyz
x,y,z
-x,-y,-z
loop_
_atom_site_type_symbol
_atom_site_label
_atom_site_fract_x
_atom_site_fract_y
_atom_site_fract_z
Si Si1 0.260122 0.735585 0.129022
Si Si2 0.755938 0.506257 0.627222
Si Si3 0.760682 0.108042 0.422271
Si Si4 0.970333 0.097343 0.751093
Si Si5 0.742040 0.633178 0.144696
O O1 0.916178 0.678119 0.484960
O O2 0.307090 0.853521 0.997891
O O3 0.000000 0.500000 0.500000
O O4 0.377997 0.820646 0.238973
O O5 0.274319 0.556892 0.960147
O O6 0.500000 0.500000 0.000000
O O7 0.574888 0.375702 0.596944
O O8 0.500000 0.000000 0.500000
O O9 0.945336 0.007366 0.255914
O O10 0.003274 0.250809 0.160699
O O11 0.179222 0.278024 0.709092
O O12 0.000000 0.000000 0.500000
#
# Coordination Sequence:
#
# PCOD9052752 Si02
#       5
#     2   2   2   2   2
#     4  11  24  50  78 120 156 206 271 334 390 474
#     4  12  24  45  81 122 156 200 274 331 389 465
#     4  11  25  48  78 117 163 211 265 324 409 483
#     4  10  26  49  71 117 165 209 256 338 410 472
#     4  12  25  48  86 110 156 216 274 325 390 484
#
# _framework density 30.372170000000001
#
# number of rings (size 3 to 8) (size 9 to 14) (size 15 to 20)
#    0.000    0.800    4.000    1.800    5.600    0.800 
#   10.800    2.000    0.000    0.000    0.000    0.000 
#    0.000    0.000    0.000    0.000    0.000    0.000 
#
# Total GULP energy -55827.922168 kJ/mol
# GULP energy per Si atom -5582.792217 kJ/mol
# Density = 3.030304 g / cm^3
# Si number density = 30.372170 Si / 1000 Ang^3
#
#
#
# Elastic Constant Matrix: (Units=GPa)
#
#
# Indices 1 2 3 4 5 6 
#
# 1 340.5998 132.1351 56.6198 -8.5626 -7.5353 16.5785
# 2 132.1351 264.9664 58.9097 11.2910 9.5673 0.3906
# 3 56.6198 58.9097 115.6168 -20.1237 -15.8992 -9.4669
# 4 -8.5626 11.2910 -20.1237 55.9090 5.7043 2.7340
# 5 -7.5353 9.5673 -15.8992 5.7043 57.1242 -2.9561
# 6 16.5785 0.3906 -9.4669 2.7340 -2.9561 76.2997
#
#
#
# Elastic Compliance Matrix: (Units=1/GPa)
#
#
# Indices 1 2 3 4 5 6 
#
# 1 0.003837 -0.001756 -0.000892 0.000622 0.000441 -0.000941
# 2 -0.001756 0.005336 -0.002431 -0.002062 -0.001593 0.000065
# 3 -0.000892 -0.002431 0.011616 0.004130 0.003194 0.001623
# 4 0.000622 -0.002062 0.004130 0.019945 -0.000433 -0.000344
# 5 0.000441 -0.001593 0.003194 -0.000433 0.018817 0.001053
# 6 -0.000941 0.000065 0.001623 -0.000344 0.001053 0.013565
#
#
# Mechanical properties :
#
#
# Convention : Reuss Voigt Hill
#
# Bulk Modulus (GPa) = 94.08060 135.16804 114.62432
# Shear Modulus (GPa) = 57.59148 69.43447 63.51297
#
# Velocity S-wave (km/s) = 4.35925 4.78653 4.57788
# Velocity P-wave (km/s) = 7.50870 8.66881 8.10953
#
# Compressibility (1/GPa) = 0.01062918
#
# Stress axis : x y z
#
# Youngs Moduli (GPa) = 260.63782 187.42011 86.08734
#
# Poissons Ratio (x) = 0.32911 0.07682
# Poissons Ratio (y) = 0.45768 0.20931
# Poissons Ratio (z) = 0.23257 0.45568
#
# Static dielectric constant tensor:
#      x y z
#    x 2.491350 -0.173070 0.045360 
#    y -0.173070 2.724870 0.107370 
#    z 0.045360 0.107370 2.639490 
# 
# From -- ./inp_files/169085.got.cif
#   From: 2010.05.17/outbox.cif.g08.bks.cpg/sg2_85_cif.got.tgz:169085.got - 2010.06.03 11:33:40.
