data_PCOD9052859
_publ_section_title
;
Structure prediction by ZEFSAII (Michael W. Deem and Ramdas Pophale) SiO2 
 PCOD9052859
Probable space group: P -1
;
_chemical_formula_sum "Si O2"
_cell_formula_units_Z 15
_cell_length_a 13.915707
_cell_length_b 6.127169
_cell_length_c 13.087285
_cell_angle_alpha 88.211148
_cell_angle_beta 136.268530
_cell_angle_gamma 64.443374
_cell_volume 581.242705
_symmetry_space_group_name_H-M "P -1"
_symmetry_group_IT_number 2
_symmetry_cell_setting 'triclinic'
loop_
_space_group_symop_operation_xyz
x,y,z
-x,-y,-z
loop_
_atom_site_type_symbol
_atom_site_label
_atom_site_fract_x
_atom_site_fract_y
_atom_site_fract_z
Si Si1 0.000000 0.000000 0.500000
Si Si2 0.925756 0.106216 0.633840
Si Si3 0.045060 0.586961 0.167014
Si Si4 0.634020 0.335178 0.950892
Si Si5 0.338715 0.000070 0.507315
Si Si6 0.335834 0.948426 0.820634
Si Si7 0.672291 0.657096 0.321090
Si Si8 0.770589 0.507785 0.887855
O O1 0.926890 0.170392 0.316602
O O2 0.158623 0.035170 0.626544
O O3 0.966729 0.246019 0.746380
O O4 0.769188 0.114361 0.558422
O O5 0.849045 0.314039 0.467070
O O6 0.097370 0.667224 0.104855
O O7 0.222171 0.243744 0.326348
O O8 0.862795 0.629709 0.007118
O O9 0.509096 0.645872 0.906815
O O10 0.492924 0.332382 0.776883
O O11 0.765508 0.327996 0.974111
O O12 0.685068 0.103260 0.078383
O O13 0.560047 0.744242 0.680447
O O14 0.309125 0.182745 0.580411
O O15 0.347703 0.191541 0.800546
#
# Coordination Sequence:
#
# PCOD9052859 Si02
#       8
#     1   2   2   2   2   2   2   2
#     4  12  22  44  64  94 138 178 218 292 344 402
#     4  11  24  44  67 102 139 178 232 285 346 417
#     4  10  27  45  72 105 136 178 239 285 346 414
#     4  11  23  43  64  97 137 176 228 283 342 411
#     4  11  22  46  69  99 140 179 228 286 347 414
#     4  11  24  39  64  98 135 174 231 279 337 423
#     4  11  19  43  65  95 136 180 228 277 343 417
#     4  11  22  50  71 101 141 180 231 293 336 415
#
# _framework density 25.806774999999998
#
# number of rings (size 3 to 8) (size 9 to 14) (size 15 to 20)
#    0.000    1.067    5.333    0.800    1.867    2.133 
#    7.200    1.333    0.000    0.000    0.000    0.000 
#    0.000    0.000    0.000    0.000    0.000    0.000 
#
# Total GULP energy -83733.906782 kJ/mol
# GULP energy per Si atom -5582.260452 kJ/mol
# Density = 2.574804 g / cm^3
# Si number density = 25.806775 Si / 1000 Ang^3
#
#
#
# Elastic Constant Matrix: (Units=GPa)
#
#
# Indices 1 2 3 4 5 6 
#
# 1 205.2200 69.5941 53.4352 13.2892 -4.6213 34.6098
# 2 69.5941 100.1754 42.9146 10.6268 5.3126 15.6523
# 3 53.4352 42.9146 85.3382 11.5595 13.6508 15.0318
# 4 13.2892 10.6268 11.5595 59.7122 7.2452 -8.4902
# 5 -4.6213 5.3126 13.6508 7.2452 51.4852 6.4496
# 6 34.6098 15.6523 15.0318 -8.4902 6.4496 32.7661
#
#
#
# Elastic Compliance Matrix: (Units=1/GPa)
#
#
# Indices 1 2 3 4 5 6 
#
# 1 0.007968 -0.003448 -0.002225 -0.002040 0.002804 -0.006830
# 2 -0.003448 0.014811 -0.004848 -0.001111 -0.000214 -0.001455
# 3 -0.002225 -0.004848 0.016878 -0.001886 -0.003550 -0.002867
# 4 -0.002040 -0.001111 -0.001886 0.019507 -0.003477 0.009290
# 5 0.002804 -0.000214 -0.003550 -0.003477 0.021935 -0.006449
# 6 -0.006830 -0.001455 -0.002867 0.009290 -0.006449 0.043420
#
#
# Mechanical properties :
#
#
# Convention : Reuss Voigt Hill
#
# Bulk Modulus (GPa) = 53.71914 80.29125 67.00519
# Shear Modulus (GPa) = 32.94531 43.77868 38.36199
#
# Velocity S-wave (km/s) = 3.57685 4.12321 3.85971
# Velocity P-wave (km/s) = 6.15789 7.33811 6.77375
#
# Compressibility (1/GPa) = 0.01861534
#
# Stress axis : x y z
#
# Youngs Moduli (GPa) = 125.49584 67.51567 59.25040
#
# Poissons Ratio (x) = 0.23279 0.13181
# Poissons Ratio (y) = 0.43270 0.28727
# Poissons Ratio (z) = 0.27919 0.32734
#
# Static dielectric constant tensor:
#      x y z
#    x 2.034180 0.010040 0.003940 
#    y 0.010040 2.017560 -0.059280 
#    z 0.003940 -0.059280 2.446070 
# 
# From -- ./inp_files/525703.got.cif
#   From: 2010.05.17/outbox.cif.g08.bks.cpg/sg2_263_cif.got.tgz:525703.got - 2010.06.03 11:33:40.
