data_PCOD9052404
_publ_section_title
;
Structure prediction by ZEFSAII (Michael W. Deem and Ramdas Pophale) SiO2 
 PCOD9052404
Probable space group: P -1
;
_chemical_formula_sum "Si O2"
_cell_formula_units_Z 13
_cell_length_a 12.776912
_cell_length_b 9.866484
_cell_length_c 9.426208
_cell_angle_alpha 79.466766
_cell_angle_beta 123.272924
_cell_angle_gamma 139.881057
_cell_volume 575.066784
_symmetry_space_group_name_H-M "P -1"
_symmetry_group_IT_number 2
_symmetry_cell_setting 'triclinic'
loop_
_space_group_symop_operation_xyz
x,y,z
-x,-y,-z
loop_
_atom_site_type_symbol
_atom_site_label
_atom_site_fract_x
_atom_site_fract_y
_atom_site_fract_z
Si Si1 0.482027 0.104940 0.080541
Si Si2 0.893603 0.103532 0.516408
Si Si3 0.258795 0.280315 0.400408
Si Si4 0.000000 0.000000 0.000000
Si Si5 0.701057 0.191266 0.510416
Si Si6 0.983341 0.303160 0.242604
Si Si7 0.682702 0.564800 0.063626
O O1 0.621861 0.200067 0.307029
O O2 0.571224 0.316812 0.023691
O O3 0.500000 0.000000 0.000000
O O4 0.229765 0.888375 0.975187
O O5 0.782207 0.114083 0.536150
O O6 0.897411 0.179677 0.354113
O O7 0.132388 0.289251 0.709907
O O8 0.779527 0.853877 0.469754
O O9 0.500000 0.500000 0.500000
O O10 0.145621 0.327479 0.312906
O O11 0.139967 0.093935 0.223161
O O12 0.206152 0.271764 0.024210
O O13 0.887725 0.441646 0.682419
O O14 0.500000 0.000000 0.500000
O O15 0.500000 0.500000 0.000000
#
# Coordination Sequence:
#
# PCOD9052404 Si02
#       7
#     2   2   2   1   2   2   2
#     4  12  25  45  74 106 143 195 242 296 373 437
#     4  11  23  46  70 102 143 188 241 295 358 448
#     4  11  26  42  70 105 140 182 235 305 364 426
#     4  10  26  46  66 108 148 180 248 302 362 436
#     4  12  27  48  73 106 150 191 242 311 367 437
#     4  12  25  44  74 103 140 189 250 289 370 444
#     4  11  25  45  76 103 146 193 238 305 372 431
#
# _framework density 22.606069999999999
#
# number of rings (size 3 to 8) (size 9 to 14) (size 15 to 20)
#    0.000    0.615    3.077    4.615    4.308    8.000 
#    0.000    0.000    0.000    0.000    0.000    0.000 
#    0.000    0.000    0.000    0.000    0.000    0.000 
#
# Total GULP energy -72443.594087 kJ/mol
# GULP energy per Si atom -5572.584161 kJ/mol
# Density = 2.255462 g / cm^3
# Si number density = 22.606070 Si / 1000 Ang^3
#
#
#
# Elastic Constant Matrix: (Units=GPa)
#
#
# Indices 1 2 3 4 5 6 
#
# 1 152.7794 -26.9293 9.4364 9.2113 -23.1471 -15.7680
# 2 -26.9293 308.1765 65.3172 12.9696 147.1974 47.4657
# 3 9.4364 65.3172 71.0195 13.0116 46.3746 11.2555
# 4 9.2113 12.9696 13.0116 43.3758 9.8076 5.5119
# 5 -23.1471 147.1974 46.3746 9.8076 154.2021 37.5167
# 6 -15.7680 47.4657 11.2555 5.5119 37.5167 42.8460
#
#
#
# Elastic Compliance Matrix: (Units=1/GPa)
#
#
# Indices 1 2 3 4 5 6 
#
# 1 0.007176 0.000328 -0.001912 -0.001531 0.000905 0.002184
# 2 0.000328 0.006432 -0.002488 0.000117 -0.004830 -0.002137
# 3 -0.001912 -0.002488 0.019693 -0.003996 -0.003744 0.000672
# 4 -0.001531 0.000117 -0.003996 0.024910 -0.000040 -0.002813
# 5 0.000905 -0.004830 -0.003744 -0.000040 0.013643 -0.005274
# 6 0.002184 -0.002137 0.000672 -0.002813 -0.005274 0.031314
#
#
# Mechanical properties :
#
#
# Convention : Reuss Voigt Hill
#
# Bulk Modulus (GPa) = 39.74944 69.73601 54.74273
# Shear Modulus (GPa) = 41.77187 80.36152 61.06669
#
# Velocity S-wave (km/s) = 4.30329 5.96874 5.20308
# Velocity P-wave (km/s) = 6.50482 8.85530 7.76946
#
# Compressibility (1/GPa) = 0.02515758
#
# Stress axis : x y z
#
# Youngs Moduli (GPa) = 139.35107 155.47012 50.77857
#
# Poissons Ratio (x) = -0.05100 0.09708
# Poissons Ratio (y) = -0.04571 0.12635
# Poissons Ratio (z) = 0.26642 0.38683
#
# Static dielectric constant tensor:
#      x y z
#    x 1.855480 0.077320 -0.017240 
#    y 0.077320 1.444110 0.106160 
#    z -0.017240 0.106160 1.794950 
# 
# From -- ./inp_files/183198.got.cif
#   From: 2010.05.17/outbox.cif.g08.bks.cpg/sg2_92_cif.got.tgz:183198.got - 2010.06.03 11:33:40.
