data_PCOD9052551
_publ_section_title
;
Structure prediction by ZEFSAII (Michael W. Deem and Ramdas Pophale) SiO2 
 PCOD9052551
Probable space group: P -1
;
_chemical_formula_sum "Si O2"
_cell_formula_units_Z 16
_cell_length_a 9.187294
_cell_length_b 18.442490
_cell_length_c 9.678950
_cell_angle_alpha 37.623145
_cell_angle_beta 122.301775
_cell_angle_gamma 103.803028
_cell_volume 790.163511
_symmetry_space_group_name_H-M "P -1"
_symmetry_group_IT_number 2
_symmetry_cell_setting 'triclinic'
loop_
_space_group_symop_operation_xyz
x,y,z
-x,-y,-z
loop_
_atom_site_type_symbol
_atom_site_label
_atom_site_fract_x
_atom_site_fract_y
_atom_site_fract_z
Si Si1 0.687048 0.515476 0.026214
Si Si2 0.049314 0.276809 0.503843
Si Si3 0.709114 0.850904 0.944228
Si Si4 0.784756 0.576635 0.267642
Si Si5 0.644422 0.601045 0.569158
Si Si6 0.999848 0.166979 0.347102
Si Si7 0.720244 0.379326 0.733622
Si Si8 0.721176 0.017061 0.434193
O O1 0.734288 0.591264 0.060141
O O2 0.853751 0.380491 0.294133
O O3 0.500000 0.500000 0.000000
O O4 0.653958 0.588654 0.755779
O O5 0.195321 0.349133 0.465874
O O6 0.034317 0.224584 0.422541
O O7 0.139260 0.169804 0.826908
O O8 0.499281 0.915457 0.794064
O O9 0.743005 0.930565 0.712966
O O10 0.729223 0.711626 0.108109
O O11 0.706678 0.479879 0.453124
O O12 0.000000 0.500000 0.500000
O O13 0.683668 0.463556 0.726867
O O14 0.438983 0.676859 0.294761
O O15 0.839376 0.108314 0.378664
O O16 0.182408 0.064996 0.527336
O O17 0.915060 0.271730 0.025249
#
# Coordination Sequence:
#
# PCOD9052551 Si02
#       8
#     2   2   2   2   2   2   2   2
#     4  12  25  39  58 106 138 168 210 258 343 396
#     4  12  25  41  68  98 132 171 217 281 321 389
#     4  11  24  46  69  94 132 171 224 271 324 387
#     4  12  23  39  68 102 134 170 205 269 339 397
#     4  11  23  40  62 102 137 171 209 259 344 403
#     4  11  25  44  70  94 130 174 226 270 322 388
#     4  11  22  40  69  98 133 174 207 269 335 399
#     4  10  26  47  67  91 124 185 227 267 320 385
#
# _framework density 20.248971999999998
#
# number of rings (size 3 to 8) (size 9 to 14) (size 15 to 20)
#    0.000    0.750    5.000    1.875    7.000    1.000 
#    0.000    0.000    0.000    0.000    0.000    0.000 
#    0.000    0.000    0.000    0.000    0.000    0.000 
#
# Total GULP energy -89389.994909 kJ/mol
# GULP energy per Si atom -5586.874682 kJ/mol
# Density = 2.020288 g / cm^3
# Si number density = 20.248972 Si / 1000 Ang^3
#
#
#
# Elastic Constant Matrix: (Units=GPa)
#
#
# Indices 1 2 3 4 5 6 
#
# 1 95.2155 20.8758 21.3270 4.4139 5.7165 -1.6161
# 2 20.8758 99.3889 41.6901 26.8951 12.4743 -12.6128
# 3 21.3270 41.6901 90.5047 15.5977 3.7185 -6.4894
# 4 4.4139 26.8951 15.5977 32.0700 -1.8906 -3.6361
# 5 5.7165 12.4743 3.7185 -1.8906 41.6290 -1.4884
# 6 -1.6161 -12.6128 -6.4894 -3.6361 -1.4884 30.8790
#
#
#
# Elastic Compliance Matrix: (Units=1/GPa)
#
#
# Indices 1 2 3 4 5 6 
#
# 1 0.011333 -0.001684 -0.002020 0.000730 -0.000855 -0.000474
# 2 -0.001684 0.016554 -0.004827 -0.011110 -0.004655 0.004127
# 3 -0.002020 -0.004827 0.014208 -0.002491 0.000364 0.000633
# 4 0.000730 -0.011110 -0.002491 0.041946 0.005363 0.000174
# 5 -0.000855 -0.004655 0.000364 0.005363 0.025745 0.000003
# 6 -0.000474 0.004127 0.000633 0.000174 0.000003 0.034199
#
#
# Mechanical properties :
#
#
# Convention : Reuss Voigt Hill
#
# Bulk Modulus (GPa) = 39.94379 50.32166 45.13273
# Shear Modulus (GPa) = 29.51724 34.33002 31.92363
#
# Velocity S-wave (km/s) = 3.82215 4.12199 3.97489
# Velocity P-wave (km/s) = 6.26479 6.89636 6.58815
#
# Compressibility (1/GPa) = 0.02503518
#
# Stress axis : x y z
#
# Youngs Moduli (GPa) = 88.23405 60.40730 70.38130
#
# Poissons Ratio (x) = 0.10171 0.14216
# Poissons Ratio (y) = 0.14856 0.33972
# Poissons Ratio (z) = 0.17822 0.29158
#
# Static dielectric constant tensor:
#      x y z
#    x 1.768620 0.012490 -0.019260 
#    y 0.012490 1.679810 -0.014490 
#    z -0.019260 -0.014490 1.761640 
# 
# From -- ./inp_files/216578.got.cif
#   From: 2010.05.17/outbox.cif.g08.bks.cpg/sg2_109_cif.got.tgz:216578.got - 2010.06.03 11:33:40.
