data_PCOD9052002
_publ_section_title
;
Structure prediction by ZEFSAII (Michael W. Deem and Ramdas Pophale) SiO2 
 PCOD9052002
Probable space group: P -1
;
_chemical_formula_sum "Si O2"
_cell_formula_units_Z 16
_cell_length_a 18.303220
_cell_length_b 9.233962
_cell_length_c 6.944858
_cell_angle_alpha 126.422073
_cell_angle_beta 51.977631
_cell_angle_gamma 117.301218
_cell_volume 735.993285
_symmetry_space_group_name_H-M "P -1"
_symmetry_group_IT_number 2
_symmetry_cell_setting 'triclinic'
loop_
_space_group_symop_operation_xyz
x,y,z
-x,-y,-z
loop_
_atom_site_type_symbol
_atom_site_label
_atom_site_fract_x
_atom_site_fract_y
_atom_site_fract_z
Si Si1 0.473939 0.199790 0.821887
Si Si2 0.286056 0.359617 0.793002
Si Si3 0.770606 0.363738 0.615280
Si Si4 0.440956 0.516222 0.412178
Si Si5 0.362046 0.009013 0.549775
Si Si6 0.054757 0.756592 0.594567
Si Si7 0.088771 0.181363 0.810491
Si Si8 0.070862 0.411638 0.680632
O O1 0.526801 0.308152 0.636322
O O2 0.539872 0.067325 0.705324
O O3 0.379725 0.085811 0.798652
O O4 0.454498 0.348660 0.121929
O O5 0.335461 0.482131 0.636695
O O6 0.179852 0.279062 0.851179
O O7 0.337142 0.181903 0.607942
O O8 0.289295 0.492149 0.078565
O O9 0.713617 0.169770 0.497691
O O10 0.849941 0.327484 0.611426
O O11 0.832991 0.458374 0.415950
O O12 0.500000 0.500000 0.500000
O O13 0.982337 0.653735 0.480138
O O14 0.081091 0.966311 0.663643
O O15 0.001641 0.761475 0.888811
O O16 0.093614 0.241004 0.629868
O O17 0.000000 0.500000 0.000000
#
# Coordination Sequence:
#
# PCOD9052002 Si02
#       8
#     2   2   2   2   2   2   2   2
#     4  10  25  49  74 102 145 181 231 287 351 427
#     4  12  25  45  71 105 141 183 236 289 351 411
#     4  12  25  46  72 100 147 185 232 294 346 410
#     4  11  23  47  78 103 138 184 230 287 358 416
#     4  11  25  48  69 107 140 185 229 291 349 414
#     4  11  23  48  69  96 144 188 231 286 352 412
#     4  11  24  44  70 102 137 187 234 289 346 414
#     4  12  24  42  69  98 136 189 238 279 348 413
#
# _framework density 21.739328
#
# number of rings (size 3 to 8) (size 9 to 14) (size 15 to 20)
#    0.000    0.750    5.000    2.250    3.500    0.500 
#    9.000    0.000    0.000    0.000    0.000    0.000 
#    0.000    0.000    0.000    0.000    0.000    0.000 
#
# Total GULP energy -89420.674833 kJ/mol
# GULP energy per Si atom -5588.792177 kJ/mol
# Density = 2.168985 g / cm^3
# Si number density = 21.739328 Si / 1000 Ang^3
#
#
#
# Elastic Constant Matrix: (Units=GPa)
#
#
# Indices 1 2 3 4 5 6 
#
# 1 79.9472 36.9041 4.7192 5.4722 10.6432 9.0753
# 2 36.9041 142.2563 56.9013 6.3748 5.5431 14.6672
# 3 4.7192 56.9013 85.2624 4.4874 -1.7135 5.8423
# 4 5.4722 6.3748 4.4874 36.5560 2.9556 4.1513
# 5 10.6432 5.5431 -1.7135 2.9556 27.0348 6.9683
# 6 9.0753 14.6672 5.8423 4.1513 6.9683 41.2273
#
#
#
# Elastic Compliance Matrix: (Units=1/GPa)
#
#
# Indices 1 2 3 4 5 6 
#
# 1 0.015273 -0.004491 0.002210 -0.001275 -0.004506 -0.001187
# 2 -0.004491 0.011277 -0.007148 -0.000160 -0.000487 -0.001912
# 3 0.002210 -0.007148 0.016511 -0.001210 0.001899 -0.000482
# 4 -0.001275 -0.000160 -0.001210 0.028116 -0.002109 -0.001965
# 5 -0.004506 -0.000487 0.001899 -0.002109 0.040702 -0.005771
# 6 -0.001187 -0.001912 -0.000482 -0.001965 -0.005771 0.026439
#
#
# Mechanical properties :
#
#
# Convention : Reuss Voigt Hill
#
# Bulk Modulus (GPa) = 41.31674 56.05723 48.68698
# Shear Modulus (GPa) = 30.25847 34.89304 32.57576
#
# Velocity S-wave (km/s) = 3.73483 4.01067 3.87521
# Velocity P-wave (km/s) = 6.13559 6.87673 6.51670
#
# Compressibility (1/GPa) = 0.02420327
#
# Stress axis : x y z
#
# Youngs Moduli (GPa) = 65.47607 88.67774 60.56524
#
# Poissons Ratio (x) = 0.39822 -0.13382
# Poissons Ratio (y) = 0.29403 0.43289
# Poissons Ratio (z) = -0.14467 0.63383
#
# Static dielectric constant tensor:
#      x y z
#    x 1.825410 -0.014520 -0.005020 
#    y -0.014520 1.804790 -0.012430 
#    z -0.005020 -0.012430 1.773540 
# 
# From -- ./inp_files/107502.got.cif
#   From: 2010.05.17/outbox.cif.g08.bks.cpg/sg2_54_cif.got.tgz:107502.got - 2010.06.03 11:33:40.
