data_PCOD9052307
_publ_section_title
;
Structure prediction by ZEFSAII (Michael W. Deem and Ramdas Pophale) SiO2 
 PCOD9052307
Probable space group: P -1
;
_chemical_formula_sum "Si O2"
_cell_formula_units_Z 16
_cell_length_a 9.203820
_cell_length_b 12.060429
_cell_length_c 8.908097
_cell_angle_alpha 121.003877
_cell_angle_beta 119.728164
_cell_angle_gamma 69.757625
_cell_volume 730.531226
_symmetry_space_group_name_H-M "P -1"
_symmetry_group_IT_number 2
_symmetry_cell_setting 'triclinic'
loop_
_space_group_symop_operation_xyz
x,y,z
-x,-y,-z
loop_
_atom_site_type_symbol
_atom_site_label
_atom_site_fract_x
_atom_site_fract_y
_atom_site_fract_z
Si Si1 0.185003 0.476209 0.645037
Si Si2 0.511041 0.394671 0.064281
Si Si3 0.559916 0.758525 0.516297
Si Si4 0.867708 0.905936 0.305075
Si Si5 0.345173 0.056770 0.066239
Si Si6 0.979262 0.598712 0.198074
Si Si7 0.649892 0.450975 0.652957
Si Si8 0.518740 0.888401 0.276208
O O1 0.300598 0.592811 0.768983
O O2 0.292236 0.349149 0.540330
O O3 0.000000 0.500000 0.500000
O O4 0.150400 0.444649 0.778497
O O5 0.375460 0.441707 0.154410
O O6 0.500000 0.500000 0.000000
O O7 0.485725 0.256913 0.891243
O O8 0.614073 0.810149 0.741144
O O9 0.395948 0.684518 0.396819
O O10 0.523292 0.867690 0.444099
O O11 0.695261 0.930467 0.333442
O O12 0.935888 0.752045 0.246771
O O13 0.812144 0.931779 0.119752
O O14 0.000000 0.000000 0.500000
O O15 0.360731 0.965784 0.159172
O O16 0.500000 0.000000 0.000000
O O17 0.168883 0.573576 0.344134
O O18 0.000000 0.500000 0.000000
O O19 0.500000 0.500000 0.500000
#
# Coordination Sequence:
#
# PCOD9052307 Si02
#       8
#     2   2   2   2   2   2   2   2
#     4  11  24  42  67 103 146 180 225 296 360 421
#     4  11  20  43  68 101 135 181 233 279 354 427
#     4  11  23  46  70 100 139 186 239 285 343 432
#     4  11  26  47  71 102 146 185 236 299 362 421
#     4  10  26  44  72  98 132 186 244 287 343 426
#     4  12  25  42  70 104 146 180 226 301 365 407
#     4  11  25  37  69 104 137 179 235 281 348 426
#     4  11  22  46  74  96 140 189 239 284 346 431
#
# _framework density 21.901869999999999
#
# number of rings (size 3 to 8) (size 9 to 14) (size 15 to 20)
#    0.000    1.000    3.750    3.375   10.500    1.000 
#    0.000    0.625    0.000    0.000    0.000    0.000 
#    0.000    0.000    0.000    0.000    0.000    0.000 
#
# Total GULP energy -89372.366588 kJ/mol
# GULP energy per Si atom -5585.772912 kJ/mol
# Density = 2.185202 g / cm^3
# Si number density = 21.901870 Si / 1000 Ang^3
#
#
#
# Elastic Constant Matrix: (Units=GPa)
#
#
# Indices 1 2 3 4 5 6 
#
# 1 111.1317 12.1995 30.3042 1.9195 5.3150 -4.0067
# 2 12.1995 66.7536 23.4728 -10.8604 8.5903 5.6447
# 3 30.3042 23.4728 147.8793 -7.4153 -5.2827 0.5747
# 4 1.9195 -10.8604 -7.4153 40.9588 -4.6447 2.3679
# 5 5.3150 8.5903 -5.2827 -4.6447 46.0191 -1.7237
# 6 -4.0067 5.6447 0.5747 2.3679 -1.7237 31.8505
#
#
#
# Elastic Compliance Matrix: (Units=1/GPa)
#
#
# Indices 1 2 3 4 5 6 
#
# 1 0.009802 -0.001319 -0.001917 -0.001380 -0.001187 0.001540
# 2 -0.001319 0.017442 -0.002388 0.004116 -0.003100 -0.003688
# 3 -0.001917 -0.002388 0.007644 0.001024 0.001650 0.000057
# 4 -0.001380 0.004116 0.001024 0.026147 0.002045 -0.002755
# 5 -0.001187 -0.003100 0.001650 0.002045 0.022896 0.001457
# 6 0.001540 -0.003688 0.000057 -0.002755 0.001457 0.032527
#
#
# Mechanical properties :
#
#
# Convention : Reuss Voigt Hill
#
# Bulk Modulus (GPa) = 42.30219 50.85750 46.57985
# Shear Modulus (GPa) = 36.87674 41.08486 38.98080
#
# Velocity S-wave (km/s) = 4.10777 4.33582 4.22334
# Velocity P-wave (km/s) = 6.46953 6.95247 6.71534
#
# Compressibility (1/GPa) = 0.02363944
#
# Stress axis : x y z
#
# Youngs Moduli (GPa) = 102.02001 57.33360 130.81700
#
# Poissons Ratio (x) = 0.07563 0.25076
# Poissons Ratio (y) = 0.13458 0.31242
# Poissons Ratio (z) = 0.19556 0.13693
#
# Static dielectric constant tensor:
#      x y z
#    x 1.827870 0.008710 0.027960 
#    y 0.008710 1.888550 -0.008680 
#    z 0.027960 -0.008680 1.945150 
# 
# From -- ./inp_files/190373.got.cif
#   From: 2010.05.17/outbox.cif.g08.bks.cpg/sg2_96_cif.got.tgz:190373.got - 2010.06.03 11:33:40.
