data_PCOD9052336
_publ_section_title
;
Structure prediction by ZEFSAII (Michael W. Deem and Ramdas Pophale) SiO2 
 PCOD9052336
Probable space group: P -1
;
_chemical_formula_sum "Si O2"
_cell_formula_units_Z 15
_cell_length_a 14.358308
_cell_length_b 5.419952
_cell_length_c 9.025964
_cell_angle_alpha 96.194553
_cell_angle_beta 56.537769
_cell_angle_gamma 85.341089
_cell_volume 574.119190
_symmetry_space_group_name_H-M "P -1"
_symmetry_group_IT_number 2
_symmetry_cell_setting 'triclinic'
loop_
_space_group_symop_operation_xyz
x,y,z
-x,-y,-z
loop_
_atom_site_type_symbol
_atom_site_label
_atom_site_fract_x
_atom_site_fract_y
_atom_site_fract_z
Si Si1 0.161018 0.404806 0.418241
Si Si2 0.653247 0.020406 0.723214
Si Si3 0.181764 0.029244 0.935666
Si Si4 0.138721 0.845774 0.641623
Si Si5 0.824131 0.453268 0.892615
Si Si6 0.547395 0.057463 0.301781
Si Si7 0.583523 0.399426 0.052502
Si Si8 0.000000 0.000000 0.500000
O O1 0.129497 0.552236 0.607341
O O2 0.289940 0.269800 0.320508
O O3 0.133711 0.608932 0.319106
O O4 0.095166 0.191462 0.405772
O O5 0.743115 0.128028 0.545558
O O6 0.532444 0.064674 0.750574
O O7 0.642379 0.138660 0.903488
O O8 0.138726 0.964600 0.808431
O O9 0.164779 0.792781 0.035268
O O10 0.317943 0.014068 0.805193
O O11 0.134084 0.309722 0.053769
O O12 0.038371 0.984900 0.639653
O O13 0.688831 0.539018 0.993866
O O14 0.534390 0.333928 0.250180
O O15 0.500000 0.000000 0.500000
O O16 0.500000 0.500000 0.000000
#
# Coordination Sequence:
#
# PCOD9052336 Si02
#       8
#     2   2   2   2   2   2   2   1
#     4  11  23  46  74 102 135 181 242 291 355 427
#     4  11  22  41  68  99 140 195 239 287 338 418
#     4  11  26  45  68 102 151 191 228 291 357 422
#     4  11  24  45  72 100 137 180 235 293 361 422
#     4  11  24  44  70 100 142 190 233 286 356 419
#     4  11  22  38  61 101 146 187 235 283 349 411
#     4  11  22  41  66  99 141 196 249 293 332 417
#     4  10  26  44  78 102 132 168 244 300 360 424
#
# _framework density 26.126977
#
# number of rings (size 3 to 8) (size 9 to 14) (size 15 to 20)
#    0.000    1.067    2.667    4.000    5.600    0.000 
#    0.000    4.000    0.000    0.000    0.000    0.000 
#    0.000    0.000    0.000    0.000    0.000    0.000 
#
# Total GULP energy -83675.381998 kJ/mol
# GULP energy per Si atom -5578.358800 kJ/mol
# Density = 2.606751 g / cm^3
# Si number density = 26.126977 Si / 1000 Ang^3
#
#
#
# Elastic Constant Matrix: (Units=GPa)
#
#
# Indices 1 2 3 4 5 6 
#
# 1 157.5056 15.8176 54.9681 14.9868 28.6581 11.9925
# 2 15.8176 63.4671 68.0461 10.8555 20.7630 19.6659
# 3 54.9681 68.0461 147.2634 0.7691 31.2982 7.0332
# 4 14.9868 10.8555 0.7691 39.3970 12.6701 9.3188
# 5 28.6581 20.7630 31.2982 12.6701 57.0950 11.8505
# 6 11.9925 19.6659 7.0332 9.3188 11.8505 41.4198
#
#
#
# Elastic Compliance Matrix: (Units=1/GPa)
#
#
# Indices 1 2 3 4 5 6 
#
# 1 0.008499 0.005505 -0.005106 -0.003284 -0.002147 -0.002854
# 2 0.005505 0.044843 -0.021577 -0.009566 -0.001677 -0.016589
# 3 -0.005106 -0.021577 0.018906 0.006637 -0.003066 0.007897
# 4 -0.003284 -0.009566 0.006637 0.031071 -0.005168 -0.001146
# 5 -0.002147 -0.001677 -0.003066 -0.005168 0.022737 -0.003404
# 6 -0.002854 -0.016589 0.007897 -0.001146 -0.003404 0.032737
#
#
# Mechanical properties :
#
#
# Convention : Reuss Voigt Hill
#
# Bulk Modulus (GPa) = 33.45357 71.76663 52.61010
# Shear Modulus (GPa) = 23.68411 42.87598 33.28004
#
# Velocity S-wave (km/s) = 3.01408 4.05540 3.57288
# Velocity P-wave (km/s) = 4.99449 7.03252 6.09923
#
# Compressibility (1/GPa) = 0.02989217
#
# Stress axis : x y z
#
# Youngs Moduli (GPa) = 117.66537 22.30021 52.89221
#
# Poissons Ratio (x) = -0.12276 0.27007
# Poissons Ratio (y) = -0.64776 1.14124
# Poissons Ratio (z) = 0.60081 0.48117
#
# Static dielectric constant tensor:
#      x y z
#    x 1.787650 0.401340 0.070700 
#    y 0.401340 1.451130 -0.334710 
#    z 0.070700 -0.334710 1.924520 
# 
# From -- ./inp_files/289005.got.cif
#   From: 2010.05.17/outbox.cif.g08.bks.cpg/sg2_145_cif.got.tgz:289005.got - 2010.06.03 11:33:40.
