data_PCOD9052846
_publ_section_title
;
Structure prediction by ZEFSAII (Michael W. Deem and Ramdas Pophale) SiO2 
 PCOD9052846
Probable space group: P -1
;
_chemical_formula_sum "Si O2"
_cell_formula_units_Z 14
_cell_length_a 15.260603
_cell_length_b 6.646676
_cell_length_c 7.703010
_cell_angle_alpha 60.699354
_cell_angle_beta 104.675763
_cell_angle_gamma 126.885623
_cell_volume 544.071495
_symmetry_space_group_name_H-M "P -1"
_symmetry_group_IT_number 2
_symmetry_cell_setting 'triclinic'
loop_
_space_group_symop_operation_xyz
x,y,z
-x,-y,-z
loop_
_atom_site_type_symbol
_atom_site_label
_atom_site_fract_x
_atom_site_fract_y
_atom_site_fract_z
Si Si1 0.526979 0.283034 0.810884
Si Si2 0.702911 0.819317 0.228903
Si Si3 0.108247 0.612537 0.757658
Si Si4 0.885308 0.775453 0.781334
Si Si5 0.706425 0.858817 0.814785
Si Si6 0.084699 0.360013 0.495681
Si Si7 0.621727 0.232563 0.530772
O O1 0.410922 0.236794 0.734875
O O2 0.599150 0.546694 0.860789
O O3 0.598943 0.325101 0.663292
O O4 0.500000 0.000000 0.000000
O O5 0.803468 0.066180 0.283608
O O6 0.723656 0.926073 0.997774
O O7 0.996971 0.948151 0.330077
O O8 0.135653 0.541064 0.616445
O O9 0.321109 0.931910 0.362736
O O10 0.991855 0.564684 0.676679
O O11 0.807914 0.863680 0.782665
O O12 0.843771 0.630729 0.632491
O O13 0.105028 0.414633 0.991265
O O14 0.316853 0.481999 0.666806
O O15 0.500000 0.000000 0.500000
#
# Coordination Sequence:
#
# PCOD9052846 Si02
#       7
#     2   2   2   2   2   2   2
#     4  12  24  49  76 114 159 209 260 324 396 466
#     4  12  27  48  79 117 159 213 269 329 395 478
#     4  11  26  50  81 125 157 210 274 332 410 478
#     4  11  26  50  81 121 160 214 266 334 409 483
#     4  12  28  49  77 116 163 209 265 331 394 478
#     4  10  26  53  85 114 167 207 270 339 411 487
#     4  12  27  50  76 109 162 216 270 321 389 472
#
# _framework density 25.731912999999999
#
# number of rings (size 3 to 8) (size 9 to 14) (size 15 to 20)
#    0.000    0.571    2.857    3.429    2.000    6.857 
#    2.571    0.000    0.000    0.000    0.000    0.000 
#    0.000    0.000    0.000    0.000    0.000    0.000 
#
# Total GULP energy -78561.339192 kJ/mol
# GULP energy per Si atom -5611.524228 kJ/mol
# Density = 2.567335 g / cm^3
# Si number density = 25.731913 Si / 1000 Ang^3
#
#
#
# Elastic Constant Matrix: (Units=GPa)
#
#
# Indices 1 2 3 4 5 6 
#
# 1 179.9172 47.3310 68.4625 -29.1670 1.3101 -9.8007
# 2 47.3310 169.7846 73.4341 2.3308 19.0994 -19.8838
# 3 68.4625 73.4341 139.8743 -6.5608 12.3756 1.3953
# 4 -29.1670 2.3308 -6.5608 48.4563 -17.7398 5.9301
# 5 1.3101 19.0994 12.3756 -17.7398 51.5760 -18.0105
# 6 -9.8007 -19.8838 1.3953 5.9301 -18.0105 37.7147
#
#
#
# Elastic Compliance Matrix: (Units=1/GPa)
#
#
# Indices 1 2 3 4 5 6 
#
# 1 0.008213 -0.000895 -0.003660 0.005575 0.003889 0.002778
# 2 -0.000895 0.008613 -0.004100 -0.002614 -0.001657 0.004079
# 3 -0.003660 -0.004100 0.011375 -0.001032 -0.003181 -0.004891
# 4 0.005575 -0.002614 -0.001032 0.027889 0.011009 0.000981
# 5 0.003889 -0.001657 -0.003181 0.011009 0.028729 0.012243
# 6 0.002778 0.004079 -0.004891 0.000981 0.012243 0.035261
#
#
# Mechanical properties :
#
#
# Convention : Reuss Voigt Hill
#
# Bulk Modulus (GPa) = 91.82838 96.44790 94.13814
# Shear Modulus (GPa) = 35.45539 47.57262 41.51401
#
# Velocity S-wave (km/s) = 3.71600 4.30441 4.02098
# Velocity P-wave (km/s) = 7.36041 7.89095 7.63029
#
# Compressibility (1/GPa) = 0.01088988
#
# Stress axis : x y z
#
# Youngs Moduli (GPa) = 121.75443 116.10521 87.90896
#
# Poissons Ratio (x) = 0.10392 0.32179
# Poissons Ratio (y) = 0.10898 0.36046
# Poissons Ratio (z) = 0.44567 0.47607
#
# Static dielectric constant tensor:
#      x y z
#    x 2.073050 -0.018300 0.011850 
#    y -0.018300 2.176470 -0.003100 
#    z 0.011850 -0.003100 1.997700 
# 
# From -- ./inp_files/290383.got.cif
#   From: 2010.05.17/outbox.cif.g08.bks.cpg/sg2_146_cif.got.tgz:290383.got - 2010.06.03 11:33:40.
