data_PCOD9052001
_publ_section_title
;
Structure prediction by ZEFSAII (Michael W. Deem and Ramdas Pophale) SiO2 
 PCOD9052001
Probable space group: P -1
;
_chemical_formula_sum "Si O2"
_cell_formula_units_Z 16
_cell_length_a 19.817781
_cell_length_b 11.115698
_cell_length_c 16.828000
_cell_angle_alpha 149.870840
_cell_angle_beta 158.781457
_cell_angle_gamma 35.904200
_cell_volume 673.308054
_symmetry_space_group_name_H-M "P -1"
_symmetry_group_IT_number 2
_symmetry_cell_setting 'triclinic'
loop_
_space_group_symop_operation_xyz
x,y,z
-x,-y,-z
loop_
_atom_site_type_symbol
_atom_site_label
_atom_site_fract_x
_atom_site_fract_y
_atom_site_fract_z
Si Si1 0.583375 0.714904 0.847791
Si Si2 0.489561 0.257907 0.034909
Si Si3 0.939078 0.834492 0.494020
Si Si4 0.997105 0.762997 0.686977
Si Si5 0.784238 0.601186 0.495871
Si Si6 0.056147 0.315647 0.842754
Si Si7 0.721407 0.626970 0.721272
Si Si8 0.309087 0.050168 0.271258
O O1 0.439180 0.564792 0.553505
O O2 0.578754 0.991759 0.973520
O O3 0.499463 0.688972 0.829052
O O4 0.799076 0.629600 0.036579
O O5 0.272325 0.239998 0.769516
O O6 0.592076 0.459315 0.212525
O O7 0.994284 0.918726 0.692495
O O8 0.065282 0.615640 0.474661
O O9 0.958109 0.060180 0.585767
O O10 0.000000 0.500000 0.500000
O O11 0.818237 0.765916 0.550079
O O12 0.172732 0.834350 0.974766
O O13 0.801191 0.764037 0.685460
O O14 0.896838 0.506693 0.798170
O O15 0.199459 0.302907 0.066949
O O16 0.644510 0.831499 0.694951
O O17 0.500000 0.000000 0.500000
#
# Coordination Sequence:
#
# PCOD9052001 Si02
#       8
#     2   2   2   2   2   2   2   2
#     4  11  23  41  65 105 145 180 233 292 359 430
#     4  11  24  39  69 108 139 184 235 291 359 439
#     4  11  23  45  74 104 146 186 241 298 360 440
#     4  10  25  49  74 101 140 190 248 296 358 430
#     4  11  25  46  73 101 143 191 240 298 365 419
#     4  11  23  43  72 102 146 189 231 297 361 435
#     4  11  24  45  70 102 143 191 239 290 366 429
#     4  12  27  50  73 107 145 189 249 306 353 427
#
# _framework density 23.763266999999999
#
# number of rings (size 3 to 8) (size 9 to 14) (size 15 to 20)
#    0.000    1.000    5.000    0.750    5.250    1.000 
#    6.750    0.000    0.000    0.000    0.000    0.000 
#    0.000    0.000    0.000    0.000    0.000    0.000 
#
# Total GULP energy -89442.076076 kJ/mol
# GULP energy per Si atom -5590.129755 kJ/mol
# Density = 2.370918 g / cm^3
# Si number density = 23.763267 Si / 1000 Ang^3
#
#
#
# Elastic Constant Matrix: (Units=GPa)
#
#
# Indices 1 2 3 4 5 6 
#
# 1 97.7326 22.4953 48.5213 -1.8249 3.2266 -10.8013
# 2 22.4953 33.9572 20.1763 -15.8565 -1.0161 -6.8170
# 3 48.5213 20.1763 173.9350 -6.6669 7.6279 -3.1970
# 4 -1.8249 -15.8565 -6.6669 34.7892 2.2444 3.4119
# 5 3.2266 -1.0161 7.6279 2.2444 42.2263 -7.7311
# 6 -10.8013 -6.8170 -3.1970 3.4119 -7.7311 37.9305
#
#
#
# Elastic Compliance Matrix: (Units=1/GPa)
#
#
# Indices 1 2 3 4 5 6 
#
# 1 0.013958 -0.008921 -0.002969 -0.004141 -0.000071 0.002479
# 2 -0.008921 0.046894 -0.002192 0.019939 0.001934 0.004303
# 3 -0.002969 -0.002192 0.006883 0.000338 -0.001261 -0.000947
# 4 -0.004141 0.019939 0.000338 0.037904 -0.001515 -0.001286
# 5 -0.000071 0.001934 -0.001261 -0.001515 0.025042 0.005462
# 6 0.002479 0.004303 -0.000947 -0.001286 0.005462 0.028993
#
#
# Mechanical properties :
#
#
# Convention : Reuss Voigt Hill
#
# Bulk Modulus (GPa) = 25.27196 54.22338 39.74767
# Shear Modulus (GPa) = 24.87216 37.28467 31.07842
#
# Velocity S-wave (km/s) = 3.23873 3.96536 3.62032
# Velocity P-wave (km/s) = 4.96425 6.62066 5.85137
#
# Compressibility (1/GPa) = 0.03956955
#
# Stress axis : x y z
#
# Youngs Moduli (GPa) = 71.64106 21.32488 145.29162
#
# Poissons Ratio (x) = 0.19024 0.43139
# Poissons Ratio (y) = 0.63911 0.31855
# Poissons Ratio (z) = 0.21271 0.04675
#
# Static dielectric constant tensor:
#      x y z
#    x 1.991070 0.038690 -0.003430 
#    y 0.038690 1.952850 0.003550 
#    z -0.003430 0.003550 1.909740 
# 
# From -- ./inp_files/578064.got.cif
#   From: 2010.05.17/outbox.cif.g08.bks.cpg/sg2_290_cif.got.tgz:578064.got - 2010.06.03 11:33:40.
