data_PCOD9052697
_publ_section_title
;
Structure prediction by ZEFSAII (Michael W. Deem and Ramdas Pophale) SiO2 
 PCOD9052697
Probable space group: P -1
;
_chemical_formula_sum "Si O2"
_cell_formula_units_Z 16
_cell_length_a 12.150195
_cell_length_b 21.561354
_cell_length_c 8.003140
_cell_angle_alpha 117.738052
_cell_angle_beta 142.390663
_cell_angle_gamma 36.801499
_cell_volume 679.790831
_symmetry_space_group_name_H-M "P -1"
_symmetry_group_IT_number 2
_symmetry_cell_setting 'triclinic'
loop_
_space_group_symop_operation_xyz
x,y,z
-x,-y,-z
loop_
_atom_site_type_symbol
_atom_site_label
_atom_site_fract_x
_atom_site_fract_y
_atom_site_fract_z
Si Si1 0.701688 0.775433 0.404294
Si Si2 0.299329 0.369912 0.622548
Si Si3 0.306848 0.020692 0.146194
Si Si4 0.339266 0.614715 0.858884
Si Si5 0.683493 0.634668 0.740468
Si Si6 0.335062 0.623853 0.484809
Si Si7 0.303464 0.160133 0.151868
Si Si8 0.231541 0.888246 0.515903
O O1 0.628146 0.717974 0.282202
O O2 0.766666 0.789383 0.682819
O O3 0.999345 0.695920 0.557768
O O4 0.453608 0.898792 0.171159
O O5 0.250696 0.360315 0.362629
O O6 0.000000 0.500000 0.500000
O O7 0.562252 0.344922 0.882645
O O8 0.341500 0.064582 0.092225
O O9 0.500000 0.000000 0.500000
O O10 0.955138 0.108081 0.823547
O O11 0.418463 0.611496 0.761363
O O12 0.500000 0.500000 0.000000
O O13 0.458322 0.641443 0.523233
O O14 0.503946 0.756789 0.757729
O O15 0.000000 0.500000 0.000000
O O16 0.500000 0.500000 0.500000
O O17 0.978525 0.733065 0.168033
O O18 0.605226 0.103057 0.383871
O O19 0.000000 0.000000 0.500000
#
# Coordination Sequence:
#
# PCOD9052697 Si02
#       8
#     2   2   2   2   2   2   2   2
#     4  11  25  45  75 106 149 199 258 312 394 458
#     4  12  25  45  76 111 155 198 261 321 388 469
#     4  10  26  48  76 106 151 204 261 314 390 462
#     4  12  26  45  71 110 151 195 259 319 390 474
#     4  12  26  49  79 117 159 204 259 326 400 470
#     4  12  26  45  76 111 155 204 253 325 400 466
#     4  11  24  50  76 106 155 200 264 321 392 468
#     4  12  28  48  77 115 159 204 265 325 393 477
#
# _framework density 23.536652
#
# number of rings (size 3 to 8) (size 9 to 14) (size 15 to 20)
#    0.000    0.500    3.750    3.750    3.500    6.500 
#    0.000    0.000    0.000    0.000    0.000    0.000 
#    0.000    0.000    0.000    0.000    0.000    0.000 
#
# Total GULP energy -89319.735169 kJ/mol
# GULP energy per Si atom -5582.483448 kJ/mol
# Density = 2.348308 g / cm^3
# Si number density = 23.536652 Si / 1000 Ang^3
#
#
#
# Elastic Constant Matrix: (Units=GPa)
#
#
# Indices 1 2 3 4 5 6 
#
# 1 124.7322 53.1408 37.5410 -7.2654 18.8794 30.2322
# 2 53.1408 137.8145 29.6825 -24.8780 -8.2651 35.2393
# 3 37.5410 29.6825 115.1965 -14.4010 8.1761 15.4891
# 4 -7.2654 -24.8780 -14.4010 34.7165 11.3292 -1.7527
# 5 18.8794 -8.2651 8.1761 11.3292 44.0603 8.7914
# 6 30.2322 35.2393 15.4891 -1.7527 8.7914 61.6870
#
#
#
# Elastic Compliance Matrix: (Units=1/GPa)
#
#
# Indices 1 2 3 4 5 6 
#
# 1 0.011516 -0.003599 -0.002112 0.000421 -0.004856 -0.002354
# 2 -0.003599 0.011231 -0.000586 0.005753 0.003237 -0.004802
# 3 -0.002112 -0.000586 0.010270 0.004003 -0.001978 -0.000814
# 4 0.000421 0.005753 0.004003 0.037527 -0.009066 -0.002140
# 5 -0.004856 0.003237 -0.001978 -0.009066 0.028746 -0.003327
# 6 -0.002354 -0.004802 -0.000814 -0.002140 -0.003327 0.020725
#
#
# Mechanical properties :
#
#
# Convention : Reuss Voigt Hill
#
# Bulk Modulus (GPa) = 48.96273 68.71909 58.84091
# Shear Modulus (GPa) = 35.86373 45.25137 40.55755
#
# Velocity S-wave (km/s) = 3.90775 4.38949 4.15561
# Velocity P-wave (km/s) = 6.41939 7.41284 6.93393
#
# Compressibility (1/GPa) = 0.02042370
#
# Stress axis : x y z
#
# Youngs Moduli (GPa) = 86.83401 89.04109 97.36997
#
# Poissons Ratio (x) = 0.32048 0.20563
# Poissons Ratio (y) = 0.31254 0.05702
# Poissons Ratio (z) = 0.18338 0.05215
#
# Static dielectric constant tensor:
#      x y z
#    x 1.737210 0.058650 0.141990 
#    y 0.058650 1.802240 -0.172220 
#    z 0.141990 -0.172220 1.628520 
# 
# From -- ./inp_files/283153.got.cif
#   From: 2010.05.17/outbox.cif.g08.bks.cpg/sg2_142_cif.got.tgz:283153.got - 2010.06.03 11:33:40.
