data_PCOD9052539
_publ_section_title
;
Structure prediction by ZEFSAII (Michael W. Deem and Ramdas Pophale) SiO2 
 PCOD9052539
Probable space group: P -1
;
_chemical_formula_sum "Si O2"
_cell_formula_units_Z 15
_cell_length_a 11.175587
_cell_length_b 8.633620
_cell_length_c 9.985102
_cell_angle_alpha 52.665701
_cell_angle_beta 107.545233
_cell_angle_gamma 131.399932
_cell_volume 566.535592
_symmetry_space_group_name_H-M "P -1"
_symmetry_group_IT_number 2
_symmetry_cell_setting 'triclinic'
loop_
_space_group_symop_operation_xyz
x,y,z
-x,-y,-z
loop_
_atom_site_type_symbol
_atom_site_label
_atom_site_fract_x
_atom_site_fract_y
_atom_site_fract_z
Si Si1 0.356658 0.203562 0.605953
Si Si2 0.354839 0.917911 0.280454
Si Si3 0.752554 0.581042 0.395397
Si Si4 0.889835 0.687410 0.897448
Si Si5 0.763647 0.166901 0.011581
Si Si6 0.381428 0.527608 0.866599
Si Si7 0.156954 0.931403 0.434894
Si Si8 0.000000 0.500000 0.500000
O O1 0.500000 0.500000 0.500000
O O2 0.212509 0.213251 0.597720
O O3 0.352439 0.031841 0.806324
O O4 0.301954 0.073161 0.512723
O O5 0.352930 0.688330 0.426156
O O6 0.202367 0.844339 0.361107
O O7 0.515024 0.173142 0.256797
O O8 0.317182 0.933441 0.107911
O O9 0.654627 0.575111 0.241262
O O10 0.895593 0.597870 0.367381
O O11 0.067798 0.786870 0.944661
O O12 0.877241 0.882905 0.715602
O O13 0.805180 0.431940 0.918451
O O14 0.780770 0.610595 0.032268
O O15 0.500000 0.500000 0.000000
O O16 0.020776 0.643215 0.582803
#
# Coordination Sequence:
#
# PCOD9052539 Si02
#       8
#     2   2   2   2   2   2   2   1
#     4  12  28  48  78 113 158 208 259 320 391 464
#     4  11  25  46  75 111 150 201 259 318 386 463
#     4  11  26  46  76 109 156 201 261 313 387 463
#     4  11  27  47  78 111 160 202 258 328 390 460
#     4  11  28  48  75 115 156 205 260 320 393 460
#     4  12  25  45  77 113 155 203 256 320 390 458
#     4  11  25  47  76 111 153 201 258 316 390 462
#     4  10  26  46  80 112 150 206 258 324 380 460
#
# _framework density 26.476714000000001
#
# number of rings (size 3 to 8) (size 9 to 14) (size 15 to 20)
#    0.000    0.800    1.333    3.600   11.200    5.333 
#    0.000    0.000    0.000    0.000    0.000    0.000 
#    0.000    0.000    0.000    0.000    0.000    0.000 
#
# Total GULP energy -83876.612000 kJ/mol
# GULP energy per Si atom -5591.774133 kJ/mol
# Density = 2.641645 g / cm^3
# Si number density = 26.476714 Si / 1000 Ang^3
#
#
#
# Elastic Constant Matrix: (Units=GPa)
#
#
# Indices 1 2 3 4 5 6 
#
# 1 81.9832 27.1681 42.9130 -10.0409 11.1626 -13.1886
# 2 27.1681 150.2272 50.0840 -3.5393 1.2350 -7.1782
# 3 42.9130 50.0840 124.5186 7.6816 0.4556 -4.1871
# 4 -10.0409 -3.5393 7.6816 49.8648 -2.5231 5.4158
# 5 11.1626 1.2350 0.4556 -2.5231 45.4775 -17.2271
# 6 -13.1886 -7.1782 -4.1871 5.4158 -17.2271 47.8017
#
#
#
# Elastic Compliance Matrix: (Units=1/GPa)
#
#
# Indices 1 2 3 4 5 6 
#
# 1 0.016628 -0.000948 -0.005483 0.003708 -0.002840 0.002522
# 2 -0.000948 0.007825 -0.002844 0.000744 0.000359 0.000709
# 3 -0.005483 -0.002844 0.011235 -0.002957 0.001055 -0.000240
# 4 0.003708 0.000744 -0.002957 0.021474 -0.000347 -0.001682
# 5 -0.002840 0.000359 0.001055 -0.000347 0.025964 0.008759
# 6 0.002522 0.000709 -0.000240 -0.001682 0.008759 0.025048
#
#
# Mechanical properties :
#
#
# Convention : Reuss Voigt Hill
#
# Bulk Modulus (GPa) = 58.34928 66.33990 62.34459
# Shear Modulus (GPa) = 37.75388 44.39974 41.07681
#
# Velocity S-wave (km/s) = 3.78024 4.09948 3.94309
# Velocity P-wave (km/s) = 6.41400 6.89333 6.65798
#
# Compressibility (1/GPa) = 0.01713817
#
# Stress axis : x y z
#
# Youngs Moduli (GPa) = 60.13892 127.80211 89.00906
#
# Poissons Ratio (x) = 0.12116 0.48802
# Poissons Ratio (y) = 0.05701 0.25313
# Poissons Ratio (z) = 0.32973 0.36345
#
# Static dielectric constant tensor:
#      x y z
#    x 2.394750 0.289360 -0.085700 
#    y 0.289360 2.365660 -0.114010 
#    z -0.085700 -0.114010 2.109310 
# 
# From -- ./inp_files/242672.got.cif
#   From: 2010.05.17/outbox.cif.g08.bks.cpg/sg2_122_cif.got.tgz:242672.got - 2010.06.03 11:33:40.
