data_PCOD9052039
_publ_section_title
;
Structure prediction by ZEFSAII (Michael W. Deem and Ramdas Pophale) SiO2 
 PCOD9052039
Probable space group: P -1
;
_chemical_formula_sum "Si O2"
_cell_formula_units_Z 12
_cell_length_a 7.264518
_cell_length_b 14.824482
_cell_length_c 8.849040
_cell_angle_alpha 41.869447
_cell_angle_beta 127.585402
_cell_angle_gamma 127.984819
_cell_volume 480.040199
_symmetry_space_group_name_H-M "P -1"
_symmetry_group_IT_number 2
_symmetry_cell_setting 'triclinic'
loop_
_space_group_symop_operation_xyz
x,y,z
-x,-y,-z
loop_
_atom_site_type_symbol
_atom_site_label
_atom_site_fract_x
_atom_site_fract_y
_atom_site_fract_z
Si Si1 0.722042 0.572385 0.889844
Si Si2 0.804296 0.278630 0.246136
Si Si3 0.907483 0.755475 0.050798
Si Si4 0.007385 0.060254 0.759697
Si Si5 0.542130 0.733678 0.164235
Si Si6 0.260769 0.609511 0.446567
O O1 0.189864 0.346736 0.011358
O O2 0.475550 0.596265 0.676402
O O3 0.929399 0.643251 0.783639
O O4 0.713142 0.407340 0.100989
O O5 0.628826 0.211125 0.102068
O O6 0.836956 0.158646 0.522447
O O7 0.179034 0.751938 0.230364
O O8 0.736292 0.705927 0.175855
O O9 0.920536 0.913756 0.808621
O O10 0.287473 0.158295 0.765880
O O11 0.000000 0.000000 0.000000
O O12 0.359688 0.607194 0.327073
O O13 0.000000 0.500000 0.500000
#
# Coordination Sequence:
#
# PCOD9052039 Si02
#       6
#     2   2   2   2   2   2
#     4  11  26  48  75 118 156 202 259 330 381 465
#     4  11  24  47  80 109 162 206 256 318 399 451
#     4  11  27  48  77 119 150 206 262 315 390 462
#     4  10  25  49  79 114 157 210 256 315 392 465
#     4  11  25  50  76 113 159 205 252 329 381 460
#     4  12  27  49  76 115 156 206 261 320 392 458
#
# _framework density 24.997907000000001
#
# number of rings (size 3 to 8) (size 9 to 14) (size 15 to 20)
#    0.000    1.000    3.333    1.000    0.000   17.333 
#    0.000    0.000    0.000    0.000    0.000    0.000 
#    0.000    0.000    0.000    0.000    0.000    0.000 
#
# Total GULP energy -67092.769763 kJ/mol
# GULP energy per Si atom -5591.064147 kJ/mol
# Density = 2.494101 g / cm^3
# Si number density = 24.997907 Si / 1000 Ang^3
#
#
#
# Elastic Constant Matrix: (Units=GPa)
#
#
# Indices 1 2 3 4 5 6 
#
# 1 148.4861 43.8530 64.2928 4.6545 5.5188 22.9306
# 2 43.8530 107.7411 70.9938 11.5493 12.3112 -6.3928
# 3 64.2928 70.9938 231.3593 14.4440 28.0117 -4.7435
# 4 4.6545 11.5493 14.4440 42.7005 7.9276 10.6826
# 5 5.5188 12.3112 28.0117 7.9276 42.4251 8.6785
# 6 22.9306 -6.3928 -4.7435 10.6826 8.6785 41.4317
#
#
#
# Elastic Compliance Matrix: (Units=1/GPa)
#
#
# Indices 1 2 3 4 5 6 
#
# 1 0.009618 -0.003363 -0.002179 0.001949 0.002244 -0.007064
# 2 -0.003363 0.013210 -0.002567 -0.003164 -0.002105 0.004862
# 3 -0.002179 -0.002567 0.006253 -0.001189 -0.003399 0.002544
# 4 0.001949 -0.003164 -0.001189 0.026876 -0.001887 -0.008237
# 5 0.002244 -0.002105 -0.003399 -0.001887 0.027986 -0.007332
# 6 -0.007064 0.004862 0.002544 -0.008237 -0.007332 0.032747
#
#
# Mechanical properties :
#
#
# Convention : Reuss Voigt Hill
#
# Bulk Modulus (GPa) = 77.74370 93.98509 85.86440
# Shear Modulus (GPa) = 36.44429 45.87458 41.15943
#
# Velocity S-wave (km/s) = 3.82238 4.28850 4.06213
# Velocity P-wave (km/s) = 7.11677 7.88672 7.51162
#
# Compressibility (1/GPa) = 0.01286278
#
# Stress axis : x y z
#
# Youngs Moduli (GPa) = 103.97398 75.69998 159.91485
#
# Poissons Ratio (x) = 0.25461 0.34843
# Poissons Ratio (y) = 0.34971 0.41048
# Poissons Ratio (z) = 0.22654 0.19431
#
# Static dielectric constant tensor:
#      x y z
#    x 2.034910 -0.026810 0.006220 
#    y -0.026810 2.114920 -0.082420 
#    z 0.006220 -0.082420 2.025570 
# 
# From -- ./inp_files/183308.got.cif
#   From: 2010.05.17/outbox.cif.g08.bks.cpg/sg2_92_cif.got.tgz:183308.got - 2010.06.03 11:33:40.
