data_PCOD9052862
_publ_section_title
;
Structure prediction by ZEFSAII (Michael W. Deem and Ramdas Pophale) SiO2 
 PCOD9052862
Probable space group: P -1
;
_chemical_formula_sum "Si O2"
_cell_formula_units_Z 16
_cell_length_a 5.066998
_cell_length_b 17.090116
_cell_length_c 19.136072
_cell_angle_alpha 28.382116
_cell_angle_beta 63.415278
_cell_angle_gamma 75.283137
_cell_volume 665.304049
_symmetry_space_group_name_H-M "P -1"
_symmetry_group_IT_number 2
_symmetry_cell_setting 'triclinic'
loop_
_space_group_symop_operation_xyz
x,y,z
-x,-y,-z
loop_
_atom_site_type_symbol
_atom_site_label
_atom_site_fract_x
_atom_site_fract_y
_atom_site_fract_z
Si Si1 0.216550 0.191840 0.343103
Si Si2 0.029237 0.658868 0.514333
Si Si3 0.668393 0.621904 0.447514
Si Si4 0.135938 0.952008 0.091501
Si Si5 0.937295 0.953395 0.818943
Si Si6 0.257512 0.621431 0.760137
Si Si7 0.379039 0.612306 0.132089
Si Si8 0.274045 0.698202 0.920659
O O1 0.479838 0.238943 0.334881
O O2 0.423780 0.260868 0.195199
O O3 0.962837 0.282335 0.322107
O O4 0.000000 0.000000 0.500000
O O5 0.403701 0.710710 0.422655
O O6 0.799754 0.575964 0.540904
O O7 0.939166 0.496882 0.706685
O O8 0.999947 0.853619 0.372632
O O9 0.500000 0.500000 0.500000
O O10 0.987179 0.747317 0.279224
O O11 0.030166 0.024564 0.118207
O O12 0.500000 0.000000 0.000000
O O13 0.000000 0.000000 0.000000
O O14 0.588340 0.809926 0.968766
O O15 0.158691 0.860945 0.826442
O O16 0.426715 0.519678 0.771321
O O17 0.013913 0.454270 0.959432
O O18 0.335263 0.622016 0.047008
#
# Coordination Sequence:
#
# PCOD9052862 Si02
#       8
#     2   2   2   2   2   2   2   2
#     4  12  27  45  77 110 150 192 247 309 372 435
#     4  11  27  47  73 104 154 191 246 316 372 446
#     4  11  26  46  72 110 143 192 250 309 374 449
#     4  11  25  44  73 102 144 192 240 308 367 438
#     4  10  27  46  71 111 148 191 259 300 380 449
#     4  11  25  49  70 105 145 188 252 290 372 439
#     4  11  27  45  79 105 148 205 241 315 377 439
#     4  11  26  47  78 107 148 198 249 311 365 456
#
# _framework density 24.049154000000001
#
# number of rings (size 3 to 8) (size 9 to 14) (size 15 to 20)
#    0.000    1.000    1.250    3.000   17.500    1.000 
#    0.000    0.000    0.000    0.000    0.000    0.000 
#    0.000    0.000    0.000    0.000    0.000    0.000 
#
# Total GULP energy -89274.422049 kJ/mol
# GULP energy per Si atom -5579.651378 kJ/mol
# Density = 2.399442 g / cm^3
# Si number density = 24.049154 Si / 1000 Ang^3
#
#
#
# Elastic Constant Matrix: (Units=GPa)
#
#
# Indices 1 2 3 4 5 6 
#
# 1 100.3479 -37.9193 -22.8732 7.5771 -35.7442 13.0079
# 2 -37.9193 -51.8384 -52.6425 10.4245 -33.2350 25.5608
# 3 -22.8732 -52.6425 44.4664 8.0838 -53.4564 23.5788
# 4 7.5771 10.4245 8.0838 38.2280 8.6517 0.9838
# 5 -35.7442 -33.2350 -53.4564 8.6517 41.9465 -8.5195
# 6 13.0079 25.5608 23.5788 0.9838 -8.5195 42.6004
#
#
#
# Elastic Compliance Matrix: (Units=1/GPa)
#
#
# Indices 1 2 3 4 5 6 
#
# 1 0.008159 -0.005507 -0.000894 -0.000394 0.001874 0.001692
# 2 -0.005507 0.008096 -0.012353 0.004855 -0.014907 0.000568
# 3 -0.000894 -0.012353 0.011269 0.000143 0.004248 0.002294
# 4 -0.000394 0.004855 0.000143 0.025521 -0.002370 -0.003935
# 5 0.001874 -0.014907 0.004248 -0.002370 0.021642 0.010404
# 6 0.001692 0.000568 0.002294 -0.003935 0.010404 0.023518
#
#
# Mechanical properties :
#
#
# Convention : Reuss Voigt Hill
#
# Bulk Modulus (GPa) = -100.15128 -14.87713 -57.51420
# Shear Modulus (GPa) = 37.76913 38.31570 38.04242
#
# Velocity S-wave (km/s) = 3.96725 3.99585 3.98158
# Velocity P-wave (km/s) = 4.55515 3.88453 1.68224
#
# Compressibility (1/GPa) = -0.00998490
#
# Stress axis : x y z
#
# Youngs Moduli (GPa) = 122.56739 123.52527 88.74068
#
# Poissons Ratio (x) = 0.68021 0.07937
# Poissons Ratio (y) = 0.67494 1.09621
# Poissons Ratio (z) = 0.10962 1.52590
#
# Static dielectric constant tensor:
#      x y z
#    x 1.971890 -0.012810 0.021490 
#    y -0.012810 2.051020 0.005450 
#    z 0.021490 0.005450 2.018480 
# 
# From -- ./inp_files/605095.got.cif
#   From: 2010.05.17/outbox.cif.g08.bks.cpg/sg2_303_cif.got.tgz:605095.got - 2010.06.03 11:33:40.
