data_PCOD9052301
_publ_section_title
;
Structure prediction by ZEFSAII (Michael W. Deem and Ramdas Pophale) SiO2 
 PCOD9052301
Probable space group: P -1
;
_chemical_formula_sum "Si O2"
_cell_formula_units_Z 15
_cell_length_a 7.962544
_cell_length_b 15.443752
_cell_length_c 16.114235
_cell_angle_alpha 153.186874
_cell_angle_beta 64.045924
_cell_angle_gamma 130.771064
_cell_volume 612.775583
_symmetry_space_group_name_H-M "P -1"
_symmetry_group_IT_number 2
_symmetry_cell_setting 'triclinic'
loop_
_space_group_symop_operation_xyz
x,y,z
-x,-y,-z
loop_
_atom_site_type_symbol
_atom_site_label
_atom_site_fract_x
_atom_site_fract_y
_atom_site_fract_z
Si Si1 0.337485 0.158384 0.411765
Si Si2 0.565658 0.207690 0.876690
Si Si3 0.206595 0.531554 0.538025
Si Si4 0.089766 0.023085 0.905890
Si Si5 0.041981 0.765184 0.013008
Si Si6 0.762428 0.711946 0.297579
Si Si7 0.554966 0.252640 0.730213
Si Si8 0.500000 0.000000 0.000000
O O1 0.559853 0.348231 0.466135
O O2 0.344778 0.329257 0.623206
O O3 0.377667 0.978617 0.293463
O O4 0.097041 0.958749 0.238447
O O5 0.478409 0.211038 0.807181
O O6 0.356967 0.112769 0.909166
O O7 0.786345 0.502352 0.097734
O O8 0.304273 0.725478 0.758133
O O9 0.000000 0.500000 0.500000
O O10 0.091490 0.245142 0.331753
O O11 0.000000 0.000000 0.000000
O O12 0.074605 0.211915 0.022506
O O13 0.308229 0.875811 0.016678
O O14 0.842678 0.487269 0.854149
O O15 0.593463 0.696881 0.251415
O O16 0.000000 0.000000 0.500000
O O17 0.500000 0.000000 0.500000
#
# Coordination Sequence:
#
# PCOD9052301 Si02
#       8
#     2   2   2   2   2   2   2   1
#     4  11  26  48  71 112 148 199 248 321 380 461
#     4  12  26  48  76 110 150 204 251 312 392 452
#     4  11  23  45  73 104 147 195 254 313 394 450
#     4  12  26  45  81 108 147 205 260 324 388 468
#     4  11  27  49  71 112 153 187 262 314 381 463
#     4  12  27  46  73 108 150 196 260 307 378 459
#     4  12  27  47  76 109 152 207 248 313 382 459
#     4  10  26  44  72 106 148 196 246 320 378 460
#
# _framework density 24.478781999999999
#
# number of rings (size 3 to 8) (size 9 to 14) (size 15 to 20)
#    0.000    0.533    4.000    2.800    9.333    3.200 
#    4.800    0.000    0.000    0.000    0.000    0.000 
#    0.000    0.000    0.000    0.000    0.000    0.000 
#
# Total GULP energy -83687.254716 kJ/mol
# GULP energy per Si atom -5579.150314 kJ/mol
# Density = 2.442307 g / cm^3
# Si number density = 24.478782 Si / 1000 Ang^3
#
#
#
# Elastic Constant Matrix: (Units=GPa)
#
#
# Indices 1 2 3 4 5 6 
#
# 1 49.2576 25.8108 15.2801 -0.1050 12.9800 -3.8276
# 2 25.8108 82.4416 18.3252 -6.6562 0.5455 -1.2479
# 3 15.2801 18.3252 155.1012 6.5879 -0.1535 -0.1377
# 4 -0.1050 -6.6562 6.5879 62.5776 -1.2614 7.6997
# 5 12.9800 0.5455 -0.1535 -1.2614 28.5845 -2.3704
# 6 -3.8276 -1.2479 -0.1377 7.6997 -2.3704 29.3095
#
#
#
# Elastic Compliance Matrix: (Units=1/GPa)
#
#
# Indices 1 2 3 4 5 6 
#
# 1 0.028980 -0.008653 -0.001789 -0.001275 -0.012836 0.002705
# 2 -0.008653 0.015181 -0.001017 0.001865 0.003660 -0.000682
# 3 -0.001789 -0.001017 0.006779 -0.000812 0.000835 0.000036
# 4 -0.001275 0.001865 -0.000812 0.016826 0.000914 -0.004437
# 5 -0.012836 0.003660 0.000835 0.000914 0.040917 0.001553
# 6 0.002705 -0.000682 0.000036 -0.004437 0.001553 0.035734
#
#
# Mechanical properties :
#
#
# Convention : Reuss Voigt Hill
#
# Bulk Modulus (GPa) = 35.68540 45.07028 40.37784
# Shear Modulus (GPa) = 28.30037 39.25326 33.77681
#
# Velocity S-wave (km/s) = 3.40386 4.00880 3.71865
# Velocity P-wave (km/s) = 5.48253 6.31500 5.91343
#
# Compressibility (1/GPa) = 0.02802267
#
# Stress axis : x y z
#
# Youngs Moduli (GPa) = 34.50626 65.87206 147.50971
#
# Poissons Ratio (x) = 0.56996 0.26388
# Poissons Ratio (y) = 0.29857 0.15008
# Poissons Ratio (z) = 0.06173 0.06702
#
# Static dielectric constant tensor:
#      x y z
#    x 2.019620 0.037740 0.001870 
#    y 0.037740 2.028270 -0.017590 
#    z 0.001870 -0.017590 1.926360 
# 
# From -- ./inp_files/315957.got.cif
#   From: 2010.05.17/outbox.cif.g08.bks.cpg/sg2_158_cif.got.tgz:315957.got - 2010.06.03 11:33:40.
