data_PCOD9052174
_publ_section_title
;
Structure prediction by ZEFSAII (Michael W. Deem and Ramdas Pophale) SiO2 
 PCOD9052174
Probable space group: P -1
;
_chemical_formula_sum "Si O2"
_cell_formula_units_Z 15
_cell_length_a 15.248812
_cell_length_b 11.142595
_cell_length_c 8.533834
_cell_angle_alpha 90.750093
_cell_angle_beta 54.152499
_cell_angle_gamma 47.606121
_cell_volume 635.274830
_symmetry_space_group_name_H-M "P -1"
_symmetry_group_IT_number 2
_symmetry_cell_setting 'triclinic'
loop_
_space_group_symop_operation_xyz
x,y,z
-x,-y,-z
loop_
_atom_site_type_symbol
_atom_site_label
_atom_site_fract_x
_atom_site_fract_y
_atom_site_fract_z
Si Si1 0.674960 0.771580 0.413185
Si Si2 0.500000 0.500000 0.500000
Si Si3 0.457320 0.915413 0.957564
Si Si4 0.747381 0.490864 0.835877
Si Si5 0.876087 0.991557 0.135871
Si Si6 0.394803 0.617641 0.946496
Si Si7 0.093890 0.115051 0.240963
Si Si8 0.020617 0.634468 0.143158
O O1 0.574770 0.803618 0.668455
O O2 0.836551 0.717089 0.307596
O O3 0.500000 0.000000 0.500000
O O4 0.802655 0.563795 0.166432
O O5 0.528594 0.521632 0.654734
O O6 0.350488 0.753176 0.625778
O O7 0.548547 0.731305 0.975037
O O8 0.500000 0.000000 0.000000
O O9 0.229209 0.098783 0.159009
O O10 0.875105 0.467757 0.798925
O O11 0.884397 0.313844 0.550021
O O12 0.697556 0.426237 0.999858
O O13 0.935810 0.847661 0.209881
O O14 0.921926 0.873085 0.928986
O O15 0.000000 0.000000 0.000000
O O16 0.500000 0.500000 0.000000
O O17 0.219454 0.878356 0.146976
#
# Coordination Sequence:
#
# PCOD9052174 Si02
#       8
#     2   1   2   2   2   2   2   2
#     4  11  25  46  71  97 140 182 236 294 351 419
#     4  10  26  42  68 102 142 184 234 280 344 430
#     4  12  26  44  69 101 136 183 234 287 350 419
#     4  12  26  44  70 101 140 179 230 290 354 425
#     4  11  25  43  69 103 138 180 233 290 354 419
#     4  11  24  45  71 101 141 185 231 287 359 420
#     4  11  25  44  69 100 135 183 229 290 354 420
#     4  11  25  43  69 103 135 185 233 291 354 420
#
# _framework density 23.611827000000002
#
# number of rings (size 3 to 8) (size 9 to 14) (size 15 to 20)
#    0.000    0.800    1.333    5.200    3.733   11.733 
#    0.000    0.000    0.000    0.000    0.000    0.000 
#    0.000    0.000    0.000    0.000    0.000    0.000 
#
# Total GULP energy -83729.521340 kJ/mol
# GULP energy per Si atom -5581.968089 kJ/mol
# Density = 2.355808 g / cm^3
# Si number density = 23.611827 Si / 1000 Ang^3
#
#
#
# Elastic Constant Matrix: (Units=GPa)
#
#
# Indices 1 2 3 4 5 6 
#
# 1 99.4481 4.8082 5.3429 -0.9997 0.1829 -13.7679
# 2 4.8082 68.1889 -15.5121 8.5422 1.0910 -9.9405
# 3 5.3429 -15.5121 55.6057 5.0779 6.6265 -1.2480
# 4 -0.9997 8.5422 5.0779 19.8267 3.7019 1.7418
# 5 0.1829 1.0910 6.6265 3.7019 32.4440 -1.4774
# 6 -13.7679 -9.9405 -1.2480 1.7418 -1.4774 45.5782
#
#
#
# Elastic Compliance Matrix: (Units=1/GPa)
#
#
# Indices 1 2 3 4 5 6 
#
# 1 0.010578 -0.000707 -0.001255 0.000849 0.000259 0.002983
# 2 -0.000707 0.017928 0.006106 -0.009589 -0.000560 0.004212
# 3 -0.001255 0.006106 0.020957 -0.007550 -0.003540 0.001700
# 4 0.000849 -0.009589 -0.007550 0.057856 -0.004943 -0.004413
# 5 0.000259 -0.000560 -0.003540 -0.004943 0.032176 0.001091
# 6 0.002983 0.004212 0.001700 -0.004413 0.001091 0.024011
#
#
# Mechanical properties :
#
#
# Convention : Reuss Voigt Hill
#
# Bulk Modulus (GPa) = 17.31545 23.61341 20.46443
# Shear Modulus (GPa) = 28.65842 34.81003 31.73422
#
# Velocity S-wave (km/s) = 3.48764 3.84378 3.67003
# Velocity P-wave (km/s) = 4.85464 5.45178 5.16185
#
# Compressibility (1/GPa) = 0.05775189
#
# Stress axis : x y z
#
# Youngs Moduli (GPa) = 94.53479 55.77747 47.71604
#
# Poissons Ratio (x) = 0.03944 0.05989
# Poissons Ratio (y) = 0.06685 -0.29137
# Poissons Ratio (z) = 0.11866 -0.34060
#
# Static dielectric constant tensor:
#      x y z
#    x 1.969280 0.020790 -0.051790 
#    y 0.020790 1.865210 -0.044580 
#    z -0.051790 -0.044580 1.918370 
# 
# From -- ./inp_files/305111.got.cif
#   From: 2010.05.17/outbox.cif.g08.bks.cpg/sg2_153_cif.got.tgz:305111.got - 2010.06.03 11:33:40.
