data_PCOD9052303
_publ_section_title
;
Structure prediction by ZEFSAII (Michael W. Deem and Ramdas Pophale) SiO2 
 PCOD9052303
Probable space group: P -1
;
_chemical_formula_sum "Si O2"
_cell_formula_units_Z 13
_cell_length_a 8.830769
_cell_length_b 17.806085
_cell_length_c 14.531226
_cell_angle_alpha 22.479205
_cell_angle_beta 42.473861
_cell_angle_gamma 42.289380
_cell_volume 574.731814
_symmetry_space_group_name_H-M "P -1"
_symmetry_group_IT_number 2
_symmetry_cell_setting 'triclinic'
loop_
_space_group_symop_operation_xyz
x,y,z
-x,-y,-z
loop_
_atom_site_type_symbol
_atom_site_label
_atom_site_fract_x
_atom_site_fract_y
_atom_site_fract_z
Si Si1 0.987788 0.755006 0.540977
Si Si2 0.777660 0.413737 0.719428
Si Si3 0.788672 0.972115 0.563928
Si Si4 0.000000 0.000000 0.000000
Si Si5 0.399226 0.365842 0.268138
Si Si6 0.610602 0.112581 0.901088
Si Si7 0.334598 0.383734 0.864811
O O1 0.197667 0.797715 0.339124
O O2 0.097062 0.547312 0.779288
O O3 0.878691 0.920704 0.477793
O O4 0.797241 0.724715 0.588761
O O5 0.707597 0.484996 0.771847
O O6 0.544525 0.486727 0.681816
O O7 0.000000 0.500000 0.500000
O O8 0.851100 0.178460 0.929095
O O9 0.596089 0.177045 0.424433
O O10 0.693785 0.784655 0.857879
O O11 0.000000 0.000000 0.500000
O O12 0.238239 0.006755 0.947712
O O13 0.500000 0.500000 0.000000
O O14 0.409083 0.274911 0.857422
O O15 0.500000 0.000000 0.000000
#
# Coordination Sequence:
#
# PCOD9052303 Si02
#       7
#     2   2   2   1   2   2   2
#     4  12  26  45  71 108 146 190 253 304 373 454
#     4  11  26  45  75 103 148 190 248 299 383 435
#     4  12  26  47  73 103 147 199 244 306 380 443
#     4  10  26  44  72 108 150 192 252 306 370 448
#     4  12  27  45  72 106 145 193 244 310 373 445
#     4  11  26  43  75 105 149 192 252 304 381 437
#     4  11  25  46  71 106 144 193 247 307 371 449
#
# _framework density 22.619243999999998
#
# number of rings (size 3 to 8) (size 9 to 14) (size 15 to 20)
#    0.000    0.615    0.000    6.923   15.077    0.000 
#    0.000    0.000    0.000    0.000    0.000    0.000 
#    0.000    0.000    0.000    0.000    0.000    0.000 
#
# Total GULP energy -72524.986372 kJ/mol
# GULP energy per Si atom -5578.845106 kJ/mol
# Density = 2.256776 g / cm^3
# Si number density = 22.619244 Si / 1000 Ang^3
#
#
#
# Elastic Constant Matrix: (Units=GPa)
#
#
# Indices 1 2 3 4 5 6 
#
# 1 172.3247 52.9470 16.4735 -22.9557 -32.3420 -0.6166
# 2 52.9470 171.4517 22.3478 -8.3261 1.1299 26.0220
# 3 16.4735 22.3478 53.9444 7.4011 0.6158 -16.6593
# 4 -22.9557 -8.3261 7.4011 31.0747 0.1186 1.5890
# 5 -32.3420 1.1299 0.6158 0.1186 28.5989 -7.7552
# 6 -0.6166 26.0220 -16.6593 1.5890 -7.7552 58.6432
#
#
#
# Elastic Compliance Matrix: (Units=1/GPa)
#
#
# Indices 1 2 3 4 5 6 
#
# 1 0.010170 -0.002890 -0.002368 0.007146 0.012216 0.002139
# 2 -0.002890 0.008265 -0.004431 0.001444 -0.005041 -0.005662
# 3 -0.002368 -0.004431 0.025271 -0.009430 -0.000483 0.009312
# 4 0.007146 0.001444 -0.009430 0.040238 0.007141 -0.003390
# 5 0.012216 -0.005041 -0.000483 0.007141 0.051355 0.008826
# 6 0.002139 -0.005662 0.009312 -0.003390 0.008826 0.023492
#
#
# Mechanical properties :
#
#
# Convention : Reuss Voigt Hill
#
# Bulk Modulus (GPa) = 41.10321 64.58415 52.84368
# Shear Modulus (GPa) = 26.84159 44.06017 35.45088
#
# Velocity S-wave (km/s) = 3.44855 4.41830 3.96319
# Velocity P-wave (km/s) = 5.83677 7.39210 6.65999
#
# Compressibility (1/GPa) = 0.02432900
#
# Stress axis : x y z
#
# Youngs Moduli (GPa) = 98.33181 120.98782 39.57067
#
# Poissons Ratio (x) = 0.34965 0.09370
# Poissons Ratio (y) = 0.28418 0.17533
# Poissons Ratio (z) = 0.23283 0.53607
#
# Static dielectric constant tensor:
#      x y z
#    x 1.828040 -0.001470 0.037910 
#    y -0.001470 1.780450 0.003440 
#    z 0.037910 0.003440 1.889590 
# 
# From -- ./inp_files/188103.got.cif
#   From: 2010.05.17/outbox.cif.g08.bks.cpg/sg2_95_cif.got.tgz:188103.got - 2010.06.03 11:33:40.
