data_PCOD9052705
_publ_section_title
;
Structure prediction by ZEFSAII (Michael W. Deem and Ramdas Pophale) SiO2 
 PCOD9052705
Probable space group: P -1
;
_chemical_formula_sum "Si O2"
_cell_formula_units_Z 13
_cell_length_a 8.798742
_cell_length_b 9.985629
_cell_length_c 12.366427
_cell_angle_alpha 146.143436
_cell_angle_beta 56.800159
_cell_angle_gamma 117.363933
_cell_volume 506.483541
_symmetry_space_group_name_H-M "P -1"
_symmetry_group_IT_number 2
_symmetry_cell_setting 'triclinic'
loop_
_space_group_symop_operation_xyz
x,y,z
-x,-y,-z
loop_
_atom_site_type_symbol
_atom_site_label
_atom_site_fract_x
_atom_site_fract_y
_atom_site_fract_z
Si Si1 0.647626 0.682254 0.879573
Si Si2 0.264064 0.676540 0.920501
Si Si3 0.352818 0.210241 0.464267
Si Si4 0.000000 0.500000 0.500000
Si Si5 0.966608 0.986075 0.632294
Si Si6 0.752576 0.186801 0.229747
Si Si7 0.356172 0.834214 0.382471
O O1 0.605851 0.444218 0.806657
O O2 0.796405 0.597552 0.679329
O O3 0.460459 0.758396 0.944767
O O4 0.731194 0.900788 0.062123
O O5 0.105280 0.774714 0.124241
O O6 0.279602 0.390092 0.705333
O O7 0.226707 0.773554 0.880084
O O8 0.204026 0.198939 0.419896
O O9 0.447081 0.715252 0.596568
O O10 0.361097 0.944167 0.334454
O O11 0.093292 0.690264 0.678344
O O12 0.150132 0.878112 0.536453
O O13 0.000000 0.000000 0.500000
O O14 0.500000 0.000000 0.500000
#
# Coordination Sequence:
#
# PCOD9052705 Si02
#       7
#     2   2   2   1   2   2   2
#     4  12  27  47  79 116 161 214 262 334 401 478
#     4  12  25  48  82 113 158 213 270 324 397 479
#     4  11  24  49  77 115 155 216 266 325 394 478
#     4  12  28  50  72 122 164 206 270 332 406 462
#     4  10  26  48  76 113 157 212 267 323 395 481
#     4  12  27  48  80 118 161 213 267 331 402 481
#     4  11  24  49  76 111 160 204 261 333 397 472
#
# _framework density 25.667172000000001
#
# number of rings (size 3 to 8) (size 9 to 14) (size 15 to 20)
#    0.000    0.615    4.615    1.385    4.308    3.077 
#    2.769    0.000    0.000    0.000    0.000    0.000 
#    0.000    0.000    0.000    0.000    0.000    0.000 
#
# Total GULP energy -72598.202026 kJ/mol
# GULP energy per Si atom -5584.477079 kJ/mol
# Density = 2.560875 g / cm^3
# Si number density = 25.667172 Si / 1000 Ang^3
#
#
#
# Elastic Constant Matrix: (Units=GPa)
#
#
# Indices 1 2 3 4 5 6 
#
# 1 173.5991 59.9123 60.0362 7.1528 17.9163 37.6149
# 2 59.9123 98.7950 51.3461 7.5552 5.5800 -13.5420
# 3 60.0362 51.3461 178.3658 -8.1186 7.7908 1.6286
# 4 7.1528 7.5552 -8.1186 60.0639 16.2082 -4.9945
# 5 17.9163 5.5800 7.7908 16.2082 48.5594 -2.2779
# 6 37.6149 -13.5420 1.6286 -4.9945 -2.2779 29.5033
#
#
#
# Elastic Compliance Matrix: (Units=1/GPa)
#
#
# Indices 1 2 3 4 5 6 
#
# 1 0.018593 -0.014150 -0.001723 -0.001652 -0.005853 -0.030837
# 2 -0.014150 0.023860 -0.002586 -0.000411 0.004410 0.029406
# 3 -0.001723 -0.002586 0.007035 0.001753 -0.000740 0.000861
# 4 -0.001652 -0.000411 0.001753 0.019076 -0.005776 0.004604
# 5 -0.005853 0.004410 -0.000740 -0.005776 0.024783 0.010463
# 6 -0.030837 0.029406 0.000861 0.004604 0.010463 0.088247
#
#
# Mechanical properties :
#
#
# Convention : Reuss Voigt Hill
#
# Bulk Modulus (GPa) = 79.54847 88.14990 83.84919
# Shear Modulus (GPa) = 22.45155 46.25634 34.35395
#
# Velocity S-wave (km/s) = 2.96077 4.24979 3.66244
# Velocity P-wave (km/s) = 6.53818 7.64846 7.11501
#
# Compressibility (1/GPa) = 0.01257095
#
# Stress axis : x y z
#
# Youngs Moduli (GPa) = 53.78224 41.91143 142.14740
#
# Poissons Ratio (x) = 0.59305 0.24492
# Poissons Ratio (y) = 0.76103 0.36753
# Poissons Ratio (z) = 0.09267 0.10836
#
# Static dielectric constant tensor:
#      x y z
#    x 2.023790 0.033820 -0.008830 
#    y 0.033820 2.150590 0.003670 
#    z -0.008830 0.003670 1.991850 
# 
# From -- ./inp_files/498600.got.cif
#   From: 2010.05.17/outbox.cif.g08.bks.cpg/sg2_250_cif.got.tgz:498600.got - 2010.06.03 11:33:40.
