data_PCOD9052969
_publ_section_title
;
Structure prediction by ZEFSAII (Michael W. Deem and Ramdas Pophale) SiO2 
 PCOD9052969
Probable space group: P -1
;
_chemical_formula_sum "Si O2"
_cell_formula_units_Z 16
_cell_length_a 9.147182
_cell_length_b 11.335651
_cell_length_c 10.223129
_cell_angle_alpha 52.764917
_cell_angle_beta 126.542494
_cell_angle_gamma 129.569180
_cell_volume 611.305807
_symmetry_space_group_name_H-M "P -1"
_symmetry_group_IT_number 2
_symmetry_cell_setting 'triclinic'
loop_
_space_group_symop_operation_xyz
x,y,z
-x,-y,-z
loop_
_atom_site_type_symbol
_atom_site_label
_atom_site_fract_x
_atom_site_fract_y
_atom_site_fract_z
Si Si1 0.467925 0.165054 0.718357
Si Si2 0.249130 0.378095 0.382825
Si Si3 0.592996 0.833708 0.869588
Si Si4 0.891505 0.024207 0.687998
Si Si5 0.141143 0.337729 0.795389
Si Si6 0.380208 0.598656 0.554187
Si Si7 0.807236 0.171598 0.283888
Si Si8 0.838868 0.151062 0.975141
O O1 0.322018 0.256082 0.584900
O O2 0.553633 0.214063 0.581157
O O3 0.663232 0.207086 0.883819
O O4 0.318500 0.976541 0.780472
O O5 0.279837 0.508694 0.424508
O O6 0.412289 0.425595 0.320588
O O7 0.022051 0.304594 0.262979
O O8 0.354437 0.765700 0.797813
O O9 0.683232 0.913805 0.724820
O O10 0.705278 0.986418 0.927591
O O11 0.673365 0.699968 0.035863
O O12 0.859112 0.079356 0.492196
O O13 0.014525 0.191244 0.723754
O O14 0.012750 0.912496 0.831287
O O15 0.233310 0.511093 0.652684
O O16 0.991774 0.298066 0.864670
#
# Coordination Sequence:
#
# PCOD9052969 Si02
#       8
#     2   2   2   2   2   2   2   2
#     4   9  19  32  50  72 103 120 162 199 243 282
#     4   9  19  33  50  70  95 132 166 198 226 284
#     4   8  17  28  48  77 100 121 161 201 236 287
#     4   9  16  28  51  76  98 124 160 198 240 285
#     4   9  15  31  52  72  97 129 160 195 239 285
#     4   9  18  33  53  67  97 130 167 193 232 289
#     4  11  17  30  53  73  98 126 157 204 246 271
#     4   8  16  30  49  75 100 123 157 204 236 282
#
# _framework density 26.173482
#
# number of rings (size 3 to 8) (size 9 to 14) (size 15 to 20)
#    0.750    2.250    1.250    2.250    0.000    0.500 
#    0.000    1.250    5.500    1.500    0.000    0.000 
#    0.000    0.000    0.000    0.000    0.000    0.000 
#
# Total GULP energy -89313.207478 kJ/mol
# GULP energy per Si atom -5582.075467 kJ/mol
# Density = 2.611391 g / cm^3
# Si number density = 26.173482 Si / 1000 Ang^3
#
#
#
# Elastic Constant Matrix: (Units=GPa)
#
#
# Indices 1 2 3 4 5 6 
#
# 1 61.5985 20.7026 20.9583 24.7066 26.9886 23.6760
# 2 20.7026 88.7091 7.5971 16.6294 17.3332 35.0091
# 3 20.9583 7.5971 87.5565 6.1174 19.9688 13.0692
# 4 24.7066 16.6294 6.1174 26.2764 16.2755 10.6507
# 5 26.9886 17.3332 19.9688 16.2755 39.6489 9.9950
# 6 23.6760 35.0091 13.0692 10.6507 9.9950 43.4752
#
#
#
# Elastic Compliance Matrix: (Units=1/GPa)
#
#
# Indices 1 2 3 4 5 6 
#
# 1 0.034808 0.003653 -0.002485 -0.021872 -0.011762 -0.013089
# 2 0.003653 0.018072 0.001221 -0.006429 -0.004774 -0.014237
# 3 -0.002485 0.001221 0.013579 0.003623 -0.006379 -0.003133
# 4 -0.021872 -0.006429 0.003623 0.069058 -0.012996 0.002068
# 5 -0.011762 -0.004774 -0.006379 -0.012996 0.042452 0.005591
# 6 -0.013089 -0.014237 -0.003133 0.002068 0.005591 0.040744
#
#
# Mechanical properties :
#
#
# Convention : Reuss Voigt Hill
#
# Bulk Modulus (GPa) = 14.03752 37.37557 25.70655
# Shear Modulus (GPa) = 21.03649 34.45384 27.74516
#
# Velocity S-wave (km/s) = 2.83809 3.63211 3.25937
# Velocity P-wave (km/s) = 4.01430 5.64806 4.89975
#
# Compressibility (1/GPa) = 0.07123765
#
# Stress axis : x y z
#
# Youngs Moduli (GPa) = 28.72868 55.33356 73.64107
#
# Poissons Ratio (x) = -0.20213 0.18298
# Poissons Ratio (y) = -0.10495 -0.08988
# Poissons Ratio (z) = 0.07138 -0.06754
#
# Static dielectric constant tensor:
#      x y z
#    x 2.143160 -0.009680 -0.043180 
#    y -0.009680 2.103900 0.011710 
#    z -0.043180 0.011710 2.051250 
# 
# From -- ./inp_files/523247.got.cif
#   From: 2010.05.17/outbox.cif.g08.bks.cpg/sg2_262_cif.got.tgz:523247.got - 2010.06.03 11:33:40.
