data_PCOD9052284
_publ_section_title
;
Structure prediction by ZEFSAII (Michael W. Deem and Ramdas Pophale) SiO2 
 PCOD9052284
Probable space group: P -1
;
_chemical_formula_sum "Si O2"
_cell_formula_units_Z 13
_cell_length_a 9.692554
_cell_length_b 9.960716
_cell_length_c 15.263404
_cell_angle_alpha 141.859389
_cell_angle_beta 113.342422
_cell_angle_gamma 42.557515
_cell_volume 553.223917
_symmetry_space_group_name_H-M "P -1"
_symmetry_group_IT_number 2
_symmetry_cell_setting 'triclinic'
loop_
_space_group_symop_operation_xyz
x,y,z
-x,-y,-z
loop_
_atom_site_type_symbol
_atom_site_label
_atom_site_fract_x
_atom_site_fract_y
_atom_site_fract_z
Si Si1 0.316456 0.589220 0.623896
Si Si2 0.492498 0.555911 0.819152
Si Si3 0.802173 0.812356 0.167815
Si Si4 0.117159 0.660454 0.312044
Si Si5 0.180756 0.943488 0.201692
Si Si6 0.000000 0.000000 0.000000
Si Si7 0.355790 0.186667 0.290003
O O1 0.449366 0.421082 0.662453
O O2 0.408232 0.337683 0.441846
O O3 0.305402 0.855752 0.733635
O O4 0.056139 0.803132 0.676972
O O5 0.670444 0.519664 0.792766
O O6 0.627209 0.339542 0.828292
O O7 0.230683 0.876344 0.948148
O O8 0.922148 0.752603 0.256490
O O9 0.603960 0.852062 0.147669
O O10 0.000000 0.500000 0.000000
O O11 0.206228 0.421469 0.291652
O O12 0.000000 0.000000 0.500000
O O13 0.239013 0.124034 0.280982
O O14 0.126892 0.872931 0.062318
#
# Coordination Sequence:
#
# PCOD9052284 Si02
#       7
#     2   2   2   2   2   1   2
#     4  11  23  47  74 102 146 194 239 297 364 438
#     4  11  23  43  74  97 144 193 237 290 368 429
#     4  12  27  43  71 108 145 189 246 295 363 430
#     4  12  24  45  76 103 142 197 241 296 367 427
#     4  11  25  44  73 105 140 188 244 298 362 427
#     4  10  26  44  70  96 150 192 238 288 372 428
#     4  12  26  45  73 110 148 184 246 302 360 436
#
# _framework density 23.498622999999998
#
# number of rings (size 3 to 8) (size 9 to 14) (size 15 to 20)
#    0.000    0.615    4.615    2.308    2.154    8.615 
#    0.000    0.000    0.000    0.000    0.000    0.000 
#    0.000    0.000    0.000    0.000    0.000    0.000 
#
# Total GULP energy -72433.481190 kJ/mol
# GULP energy per Si atom -5571.806245 kJ/mol
# Density = 2.344514 g / cm^3
# Si number density = 23.498623 Si / 1000 Ang^3
#
#
#
# Elastic Constant Matrix: (Units=GPa)
#
#
# Indices 1 2 3 4 5 6 
#
# 1 136.7827 23.6818 2.9372 21.8903 -16.9807 -8.2765
# 2 23.6818 192.2000 52.9031 -34.0404 20.1169 -15.7821
# 3 2.9372 52.9031 67.2863 -14.8598 -2.5293 5.9546
# 4 21.8903 -34.0404 -14.8598 21.6386 -1.5534 -3.6600
# 5 -16.9807 20.1169 -2.5293 -1.5534 33.4983 0.9911
# 6 -8.2765 -15.7821 5.9546 -3.6600 0.9911 41.9063
#
#
#
# Elastic Compliance Matrix: (Units=1/GPa)
#
#
# Indices 1 2 3 4 5 6 
#
# 1 0.013850 -0.007658 0.000428 -0.025461 0.010551 -0.002683
# 2 -0.007658 0.014440 -0.006263 0.026555 -0.012015 0.007419
# 3 0.000428 -0.006263 0.021304 0.003907 0.005918 -0.005100
# 4 -0.025461 0.026555 0.003907 0.117311 -0.023569 0.015220
# 5 0.010551 -0.012015 0.005918 -0.023569 0.041957 -0.006333
# 6 -0.002683 0.007419 -0.005100 0.015220 -0.006333 0.028331
#
#
# Mechanical properties :
#
#
# Convention : Reuss Voigt Hill
#
# Bulk Modulus (GPa) = 44.23322 61.70145 52.96734
# Shear Modulus (GPa) = 18.40158 40.52508 29.46333
#
# Velocity S-wave (km/s) = 2.80141 4.15730 3.54479
# Velocity P-wave (km/s) = 5.41558 7.02557 6.27245
#
# Compressibility (1/GPa) = 0.02260744
#
# Stress axis : x y z
#
# Youngs Moduli (GPa) = 72.20383 69.25072 46.93949
#
# Poissons Ratio (x) = 0.53033 -0.02007
# Poissons Ratio (y) = 0.55294 0.29397
# Poissons Ratio (z) = -0.03088 0.43371
#
# Static dielectric constant tensor:
#      x y z
#    x 2.766460 -0.668650 0.274930 
#    y -0.668650 2.360380 -0.232860 
#    z 0.274930 -0.232860 2.088200 
# 
# From -- ./inp_files/493531.got.cif
#   From: 2010.05.17/outbox.cif.g08.bks.cpg/sg2_247_cif.got.tgz:493531.got - 2010.06.03 11:33:40.
