data_PCOD9052494
_publ_section_title
;
Structure prediction by ZEFSAII (Michael W. Deem and Ramdas Pophale) SiO2 
 PCOD9052494
Probable space group: P -1
;
_chemical_formula_sum "Si O2"
_cell_formula_units_Z 15
_cell_length_a 7.859674
_cell_length_b 19.914649
_cell_length_c 7.772580
_cell_angle_alpha 68.604326
_cell_angle_beta 35.108602
_cell_angle_gamma 59.652769
_cell_volume 600.928663
_symmetry_space_group_name_H-M "P -1"
_symmetry_group_IT_number 2
_symmetry_cell_setting 'triclinic'
loop_
_space_group_symop_operation_xyz
x,y,z
-x,-y,-z
loop_
_atom_site_type_symbol
_atom_site_label
_atom_site_fract_x
_atom_site_fract_y
_atom_site_fract_z
Si Si1 0.270144 0.934665 0.224194
Si Si2 0.500000 0.500000 0.500000
Si Si3 0.461693 0.161542 0.432950
Si Si4 0.719459 0.677261 0.403165
Si Si5 0.553811 0.429943 0.151093
Si Si6 0.812505 0.316988 0.439928
Si Si7 0.456747 0.777622 0.064386
Si Si8 0.807043 0.929136 0.044757
O O1 0.597420 0.914679 0.077769
O O2 0.248572 0.852799 0.280005
O O3 0.000000 0.000000 0.500000
O O4 0.267508 0.979338 0.004673
O O5 0.430157 0.469801 0.399348
O O6 0.731465 0.408242 0.441810
O O7 0.279479 0.240787 0.614786
O O8 0.498896 0.188669 0.186585
O O9 0.295618 0.100735 0.667087
O O10 0.821264 0.119575 0.244766
O O11 0.625500 0.629024 0.677218
O O12 0.434214 0.692589 0.487249
O O13 0.067045 0.621321 0.101488
O O14 0.500000 0.500000 0.000000
O O15 0.178669 0.269039 0.131685
O O16 0.725443 0.281094 0.718894
#
# Coordination Sequence:
#
# PCOD9052494 Si02
#       8
#     2   1   2   2   2   2   2   2
#     4  11  25  47  72 104 133 192 232 285 343 421
#     4  10  26  46  74 104 140 188 240 284 378 398
#     4  12  25  44  68 105 141 182 228 294 346 417
#     4  11  24  44  69  99 137 184 233 279 362 403
#     4  11  25  43  71 103 139 185 233 297 352 438
#     4  11  25  47  70 103 138 183 234 297 334 446
#     4  12  28  42  73 104 140 180 237 288 357 404
#     4  11  24  44  71  96 139 182 226 285 337 422
#
# _framework density 24.961364
#
# number of rings (size 3 to 8) (size 9 to 14) (size 15 to 20)
#    0.000    0.800    1.333    5.200    7.467    5.867 
#    0.000    0.000    0.000    0.000    0.000    0.000 
#    0.000    0.000    0.000    0.000    0.000    0.000 
#
# Total GULP energy -83736.231773 kJ/mol
# GULP energy per Si atom -5582.415452 kJ/mol
# Density = 2.490455 g / cm^3
# Si number density = 24.961364 Si / 1000 Ang^3
#
#
#
# Elastic Constant Matrix: (Units=GPa)
#
#
# Indices 1 2 3 4 5 6 
#
# 1 34.7927 28.7470 5.4001 18.0458 -5.3073 -15.6378
# 2 28.7470 174.4229 46.7797 9.1483 8.1180 -17.6702
# 3 5.4001 46.7797 103.4104 -3.1860 -10.1647 -2.2474
# 4 18.0458 9.1483 -3.1860 45.5594 -12.5510 13.1803
# 5 -5.3073 8.1180 -10.1647 -12.5510 34.5087 1.9627
# 6 -15.6378 -17.6702 -2.2474 13.1803 1.9627 28.6838
#
#
#
# Elastic Compliance Matrix: (Units=1/GPa)
#
#
# Indices 1 2 3 4 5 6 
#
# 1 0.111533 -0.001972 -0.006973 -0.076822 -0.017812 0.095562
# 2 -0.001972 0.008288 -0.004186 -0.004448 -0.005452 0.006119
# 3 -0.006973 -0.004186 0.012763 0.009622 0.007759 -0.010332
# 4 -0.076822 -0.004448 0.009622 0.086523 0.028401 -0.085569
# 5 -0.017812 -0.005452 0.007759 0.028401 0.041750 -0.028369
# 6 0.095562 0.006119 -0.010332 -0.085569 -0.028369 0.131182
#
#
# Mechanical properties :
#
#
# Convention : Reuss Voigt Hill
#
# Bulk Modulus (GPa) = 9.40555 52.71996 31.06275
# Shear Modulus (GPa) = 11.01950 37.19698 24.10824
#
# Velocity S-wave (km/s) = 2.10338 3.86448 3.11114
# Velocity P-wave (km/s) = 3.11049 6.40927 5.03755
#
# Compressibility (1/GPa) = 0.10632025
#
# Stress axis : x y z
#
# Youngs Moduli (GPa) = 8.96598 120.65731 78.35427
#
# Poissons Ratio (x) = 0.23800 0.54635
# Poissons Ratio (y) = 0.01769 0.32800
# Poissons Ratio (z) = 0.06252 0.50509
#
# Static dielectric constant tensor:
#      x y z
#    x 1.996750 -0.089450 0.055940 
#    y -0.089450 1.932800 -0.085040 
#    z 0.055940 -0.085040 2.007940 
# 
# From -- ./inp_files/223332.got.cif
#   From: 2010.05.17/outbox.cif.g08.bks.cpg/sg2_112_cif.got.tgz:223332.got - 2010.06.03 11:33:40.
