data_PCOD9052406
_publ_section_title
;
Structure prediction by ZEFSAII (Michael W. Deem and Ramdas Pophale) SiO2 
 PCOD9052406
Probable space group: P -1
;
_chemical_formula_sum "Si O2"
_cell_formula_units_Z 13
_cell_length_a 13.027996
_cell_length_b 12.943024
_cell_length_c 6.716216
_cell_angle_alpha 97.380691
_cell_angle_beta 98.800001
_cell_angle_gamma 31.956738
_cell_volume 592.350024
_symmetry_space_group_name_H-M "P -1"
_symmetry_group_IT_number 2
_symmetry_cell_setting 'triclinic'
loop_
_space_group_symop_operation_xyz
x,y,z
-x,-y,-z
loop_
_atom_site_type_symbol
_atom_site_label
_atom_site_fract_x
_atom_site_fract_y
_atom_site_fract_z
Si Si1 0.625553 0.599563 0.180233
Si Si2 0.781469 0.127303 0.739425
Si Si3 0.000000 0.500000 0.000000
Si Si4 0.019315 0.597226 0.624229
Si Si5 0.209445 0.052147 0.617610
Si Si6 0.943852 0.208071 0.923869
Si Si7 0.441613 0.167027 0.082798
O O1 0.445839 0.684845 0.224814
O O2 0.772920 0.521455 0.369045
O O3 0.761951 0.417962 0.027167
O O4 0.535247 0.775246 0.082753
O O5 0.863073 0.174318 0.779480
O O6 0.797501 0.053118 0.517702
O O7 0.908347 0.956946 0.900583
O O8 0.003082 0.589487 0.851349
O O9 0.785661 0.644227 0.892012
O O10 0.000000 0.500000 0.500000
O O11 0.859994 0.804606 0.527723
O O12 0.063244 0.175106 0.792182
O O13 0.419493 0.907395 0.723624
O O14 0.500000 0.000000 0.000000
#
# Coordination Sequence:
#
# PCOD9052406 Si02
#       7
#     2   2   1   2   2   2   2
#     4  11  24  46  73 102 141 194 232 285 365 423
#     4  11  25  47  74 105 140 188 240 296 360 419
#     4  10  26  46  66  94 142 186 230 280 352 404
#     4  11  26  42  69 102 143 181 235 289 345 424
#     4  12  25  45  75 108 138 187 238 293 354 422
#     4  11  25  49  71 104 149 180 234 307 360 413
#     4  11  26  43  71  99 146 186 231 289 349 419
#
# _framework density 21.946484000000002
#
# number of rings (size 3 to 8) (size 9 to 14) (size 15 to 20)
#    0.000    0.923    3.077    2.769   12.923    0.615 
#    0.000    1.538    0.000    0.000    0.000    0.000 
#    0.000    0.000    0.000    0.000    0.000    0.000 
#
# Total GULP energy -72457.789833 kJ/mol
# GULP energy per Si atom -5573.676141 kJ/mol
# Density = 2.189653 g / cm^3
# Si number density = 21.946484 Si / 1000 Ang^3
#
#
#
# Elastic Constant Matrix: (Units=GPa)
#
#
# Indices 1 2 3 4 5 6 
#
# 1 102.3774 43.1051 38.7579 -0.1319 26.6135 -27.0306
# 2 43.1051 100.9622 53.8724 -6.1346 14.8889 -17.3403
# 3 38.7579 53.8724 93.0003 0.0125 29.1647 -10.7470
# 4 -0.1319 -6.1346 0.0125 49.9011 -2.3745 9.9318
# 5 26.6135 14.8889 29.1647 -2.3745 56.3102 0.0943
# 6 -27.0306 -17.3403 -10.7470 9.9318 0.0943 48.0975
#
#
#
# Elastic Compliance Matrix: (Units=1/GPa)
#
#
# Indices 1 2 3 4 5 6 
#
# 1 0.015332 -0.003714 -0.001661 -0.002142 -0.005507 0.007360
# 2 -0.003714 0.015875 -0.008040 0.001735 0.001793 0.001478
# 3 -0.001661 -0.008040 0.018233 -0.001420 -0.006594 0.000548
# 4 -0.002142 0.001735 -0.001420 0.021412 0.002201 -0.005322
# 5 -0.005507 0.001793 -0.006594 0.002201 0.023403 -0.004422
# 6 0.007360 0.001478 0.000548 -0.005322 -0.004422 0.026690
#
#
# Mechanical properties :
#
#
# Convention : Reuss Voigt Hill
#
# Bulk Modulus (GPa) = 44.22425 63.09008 53.65717
# Shear Modulus (GPa) = 32.19339 41.56871 36.88105
#
# Velocity S-wave (km/s) = 3.83417 4.35684 4.10384
# Velocity P-wave (km/s) = 6.30840 7.35657 6.85255
#
# Compressibility (1/GPa) = 0.02261203
#
# Stress axis : x y z
#
# Youngs Moduli (GPa) = 65.22248 62.99117 54.84460
#
# Poissons Ratio (x) = 0.23394 0.09107
# Poissons Ratio (y) = 0.24223 0.44094
# Poissons Ratio (z) = 0.10831 0.50644
#
# Static dielectric constant tensor:
#      x y z
#    x 1.914160 0.042760 -0.057050 
#    y 0.042760 1.809080 0.022450 
#    z -0.057050 0.022450 1.854290 
# 
# From -- ./inp_files/96547.got.cif
#   From: 2010.05.17/outbox.cif.g08.bks.cpg/sg2_49_cif.got.tgz:96547.got - 2010.06.03 11:33:40.
