data_PCOD9052544
_publ_section_title
;
Structure prediction by ZEFSAII (Michael W. Deem and Ramdas Pophale) SiO2 
 PCOD9052544
Probable space group: P -1
;
_chemical_formula_sum "Si O2"
_cell_formula_units_Z 14
_cell_length_a 10.268838
_cell_length_b 14.563368
_cell_length_c 6.368870
_cell_angle_alpha 59.094839
_cell_angle_beta 60.907600
_cell_angle_gamma 49.661998
_cell_volume 605.462578
_symmetry_space_group_name_H-M "P -1"
_symmetry_group_IT_number 2
_symmetry_cell_setting 'triclinic'
loop_
_space_group_symop_operation_xyz
x,y,z
-x,-y,-z
loop_
_atom_site_type_symbol
_atom_site_label
_atom_site_fract_x
_atom_site_fract_y
_atom_site_fract_z
Si Si1 0.794981 0.258139 0.654303
Si Si2 0.592906 0.537557 0.586904
Si Si3 0.676102 0.662348 0.005552
Si Si4 0.359049 0.747554 0.826992
Si Si5 0.905326 0.446458 0.774783
Si Si6 0.879430 0.788485 0.835558
Si Si7 0.794076 0.054826 0.625449
O O1 0.640364 0.407018 0.586074
O O2 0.742672 0.163396 0.708392
O O3 0.966181 0.237445 0.423183
O O4 0.803450 0.227195 0.930770
O O5 0.420656 0.632425 0.748536
O O6 0.744539 0.474782 0.720126
O O7 0.632906 0.622815 0.306502
O O8 0.519759 0.710770 0.901488
O O9 0.831096 0.532331 0.938406
O O10 0.745630 0.755168 0.876873
O O11 0.307144 0.870651 0.591125
O O12 0.000000 0.500000 0.500000
O O13 0.029543 0.305993 0.928936
O O14 0.782589 0.933552 0.813855
O O15 0.000000 0.000000 0.500000
#
# Coordination Sequence:
#
# PCOD9052544 Si02
#       7
#     2   2   2   2   2   2   2
#     4  11  24  45  70  99 141 177 230 273 335 401
#     4  11  23  41  72 104 137 174 224 290 337 397
#     4  11  23  44  69 104 137 171 225 292 345 386
#     4  11  26  44  68 102 137 182 226 274 346 404
#     4  11  21  39  69 107 137 171 226 278 348 397
#     4  11  23  45  72 101 139 178 225 284 330 404
#     4  10  26  47  65  98 139 184 228 273 330 413
#
# _framework density 23.122817999999999
#
# number of rings (size 3 to 8) (size 9 to 14) (size 15 to 20)
#    0.000    1.143    2.857    2.571    4.000    5.143 
#    2.571    2.857    0.000    0.000    0.000    0.000 
#    0.000    0.000    0.000    0.000    0.000    0.000 
#
# Total GULP energy -78275.588091 kJ/mol
# GULP energy per Si atom -5591.113435 kJ/mol
# Density = 2.307019 g / cm^3
# Si number density = 23.122818 Si / 1000 Ang^3
#
#
#
# Elastic Constant Matrix: (Units=GPa)
#
#
# Indices 1 2 3 4 5 6 
#
# 1 83.6686 48.1326 41.5407 -12.4357 2.0474 23.8674
# 2 48.1326 151.8751 71.2579 -21.6277 -0.8179 25.6053
# 3 41.5407 71.2579 167.1435 -3.0948 -3.5861 10.0195
# 4 -12.4357 -21.6277 -3.0948 46.0372 -0.4789 -4.0478
# 5 2.0474 -0.8179 -3.5861 -0.4789 36.9011 -9.9771
# 6 23.8674 25.6053 10.0195 -4.0478 -9.9771 36.8733
#
#
#
# Elastic Compliance Matrix: (Units=1/GPa)
#
#
# Indices 1 2 3 4 5 6 
#
# 1 0.018129 -0.002285 -0.002961 0.002691 -0.004052 -0.010145
# 2 -0.002285 0.010207 -0.003468 0.003528 -0.001182 -0.004599
# 3 -0.002961 -0.003468 0.008057 -0.001665 0.001485 0.002354
# 4 0.002691 0.003528 -0.001665 0.023887 -0.000243 -0.001183
# 5 -0.004052 -0.001182 0.001485 -0.000243 0.030484 0.011262
# 6 -0.010145 -0.004599 0.002354 -0.001183 0.011262 0.039158
#
#
# Mechanical properties :
#
#
# Convention : Reuss Voigt Hill
#
# Bulk Modulus (GPa) = 52.72471 80.50553 66.61512
# Shear Modulus (GPa) = 32.53694 40.07939 36.30816
#
# Velocity S-wave (km/s) = 3.75525 4.16784 3.96691
# Velocity P-wave (km/s) = 6.45400 7.61927 7.06071
#
# Compressibility (1/GPa) = 0.01896644
#
# Stress axis : x y z
#
# Youngs Moduli (GPa) = 55.15972 97.97133 124.11376
#
# Poissons Ratio (x) = 0.22384 0.36745
# Poissons Ratio (y) = 0.12603 0.43043
# Poissons Ratio (z) = 0.16331 0.33977
#
# Static dielectric constant tensor:
#      x y z
#    x 1.970420 0.026350 0.003480 
#    y 0.026350 1.915600 0.037910 
#    z 0.003480 0.037910 1.905390 
# 
# From -- ./inp_files/76945.got.cif
#   From: 2010.05.17/outbox.cif.g08.bks.cpg/sg2_39_cif.got.tgz:76945.got - 2010.06.03 11:33:40.
