data_PCOD9052898
_publ_section_title
;
Structure prediction by ZEFSAII (Michael W. Deem and Ramdas Pophale) SiO2 
 PCOD9052898
Probable space group: P -1
;
_chemical_formula_sum "Si O2"
_cell_formula_units_Z 14
_cell_length_a 17.628297
_cell_length_b 9.747880
_cell_length_c 10.101539
_cell_angle_alpha 114.307132
_cell_angle_beta 142.155204
_cell_angle_gamma 35.367841
_cell_volume 466.230727
_symmetry_space_group_name_H-M "P -1"
_symmetry_group_IT_number 2
_symmetry_cell_setting 'triclinic'
loop_
_space_group_symop_operation_xyz
x,y,z
-x,-y,-z
loop_
_atom_site_type_symbol
_atom_site_label
_atom_site_fract_x
_atom_site_fract_y
_atom_site_fract_z
Si Si1 0.757746 0.114959 0.440163
Si Si2 0.828973 0.549203 0.215914
Si Si3 0.429825 0.145987 0.752956
Si Si4 0.228148 0.217335 0.273026
Si Si5 0.671235 0.183190 0.054555
Si Si6 0.444279 0.385019 0.358504
Si Si7 0.066410 0.749015 0.196849
O O1 0.813408 0.003724 0.320033
O O2 0.526655 0.290000 0.278508
O O3 0.754015 0.300141 0.519820
O O4 0.999408 0.777192 0.707075
O O5 0.640513 0.722616 0.148083
O O6 0.000000 0.500000 0.500000
O O7 0.666534 0.781417 0.958895
O O8 0.200951 0.318667 0.424200
O O9 0.518285 0.196479 0.816492
O O10 0.022873 0.604194 0.078503
O O11 0.500000 0.000000 0.500000
O O12 0.365760 0.911737 0.399960
O O13 0.500000 0.500000 0.000000
O O14 0.839452 0.034338 0.099361
O O15 0.500000 0.500000 0.500000
O O16 0.162302 0.662221 0.144573
#
# Coordination Sequence:
#
# PCOD9052898 Si02
#       7
#     2   2   2   2   2   2   2
#     4  11  25  52  89 122 160 219 291 356 418 504
#     4  11  23  49  84 125 162 214 286 365 419 495
#     4  11  28  50  81 123 168 220 283 349 430 505
#     4  12  31  52  83 121 179 228 279 347 431 519
#     4  12  28  50  87 125 168 214 282 357 433 502
#     4  10  27  54  85 119 166 226 290 345 420 510
#     4  11  29  52  82 120 168 226 276 346 430 515
#
# _framework density 30.028051000000001
#
# number of rings (size 3 to 8) (size 9 to 14) (size 15 to 20)
#    0.000    0.857    1.429    2.143   10.000    9.143 
#    0.000    0.000    0.000    0.000    0.000    0.000 
#    0.000    0.000    0.000    0.000    0.000    0.000 
#
# Total GULP energy -78118.902990 kJ/mol
# GULP energy per Si atom -5579.921642 kJ/mol
# Density = 2.995971 g / cm^3
# Si number density = 30.028051 Si / 1000 Ang^3
#
#
#
# Elastic Constant Matrix: (Units=GPa)
#
#
# Indices 1 2 3 4 5 6 
#
# 1 205.8810 76.5173 88.5660 -3.1829 26.9667 -16.4677
# 2 76.5173 141.5936 85.0737 27.9926 -10.5008 -5.0743
# 3 88.5660 85.0737 155.6590 2.3601 -20.7045 -4.1702
# 4 -3.1829 27.9926 2.3601 58.1567 -3.8363 -6.4692
# 5 26.9667 -10.5008 -20.7045 -3.8363 75.8125 4.1164
# 6 -16.4677 -5.0743 -4.1702 -6.4692 4.1164 93.0401
#
#
#
# Elastic Compliance Matrix: (Units=1/GPa)
#
#
# Indices 1 2 3 4 5 6 
#
# 1 0.008208 -0.002868 -0.003664 0.001856 -0.004302 0.001451
# 2 -0.002868 0.013087 -0.005294 -0.006226 0.001100 -0.000513
# 3 -0.003664 -0.005294 0.011884 0.002077 0.003944 -0.000435
# 4 0.001856 -0.006226 0.002077 0.020375 -0.000006 0.001499
# 5 -0.004302 0.001100 0.003944 -0.000006 0.016017 -0.001234
# 6 0.001451 -0.000513 -0.000435 0.001499 -0.001234 0.011116
#
#
# Mechanical properties :
#
#
# Convention : Reuss Voigt Hill
#
# Bulk Modulus (GPa) = 104.96584 111.49419 108.23002
# Shear Modulus (GPa) = 46.50570 62.26698 54.38634
#
# Velocity S-wave (km/s) = 3.93968 4.55865 4.26042
# Velocity P-wave (km/s) = 7.46502 8.05723 7.76677
#
# Compressibility (1/GPa) = 0.00952691
#
# Stress axis : x y z
#
# Youngs Moduli (GPa) = 121.83970 76.41188 84.14839
#
# Poissons Ratio (x) = 0.21914 0.30832
# Poissons Ratio (y) = 0.34942 0.44547
# Poissons Ratio (z) = 0.44641 0.40451
#
# Static dielectric constant tensor:
#      x y z
#    x 2.411260 0.100090 -0.006500 
#    y 0.100090 2.532500 -0.409370 
#    z -0.006500 -0.409370 3.606790 
# 
# From -- ./inp_files/462309.got.cif
#   From: 2010.05.17/outbox.cif.g08.bks.cpg/sg2_232_cif.got.tgz:462309.got - 2010.06.03 11:33:40.
