data_PCOD9052826
_publ_section_title
;
Structure prediction by ZEFSAII (Michael W. Deem and Ramdas Pophale) SiO2 
 PCOD9052826
Probable space group: P -1
;
_chemical_formula_sum "Si O2"
_cell_formula_units_Z 16
_cell_length_a 5.494983
_cell_length_b 17.069277
_cell_length_c 9.416899
_cell_angle_alpha 111.127308
_cell_angle_beta 68.845283
_cell_angle_gamma 69.946276
_cell_volume 644.873335
_symmetry_space_group_name_H-M "P -1"
_symmetry_group_IT_number 2
_symmetry_cell_setting 'triclinic'
loop_
_space_group_symop_operation_xyz
x,y,z
-x,-y,-z
loop_
_atom_site_type_symbol
_atom_site_label
_atom_site_fract_x
_atom_site_fract_y
_atom_site_fract_z
Si Si1 0.996975 0.932961 0.833850
Si Si2 0.549096 0.923307 0.114877
Si Si3 0.265374 0.414642 0.490563
Si Si4 0.279578 0.080057 0.484092
Si Si5 0.383081 0.800341 0.229271
Si Si6 0.385643 0.248839 0.554243
Si Si7 0.926554 0.457579 0.127174
Si Si8 0.582279 0.344605 0.089731
O O1 0.293987 0.834949 0.644238
O O2 0.807192 0.022984 0.821829
O O3 0.780178 0.895739 0.919158
O O4 0.000000 0.000000 0.000000
O O5 0.608036 0.834127 0.144543
O O6 0.494506 0.021786 0.266733
O O7 0.200284 0.341476 0.547107
O O8 0.318351 0.467451 0.649151
O O9 0.525875 0.347114 0.273169
O O10 0.000000 0.500000 0.500000
O O11 0.222962 0.188740 0.573987
O O12 0.933243 0.105183 0.580851
O O13 0.500000 0.000000 0.500000
O O14 0.535315 0.730200 0.290766
O O15 0.292185 0.758969 0.086583
O O16 0.788778 0.392291 0.062197
O O17 0.247539 0.405707 0.117158
O O18 0.000000 0.500000 0.000000
#
# Coordination Sequence:
#
# PCOD9052826 Si02
#       8
#     2   2   2   2   2   2   2   2
#     4  11  24  41  68 103 147 195 247 304 373 453
#     4  11  24  43  64 104 153 197 244 306 371 452
#     4  10  26  51  76 108 152 194 255 322 392 459
#     4  12  24  42  71 101 151 193 246 311 377 450
#     4  12  27  43  70 110 148 198 260 307 380 468
#     4  12  25  46  74 109 143 203 255 313 386 458
#     4  11  24  50  79 110 146 195 249 325 394 458
#     4  11  27  47  75 111 149 199 250 318 394 460
#
# _framework density 24.811074999999999
#
# number of rings (size 3 to 8) (size 9 to 14) (size 15 to 20)
#    0.000    0.750    3.750    2.625    5.250    1.000 
#    6.750    0.000    0.000    0.000    0.000    0.000 
#    0.000    0.000    0.000    0.000    0.000    0.000 
#
# Total GULP energy -89181.503654 kJ/mol
# GULP energy per Si atom -5573.843978 kJ/mol
# Density = 2.475460 g / cm^3
# Si number density = 24.811075 Si / 1000 Ang^3
#
#
#
# Elastic Constant Matrix: (Units=GPa)
#
#
# Indices 1 2 3 4 5 6 
#
# 1 75.5353 34.3199 29.6318 -5.4775 9.9392 15.4743
# 2 34.3199 146.6441 30.6442 -23.3632 9.7537 7.5460
# 3 29.6318 30.6442 154.3142 -12.0875 10.2748 14.7626
# 4 -5.4775 -23.3632 -12.0875 42.7137 6.5604 4.2813
# 5 9.9392 9.7537 10.2748 6.5604 45.0207 3.2264
# 6 15.4743 7.5460 14.7626 4.2813 3.2264 40.8673
#
#
#
# Elastic Compliance Matrix: (Units=1/GPa)
#
#
# Indices 1 2 3 4 5 6 
#
# 1 0.016739 -0.002965 -0.001923 0.000847 -0.002379 -0.004997
# 2 -0.002965 0.008478 -0.000608 0.004393 -0.001644 -0.000554
# 3 -0.001923 -0.000608 0.007388 0.001900 -0.001269 -0.001927
# 4 0.000847 0.004393 0.001900 0.027706 -0.005301 -0.004302
# 5 -0.002379 -0.001644 -0.001269 -0.005301 0.024133 0.000313
# 6 -0.004997 -0.000554 -0.001927 -0.004302 0.000313 0.027586
#
#
# Mechanical properties :
#
#
# Convention : Reuss Voigt Hill
#
# Bulk Modulus (GPa) = 46.26809 62.85393 54.56101
# Shear Modulus (GPa) = 38.39517 44.51352 41.45434
#
# Velocity S-wave (km/s) = 3.93810 4.24028 4.09198
# Velocity P-wave (km/s) = 6.27430 7.02576 6.66063
#
# Compressibility (1/GPa) = 0.02161317
#
# Stress axis : x y z
#
# Youngs Moduli (GPa) = 59.74243 117.95376 135.35836
#
# Poissons Ratio (x) = 0.34977 0.26023
# Poissons Ratio (y) = 0.17716 0.08225
# Poissons Ratio (z) = 0.11486 0.07167
#
# Static dielectric constant tensor:
#      x y z
#    x 0.937180 -0.018300 -0.670120 
#    y -0.018300 2.196390 -0.045870 
#    z -0.670120 -0.045870 1.673310 
# 
# From -- ./inp_files/139225.got.cif
#   From: 2010.05.17/outbox.cif.g08.bks.cpg/sg2_70_cif.got.tgz:139225.got - 2010.06.03 11:33:40.
