data_PCOD9052695
_publ_section_title
;
Structure prediction by ZEFSAII (Michael W. Deem and Ramdas Pophale) SiO2 
 PCOD9052695
Probable space group: P -1
;
_chemical_formula_sum "Si O2"
_cell_formula_units_Z 12
_cell_length_a 9.670274
_cell_length_b 4.927814
_cell_length_c 11.394993
_cell_angle_alpha 85.021870
_cell_angle_beta 118.404040
_cell_angle_gamma 85.424239
_cell_volume 471.275057
_symmetry_space_group_name_H-M "P -1"
_symmetry_group_IT_number 2
_symmetry_cell_setting 'triclinic'
loop_
_space_group_symop_operation_xyz
x,y,z
-x,-y,-z
loop_
_atom_site_type_symbol
_atom_site_label
_atom_site_fract_x
_atom_site_fract_y
_atom_site_fract_z
Si Si1 0.920289 0.856514 0.717481
Si Si2 0.950915 0.631111 0.346914
Si Si3 0.741928 0.883422 0.877707
Si Si4 0.469401 0.553181 0.214505
Si Si5 0.348098 0.230789 0.903091
Si Si6 0.595263 0.736726 0.487819
O O1 0.884561 0.853742 0.842523
O O2 0.772038 0.743925 0.599758
O O3 0.057738 0.629217 0.733142
O O4 0.931300 0.159566 0.660330
O O5 0.782463 0.819870 0.245755
O O6 0.000000 0.500000 0.500000
O O7 0.601001 0.724760 0.774589
O O8 0.681082 0.205835 0.857133
O O9 0.751590 0.752621 0.016166
O O10 0.566778 0.532231 0.134076
O O11 0.582400 0.676163 0.347942
O O12 0.500000 0.000000 0.000000
O O13 0.500000 0.500000 0.500000
O O14 0.500000 0.000000 0.500000
#
# Coordination Sequence:
#
# PCOD9052695 Si02
#       6
#     2   2   2   2   2   2
#     4  12  25  44  72 107 151 188 245 309 375 440
#     4  12  28  49  73 107 151 196 242 309 379 436
#     4  11  23  42  69 105 139 186 246 302 363 428
#     4  11  21  41  67 103 144 183 248 302 351 429
#     4  10  26  48  76 104 146 203 252 299 361 447
#     4  12  21  38  67 104 141 187 238 294 358 433
#
# _framework density 25.462838000000001
#
# number of rings (size 3 to 8) (size 9 to 14) (size 15 to 20)
#    0.000    0.667    3.333    4.000    0.000    8.000 
#    0.000    0.000    0.000    0.000    0.000    0.000 
#    0.000    0.000    0.000    0.000    0.000    0.000 
#
# Total GULP energy -66944.719350 kJ/mol
# GULP energy per Si atom -5578.726613 kJ/mol
# Density = 2.540488 g / cm^3
# Si number density = 25.462838 Si / 1000 Ang^3
#
#
#
# Elastic Constant Matrix: (Units=GPa)
#
#
# Indices 1 2 3 4 5 6 
#
# 1 105.1492 40.6646 57.1057 -13.0533 -40.4208 15.0351
# 2 40.6646 156.7347 27.9303 -7.5466 -15.3688 25.8949
# 3 57.1057 27.9303 166.4537 -7.7188 -34.0812 -8.1130
# 4 -13.0533 -7.5466 -7.7188 31.5758 -0.1483 -6.2177
# 5 -40.4208 -15.3688 -34.0812 -0.1483 63.4926 -10.3334
# 6 15.0351 25.8949 -8.1130 -6.2177 -10.3334 29.2554
#
#
#
# Elastic Compliance Matrix: (Units=1/GPa)
#
#
# Indices 1 2 3 4 5 6 
#
# 1 0.016215 -0.001924 -0.003766 0.004533 0.007166 -0.004180
# 2 -0.001924 0.008149 -0.001307 -0.000571 -0.001111 -0.007100
# 3 -0.003766 -0.001307 0.008538 0.001581 0.002988 0.006852
# 4 0.004533 -0.000571 0.001581 0.035370 0.004962 0.007884
# 5 0.007166 -0.001111 0.002988 0.004962 0.022838 0.007251
# 6 -0.004180 -0.007100 0.006852 0.007884 0.007251 0.048752
#
#
# Mechanical properties :
#
#
# Convention : Reuss Voigt Hill
#
# Bulk Modulus (GPa) = 52.89231 75.52652 64.20941
# Shear Modulus (GPa) = 31.21892 45.04057 38.12974
#
# Velocity S-wave (km/s) = 3.50531 4.21036 3.87391
# Velocity P-wave (km/s) = 6.09921 7.30493 6.72913
#
# Compressibility (1/GPa) = 0.01890634
#
# Stress axis : x y z
#
# Youngs Moduli (GPa) = 61.67134 122.71354 117.12092
#
# Poissons Ratio (x) = 0.23613 0.44113
# Poissons Ratio (y) = 0.11867 0.15311
# Poissons Ratio (z) = 0.23228 0.16042
#
# Static dielectric constant tensor:
#      x y z
#    x 2.150900 -0.109160 -0.021570 
#    y -0.109160 2.015160 -0.008030 
#    z -0.021570 -0.008030 2.256180 
# 
# From -- ./inp_files/371776.got.cif
#   From: 2010.05.17/outbox.cif.g08.bks.cpg/sg2_186_cif.got.tgz:371776.got - 2010.06.03 11:33:40.
