data_PCOD9052865
_publ_section_title
;
Structure prediction by ZEFSAII (Michael W. Deem and Ramdas Pophale) SiO2 
 PCOD9052865
Probable space group: P -1
;
_chemical_formula_sum "Si O2"
_cell_formula_units_Z 16
_cell_length_a 9.084087
_cell_length_b 9.089214
_cell_length_c 14.131743
_cell_angle_alpha 120.735735
_cell_angle_beta 91.337292
_cell_angle_gamma 51.371774
_cell_volume 703.427331
_symmetry_space_group_name_H-M "P -1"
_symmetry_group_IT_number 2
_symmetry_cell_setting 'triclinic'
loop_
_space_group_symop_operation_xyz
x,y,z
-x,-y,-z
loop_
_atom_site_type_symbol
_atom_site_label
_atom_site_fract_x
_atom_site_fract_y
_atom_site_fract_z
Si Si1 0.689217 0.780315 0.177041
Si Si2 0.685102 0.166070 0.818138
Si Si3 0.941044 0.364698 0.411774
Si Si4 0.516344 0.133366 0.466155
Si Si5 0.697430 0.325439 0.519241
Si Si6 0.221272 0.893863 0.993379
Si Si7 0.636701 0.501287 0.781625
Si Si8 0.178616 0.305611 0.064799
O O1 0.538163 0.741244 0.166537
O O2 0.927564 0.543571 0.134591
O O3 0.576078 0.007032 0.321998
O O4 0.722537 0.803372 0.074833
O O5 0.703968 0.228144 0.943047
O O6 0.721163 0.278724 0.776064
O O7 0.864485 0.870595 0.720345
O O8 0.712699 0.588862 0.437319
O O9 0.891615 0.251972 0.446642
O O10 0.000000 0.500000 0.500000
O O11 0.694016 0.129534 0.484498
O O12 0.500000 0.000000 0.500000
O O13 0.500000 0.500000 0.500000
O O14 0.677519 0.447336 0.654760
O O15 0.218781 0.101248 0.056876
O O16 0.387689 0.697149 0.854507
O O17 0.000000 0.000000 0.000000
O O18 0.718998 0.611831 0.860609
#
# Coordination Sequence:
#
# PCOD9052865 Si02
#       8
#     2   2   2   2   2   2   2   2
#     4  11  25  48  75 103 153 190 256 305 378 438
#     4  12  27  48  74 109 153 193 248 310 375 452
#     4  11  26  45  71 105 143 195 244 303 368 440
#     4  11  25  46  75 107 150 197 248 307 376 448
#     4  10  27  46  74 106 148 194 247 305 373 451
#     4  12  29  44  77 107 150 193 249 309 383 440
#     4  12  27  50  75 108 152 194 253 307 380 445
#     4  11  28  46  78 109 142 201 249 313 377 435
#
# _framework density 22.745774000000001
#
# number of rings (size 3 to 8) (size 9 to 14) (size 15 to 20)
#    0.000    0.750    2.500    2.250   15.750    0.500 
#    0.000    0.000    0.000    0.000    0.000    0.000 
#    0.000    0.000    0.000    0.000    0.000    0.000 
#
# Total GULP energy -89475.345739 kJ/mol
# GULP energy per Si atom -5592.209109 kJ/mol
# Density = 2.269400 g / cm^3
# Si number density = 22.745774 Si / 1000 Ang^3
#
#
#
# Elastic Constant Matrix: (Units=GPa)
#
#
# Indices 1 2 3 4 5 6 
#
# 1 124.3066 35.7532 37.7953 3.9982 -12.4375 8.3050
# 2 35.7532 95.9416 29.6621 0.4967 -8.1774 15.0595
# 3 37.7953 29.6621 102.0145 -5.8849 -7.8896 0.7642
# 4 3.9982 0.4967 -5.8849 35.0874 -0.1721 2.3402
# 5 -12.4375 -8.1774 -7.8896 -0.1721 31.5016 -1.1072
# 6 8.3050 15.0595 0.7642 2.3402 -1.1072 35.2681
#
#
#
# Elastic Compliance Matrix: (Units=1/GPa)
#
#
# Indices 1 2 3 4 5 6 
#
# 1 0.009996 -0.002444 -0.002875 -0.001503 0.002547 -0.001068
# 2 -0.002444 0.013085 -0.002743 -0.000032 0.001572 -0.004901
# 3 -0.002875 -0.002743 0.011877 0.002266 0.001192 0.001478
# 4 -0.001503 -0.000032 0.002266 0.029160 0.000068 -0.001614
# 5 0.002547 0.001572 0.001192 0.000068 0.033448 -0.000251
# 6 -0.001068 -0.004901 0.001478 -0.001614 -0.000251 0.030766
#
#
# Mechanical properties :
#
#
# Convention : Reuss Voigt Hill
#
# Bulk Modulus (GPa) = 53.09087 58.74263 55.91675
# Shear Modulus (GPa) = 33.17127 34.97491 34.07309
#
# Velocity S-wave (km/s) = 3.82298 3.92553 3.87459
# Velocity P-wave (km/s) = 6.54817 6.81383 6.68232
#
# Compressibility (1/GPa) = 0.01883563
#
# Stress axis : x y z
#
# Youngs Moduli (GPa) = 100.03953 76.42233 84.19741
#
# Poissons Ratio (x) = 0.18676 0.24203
# Poissons Ratio (y) = 0.24448 0.23094
# Poissons Ratio (z) = 0.28757 0.20961
#
# Static dielectric constant tensor:
#      x y z
#    x 1.836790 -0.007060 -0.003370 
#    y -0.007060 1.986430 0.072920 
#    z -0.003370 0.072920 1.870710 
# 
# From -- ./inp_files/495588.got.cif
#   From: 2010.05.17/outbox.cif.g08.bks.cpg/sg2_248_cif.got.tgz:495588.got - 2010.06.03 11:33:40.
