data_PCOD9052976
_publ_section_title
;
Structure prediction by ZEFSAII (Michael W. Deem and Ramdas Pophale) SiO2 
 PCOD9052976
Probable space group: P -1
;
_chemical_formula_sum "Si O2"
_cell_formula_units_Z 10
_cell_length_a 7.677717
_cell_length_b 7.204863
_cell_length_c 13.169210
_cell_angle_alpha 63.899749
_cell_angle_beta 143.292201
_cell_angle_gamma 122.797588
_cell_volume 366.000605
_symmetry_space_group_name_H-M "P -1"
_symmetry_group_IT_number 2
_symmetry_cell_setting 'triclinic'
loop_
_space_group_symop_operation_xyz
x,y,z
-x,-y,-z
loop_
_atom_site_type_symbol
_atom_site_label
_atom_site_fract_x
_atom_site_fract_y
_atom_site_fract_z
Si Si1 0.181081 0.575985 0.909494
Si Si2 0.835207 0.156022 0.496621
Si Si3 0.770276 0.154072 0.753243
Si Si4 0.330199 0.327602 0.226122
Si Si5 0.646971 0.009266 0.225441
O O1 0.044704 0.380828 0.810378
O O2 0.875181 0.619038 0.797078
O O3 0.397337 0.811982 0.912900
O O4 0.322774 0.473349 0.089770
O O5 0.679569 0.333563 0.413116
O O6 0.841372 0.157917 0.375704
O O7 0.557743 0.915020 0.443944
O O8 0.148763 0.129775 0.686308
O O9 0.835768 0.930396 0.819763
O O10 0.654226 0.146058 0.818219
#
# Coordination Sequence:
#
# PCOD9052976 Si02
#       5
#     2   2   2   2   2
#     4  11  17  32  55  68  94 133 156 187 247 276
#     4   7  16  36  46  68 107 114 154 212 223 270
#     4   8  18  34  50  68 100 123 156 199 235 274
#     4   8  20  32  46  76 100 116 162 205 219 286
#     4   8  17  32  53  69  94 129 157 195 234 282
#
# _framework density 27.322358999999999
#
# number of rings (size 3 to 8) (size 9 to 14) (size 15 to 20)
#    2.400    0.800    0.000    0.600    0.000    4.800 
#    0.000    9.000    0.000    0.000    0.000    0.000 
#    0.000    0.000    0.000    0.000    0.000    0.000 
#
# Total GULP energy -55804.004912 kJ/mol
# GULP energy per Si atom -5580.400491 kJ/mol
# Density = 2.726017 g / cm^3
# Si number density = 27.322359 Si / 1000 Ang^3
#
#
#
# Elastic Constant Matrix: (Units=GPa)
#
#
# Indices 1 2 3 4 5 6 
#
# 1 91.3950 20.5546 64.5643 -15.9718 23.1081 -1.8559
# 2 20.5546 120.2784 47.5855 -12.9480 2.8321 -2.3441
# 3 64.5643 47.5855 79.1234 -30.3834 19.4369 -15.2692
# 4 -15.9718 -12.9480 -30.3834 42.2025 0.0929 -1.2902
# 5 23.1081 2.8321 19.4369 0.0929 42.4697 -14.0038
# 6 -1.8559 -2.3441 -15.2692 -1.2902 -14.0038 21.4860
#
#
#
# Elastic Compliance Matrix: (Units=1/GPa)
#
#
# Indices 1 2 3 4 5 6 
#
# 1 0.062676 0.017320 -0.081505 -0.031594 -0.019364 -0.065137
# 2 0.017320 0.016459 -0.032357 -0.012370 -0.003092 -0.022461
# 3 -0.081505 -0.032357 0.137736 0.061472 0.016993 0.102080
# 4 -0.031594 -0.012370 0.061472 0.053597 0.004949 0.046051
# 5 -0.019364 -0.003092 0.016993 0.004949 0.038108 0.035201
# 6 -0.065137 -0.022461 0.102080 0.046051 0.035201 0.136717
#
#
# Mechanical properties :
#
#
# Convention : Reuss Voigt Hill
#
# Bulk Modulus (GPa) = 42.03855 61.80061 51.91958
# Shear Modulus (GPa) = 7.73629 31.77114 19.75372
#
# Velocity S-wave (km/s) = 1.68453 3.41372 2.69176
# Velocity P-wave (km/s) = 4.38213 6.18111 5.35767
#
# Compressibility (1/GPa) = 0.02378769
#
# Stress axis : x y z
#
# Youngs Moduli (GPa) = 15.95506 60.75772 7.26027
#
# Poissons Ratio (x) = -1.05234 0.59175
# Poissons Ratio (y) = -0.27635 0.23492
# Poissons Ratio (z) = 1.30042 1.96593
#
# Static dielectric constant tensor:
#      x y z
#    x 2.177890 0.001760 -0.010880 
#    y 0.001760 2.091070 0.016890 
#    z -0.010880 0.016890 2.096660 
# 
# From -- ./inp_files/20710.got.cif
#   From: 2010.05.17/outbox.cif.g08.bks.cpg/sg2_11_cif.got.tgz:20710.got - 2010.06.03 11:33:40.
