data_PCOD9052924
_publ_section_title
;
Structure prediction by ZEFSAII (Michael W. Deem and Ramdas Pophale) SiO2 
 PCOD9052924
Probable space group: P -1
;
_chemical_formula_sum "Si O2"
_cell_formula_units_Z 14
_cell_length_a 20.973224
_cell_length_b 8.661553
_cell_length_c 15.990452
_cell_angle_alpha 148.971106
_cell_angle_beta 19.464819
_cell_angle_gamma 145.341034
_cell_volume 497.150720
_symmetry_space_group_name_H-M "P -1"
_symmetry_group_IT_number 2
_symmetry_cell_setting 'triclinic'
loop_
_space_group_symop_operation_xyz
x,y,z
-x,-y,-z
loop_
_atom_site_type_symbol
_atom_site_label
_atom_site_fract_x
_atom_site_fract_y
_atom_site_fract_z
Si Si1 0.367390 0.928361 0.372018
Si Si2 0.693975 0.559942 0.420771
Si Si3 0.338980 0.230203 0.784919
Si Si4 0.959811 0.869499 0.379295
Si Si5 0.402387 0.164780 0.122154
Si Si6 0.743757 0.915806 0.009303
Si Si7 0.149812 0.695854 0.672866
O O1 0.185546 0.742432 0.551768
O O2 0.313879 0.259391 0.571026
O O3 0.463323 0.820559 0.118110
O O4 0.535641 0.931764 0.233165
O O5 0.471292 0.484763 0.690526
O O6 0.823299 0.769020 0.421201
O O7 0.788392 0.249286 0.148008
O O8 0.500000 0.000000 0.500000
O O9 0.183585 0.021527 0.826080
O O10 0.254370 0.303648 0.015015
O O11 0.815765 0.997464 0.685200
O O12 0.010993 0.546670 0.203694
O O13 0.118285 0.097378 0.246993
O O14 0.332969 0.498040 0.377516
O O15 0.500000 0.000000 0.000000
#
# Coordination Sequence:
#
# PCOD9052924 Si02
#       7
#     2   2   2   2   2   2   2
#     4  12  21  36  62  85 114 148 195 235 271 341
#     4  11  20  36  60  87 113 150 192 226 281 347
#     4  10  17  35  58  83 114 147 189 223 280 347
#     4  10  21  38  57  83 117 151 189 229 290 331
#     4  10  21  39  61  80 110 154 201 228 272 339
#     4  11  21  34  59  89 116 148 181 242 290 325
#     4  10  20  36  57  86 110 152 191 229 279 339
#
# _framework density 28.160474000000001
#
# number of rings (size 3 to 8) (size 9 to 14) (size 15 to 20)
#    0.857    0.571    7.143    1.286    0.000    0.571 
#    0.000    2.143    0.000    1.714    0.000    0.000 
#    0.000    0.000    0.000    0.000    0.000    0.000 
#
# Total GULP energy -78186.200221 kJ/mol
# GULP energy per Si atom -5584.728587 kJ/mol
# Density = 2.809638 g / cm^3
# Si number density = 28.160474 Si / 1000 Ang^3
#
#
#
# Elastic Constant Matrix: (Units=GPa)
#
#
# Indices 1 2 3 4 5 6 
#
# 1 98.2897 56.5624 10.1909 -21.1571 22.4494 -12.6656
# 2 56.5624 110.0805 27.5569 -28.7866 6.8651 -23.4332
# 3 10.1909 27.5569 111.8044 -28.3797 31.8650 -16.3044
# 4 -21.1571 -28.7866 -28.3797 46.4152 -10.2552 19.8349
# 5 22.4494 6.8651 31.8650 -10.2552 47.3080 -12.8016
# 6 -12.6656 -23.4332 -16.3044 19.8349 -12.8016 66.7614
#
#
#
# Elastic Compliance Matrix: (Units=1/GPa)
#
#
# Indices 1 2 3 4 5 6 
#
# 1 0.017535 -0.008831 0.003900 0.003548 -0.009349 -0.001667
# 2 -0.008831 0.015699 -0.003342 0.003643 0.005777 0.003044
# 3 0.003900 -0.003342 0.013552 0.006257 -0.009347 -0.000775
# 4 0.003548 0.003643 0.006257 0.031599 -0.001240 -0.006146
# 5 -0.009349 0.005777 -0.009347 -0.001240 0.031973 0.004471
# 6 -0.001667 0.003044 -0.000775 -0.006146 0.004471 0.018225
#
#
# Mechanical properties :
#
#
# Convention : Reuss Voigt Hill
#
# Bulk Modulus (GPa) = 33.06845 56.53275 44.80060
# Shear Modulus (GPa) = 32.21468 47.15454 39.68461
#
# Velocity S-wave (km/s) = 3.38593 4.09650 3.75804
# Velocity P-wave (km/s) = 5.20138 6.51873 5.89696
#
# Compressibility (1/GPa) = 0.03024031
#
# Stress axis : x y z
#
# Youngs Moduli (GPa) = 57.02731 63.69924 73.79200
#
# Poissons Ratio (x) = 0.56250 -0.28779
# Poissons Ratio (y) = 0.50358 0.24663
# Poissons Ratio (z) = -0.22241 0.21290
#
# Static dielectric constant tensor:
#      x y z
#    x 2.291750 0.053560 0.039780 
#    y 0.053560 2.280900 -0.057070 
#    z 0.039780 -0.057070 2.385880 
# 
# From -- ./inp_files/294887.got.cif
#   From: 2010.05.17/outbox.cif.g08.bks.cpg/sg2_148_cif.got.tgz:294887.got - 2010.06.03 11:33:40.
