data_PCOD9052519
_publ_section_title
;
Structure prediction by ZEFSAII (Michael W. Deem and Ramdas Pophale) SiO2 
 PCOD9052519
Probable space group: P -1
;
_chemical_formula_sum "Si O2"
_cell_formula_units_Z 13
_cell_length_a 9.956349
_cell_length_b 9.269967
_cell_length_c 14.047556
_cell_angle_alpha 34.347417
_cell_angle_beta 121.987803
_cell_angle_gamma 135.382386
_cell_volume 508.267153
_symmetry_space_group_name_H-M "P -1"
_symmetry_group_IT_number 2
_symmetry_cell_setting 'triclinic'
loop_
_space_group_symop_operation_xyz
x,y,z
-x,-y,-z
loop_
_atom_site_type_symbol
_atom_site_label
_atom_site_fract_x
_atom_site_fract_y
_atom_site_fract_z
Si Si1 0.381042 0.135928 0.131410
Si Si2 0.376640 0.381527 0.424904
Si Si3 0.000000 0.000000 0.500000
Si Si4 0.033140 0.230541 0.175796
Si Si5 0.514301 0.289897 0.891884
Si Si6 0.031065 0.288539 0.699969
Si Si7 0.361154 0.869416 0.612940
O O1 0.502797 0.048922 0.289043
O O2 0.166340 0.929726 0.199183
O O3 0.500000 0.500000 0.000000
O O4 0.389899 0.144492 0.017377
O O5 0.500000 0.500000 0.500000
O O6 0.190320 0.383266 0.368396
O O7 0.517906 0.557116 0.293754
O O8 0.249097 0.021006 0.529428
O O9 0.952436 0.063944 0.337581
O O10 0.267836 0.425051 0.152315
O O11 0.946184 0.954473 0.216544
O O12 0.000000 0.500000 0.000000
O O13 0.500000 0.000000 0.000000
O O14 0.000000 0.500000 0.500000
O O15 0.200350 0.520790 0.710183
O O16 0.500000 0.000000 0.500000
#
# Coordination Sequence:
#
# PCOD9052519 Si02
#       7
#     2   2   1   2   2   2   2
#     4  12  26  50  77 110 159 204 264 334 400 473
#     4  11  26  48  76 110 148 207 261 322 399 476
#     4  10  26  46  76 106 160 200 270 326 404 468
#     4  11  27  49  76 117 159 212 271 337 410 489
#     4  11  25  47  72 112 156 199 258 335 398 472
#     4  12  26  52  81 113 162 213 272 334 406 486
#     4  12  27  45  79 112 148 206 263 319 398 477
#
# _framework density 25.577100000000002
#
# number of rings (size 3 to 8) (size 9 to 14) (size 15 to 20)
#    0.000    0.615    3.077    3.692    6.462    8.000 
#    0.000    0.000    0.000    0.000    0.000    0.000 
#    0.000    0.000    0.000    0.000    0.000    0.000 
#
# Total GULP energy -72479.261120 kJ/mol
# GULP energy per Si atom -5575.327778 kJ/mol
# Density = 2.551889 g / cm^3
# Si number density = 25.577100 Si / 1000 Ang^3
#
#
#
# Elastic Constant Matrix: (Units=GPa)
#
#
# Indices 1 2 3 4 5 6 
#
# 1 89.6610 72.9756 69.6782 -0.6459 -37.0683 -10.7790
# 2 72.9756 208.9719 63.3516 -3.6133 -17.5549 -10.5455
# 3 69.6782 63.3516 141.7889 14.1967 -44.6750 -26.8890
# 4 -0.6459 -3.6133 14.1967 58.1441 -0.2497 -4.1291
# 5 -37.0683 -17.5549 -44.6750 -0.2497 61.9497 -9.9386
# 6 -10.7790 -10.5455 -26.8890 -4.1291 -9.9386 66.6814
#
#
#
# Elastic Compliance Matrix: (Units=1/GPa)
#
#
# Indices 1 2 3 4 5 6 
#
# 1 0.024974 -0.005819 -0.006759 0.001731 0.008715 0.001797
# 2 -0.005819 0.006955 -0.001222 0.000608 -0.002497 -0.000668
# 3 -0.006759 -0.001222 0.014421 -0.003263 0.006854 0.005349
# 4 0.001731 0.000608 -0.003263 0.018049 -0.001069 0.000019
# 5 0.008715 -0.002497 0.006854 -0.001069 0.026825 0.007710
# 6 0.001797 -0.000668 0.005349 0.000019 0.007710 0.018489
#
#
# Mechanical properties :
#
#
# Convention : Reuss Voigt Hill
#
# Bulk Modulus (GPa) = 53.33710 94.71472 74.02591
# Shear Modulus (GPa) = 34.82785 52.98279 43.90532
#
# Velocity S-wave (km/s) = 3.69410 4.55630 4.14767
# Velocity P-wave (km/s) = 6.25251 8.04931 7.20712
#
# Compressibility (1/GPa) = 0.01874868
#
# Stress axis : x y z
#
# Youngs Moduli (GPa) = 40.04176 143.78054 69.34329
#
# Poissons Ratio (x) = 0.83671 0.46870
# Poissons Ratio (y) = 0.23302 0.08475
# Poissons Ratio (z) = 0.27065 0.17573
#
# Static dielectric constant tensor:
#      x y z
#    x 1.205900 0.105980 0.099440 
#    y 0.105980 1.945470 -0.171030 
#    z 0.099440 -0.171030 2.220580 
# 
# From -- ./inp_files/191137.got.cif
#   From: 2010.05.17/outbox.cif.g08.bks.cpg/sg2_96_cif.got.tgz:191137.got - 2010.06.03 11:33:40.
