data_PCOD9052853
_publ_section_title
;
Structure prediction by ZEFSAII (Michael W. Deem and Ramdas Pophale) SiO2 
 PCOD9052853
Probable space group: P -1
;
_chemical_formula_sum "Si O2"
_cell_formula_units_Z 16
_cell_length_a 10.216322
_cell_length_b 15.612787
_cell_length_c 7.808811
_cell_angle_alpha 77.076978
_cell_angle_beta 34.630080
_cell_angle_gamma 75.626941
_cell_volume 685.234066
_symmetry_space_group_name_H-M "P -1"
_symmetry_group_IT_number 2
_symmetry_cell_setting 'triclinic'
loop_
_space_group_symop_operation_xyz
x,y,z
-x,-y,-z
loop_
_atom_site_type_symbol
_atom_site_label
_atom_site_fract_x
_atom_site_fract_y
_atom_site_fract_z
Si Si1 0.950423 0.413315 0.689882
Si Si2 0.676570 0.391889 0.683596
Si Si3 0.599302 0.754814 0.481062
Si Si4 0.447644 0.560484 0.692242
Si Si5 0.677582 0.729608 0.780929
Si Si6 0.965928 0.750795 0.789856
Si Si7 0.971937 0.060244 0.337375
Si Si8 0.487997 0.940377 0.374057
O O1 0.751294 0.377601 0.805893
O O2 0.000000 0.500000 0.500000
O O3 0.157843 0.339211 0.482455
O O4 0.828241 0.436637 0.986589
O O5 0.594721 0.495013 0.698196
O O6 0.884713 0.343661 0.367961
O O7 0.470299 0.332411 0.919939
O O8 0.508343 0.660103 0.584216
O O9 0.574820 0.782067 0.700146
O O10 0.462547 0.839356 0.498713
O O11 0.838478 0.747532 0.112549
O O12 0.500000 0.500000 0.500000
O O13 0.810652 0.771169 0.773453
O O14 0.108018 0.835018 0.596993
O O15 0.753225 0.028562 0.481240
O O16 0.245143 0.059146 0.984635
O O17 0.000000 0.000000 0.500000
O O18 0.500000 0.000000 0.500000
#
# Coordination Sequence:
#
# PCOD9052853 Si02
#       8
#     2   2   2   2   2   2   2   2
#     4  11  22  40  60  91 131 186 247 303 358 430
#     4  11  23  43  64  93 140 192 246 300 357 442
#     4  11  26  46  70 107 148 190 249 310 377 448
#     4  12  25  38  66  96 140 193 245 303 370 438
#     4  11  23  44  69  97 142 196 248 303 376 436
#     4  10  27  44  72 106 146 188 246 313 370 456
#     4  11  26  50  83 114 155 196 250 316 392 465
#     4  11  27  51  80 116 157 193 253 321 386 466
#
# _framework density 23.349688
#
# number of rings (size 3 to 8) (size 9 to 14) (size 15 to 20)
#    0.000    1.000    2.500    2.625   10.500    2.500 
#    0.000    0.000    0.000    0.000    0.000    0.000 
#    0.000    0.000    0.000    0.000    0.000    0.000 
#
# Total GULP energy -89068.849764 kJ/mol
# GULP energy per Si atom -5566.803110 kJ/mol
# Density = 2.329654 g / cm^3
# Si number density = 23.349688 Si / 1000 Ang^3
#
#
#
# Elastic Constant Matrix: (Units=GPa)
#
#
# Indices 1 2 3 4 5 6 
#
# 1 126.1349 27.8188 27.1420 -14.5202 -12.3430 4.5665
# 2 27.8188 94.1243 31.7713 -15.6766 1.2647 -2.4355
# 3 27.1420 31.7713 62.8209 -15.1179 3.1904 -3.6113
# 4 -14.5202 -15.6766 -15.1179 28.4905 -0.5486 2.8025
# 5 -12.3430 1.2647 3.1904 -0.5486 31.3384 -0.1787
# 6 4.5665 -2.4355 -3.6113 2.8025 -0.1787 41.4697
#
#
#
# Elastic Compliance Matrix: (Units=1/GPa)
#
#
# Indices 1 2 3 4 5 6 
#
# 1 0.009705 -0.001464 -0.003101 0.002733 0.004236 -0.001591
# 2 -0.001464 0.013473 -0.005210 0.003869 -0.000521 0.000235
# 3 -0.003101 -0.005210 0.021799 0.006917 -0.003101 0.001453
# 4 0.002733 0.003869 0.006917 0.042540 0.000947 -0.002342
# 5 0.004236 -0.000521 -0.003101 0.000947 0.033928 -0.000685
# 6 -0.001591 0.000235 0.001453 -0.002342 -0.000685 0.024585
#
#
# Mechanical properties :
#
#
# Convention : Reuss Voigt Hill
#
# Bulk Modulus (GPa) = 39.33116 50.72715 45.02916
# Shear Modulus (GPa) = 28.72618 33.34956 31.03787
#
# Velocity S-wave (km/s) = 3.51131 3.78334 3.64986
# Velocity P-wave (km/s) = 5.77235 6.39195 6.09004
#
# Compressibility (1/GPa) = 0.02542513
#
# Stress axis : x y z
#
# Youngs Moduli (GPa) = 103.03870 74.22089 45.87385
#
# Poissons Ratio (x) = 0.10869 0.14228
# Poissons Ratio (y) = 0.15089 0.23901
# Poissons Ratio (z) = 0.31957 0.38671
#
# Static dielectric constant tensor:
#      x y z
#    x 2.777000 -0.154790 0.119840 
#    y -0.154790 1.868290 0.014090 
#    z 0.119840 0.014090 2.078320 
# 
# From -- ./inp_files/272292.got.cif
#   From: 2010.05.17/outbox.cif.g08.bks.cpg/sg2_137_cif.got.tgz:272292.got - 2010.06.03 11:33:40.
