data_PCOD9052322
_publ_section_title
;
Structure prediction by ZEFSAII (Michael W. Deem and Ramdas Pophale) SiO2 
 PCOD9052322
Probable space group: P -1
;
_chemical_formula_sum "Si O2"
_cell_formula_units_Z 13
_cell_length_a 6.670824
_cell_length_b 12.965259
_cell_length_c 9.087392
_cell_angle_alpha 101.745863
_cell_angle_beta 125.670355
_cell_angle_gamma 63.864929
_cell_volume 571.687981
_symmetry_space_group_name_H-M "P -1"
_symmetry_group_IT_number 2
_symmetry_cell_setting 'triclinic'
loop_
_space_group_symop_operation_xyz
x,y,z
-x,-y,-z
loop_
_atom_site_type_symbol
_atom_site_label
_atom_site_fract_x
_atom_site_fract_y
_atom_site_fract_z
Si Si1 0.337712 0.638588 0.493938
Si Si2 0.096790 0.441137 0.683654
Si Si3 0.751295 0.118461 0.959163
Si Si4 0.715098 0.157891 0.299010
Si Si5 0.647150 0.961885 0.396106
Si Si6 0.294976 0.672298 0.166530
Si Si7 0.000000 0.500000 0.000000
O O1 0.500000 0.500000 0.500000
O O2 0.418962 0.706378 0.675423
O O3 0.353151 0.699266 0.366227
O O4 0.034751 0.651879 0.397746
O O5 0.417032 0.396147 0.804762
O O6 0.000000 0.500000 0.500000
O O7 0.006945 0.506585 0.818935
O O8 0.493435 0.110833 0.768369
O O9 0.835486 0.214143 0.950668
O O10 0.691263 0.143386 0.111820
O O11 0.000000 0.000000 0.000000
O O12 0.033276 0.107901 0.461922
O O13 0.605007 0.076294 0.316952
O O14 0.500000 0.000000 0.500000
O O15 0.127616 0.595744 0.091515
#
# Coordination Sequence:
#
# PCOD9052322 Si02
#       7
#     2   2   2   2   2   2   1
#     4  11  24  45  71 111 146 198 251 303 387 462
#     4  11  23  45  74 101 149 194 250 312 385 450
#     4  12  26  48  74 112 147 199 249 314 384 447
#     4  11  26  45  79 108 148 200 250 313 382 449
#     4  11  23  49  75 109 151 193 256 315 375 450
#     4  11  25  48  70 104 154 187 255 314 377 454
#     4  10  26  44  74 110 142 196 258 312 378 472
#
# _framework density 22.739677
#
# number of rings (size 3 to 8) (size 9 to 14) (size 15 to 20)
#    0.000    0.923    3.077    2.769    4.308    2.462 
#   11.077    0.000    0.000    0.000    0.000    0.000 
#    0.000    0.000    0.000    0.000    0.000    0.000 
#
# Total GULP energy -72438.298858 kJ/mol
# GULP energy per Si atom -5572.176835 kJ/mol
# Density = 2.268792 g / cm^3
# Si number density = 22.739677 Si / 1000 Ang^3
#
#
#
# Elastic Constant Matrix: (Units=GPa)
#
#
# Indices 1 2 3 4 5 6 
#
# 1 125.9885 64.9984 46.1363 2.5850 -26.8274 17.9880
# 2 64.9984 126.5483 41.9445 4.4907 -16.3555 4.7621
# 3 46.1363 41.9445 132.1791 25.0485 -40.8894 0.7425
# 4 2.5850 4.4907 25.0485 41.6160 0.1275 -1.8316
# 5 -26.8274 -16.3555 -40.8894 0.1275 59.1459 1.7978
# 6 17.9880 4.7621 0.7425 -1.8316 1.7978 30.3217
#
#
#
# Elastic Compliance Matrix: (Units=1/GPa)
#
#
# Indices 1 2 3 4 5 6 
#
# 1 0.013155 -0.005449 -0.001894 0.000589 0.003364 -0.007066
# 2 -0.005449 0.011179 -0.001975 0.000394 -0.000795 0.001596
# 3 -0.001894 -0.001975 0.012437 -0.007165 0.007200 0.000269
# 4 0.000589 0.000394 -0.007165 0.028354 -0.004692 0.001755
# 5 0.003364 -0.000795 0.007200 -0.004692 0.023314 -0.003713
# 6 -0.007066 0.001596 0.000269 0.001755 -0.003713 0.037240
#
#
# Mechanical properties :
#
#
# Convention : Reuss Voigt Hill
#
# Bulk Modulus (GPa) = 55.14204 76.76380 65.95292
# Shear Modulus (GPa) = 33.25340 41.65917 37.45628
#
# Velocity S-wave (km/s) = 3.82822 4.28483 4.06295
# Velocity P-wave (km/s) = 6.62135 7.63614 7.14678
#
# Compressibility (1/GPa) = 0.01813499
#
# Stress axis : x y z
#
# Youngs Moduli (GPa) = 76.01563 89.45499 80.40622
#
# Poissons Ratio (x) = 0.48747 0.15227
# Poissons Ratio (y) = 0.41424 0.15879
# Poissons Ratio (z) = 0.14395 0.17666
#
# Static dielectric constant tensor:
#      x y z
#    x 1.825470 -0.040600 0.023270 
#    y -0.040600 1.858380 0.013120 
#    z 0.023270 0.013120 1.826110 
# 
# From -- ./inp_files/131870.got.cif
#   From: 2010.05.17/outbox.cif.g08.bks.cpg/sg2_66_cif.got.tgz:131870.got - 2010.06.03 11:33:40.
