data_PCOD9052325
_publ_section_title
;
Structure prediction by ZEFSAII (Michael W. Deem and Ramdas Pophale) SiO2 
 PCOD9052325
Probable space group: P -1
;
_chemical_formula_sum "Si O2"
_cell_formula_units_Z 14
_cell_length_a 16.679196
_cell_length_b 9.633740
_cell_length_c 8.404621
_cell_angle_alpha 104.721851
_cell_angle_beta 151.529426
_cell_angle_gamma 65.161864
_cell_volume 563.164231
_symmetry_space_group_name_H-M "P -1"
_symmetry_group_IT_number 2
_symmetry_cell_setting 'triclinic'
loop_
_space_group_symop_operation_xyz
x,y,z
-x,-y,-z
loop_
_atom_site_type_symbol
_atom_site_label
_atom_site_fract_x
_atom_site_fract_y
_atom_site_fract_z
Si Si1 0.732015 0.891281 0.035684
Si Si2 0.250969 0.778780 0.269968
Si Si3 0.372754 0.036389 0.630469
Si Si4 0.688460 0.225043 0.994549
Si Si5 0.366864 0.506986 0.625100
Si Si6 0.956802 0.359202 0.666732
Si Si7 0.902911 0.701652 0.600289
O O1 0.814023 0.774831 0.296051
O O2 0.842000 0.788730 0.045424
O O3 0.510255 0.969024 0.700916
O O4 0.768831 0.048324 0.153639
O O5 0.253158 0.933823 0.398680
O O6 0.308130 0.778342 0.188798
O O7 0.383122 0.625783 0.556663
O O8 0.061869 0.759542 0.923869
O O9 0.242256 0.219793 0.486378
O O10 0.500000 0.000000 0.000000
O O11 0.473086 0.329440 0.694460
O O12 0.819563 0.306300 0.309023
O O13 0.156585 0.583294 0.348103
O O14 0.500000 0.500000 0.000000
O O15 0.969415 0.514489 0.664697
#
# Coordination Sequence:
#
# PCOD9052325 Si02
#       7
#     2   2   2   2   2   2   2
#     4  11  24  44  76 108 151 196 237 288 371 434
#     4  12  26  46  76 110 146 186 250 310 354 426
#     4  10  26  44  75 103 149 191 243 292 370 428
#     4  11  25  45  77 111 147 192 242 301 358 435
#     4  10  26  44  75 103 149 191 243 292 370 428
#     4  11  24  44  76 108 151 196 237 288 371 434
#     4  11  25  45  77 111 147 192 242 301 358 435
#
# _framework density 24.859535000000001
#
# number of rings (size 3 to 8) (size 9 to 14) (size 15 to 20)
#    0.000    1.143    1.429    2.571   16.000    3.429 
#    0.000    0.000    0.000    0.000    0.000    0.000 
#    0.000    0.000    0.000    0.000    0.000    0.000 
#
# Total GULP energy -78287.340465 kJ/mol
# GULP energy per Si atom -5591.952890 kJ/mol
# Density = 2.480295 g / cm^3
# Si number density = 24.859535 Si / 1000 Ang^3
#
#
#
# Elastic Constant Matrix: (Units=GPa)
#
#
# Indices 1 2 3 4 5 6 
#
# 1 116.8079 42.0104 24.7337 -0.3595 14.4327 -18.7573
# 2 42.0104 174.6418 29.3799 -0.0961 20.5755 -16.3176
# 3 24.7337 29.3799 58.1157 10.0080 11.8494 -10.3606
# 4 -0.3595 -0.0961 10.0080 39.8194 0.8575 17.0708
# 5 14.4327 20.5755 11.8494 0.8575 40.3086 -14.1193
# 6 -18.7573 -16.3176 -10.3606 17.0708 -14.1193 37.4168
#
#
#
# Elastic Compliance Matrix: (Units=1/GPa)
#
#
# Indices 1 2 3 4 5 6 
#
# 1 0.010414 -0.001612 -0.002603 -0.000929 -0.000740 0.003941
# 2 -0.001612 0.006793 -0.002295 0.000370 -0.002017 0.000589
# 3 -0.002603 -0.002295 0.022667 -0.008822 -0.001811 0.007312
# 4 -0.000929 0.000370 -0.008822 0.036710 -0.005615 -0.021615
# 5 -0.000740 -0.002017 -0.001811 -0.005615 0.031157 0.012567
# 6 0.003941 0.000589 0.007312 -0.021615 0.012567 0.045587
#
#
# Mechanical properties :
#
#
# Convention : Reuss Voigt Hill
#
# Bulk Modulus (GPa) = 37.24132 60.20148 48.72140
# Shear Modulus (GPa) = 28.52250 40.40505 34.46377
#
# Velocity S-wave (km/s) = 3.39093 4.03592 3.72740
# Velocity P-wave (km/s) = 5.50857 6.78140 6.17785
#
# Compressibility (1/GPa) = 0.02685189
#
# Stress axis : x y z
#
# Youngs Moduli (GPa) = 96.02833 147.21458 44.11625
#
# Poissons Ratio (x) = 0.23733 0.11485
# Poissons Ratio (y) = 0.15481 0.10126
# Poissons Ratio (z) = 0.25000 0.33791
#
# Static dielectric constant tensor:
#      x y z
#    x 2.000320 -0.017450 0.041790 
#    y -0.017450 1.929940 -0.009780 
#    z 0.041790 -0.009780 1.976180 
# 
# From -- ./inp_files/329358.got.cif
#   From: 2010.05.17/outbox.cif.g08.bks.cpg/sg2_165_cif.got.tgz:329358.got - 2010.06.03 11:33:40.
