data_PCOD9052023
_publ_section_title
;
Structure prediction by ZEFSAII (Michael W. Deem and Ramdas Pophale) SiO2 
 PCOD9052023
Probable space group: P -1
;
_chemical_formula_sum "Si O2"
_cell_formula_units_Z 16
_cell_length_a 24.911210
_cell_length_b 5.293274
_cell_length_c 11.704645
_cell_angle_alpha 58.945392
_cell_angle_beta 29.985691
_cell_angle_gamma 69.014621
_cell_volume 646.480326
_symmetry_space_group_name_H-M "P -1"
_symmetry_group_IT_number 2
_symmetry_cell_setting 'triclinic'
loop_
_space_group_symop_operation_xyz
x,y,z
-x,-y,-z
loop_
_atom_site_type_symbol
_atom_site_label
_atom_site_fract_x
_atom_site_fract_y
_atom_site_fract_z
Si Si1 0.907770 0.640842 0.459269
Si Si2 0.806204 0.956024 0.392426
Si Si3 0.550156 0.700574 0.972319
Si Si4 0.185132 0.345514 0.790289
Si Si5 0.412061 0.238198 0.490182
Si Si6 0.788026 0.954346 0.794844
Si Si7 0.553136 0.838034 0.299204
Si Si8 0.080134 0.288572 0.229797
O O1 0.896795 0.811937 0.323142
O O2 0.856217 0.837766 0.597213
O O3 0.025900 0.572574 0.288744
O O4 0.834038 0.301597 0.661957
O O5 0.682242 0.786881 0.695607
O O6 0.822531 0.880120 0.248274
O O7 0.815856 0.308301 0.319937
O O8 0.500000 0.500000 0.000000
O O9 0.509861 0.515298 0.206748
O O10 0.500000 0.000000 0.000000
O O11 0.301793 0.330055 0.634990
O O12 0.094021 0.261288 0.075954
O O13 0.403120 0.083891 0.668517
O O14 0.454771 0.980922 0.400663
O O15 0.805559 0.725055 0.917509
O O16 0.661423 0.915412 0.007187
O O17 0.500000 0.500000 0.500000
O O18 0.000000 0.000000 0.500000
#
# Coordination Sequence:
#
# PCOD9052023 Si02
#       8
#     2   2   2   2   2   2   2   2
#     4  11  26  46  73 103 140 180 242 294 350 413
#     4  12  26  45  69 106 139 192 231 288 344 415
#     4  12  24  42  68  96 139 188 231 271 339 416
#     4  12  26  46  73 100 145 183 236 288 350 425
#     4  11  25  44  63 104 140 186 232 286 346 421
#     4  11  24  46  72 103 142 183 232 295 355 424
#     4  11  27  40  70 101 143 187 230 293 355 415
#     4  10  25  49  77 105 136 186 233 300 364 415
#
# _framework density 24.749399
#
# number of rings (size 3 to 8) (size 9 to 14) (size 15 to 20)
#    0.000    0.750    3.750    1.875    8.750    5.000 
#    0.000    0.000    0.000    0.000    0.000    0.000 
#    0.000    0.000    0.000    0.000    0.000    0.000 
#
# Total GULP energy -89454.736744 kJ/mol
# GULP energy per Si atom -5590.921046 kJ/mol
# Density = 2.469307 g / cm^3
# Si number density = 24.749399 Si / 1000 Ang^3
#
#
#
# Elastic Constant Matrix: (Units=GPa)
#
#
# Indices 1 2 3 4 5 6 
#
# 1 35.9806 -1.3809 -1.9172 0.6174 4.7621 -0.8642
# 2 -1.3809 87.0770 14.0648 -11.9418 -19.7751 -12.3876
# 3 -1.9172 14.0648 107.5309 3.8126 8.0760 0.4950
# 4 0.6174 -11.9418 3.8126 34.2064 3.0115 6.4802
# 5 4.7621 -19.7751 8.0760 3.0115 30.6006 1.2995
# 6 -0.8642 -12.3876 0.4950 6.4802 1.2995 47.0020
#
#
#
# Elastic Compliance Matrix: (Units=1/GPa)
#
#
# Indices 1 2 3 4 5 6 
#
# 1 0.028533 -0.000924 0.001044 -0.000583 -0.005277 0.000496
# 2 -0.000924 0.015305 -0.002952 0.004181 0.010266 0.003187
# 3 0.001044 -0.002952 0.010108 -0.001679 -0.004551 -0.000508
# 4 -0.000583 0.004181 -0.001679 0.031481 0.000275 -0.003239
# 5 -0.005277 0.010266 -0.004551 0.000275 0.041246 0.001478
# 6 0.000496 0.003187 -0.000508 -0.003239 0.001478 0.022536
#
#
# Mechanical properties :
#
#
# Convention : Reuss Voigt Hill
#
# Bulk Modulus (GPa) = 20.71155 28.01355 24.36255
# Shear Modulus (GPa) = 29.24544 37.01658 33.13101
#
# Velocity S-wave (km/s) = 3.44126 3.87157 3.66274
# Velocity P-wave (km/s) = 4.91695 5.59722 5.26807
#
# Compressibility (1/GPa) = 0.04828225
#
# Stress axis : x y z
#
# Youngs Moduli (GPa) = 35.04678 65.33977 98.93047
#
# Poissons Ratio (x) = 0.06037 -0.10331
# Poissons Ratio (y) = 0.03238 0.29207
# Poissons Ratio (z) = -0.03660 0.19290
#
# Static dielectric constant tensor:
#      x y z
#    x 2.167860 -0.043720 0.127970 
#    y -0.043720 1.951970 0.005380 
#    z 0.127970 0.005380 2.056560 
# 
# From -- ./inp_files/459504.got.cif
#   From: 2010.05.17/outbox.cif.g08.bks.cpg/sg2_230_cif.got.tgz:459504.got - 2010.06.03 11:33:40.
