data_PCOD9052274
_publ_section_title
;
Structure prediction by ZEFSAII (Michael W. Deem and Ramdas Pophale) SiO2 
 PCOD9052274
Probable space group: P -1
;
_chemical_formula_sum "Si O2"
_cell_formula_units_Z 15
_cell_length_a 14.269195
_cell_length_b 9.505335
_cell_length_c 9.132736
_cell_angle_alpha 138.617311
_cell_angle_beta 58.706913
_cell_angle_gamma 131.893435
_cell_volume 609.145318
_symmetry_space_group_name_H-M "P -1"
_symmetry_group_IT_number 2
_symmetry_cell_setting 'triclinic'
loop_
_space_group_symop_operation_xyz
x,y,z
-x,-y,-z
loop_
_atom_site_type_symbol
_atom_site_label
_atom_site_fract_x
_atom_site_fract_y
_atom_site_fract_z
Si Si1 0.500000 0.500000 0.000000
Si Si2 0.336112 0.465224 0.656851
Si Si3 0.146678 0.724514 0.412951
Si Si4 0.150651 0.650282 0.012891
Si Si5 0.400337 0.126006 0.539261
Si Si6 0.286566 0.193777 0.188350
Si Si7 0.941039 0.786480 0.763384
Si Si8 0.535534 0.229855 0.947786
O O1 0.512241 0.705589 0.273842
O O2 0.383253 0.530804 0.028424
O O3 0.350309 0.262442 0.578244
O O4 0.346056 0.392212 0.425961
O O5 0.209216 0.481935 0.783261
O O6 0.432697 0.710606 0.861015
O O7 0.179994 0.712372 0.208281
O O8 0.091767 0.459180 0.317021
O O9 0.045041 0.815471 0.581951
O O10 0.273059 0.906020 0.536927
O O11 0.221064 0.913189 0.079506
O O12 0.000000 0.500000 0.000000
O O13 0.464903 0.005387 0.294296
O O14 0.179510 0.223995 0.220777
O O15 0.404244 0.235257 0.021777
O O16 0.000000 0.000000 0.000000
#
# Coordination Sequence:
#
# PCOD9052274 Si02
#       8
#     1   2   2   2   2   2   2   2
#     4  10  26  44  70 106 142 198 238 298 362 438
#     4  11  24  46  72 105 143 195 237 304 362 431
#     4  11  25  48  73 104 144 193 245 297 370 434
#     4  12  26  45  76 106 144 195 248 298 363 437
#     4  11  24  47  76 104 144 195 242 299 363 443
#     4  12  27  45  73 112 146 191 244 306 359 440
#     4  11  28  47  72 107 147 192 243 309 365 432
#     4  11  25  45  72 109 147 192 244 297 371 434
#
# _framework density 24.624665
#
# number of rings (size 3 to 8) (size 9 to 14) (size 15 to 20)
#    0.000    0.800    2.667    2.400    7.467    6.400 
#    0.000    0.000    0.000    0.000    0.000    0.000 
#    0.000    0.000    0.000    0.000    0.000    0.000 
#
# Total GULP energy -83827.711743 kJ/mol
# GULP energy per Si atom -5588.514116 kJ/mol
# Density = 2.456862 g / cm^3
# Si number density = 24.624665 Si / 1000 Ang^3
#
#
#
# Elastic Constant Matrix: (Units=GPa)
#
#
# Indices 1 2 3 4 5 6 
#
# 1 141.1421 21.5576 80.3516 -3.5999 -17.9943 -4.0758
# 2 21.5576 81.0382 50.9439 4.6073 -5.6729 -3.1307
# 3 80.3516 50.9439 209.8998 1.4792 -11.4434 -3.1982
# 4 -3.5999 4.6073 1.4792 42.5460 1.1341 0.9298
# 5 -17.9943 -5.6729 -11.4434 1.1341 60.9645 -2.0296
# 6 -4.0758 -3.1307 -3.1982 0.9298 -2.0296 37.0026
#
#
#
# Elastic Compliance Matrix: (Units=1/GPa)
#
#
# Indices 1 2 3 4 5 6 
#
# 1 0.009378 -0.000217 -0.003416 0.000861 0.002118 0.000814
# 2 -0.000217 0.014728 -0.003426 -0.001535 0.000725 0.001004
# 3 -0.003416 -0.003426 0.006902 -0.000156 -0.000031 -0.000067
# 4 0.000861 -0.001535 -0.000156 0.023773 -0.000382 -0.000667
# 5 0.002118 0.000725 -0.000031 -0.000382 0.017138 0.001242
# 6 0.000814 0.001004 -0.000067 -0.000667 0.001242 0.027279
#
#
# Mechanical properties :
#
#
# Convention : Reuss Voigt Hill
#
# Bulk Modulus (GPa) = 59.20278 81.97626 70.58952
# Shear Modulus (GPa) = 42.03611 46.71775 44.37693
#
# Velocity S-wave (km/s) = 4.13616 4.36040 4.24976
# Velocity P-wave (km/s) = 6.84870 7.66247 7.26698
#
# Compressibility (1/GPa) = 0.01689110
#
# Stress axis : x y z
#
# Youngs Moduli (GPa) = 106.63074 67.89744 144.89406
#
# Poissons Ratio (x) = 0.01472 0.49490
# Poissons Ratio (y) = 0.02312 0.49640
# Poissons Ratio (z) = 0.36421 0.23261
#
# Static dielectric constant tensor:
#      x y z
#    x 1.996100 -0.131160 -0.017890 
#    y -0.131160 4.113320 -0.155200 
#    z -0.017890 -0.155200 1.953160 
# 
# From -- ./inp_files/34439.got.cif
#   From: 2010.05.17/outbox.cif.g08.bks.cpg/sg2_18_cif.got.tgz:34439.got - 2010.06.03 11:33:40.
