data_PCOD9052449
_publ_section_title
;
Structure prediction by ZEFSAII (Michael W. Deem and Ramdas Pophale) SiO2 
 PCOD9052449
Probable space group: P -1
;
_chemical_formula_sum "Si O2"
_cell_formula_units_Z 16
_cell_length_a 16.932712
_cell_length_b 9.129733
_cell_length_c 8.899844
_cell_angle_alpha 120.813400
_cell_angle_beta 47.224565
_cell_angle_gamma 90.035769
_cell_volume 723.888110
_symmetry_space_group_name_H-M "P -1"
_symmetry_group_IT_number 2
_symmetry_cell_setting 'triclinic'
loop_
_space_group_symop_operation_xyz
x,y,z
-x,-y,-z
loop_
_atom_site_type_symbol
_atom_site_label
_atom_site_fract_x
_atom_site_fract_y
_atom_site_fract_z
Si Si1 0.545332 0.714420 0.931608
Si Si2 0.620874 0.257328 0.574146
Si Si3 0.310128 0.098061 0.269996
Si Si4 0.239833 0.936553 0.991415
Si Si5 0.938394 0.188917 0.791695
Si Si6 0.106974 0.391442 0.930874
Si Si7 0.007304 0.312370 0.314997
Si Si8 0.887676 0.087697 0.314427
O O1 0.581961 0.489122 0.724252
O O2 0.657462 0.755227 0.784255
O O3 0.485812 0.747750 0.192814
O O4 0.433914 0.887860 0.059965
O O5 0.645986 0.151320 0.323712
O O6 0.752358 0.150261 0.450051
O O7 0.231383 0.224141 0.587078
O O8 0.251789 0.021546 0.179414
O O9 0.198677 0.774932 0.968991
O O10 0.117716 0.120502 0.161800
O O11 0.900847 0.406725 0.893157
O O12 0.000000 0.000000 0.500000
O O13 0.046437 0.082915 0.729051
O O14 0.059820 0.308471 0.078897
O O15 0.000000 0.500000 0.000000
O O16 0.000000 0.500000 0.500000
O O17 0.884637 0.292489 0.471125
O O18 0.000000 0.000000 0.000000
#
# Coordination Sequence:
#
# PCOD9052449 Si02
#       8
#     2   2   2   2   2   2   2   2
#     4  10  26  46  70  88 126 180 230 260 330 380
#     4  11  23  46  67  96 124 180 223 270 316 397
#     4  11  25  46  66  98 130 172 217 279 318 390
#     4  11  24  40  67  92 135 164 223 275 321 384
#     4  11  23  39  59 106 134 169 205 260 335 400
#     4  12  24  38  69  98 137 173 207 263 340 385
#     4  11  23  39  59 106 134 169 205 260 335 400
#     4  11  22  39  68  93 133 168 211 260 332 394
#
# _framework density 22.102862999999999
#
# number of rings (size 3 to 8) (size 9 to 14) (size 15 to 20)
#    0.000    1.000    2.500    5.250    7.000    1.000 
#    0.000    0.000    0.000    0.000    0.000    0.000 
#    0.000    0.000    0.000    0.000    0.000    0.000 
#
# Total GULP energy -89292.377890 kJ/mol
# GULP energy per Si atom -5580.773618 kJ/mol
# Density = 2.205256 g / cm^3
# Si number density = 22.102863 Si / 1000 Ang^3
#
#
#
# Elastic Constant Matrix: (Units=GPa)
#
#
# Indices 1 2 3 4 5 6 
#
# 1 47.7485 16.6905 13.8753 3.3518 16.5867 -3.1965
# 2 16.6905 139.8655 16.7174 -1.4302 1.5766 12.6052
# 3 13.8753 16.7174 92.8749 -10.7922 19.2904 2.2552
# 4 3.3518 -1.4302 -10.7922 38.2830 -1.0320 -0.1852
# 5 16.5867 1.5766 19.2904 -1.0320 30.1505 -0.3230
# 6 -3.1965 12.6052 2.2552 -0.1852 -0.3230 33.0805
#
#
#
# Elastic Compliance Matrix: (Units=1/GPa)
#
#
# Indices 1 2 3 4 5 6 
#
# 1 0.028022 -0.003447 -0.000990 -0.003238 -0.014671 0.003927
# 2 -0.003447 0.007986 -0.001282 0.000284 0.002274 -0.003265
# 3 -0.000990 -0.001282 0.013170 0.003541 -0.007699 -0.000560
# 4 -0.003238 0.000284 0.003541 0.027423 0.000434 -0.000505
# 5 -0.014671 0.002274 -0.007699 0.000434 0.046046 -0.001307
# 6 0.003927 -0.003265 -0.000560 -0.000505 -0.001307 0.031875
#
#
# Mechanical properties :
#
#
# Convention : Reuss Voigt Hill
#
# Bulk Modulus (GPa) = 26.49841 41.67281 34.08561
# Shear Modulus (GPa) = 28.00454 35.84984 31.92719
#
# Velocity S-wave (km/s) = 3.56337 4.03172 3.80476
# Velocity P-wave (km/s) = 5.38004 6.36930 5.89546
#
# Compressibility (1/GPa) = 0.03773811
#
# Stress axis : x y z
#
# Youngs Moduli (GPa) = 35.68579 125.22070 75.92858
#
# Poissons Ratio (x) = 0.43167 0.07520
# Poissons Ratio (y) = 0.12302 0.09738
# Poissons Ratio (z) = 0.03534 0.16059
#
# Static dielectric constant tensor:
#      x y z
#    x 1.964180 0.217770 0.077370 
#    y 0.217770 2.076350 -0.021790 
#    z 0.077370 -0.021790 2.043990 
# 
# From -- ./inp_files/283376.got.cif
#   From: 2010.05.17/outbox.cif.g08.bks.cpg/sg2_142_cif.got.tgz:283376.got - 2010.06.03 11:33:40.
