data_PCOD9052376
_publ_section_title
;
Structure prediction by ZEFSAII (Michael W. Deem and Ramdas Pophale) SiO2 
 PCOD9052376
Probable space group: P -1
;
_chemical_formula_sum "Si O2"
_cell_formula_units_Z 16
_cell_length_a 5.423417
_cell_length_b 10.792243
_cell_length_c 13.357598
_cell_angle_alpha 123.014392
_cell_angle_beta 97.343750
_cell_angle_gamma 77.728710
_cell_volume 640.544205
_symmetry_space_group_name_H-M "P -1"
_symmetry_group_IT_number 2
_symmetry_cell_setting 'triclinic'
loop_
_space_group_symop_operation_xyz
x,y,z
-x,-y,-z
loop_
_atom_site_type_symbol
_atom_site_label
_atom_site_fract_x
_atom_site_fract_y
_atom_site_fract_z
Si Si1 0.901067 0.419884 0.858939
Si Si2 0.717215 0.113009 0.654533
Si Si3 0.335151 0.197647 0.818123
Si Si4 0.987352 0.235356 0.168137
Si Si5 0.370013 0.739577 0.489333
Si Si6 0.567353 0.725016 0.928561
Si Si7 0.106618 0.926340 0.714972
Si Si8 0.927766 0.553642 0.407724
O O1 0.770203 0.270815 0.777788
O O2 0.703153 0.549968 0.855364
O O3 0.180223 0.333998 0.805582
O O4 0.000000 0.500000 0.000000
O O5 0.482791 0.089254 0.697603
O O6 0.667179 0.141040 0.549504
O O7 0.928145 0.973045 0.630772
O O8 0.174453 0.086641 0.817068
O O9 0.472377 0.251774 0.944006
O O10 0.708924 0.222987 0.108017
O O11 0.028819 0.137619 0.228060
O O12 0.951550 0.408567 0.275576
O O13 0.220744 0.201048 0.087826
O O14 0.332950 0.803956 0.629029
O O15 0.643367 0.642073 0.440549
O O16 0.139300 0.647776 0.425150
O O17 0.000000 0.500000 0.500000
#
# Coordination Sequence:
#
# PCOD9052376 Si02
#       8
#     2   2   2   2   2   2   2   2
#     4   9  21  42  68 103 138 179 231 295 355 410
#     4  11  25  46  71 102 144 188 243 293 351 424
#     4  10  26  45  71 104 144 190 238 295 349 428
#     4  12  27  46  74 106 144 188 235 294 359 429
#     4  12  28  47  78 106 141 191 240 298 359 417
#     4  11  27  45  75 108 142 185 238 292 363 424
#     4  11  28  47  70 101 146 192 241 293 353 419
#     4  12  26  48  76 109 146 182 237 300 360 422
#
# _framework density 24.978757999999999
#
# number of rings (size 3 to 8) (size 9 to 14) (size 15 to 20)
#    0.000    1.000    1.250    3.000   17.500    2.500 
#    0.000    0.000    0.000    0.000    0.000    0.000 
#    0.000    0.000    0.000    0.000    0.000    0.000 
#
# Total GULP energy -89286.678246 kJ/mol
# GULP energy per Si atom -5580.417390 kJ/mol
# Density = 2.492191 g / cm^3
# Si number density = 24.978758 Si / 1000 Ang^3
#
#
#
# Elastic Constant Matrix: (Units=GPa)
#
#
# Indices 1 2 3 4 5 6 
#
# 1 128.3186 23.7365 37.2005 -22.0364 -12.1719 -5.8453
# 2 23.7365 87.6359 16.2183 -19.3537 1.8866 8.3729
# 3 37.2005 16.2183 93.4862 -15.6361 -15.4183 2.6582
# 4 -22.0364 -19.3537 -15.6361 36.1637 6.3636 -0.2127
# 5 -12.1719 1.8866 -15.4183 6.3636 30.0741 -8.5582
# 6 -5.8453 8.3729 2.6582 -0.2127 -8.5582 32.9439
#
#
#
# Elastic Compliance Matrix: (Units=1/GPa)
#
#
# Indices 1 2 3 4 5 6 
#
# 1 0.009914 -0.001808 -0.002664 0.003421 0.002954 0.003223
# 2 -0.001808 0.014262 -0.001324 0.006846 -0.005220 -0.005151
# 3 -0.002664 -0.001324 0.013275 0.002469 0.005345 0.000197
# 4 0.003421 0.006846 0.002469 0.035518 -0.006056 -0.002676
# 5 0.002954 -0.005220 0.005345 -0.006056 0.042317 0.012373
# 6 0.003223 -0.005151 0.000197 -0.002676 0.012373 0.035417
#
#
# Mechanical properties :
#
#
# Convention : Reuss Voigt Hill
#
# Bulk Modulus (GPa) = 38.67052 51.52794 45.09923
# Shear Modulus (GPa) = 29.25425 35.32204 32.28815
#
# Velocity S-wave (km/s) = 3.42594 3.76451 3.59921
# Velocity P-wave (km/s) = 5.58251 6.29038 5.94699
#
# Compressibility (1/GPa) = 0.02585949
#
# Stress axis : x y z
#
# Youngs Moduli (GPa) = 100.86375 70.11573 75.32840
#
# Poissons Ratio (x) = 0.12680 0.20066
# Poissons Ratio (y) = 0.18240 0.09973
# Poissons Ratio (z) = 0.26868 0.09283
#
# Static dielectric constant tensor:
#      x y z
#    x 2.134000 0.042050 0.064290 
#    y 0.042050 1.985190 -0.003760 
#    z 0.064290 -0.003760 1.972510 
# 
# From -- ./inp_files/365291.got.cif
#   From: 2010.05.17/outbox.cif.g08.bks.cpg/sg2_183_cif.got.tgz:365291.got - 2010.06.03 11:33:40.
