data_PCOD9052903
_publ_section_title
;
Structure prediction by ZEFSAII (Michael W. Deem and Ramdas Pophale) SiO2 
 PCOD9052903
Probable space group: P -1
;
_chemical_formula_sum "Si O2"
_cell_formula_units_Z 14
_cell_length_a 9.551436
_cell_length_b 11.863012
_cell_length_c 11.218126
_cell_angle_alpha 143.224957
_cell_angle_beta 124.028254
_cell_angle_gamma 48.652920
_cell_volume 569.973492
_symmetry_space_group_name_H-M "P -1"
_symmetry_group_IT_number 2
_symmetry_cell_setting 'triclinic'
loop_
_space_group_symop_operation_xyz
x,y,z
-x,-y,-z
loop_
_atom_site_type_symbol
_atom_site_label
_atom_site_fract_x
_atom_site_fract_y
_atom_site_fract_z
Si Si1 0.500000 0.000000 0.000000
Si Si2 0.122393 0.795013 0.958583
Si Si3 0.673719 0.931549 0.433515
Si Si4 0.763898 0.278385 0.642658
Si Si5 0.073956 0.227673 0.925000
Si Si6 0.076518 0.615015 0.397449
Si Si7 0.000000 0.500000 0.500000
Si Si8 0.490683 0.264927 0.997280
O O1 0.291298 0.081015 0.910189
O O2 0.435372 0.903710 0.004846
O O3 0.085563 0.609932 0.727041
O O4 0.048029 0.826761 0.083166
O O5 0.336277 0.747603 0.009234
O O6 0.000000 0.000000 0.000000
O O7 0.691187 0.119216 0.529428
O O8 0.500000 0.000000 0.500000
O O9 0.642750 0.785074 0.197030
O O10 0.869183 0.794068 0.475543
O O11 0.796754 0.288750 0.525598
O O12 0.620535 0.507933 0.808515
O O13 0.967726 0.230397 0.755153
O O14 0.067997 0.446020 0.156216
O O15 0.143845 0.509229 0.467531
#
# Coordination Sequence:
#
# PCOD9052903 Si02
#       8
#     1   2   2   2   2   2   1   2
#     4  12  24  44  78 108 144 198 250 308 372 444
#     4  11  25  45  73 101 150 196 236 305 377 436
#     4  12  29  45  76 113 150 196 257 308 368 449
#     4  12  26  49  79 108 149 201 250 312 374 443
#     4  11  23  45  77 106 146 196 248 303 375 442
#     4  11  24  49  73 106 150 199 243 312 375 440
#     4  10  28  44  72 104 144 190 250 292 368 452
#     4  12  27  48  74 113 147 195 253 307 371 449
#
# _framework density 24.562546999999999
#
# number of rings (size 3 to 8) (size 9 to 14) (size 15 to 20)
#    0.000    0.571    4.286    2.571    8.000    2.286 
#    0.000    1.429    0.000    0.000    0.000    0.000 
#    0.000    0.000    0.000    0.000    0.000    0.000 
#
# Total GULP energy -77957.211924 kJ/mol
# GULP energy per Si atom -5568.372280 kJ/mol
# Density = 2.450664 g / cm^3
# Si number density = 24.562547 Si / 1000 Ang^3
#
#
#
# Elastic Constant Matrix: (Units=GPa)
#
#
# Indices 1 2 3 4 5 6 
#
# 1 194.5859 29.8781 22.0665 9.3224 1.6644 5.9567
# 2 29.8781 33.6850 3.0305 0.3349 1.9320 -0.4350
# 3 22.0665 3.0305 79.5599 -2.1919 5.0705 6.5700
# 4 9.3224 0.3349 -2.1919 22.1987 -1.8002 2.0526
# 5 1.6644 1.9320 5.0705 -1.8002 19.6344 4.3133
# 6 5.9567 -0.4350 6.5700 2.0526 4.3133 48.9404
#
#
#
# Elastic Compliance Matrix: (Units=1/GPa)
#
#
# Indices 1 2 3 4 5 6 
#
# 1 0.006294 -0.005436 -0.001587 -0.002647 0.000282 -0.000515
# 2 -0.005436 0.034660 0.000334 0.001432 -0.003156 0.001143
# 3 -0.001587 0.000334 0.013348 0.001879 -0.002861 -0.001422
# 4 -0.002647 0.001432 0.001879 0.046890 0.004396 -0.002271
# 5 0.000282 -0.003156 -0.002861 0.004396 0.053363 -0.004566
# 6 -0.000515 0.001143 -0.001422 -0.002271 -0.004566 0.021194
#
#
# Mechanical properties :
#
#
# Convention : Reuss Voigt Hill
#
# Bulk Modulus (GPa) = 24.43601 46.42012 35.42806
# Shear Modulus (GPa) = 24.65851 35.01175 29.83513
#
# Velocity S-wave (km/s) = 3.17189 3.77956 3.48898
# Velocity P-wave (km/s) = 4.83576 6.16332 5.53945
#
# Compressibility (1/GPa) = 0.04092321
#
# Stress axis : x y z
#
# Youngs Moduli (GPa) = 158.88077 28.85145 74.91686
#
# Poissons Ratio (x) = 0.15685 0.11889
# Poissons Ratio (y) = 0.86374 -0.02500
# Poissons Ratio (z) = 0.25214 -0.00963
#
# Static dielectric constant tensor:
#      x y z
#    x 1.961170 0.073790 0.023900 
#    y 0.073790 2.009260 0.058980 
#    z 0.023900 0.058980 2.220240 
# 
# From -- ./inp_files/155278.got.cif
#   From: 2010.05.17/outbox.cif.g08.bks.cpg/sg2_78_cif.got.tgz:155278.got - 2010.06.03 11:33:40.
