data_PCOD9052507
_publ_section_title
;
Structure prediction by ZEFSAII (Michael W. Deem and Ramdas Pophale) SiO2 
 PCOD9052507
Probable space group: P -1
;
_chemical_formula_sum "Si O2"
_cell_formula_units_Z 13
_cell_length_a 13.161096
_cell_length_b 7.784875
_cell_length_c 7.039638
_cell_angle_alpha 108.852169
_cell_angle_beta 79.297108
_cell_angle_gamma 59.569942
_cell_volume 531.870850
_symmetry_space_group_name_H-M "P -1"
_symmetry_group_IT_number 2
_symmetry_cell_setting 'triclinic'
loop_
_space_group_symop_operation_xyz
x,y,z
-x,-y,-z
loop_
_atom_site_type_symbol
_atom_site_label
_atom_site_fract_x
_atom_site_fract_y
_atom_site_fract_z
Si Si1 0.145932 0.763532 0.353716
Si Si2 0.615752 0.238104 0.802895
Si Si3 0.051924 0.614235 0.644453
Si Si4 0.207681 0.413846 0.896334
Si Si5 0.431308 0.762555 0.585947
Si Si6 0.500000 0.000000 0.500000
Si Si7 0.215878 0.062530 0.024126
O O1 0.264235 0.777478 0.330274
O O2 0.147973 0.624645 0.481688
O O3 0.174224 0.633944 0.097187
O O4 0.000000 0.000000 0.500000
O O5 0.571947 0.163861 0.610367
O O6 0.677855 0.060685 0.889108
O O7 0.500000 0.500000 0.000000
O O8 0.115833 0.485908 0.772619
O O9 0.000000 0.500000 0.500000
O O10 0.920781 0.866593 0.831263
O O11 0.352329 0.235978 0.703826
O O12 0.186854 0.286359 0.021037
O O13 0.500000 0.500000 0.500000
O O14 0.504101 0.865075 0.659329
O O15 0.289584 0.885146 0.764555
#
# Coordination Sequence:
#
# PCOD9052507 Si02
#       7
#     2   2   2   2   2   1   2
#     4  12  28  45  73 112 147 200 254 312 392 446
#     4  12  26  47  73 107 153 195 254 313 380 466
#     4  12  27  47  73 107 149 196 253 314 383 458
#     4  11  27  47  74 108 152 192 260 317 377 467
#     4  11  25  46  72 106 151 196 250 311 388 453
#     4  10  26  46  74 110 142 202 254 310 396 448
#     4  11  25  44  73 103 141 198 243 310 382 435
#
# _framework density 24.442022999999999
#
# number of rings (size 3 to 8) (size 9 to 14) (size 15 to 20)
#    0.000    0.615    4.615    1.385    8.615    0.615 
#    0.000    3.077    0.000    0.000    0.000    0.000 
#    0.000    0.000    0.000    0.000    0.000    0.000 
#
# Total GULP energy -72496.366482 kJ/mol
# GULP energy per Si atom -5576.643576 kJ/mol
# Density = 2.438639 g / cm^3
# Si number density = 24.442023 Si / 1000 Ang^3
#
#
#
# Elastic Constant Matrix: (Units=GPa)
#
#
# Indices 1 2 3 4 5 6 
#
# 1 113.5613 44.0942 58.0823 -2.5544 -23.7589 -8.9458
# 2 44.0942 153.6813 63.0552 -2.3780 -1.6466 -9.5556
# 3 58.0823 63.0552 171.1468 8.9369 -14.8497 -18.7740
# 4 -2.5544 -2.3780 8.9369 71.6743 -10.9581 -6.5400
# 5 -23.7589 -1.6466 -14.8497 -10.9581 52.1314 -1.2034
# 6 -8.9458 -9.5556 -18.7740 -6.5400 -1.2034 38.5313
#
#
#
# Elastic Compliance Matrix: (Units=1/GPa)
#
#
# Indices 1 2 3 4 5 6 
#
# 1 0.012341 -0.002199 -0.002871 0.001630 0.005111 0.001357
# 2 -0.002199 0.008109 -0.002332 0.000311 -0.001336 0.000375
# 3 -0.002871 -0.002332 0.008072 -0.000829 0.000802 0.002572
# 4 0.001630 0.000311 -0.000829 0.014939 0.003719 0.002704
# 5 0.005111 -0.001336 0.000802 0.003719 0.022539 0.002581
# 6 0.001357 0.000375 0.002572 0.002704 0.002581 0.028154
#
#
# Mechanical properties :
#
#
# Convention : Reuss Voigt Hill
#
# Bulk Modulus (GPa) = 72.89979 85.42809 79.16394
# Shear Modulus (GPa) = 44.04153 50.67789 47.35971
#
# Velocity S-wave (km/s) = 4.24946 4.55839 4.40663
# Velocity P-wave (km/s) = 7.34626 7.92038 7.63872
#
# Compressibility (1/GPa) = 0.01371746
#
# Stress axis : x y z
#
# Youngs Moduli (GPa) = 81.03262 123.32652 123.89169
#
# Poissons Ratio (x) = 0.27113 0.35567
# Poissons Ratio (y) = 0.17815 0.28896
# Poissons Ratio (z) = 0.23263 0.28764
#
# Static dielectric constant tensor:
#      x y z
#    x 0.683500 -0.562640 -0.969440 
#    y -0.562640 1.818530 -0.439130 
#    z -0.969440 -0.439130 1.345380 
# 
# From -- ./inp_files/89094.got.cif
#   From: 2010.05.17/outbox.cif.g08.bks.cpg/sg2_45_cif.got.tgz:89094.got - 2010.06.03 11:33:40.
