data_PCOD9052073
_publ_section_title
;
Structure prediction by ZEFSAII (Michael W. Deem and Ramdas Pophale) SiO2 
 PCOD9052073
Probable space group: P -1
;
_chemical_formula_sum "Si O2"
_cell_formula_units_Z 14
_cell_length_a 11.577688
_cell_length_b 8.568086
_cell_length_c 20.522146
_cell_angle_alpha 140.233734
_cell_angle_beta 34.776323
_cell_angle_gamma 115.083296
_cell_volume 611.014448
_symmetry_space_group_name_H-M "P -1"
_symmetry_group_IT_number 2
_symmetry_cell_setting 'triclinic'
loop_
_space_group_symop_operation_xyz
x,y,z
-x,-y,-z
loop_
_atom_site_type_symbol
_atom_site_label
_atom_site_fract_x
_atom_site_fract_y
_atom_site_fract_z
Si Si1 0.758526 0.433787 0.031876
Si Si2 0.715454 0.216087 0.720690
Si Si3 0.636308 0.828457 0.726546
Si Si4 0.826219 0.652893 0.840211
Si Si5 0.054771 0.213978 0.306115
Si Si6 0.747606 0.371906 0.303875
Si Si7 0.908172 0.341343 0.079284
O O1 0.482102 0.612359 0.189895
O O2 0.768642 0.458594 0.112888
O O3 0.910991 0.548968 0.965445
O O4 0.896944 0.089762 0.838120
O O5 0.715368 0.462533 0.843462
O O6 0.648310 0.011907 0.721542
O O7 0.000000 0.000000 0.500000
O O8 0.794964 0.836308 0.714280
O O9 0.773281 0.486045 0.535037
O O10 0.357407 0.017926 0.940355
O O11 0.841854 0.680045 0.764309
O O12 0.093114 0.519829 0.702929
O O13 0.500000 0.500000 0.500000
O O14 0.737070 0.437007 0.252882
O O15 0.910363 0.015687 0.120867
#
# Coordination Sequence:
#
# PCOD9052073 Si02
#       7
#     2   2   2   2   2   2   2
#     4  11  24  49  76 108 158 188 251 306 367 451
#     4  12  26  44  72 114 147 192 242 304 377 438
#     4  11  25  44  71 107 149 191 237 297 376 441
#     4  12  24  45  73 104 147 189 237 312 365 431
#     4  11  24  43  70 110 144 187 242 297 367 441
#     4  11  26  48  76 107 143 196 257 302 362 447
#     4  10  25  50  76 105 146 205 241 308 365 430
#
# _framework density 22.912714999999999
#
# number of rings (size 3 to 8) (size 9 to 14) (size 15 to 20)
#    0.000    0.857    4.286    1.714    4.000    2.286 
#    2.571    4.286    0.000    0.000    0.000    0.000 
#    0.000    0.000    0.000    0.000    0.000    0.000 
#
# Total GULP energy -78402.486713 kJ/mol
# GULP energy per Si atom -5600.177622 kJ/mol
# Density = 2.286056 g / cm^3
# Si number density = 22.912715 Si / 1000 Ang^3
#
#
#
# Elastic Constant Matrix: (Units=GPa)
#
#
# Indices 1 2 3 4 5 6 
#
# 1 121.5777 45.0218 60.1736 -8.2099 -15.0957 -0.5387
# 2 45.0218 81.0109 29.2030 1.3896 -6.5101 7.5226
# 3 60.1736 29.2030 155.9391 -13.2491 -13.8912 -6.1174
# 4 -8.2099 1.3896 -13.2491 34.4577 2.2588 6.0876
# 5 -15.0957 -6.5101 -13.8912 2.2588 26.2802 -10.1315
# 6 -0.5387 7.5226 -6.1174 6.0876 -10.1315 34.6989
#
#
#
# Elastic Compliance Matrix: (Units=1/GPa)
#
#
# Indices 1 2 3 4 5 6 
#
# 1 0.012599 -0.005682 -0.003174 0.001333 0.004824 0.002043
# 2 -0.005682 0.016247 -0.001262 -0.001723 -0.001261 -0.003899
# 3 -0.003174 -0.001262 0.008393 0.001929 0.002999 0.002241
# 4 0.001333 -0.001723 0.001929 0.031414 -0.003587 -0.005824
# 5 0.004824 -0.001261 0.002999 -0.003587 0.048436 0.015649
# 6 0.002043 -0.003899 0.002241 -0.005824 0.015649 0.035682
#
#
# Mechanical properties :
#
#
# Convention : Reuss Voigt Hill
#
# Bulk Modulus (GPa) = 58.81604 69.70273 64.25939
# Shear Modulus (GPa) = 27.98381 34.02929 31.00655
#
# Velocity S-wave (km/s) = 3.49853 3.85797 3.68264
# Velocity P-wave (km/s) = 6.48421 7.09453 6.79622
#
# Compressibility (1/GPa) = 0.01700216
#
# Stress axis : x y z
#
# Youngs Moduli (GPa) = 79.37427 61.54989 119.14938
#
# Poissons Ratio (x) = 0.34974 0.37821
# Poissons Ratio (y) = 0.45102 0.15032
# Poissons Ratio (z) = 0.25195 0.07765
#
# Static dielectric constant tensor:
#      x y z
#    x 1.859120 0.023260 0.023650 
#    y 0.023260 1.862810 0.016860 
#    z 0.023650 0.016860 1.855680 
# 
# From -- ./inp_files/346301.got.cif
#   From: 2010.05.17/outbox.cif.g08.bks.cpg/sg2_174_cif.got.tgz:346301.got - 2010.06.03 11:33:40.
