data_PCOD9052799
_publ_section_title
;
Structure prediction by ZEFSAII (Michael W. Deem and Ramdas Pophale) SiO2 
 PCOD9052799
Probable space group: P -1
;
_chemical_formula_sum "Si O2"
_cell_formula_units_Z 16
_cell_length_a 8.754256
_cell_length_b 16.037974
_cell_length_c 4.827030
_cell_angle_alpha 82.722355
_cell_angle_beta 78.359448
_cell_angle_gamma 89.485955
_cell_volume 658.335322
_symmetry_space_group_name_H-M "P -1"
_symmetry_group_IT_number 2
_symmetry_cell_setting 'triclinic'
loop_
_space_group_symop_operation_xyz
x,y,z
-x,-y,-z
loop_
_atom_site_type_symbol
_atom_site_label
_atom_site_fract_x
_atom_site_fract_y
_atom_site_fract_z
Si Si1 0.588166 0.590110 0.909612
Si Si2 0.451814 0.113872 0.465716
Si Si3 0.333965 0.921972 0.121941
Si Si4 0.902212 0.200077 0.383178
Si Si5 0.490841 0.298222 0.612104
Si Si6 0.136597 0.059827 0.300810
Si Si7 0.188799 0.700726 0.168904
Si Si8 0.114009 0.509429 0.206304
O O1 0.602795 0.647061 0.154365
O O2 0.503620 0.644576 0.685802
O O3 0.500000 0.500000 0.000000
O O4 0.759401 0.561701 0.783154
O O5 0.531360 0.060226 0.705009
O O6 0.436092 0.206355 0.569793
O O7 0.282044 0.084992 0.434145
O O8 0.575717 0.114392 0.161917
O O9 0.214730 0.861460 0.368940
O O10 0.775953 0.998339 0.932738
O O11 0.653297 0.287764 0.716947
O O12 0.942198 0.269841 0.573557
O O13 0.044420 0.145013 0.238819
O O14 0.826761 0.244823 0.126658
O O15 0.000000 0.000000 0.500000
O O16 0.184003 0.603244 0.138566
O O17 0.000000 0.500000 0.500000
O O18 0.000000 0.500000 0.000000
#
# Coordination Sequence:
#
# PCOD9052799 Si02
#       8
#     2   2   2   2   2   2   2   2
#     4  12  26  47  78 109 146 197 247 303 364 440
#     4  12  25  46  77 111 147 191 250 310 369 435
#     4  11  24  45  76 110 143 191 249 305 368 436
#     4  11  25  44  76 106 145 193 248 294 380 439
#     4  12  26  44  78 111 145 187 257 308 363 426
#     4  10  26  50  75 110 152 196 245 306 370 449
#     4  12  25  46  76 103 148 198 239 308 370 437
#     4  12  28  47  72 110 150 193 245 298 372 444
#
# _framework density 24.303723000000002
#
# number of rings (size 3 to 8) (size 9 to 14) (size 15 to 20)
#    0.000    0.500    2.500    4.875    1.750    5.000 
#    0.000    6.875    0.000    0.000    0.000    0.000 
#    0.000    0.000    0.000    0.000    0.000    0.000 
#
# Total GULP energy -89494.843345 kJ/mol
# GULP energy per Si atom -5593.427709 kJ/mol
# Density = 2.424841 g / cm^3
# Si number density = 24.303723 Si / 1000 Ang^3
#
#
#
# Elastic Constant Matrix: (Units=GPa)
#
#
# Indices 1 2 3 4 5 6 
#
# 1 98.4773 59.3845 60.3456 13.7857 -8.3482 -4.2013
# 2 59.3845 152.8220 51.3305 23.2997 -1.6547 -12.2160
# 3 60.3456 51.3305 167.0069 12.0631 9.8917 -6.6219
# 4 13.7857 23.2997 12.0631 38.5753 -9.8505 6.9823
# 5 -8.3482 -1.6547 9.8917 -9.8505 48.6996 5.5145
# 6 -4.2013 -12.2160 -6.6219 6.9823 5.5145 42.4286
#
#
#
# Elastic Compliance Matrix: (Units=1/GPa)
#
#
# Indices 1 2 3 4 5 6 
#
# 1 0.016122 -0.004685 -0.004599 -0.000432 0.003549 -0.000860
# 2 -0.004685 0.009577 -0.000667 -0.004919 -0.001702 0.003220
# 3 -0.004599 -0.000667 0.008184 -0.001484 -0.002915 0.001253
# 4 -0.000432 -0.004919 -0.001484 0.032930 0.007639 -0.008103
# 5 0.003549 -0.001702 -0.002915 0.007639 0.023781 -0.004942
# 6 -0.000860 0.003220 0.001253 -0.008103 -0.004942 0.026582
#
#
# Mechanical properties :
#
#
# Convention : Reuss Voigt Hill
#
# Bulk Modulus (GPa) = 71.51854 84.49195 78.00524
# Shear Modulus (GPa) = 35.27608 42.42373 38.84991
#
# Velocity S-wave (km/s) = 3.81395 4.18253 4.00248
# Velocity P-wave (km/s) = 6.99184 7.62661 7.31611
#
# Compressibility (1/GPa) = 0.01398239
#
# Stress axis : x y z
#
# Youngs Moduli (GPa) = 62.02576 104.41693 122.18880
#
# Poissons Ratio (x) = 0.48916 0.56192
# Poissons Ratio (y) = 0.29057 0.08150
# Poissons Ratio (z) = 0.28524 0.06964
#
# Static dielectric constant tensor:
#      x y z
#    x 1.907570 0.023120 -0.047070 
#    y 0.023120 2.069950 0.093060 
#    z -0.047070 0.093060 2.041570 
# 
# From -- ./inp_files/44878.got.cif
#   From: 2010.05.17/outbox.cif.g08.bks.cpg/sg2_23_cif.got.tgz:44878.got - 2010.06.03 11:33:40.
