data_PCOD9052362
_publ_section_title
;
Structure prediction by ZEFSAII (Michael W. Deem and Ramdas Pophale) SiO2 
 PCOD9052362
Probable space group: P -1
;
_chemical_formula_sum "Si O2"
_cell_formula_units_Z 12
_cell_length_a 4.809858
_cell_length_b 12.197383
_cell_length_c 8.832417
_cell_angle_alpha 93.693104
_cell_angle_beta 100.610643
_cell_angle_gamma 116.588411
_cell_volume 449.054630
_symmetry_space_group_name_H-M "P -1"
_symmetry_group_IT_number 2
_symmetry_cell_setting 'triclinic'
loop_
_space_group_symop_operation_xyz
x,y,z
-x,-y,-z
loop_
_atom_site_type_symbol
_atom_site_label
_atom_site_fract_x
_atom_site_fract_y
_atom_site_fract_z
Si Si1 0.537330 0.653113 0.086581
Si Si2 0.412176 0.082077 0.214272
Si Si3 0.226194 0.515034 0.757264
Si Si4 0.240835 0.811774 0.053324
Si Si5 0.985791 0.885215 0.582168
Si Si6 0.565244 0.381280 0.513772
O O1 0.579722 0.563190 0.203154
O O2 0.450944 0.756202 0.151059
O O3 0.869240 0.715811 0.031292
O O4 0.260917 0.574811 0.930508
O O5 0.123651 0.099432 0.256910
O O6 0.669943 0.108792 0.374453
O O7 0.285173 0.939817 0.138954
O O8 0.604516 0.161403 0.095863
O O9 0.353968 0.625023 0.656886
O O10 0.881734 0.421372 0.647771
O O11 0.732401 0.749153 0.489204
O O12 0.000000 0.000000 0.500000
O O13 0.500000 0.500000 0.500000
#
# Coordination Sequence:
#
# PCOD9052362 Si02
#       6
#     2   2   2   2   2   2
#     4  11  25  43  76 107 149 193 253 316 374 448
#     4  11  25  47  72 108 147 197 250 308 380 448
#     4  10  26  45  69 111 147 198 246 314 379 449
#     4  11  24  44  76 107 149 194 247 316 379 446
#     4  12  28  48  76 107 151 201 251 310 372 449
#     4  11  27  46  76 106 152 199 253 306 383 449
#
# _framework density 26.722807
#
# number of rings (size 3 to 8) (size 9 to 14) (size 15 to 20)
#    0.000    1.000    0.000    4.500   14.000    5.333 
#    0.000    0.000    0.000    0.000    0.000    0.000 
#    0.000    0.000    0.000    0.000    0.000    0.000 
#
# Total GULP energy -67300.833826 kJ/mol
# GULP energy per Si atom -5608.402819 kJ/mol
# Density = 2.666198 g / cm^3
# Si number density = 26.722807 Si / 1000 Ang^3
#
#
#
# Elastic Constant Matrix: (Units=GPa)
#
#
# Indices 1 2 3 4 5 6 
#
# 1 106.4398 22.7146 26.4107 -3.9895 0.3189 -3.0519
# 2 22.7146 155.4010 49.0730 -7.6005 10.2703 8.8020
# 3 26.4107 49.0730 121.0566 -9.3272 29.1604 12.4848
# 4 -3.9895 -7.6005 -9.3272 48.2668 -5.9747 -7.7507
# 5 0.3189 10.2703 29.1604 -5.9747 47.8556 -0.6240
# 6 -3.0519 8.8020 12.4848 -7.7507 -0.6240 54.8058
#
#
#
# Elastic Compliance Matrix: (Units=1/GPa)
#
#
# Indices 1 2 3 4 5 6 
#
# 1 0.010232 -0.000906 -0.002354 0.000673 0.001663 0.001366
# 2 -0.000906 0.007491 -0.002779 0.000498 0.000147 -0.000548
# 3 -0.002354 -0.002779 0.011752 0.000450 -0.006523 -0.002372
# 4 0.000673 0.000498 0.000450 0.021706 0.002363 0.002952
# 5 0.001663 0.000147 -0.006523 0.002363 0.025152 0.002176
# 6 0.001366 -0.000548 -0.002372 0.002952 0.002176 0.019393
#
#
# Mechanical properties :
#
#
# Convention : Reuss Voigt Hill
#
# Bulk Modulus (GPa) = 57.49065 64.36601 60.92833
# Shear Modulus (GPa) = 44.01286 49.16559 46.58923
#
# Velocity S-wave (km/s) = 4.06275 4.29398 4.17996
# Velocity P-wave (km/s) = 6.60063 6.98020 6.79307
#
# Compressibility (1/GPa) = 0.01739413
#
# Stress axis : x y z
#
# Youngs Moduli (GPa) = 97.73243 133.49707 85.09479
#
# Poissons Ratio (x) = 0.12101 0.20035
# Poissons Ratio (y) = 0.08859 0.23650
# Poissons Ratio (z) = 0.23010 0.37103
#
# Static dielectric constant tensor:
#      x y z
#    x 2.079590 -0.014190 -0.123950 
#    y -0.014190 2.079760 -0.005910 
#    z -0.123950 -0.005910 2.195000 
# 
# From -- ./inp_files/90126.got.cif
#   From: 2010.05.17/outbox.cif.g08.bks.cpg/sg2_46_cif.got.tgz:90126.got - 2010.06.03 11:33:40.
