data_PCOD9052812
_publ_section_title
;
Structure prediction by ZEFSAII (Michael W. Deem and Ramdas Pophale) SiO2 
 PCOD9052812
Probable space group: P -1
;
_chemical_formula_sum "Si O2"
_cell_formula_units_Z 15
_cell_length_a 12.421455
_cell_length_b 7.179618
_cell_length_c 14.120010
_cell_angle_alpha 120.531312
_cell_angle_beta 135.636207
_cell_angle_gamma 87.390365
_cell_volume 644.336214
_symmetry_space_group_name_H-M "P -1"
_symmetry_group_IT_number 2
_symmetry_cell_setting 'triclinic'
loop_
_space_group_symop_operation_xyz
x,y,z
-x,-y,-z
loop_
_atom_site_type_symbol
_atom_site_label
_atom_site_fract_x
_atom_site_fract_y
_atom_site_fract_z
Si Si1 0.281179 0.009590 0.538582
Si Si2 0.825488 0.425817 0.308281
Si Si3 0.000000 0.000000 0.500000
Si Si4 0.636346 0.048366 0.746065
Si Si5 0.574787 0.432036 0.300229
Si Si6 0.832669 0.376472 0.790805
Si Si7 0.192927 0.938876 0.961675
Si Si8 0.208959 0.291070 0.307105
O O1 0.147549 0.954158 0.526011
O O2 0.440873 0.956528 0.640422
O O3 0.384338 0.304909 0.651780
O O4 0.166359 0.828435 0.331843
O O5 0.657275 0.324605 0.248431
O O6 0.000000 0.500000 0.500000
O O7 0.806768 0.221532 0.168077
O O8 0.867659 0.688406 0.355458
O O9 0.667039 0.220020 0.718570
O O10 0.678102 0.836814 0.683119
O O11 0.774852 0.179425 0.953855
O O12 0.693940 0.530260 0.495887
O O13 0.365234 0.224319 0.134348
O O14 0.806745 0.563038 0.755479
O O15 0.000000 0.500000 0.000000
O O16 0.999181 0.910109 0.845264
#
# Coordination Sequence:
#
# PCOD9052812 Si02
#       8
#     2   2   1   2   2   2   2   2
#     4  11  26  51  73 113 151 201 254 317 383 443
#     4  11  24  50  77 108 148 199 249 317 381 439
#     4  10  26  50  80 104 146 196 252 312 382 440
#     4  12  28  47  73 110 157 198 252 308 378 454
#     4  11  26  48  79 110 153 202 255 316 377 457
#     4  12  26  45  76 110 156 200 254 308 376 458
#     4  12  26  47  78 113 150 200 259 305 382 456
#     4  12  26  50  74 111 156 204 247 315 384 444
#
# _framework density 23.279772000000001
#
# number of rings (size 3 to 8) (size 9 to 14) (size 15 to 20)
#    0.000    0.533    4.000    2.800    3.733    1.067 
#    2.400    1.333    0.000    0.000    0.000    0.000 
#    0.000    0.000    0.000    0.000    0.000    0.000 
#
# Total GULP energy -83726.377575 kJ/mol
# GULP energy per Si atom -5581.758505 kJ/mol
# Density = 2.322679 g / cm^3
# Si number density = 23.279772 Si / 1000 Ang^3
#
#
#
# Elastic Constant Matrix: (Units=GPa)
#
#
# Indices 1 2 3 4 5 6 
#
# 1 199.9939 53.7730 57.6723 -3.1964 26.6879 -15.6553
# 2 53.7730 90.4571 39.6248 -0.7541 16.3622 2.7126
# 3 57.6723 39.6248 130.4952 -2.3967 10.2583 -1.8033
# 4 -3.1964 -0.7541 -2.3967 29.5866 6.3982 6.1142
# 5 26.6879 16.3622 10.2583 6.3982 48.7732 -1.6829
# 6 -15.6553 2.7126 -1.8033 6.1142 -1.6829 29.1238
#
#
#
# Elastic Compliance Matrix: (Units=1/GPa)
#
#
# Indices 1 2 3 4 5 6 
#
# 1 0.006963 -0.002984 -0.001934 0.000251 -0.002307 0.003715
# 2 -0.002984 0.014785 -0.002963 0.001202 -0.002985 -0.003589
# 3 -0.001934 -0.002963 0.009424 0.000542 -0.000011 -0.000294
# 4 0.000251 0.001202 0.000542 0.036799 -0.005758 -0.008002
# 5 -0.002307 -0.002985 -0.000011 -0.005758 0.023580 0.001609
# 6 0.003715 -0.003589 -0.000294 -0.008002 0.001609 0.038422
#
#
# Mechanical properties :
#
#
# Convention : Reuss Voigt Hill
#
# Bulk Modulus (GPa) = 64.89603 80.34293 72.61948
# Shear Modulus (GPa) = 33.14060 39.48847 36.31454
#
# Velocity S-wave (km/s) = 3.77713 4.12303 3.95386
# Velocity P-wave (km/s) = 6.85269 7.56655 7.21845
#
# Compressibility (1/GPa) = 0.01540926
#
# Stress axis : x y z
#
# Youngs Moduli (GPa) = 143.62077 67.63791 106.10781
#
# Poissons Ratio (x) = 0.20183 0.20519
# Poissons Ratio (y) = 0.42857 0.31444
# Poissons Ratio (z) = 0.27774 0.20044
#
# Static dielectric constant tensor:
#      x y z
#    x 1.867550 0.012390 0.017990 
#    y 0.012390 1.922950 0.041430 
#    z 0.017990 0.041430 1.924840 
# 
# From -- ./inp_files/565239.got.cif
#   From: 2010.05.17/outbox.cif.g08.bks.cpg/sg2_283_cif.got.tgz:565239.got - 2010.06.03 11:33:40.
