data_PCOD9052115
_publ_section_title
;
Structure prediction by ZEFSAII (Michael W. Deem and Ramdas Pophale) SiO2 
 PCOD9052115
Probable space group: P -1
;
_chemical_formula_sum "Si O2"
_cell_formula_units_Z 14
_cell_length_a 18.620832
_cell_length_b 5.174020
_cell_length_c 5.975461
_cell_angle_alpha 86.066734
_cell_angle_beta 72.281802
_cell_angle_gamma 103.343552
_cell_volume 527.569994
_symmetry_space_group_name_H-M "P -1"
_symmetry_group_IT_number 2
_symmetry_cell_setting 'triclinic'
loop_
_space_group_symop_operation_xyz
x,y,z
-x,-y,-z
loop_
_atom_site_type_symbol
_atom_site_label
_atom_site_fract_x
_atom_site_fract_y
_atom_site_fract_z
Si Si1 0.596228 0.323869 0.029121
Si Si2 0.087917 0.471194 0.917151
Si Si3 0.077970 0.000297 0.303635
Si Si4 0.188027 0.367384 0.473025
Si Si5 0.197536 0.790821 0.075641
Si Si6 0.583988 0.848439 0.732039
Si Si7 0.310778 0.288762 0.725829
O O1 0.508486 0.190236 0.209191
O O2 0.649830 0.444572 0.184830
O O3 0.613505 0.108128 0.849358
O O4 0.593640 0.588706 0.874856
O O5 0.106342 0.398877 0.649317
O O6 0.176541 0.669016 0.855539
O O7 0.000000 0.500000 0.000000
O O8 0.087227 0.207819 0.080204
O O9 0.100811 0.742855 0.200619
O O10 0.154065 0.090973 0.385030
O O11 0.000000 0.000000 0.500000
O O12 0.218937 0.598617 0.248009
O O13 0.252520 0.333696 0.585626
O O14 0.259212 0.069708 0.957202
O O15 0.626688 0.834195 0.456669
#
# Coordination Sequence:
#
# PCOD9052115 Si02
#       7
#     2   2   2   2   2   2   2
#     4  10  25  51  82 121 158 212 270 321 401 500
#     4  11  24  43  71 103 140 201 264 323 401 475
#     4  11  24  45  70  99 143 195 258 322 389 470
#     4  11  27  46  67 105 149 195 260 326 399 465
#     4  11  27  46  67 105 149 195 261 326 394 476
#     4  10  25  51  83 117 164 209 265 330 400 487
#     4  12  27  48  79 116 159 211 259 333 410 476
#
# _framework density 26.536763000000001
#
# number of rings (size 3 to 8) (size 9 to 14) (size 15 to 20)
#    0.000    1.143    1.429    2.143    6.000    8.000 
#    0.000    4.286    0.000    2.571    0.000    0.000 
#    0.000    0.000    0.000    0.000    0.000    0.000 
#
# Total GULP energy -78238.688067 kJ/mol
# GULP energy per Si atom -5588.477719 kJ/mol
# Density = 2.647636 g / cm^3
# Si number density = 26.536763 Si / 1000 Ang^3
#
#
#
# Elastic Constant Matrix: (Units=GPa)
#
#
# Indices 1 2 3 4 5 6 
#
# 1 114.2901 41.1863 47.9799 7.1333 -0.6655 32.5166
# 2 41.1863 59.6010 2.4343 -37.8396 5.8783 25.4386
# 3 47.9799 2.4343 65.0618 -15.9664 -15.4722 20.0131
# 4 7.1333 -37.8396 -15.9664 7.3691 -15.8304 5.3846
# 5 -0.6655 5.8783 -15.4722 -15.8304 68.1163 14.3941
# 6 32.5166 25.4386 20.0131 5.3846 14.3941 54.0552
#
#
#
# Elastic Compliance Matrix: (Units=1/GPa)
#
#
# Indices 1 2 3 4 5 6 
#
# 1 0.010733 0.002138 -0.002150 0.009698 0.003495 -0.008564
# 2 0.002138 0.004142 -0.008592 -0.016871 -0.006943 0.003475
# 3 -0.002150 -0.008592 0.013403 -0.013837 0.000189 0.001703
# 4 0.009698 -0.016871 -0.013837 -0.011152 -0.006301 0.010018
# 5 0.003495 -0.006943 0.000189 -0.006301 0.014335 -0.002095
# 6 -0.008564 0.003475 0.001703 0.010018 -0.002095 0.020945
#
#
# Mechanical properties :
#
#
# Convention : Reuss Voigt Hill
#
# Bulk Modulus (GPa) = 90.33106 46.90600 68.61853
# Shear Modulus (GPa) = 68.20907 35.73161 51.97034
#
# Velocity S-wave (km/s) = 5.07537 3.67344 4.43021
# Velocity P-wave (km/s) = 8.27404 5.97549 7.21686
#
# Compressibility (1/GPa) = 0.01107039
#
# Stress axis : x y z
#
# Youngs Moduli (GPa) = 93.16924 241.41574 74.61289
#
# Poissons Ratio (x) = -0.51619 0.16041
# Poissons Ratio (y) = -0.19921 0.64108
# Poissons Ratio (z) = 0.20030 2.07426
#
# Static dielectric constant tensor:
#      x y z
#    x 2.381380 0.079770 0.082960 
#    y 0.079770 2.218540 0.141350 
#    z 0.082960 0.141350 2.093280 
# 
# From -- ./inp_files/114430.got.cif
#   From: 2010.05.17/outbox.cif.g08.bks.cpg/sg2_58_cif.got.tgz:114430.got - 2010.06.03 11:33:40.
