data_PCOD9052020
_publ_section_title
;
Structure prediction by ZEFSAII (Michael W. Deem and Ramdas Pophale) SiO2 
 PCOD9052020
Probable space group: P -1
;
_chemical_formula_sum "Si O2"
_cell_formula_units_Z 10
_cell_length_a 4.928616
_cell_length_b 9.371131
_cell_length_c 10.880422
_cell_angle_alpha 72.714741
_cell_angle_beta 126.048985
_cell_angle_gamma 80.274383
_cell_volume 347.363325
_symmetry_space_group_name_H-M "P -1"
_symmetry_group_IT_number 2
_symmetry_cell_setting 'triclinic'
loop_
_space_group_symop_operation_xyz
x,y,z
-x,-y,-z
loop_
_atom_site_type_symbol
_atom_site_label
_atom_site_fract_x
_atom_site_fract_y
_atom_site_fract_z
Si Si1 0.296615 0.675556 0.978292
Si Si2 0.715523 0.615319 0.517825
Si Si3 0.569419 0.130728 0.839169
Si Si4 0.459863 0.412451 0.261144
Si Si5 0.172615 0.916765 0.699018
O O1 0.545412 0.750291 0.100822
O O2 0.190247 0.593663 0.089442
O O3 0.500000 0.500000 0.000000
O O4 0.013165 0.842469 0.786402
O O5 0.500000 0.500000 0.500000
O O6 0.483662 0.761942 0.325600
O O7 0.691612 0.647970 0.647995
O O8 0.145439 0.577029 0.610268
O O9 0.318077 0.035534 0.773104
O O10 0.000000 0.000000 0.000000
O O11 0.541669 0.265453 0.224752
O O12 0.000000 0.000000 0.500000
#
# Coordination Sequence:
#
# PCOD9052020 Si02
#       5
#     2   2   2   2   2
#     4  10  25  49  76 112 160 211 267 327 401 486
#     4  12  26  47  82 115 161 210 275 328 405 483
#     4  12  28  46  79 121 160 213 269 343 404 483
#     4  11  26  49  79 115 159 215 265 334 401 490
#     4  11  25  47  76 116 165 205 266 335 410 475
#
# _framework density 28.788302999999999
#
# number of rings (size 3 to 8) (size 9 to 14) (size 15 to 20)
#    0.000    0.800    4.000    1.200    5.600    4.000 
#    0.000    7.000    0.000    0.000    0.000    0.000 
#    0.000    0.000    0.000    0.000    0.000    0.000 
#
# Total GULP energy -55792.520836 kJ/mol
# GULP energy per Si atom -5579.252084 kJ/mol
# Density = 2.872278 g / cm^3
# Si number density = 28.788303 Si / 1000 Ang^3
#
#
#
# Elastic Constant Matrix: (Units=GPa)
#
#
# Indices 1 2 3 4 5 6 
#
# 1 147.3021 54.5097 69.7000 -8.3612 -12.3923 28.9804
# 2 54.5097 232.2110 94.5013 10.0599 -6.5920 60.1958
# 3 69.7000 94.5013 211.5385 -46.0349 -7.4564 40.3008
# 4 -8.3612 10.0599 -46.0349 65.1369 23.9798 4.4510
# 5 -12.3923 -6.5920 -7.4564 23.9798 65.5134 0.7653
# 6 28.9804 60.1958 40.3008 4.4510 0.7653 53.0420
#
#
#
# Elastic Compliance Matrix: (Units=1/GPa)
#
#
# Indices 1 2 3 4 5 6 
#
# 1 0.008607 -0.000320 -0.002375 -0.000987 0.001716 -0.002476
# 2 -0.000320 0.007097 -0.002631 -0.003197 0.001590 -0.005634
# 3 -0.002375 -0.002631 0.008773 0.007381 -0.002383 -0.002967
# 4 -0.000987 -0.003197 0.007381 0.024304 -0.008525 -0.003358
# 5 0.001716 0.001590 -0.002383 -0.008525 0.018603 -0.000484
# 6 -0.002476 -0.005634 -0.002967 -0.003358 -0.000484 0.029143
#
#
# Mechanical properties :
#
#
# Convention : Reuss Voigt Hill
#
# Bulk Modulus (GPa) = 72.34367 114.27487 93.30927
# Shear Modulus (GPa) = 44.72775 61.56117 53.14446
#
# Velocity S-wave (km/s) = 3.94595 4.62931 4.30122
# Velocity P-wave (km/s) = 6.77826 8.26771 7.55976
#
# Compressibility (1/GPa) = 0.01382291
#
# Stress axis : x y z
#
# Youngs Moduli (GPa) = 116.18844 140.91363 113.98802
#
# Poissons Ratio (x) = 0.04515 0.27075
# Poissons Ratio (y) = 0.03723 0.29990
# Poissons Ratio (z) = 0.27598 0.37074
#
# Static dielectric constant tensor:
#      x y z
#    x 2.848600 -0.141380 -0.283850 
#    y -0.141380 2.305300 0.167990 
#    z -0.283850 0.167990 2.510260 
# 
# From -- ./inp_files/359368.got.cif
#   From: 2010.05.17/outbox.cif.g08.bks.cpg/sg2_180_cif.got.tgz:359368.got - 2010.06.03 11:33:40.
