data_PCOD9052071
_publ_section_title
;
Structure prediction by ZEFSAII (Michael W. Deem and Ramdas Pophale) SiO2 
 PCOD9052071
Probable space group: P -1
;
_chemical_formula_sum "Si O2"
_cell_formula_units_Z 13
_cell_length_a 8.801774
_cell_length_b 7.334153
_cell_length_c 9.997875
_cell_angle_alpha 68.755785
_cell_angle_beta 94.067744
_cell_angle_gamma 53.465368
_cell_volume 446.529888
_symmetry_space_group_name_H-M "P -1"
_symmetry_group_IT_number 2
_symmetry_cell_setting 'triclinic'
loop_
_space_group_symop_operation_xyz
x,y,z
-x,-y,-z
loop_
_atom_site_type_symbol
_atom_site_label
_atom_site_fract_x
_atom_site_fract_y
_atom_site_fract_z
Si Si1 0.139263 0.664524 0.671994
Si Si2 0.025098 0.564058 0.175287
Si Si3 0.728025 0.448110 0.591746
Si Si4 0.551636 0.895631 0.817640
Si Si5 0.500000 0.500000 0.000000
Si Si6 0.726206 0.120624 0.880624
Si Si7 0.307669 0.903089 0.593053
O O1 0.246046 0.569599 0.559405
O O2 0.563683 0.090123 0.841519
O O3 0.249463 0.759814 0.720758
O O4 0.900345 0.893849 0.555494
O O5 0.102703 0.560308 0.327096
O O6 0.224347 0.316847 0.177692
O O7 0.865502 0.524783 0.191085
O O8 0.916970 0.838335 0.025723
O O9 0.772204 0.198209 0.726353
O O10 0.502267 0.696654 0.565399
O O11 0.377824 0.022564 0.657687
O O12 0.509949 0.733265 0.937556
O O13 0.345974 0.650232 0.082551
#
# Coordination Sequence:
#
# PCOD9052071 Si02
#       7
#     2   2   2   2   1   2   2
#     4  11  26  48  82 115 161 219 261 338 398 480
#     4  11  26  50  77 122 161 209 273 330 405 479
#     4  11  25  50  77 117 159 216 265 336 394 483
#     4  11  27  47  80 119 161 213 267 338 400 479
#     4  12  26  50  74 118 156 212 260 326 410 464
#     4  12  27  49  83 118 161 207 267 338 402 477
#     4  10  25  50  75 114 162 208 276 322 401 482
#
# _framework density 29.113394
#
# number of rings (size 3 to 8) (size 9 to 14) (size 15 to 20)
#    0.000    0.923    3.077    2.308    8.615    3.692 
#    5.538    0.000    0.000    0.000    0.000    0.000 
#    0.000    0.000    0.000    0.000    0.000    0.000 
#
# Total GULP energy -72883.100614 kJ/mol
# GULP energy per Si atom -5606.392355 kJ/mol
# Density = 2.904713 g / cm^3
# Si number density = 29.113394 Si / 1000 Ang^3
#
#
#
# Elastic Constant Matrix: (Units=GPa)
#
#
# Indices 1 2 3 4 5 6 
#
# 1 188.7404 53.2638 59.6293 4.7381 9.8097 1.7705
# 2 53.2638 138.7539 59.4545 8.9480 21.5699 2.3526
# 3 59.6293 59.4545 107.0180 -16.2967 17.2395 1.3409
# 4 4.7381 8.9480 -16.2967 58.6825 0.2873 10.9504
# 5 9.8097 21.5699 17.2395 0.2873 76.7689 3.1629
# 6 1.7705 2.3526 1.3409 10.9504 3.1629 56.1188
#
#
#
# Elastic Compliance Matrix: (Units=1/GPa)
#
#
# Indices 1 2 3 4 5 6 
#
# 1 0.006687 -0.001070 -0.003371 -0.001345 0.000201 0.000165
# 2 -0.001070 0.010354 -0.005373 -0.003054 -0.001571 0.000413
# 3 -0.003371 -0.005373 0.015302 0.005541 -0.001474 -0.001032
# 4 -0.001345 -0.003054 0.005541 0.019869 -0.000131 -0.003832
# 5 0.000201 -0.001571 -0.001474 -0.000131 0.013800 -0.000658
# 6 0.000165 0.000413 -0.001032 -0.003832 -0.000658 0.018606
#
#
# Mechanical properties :
#
#
# Convention : Reuss Voigt Hill
#
# Bulk Modulus (GPa) = 78.64807 86.57860 82.61333
# Shear Modulus (GPa) = 46.08913 55.79168 50.94041
#
# Velocity S-wave (km/s) = 3.98312 4.38237 4.18751
# Velocity P-wave (km/s) = 6.94455 7.44378 7.19849
#
# Compressibility (1/GPa) = 0.01271487
#
# Stress axis : x y z
#
# Youngs Moduli (GPa) = 149.54621 96.57726 65.35251
#
# Poissons Ratio (x) = 0.10334 0.22028
# Poissons Ratio (y) = 0.16001 0.35116
# Poissons Ratio (z) = 0.50407 0.51894
#
# Static dielectric constant tensor:
#      x y z
#    x 2.577180 0.082690 1.693750 
#    y 0.082690 2.225340 0.102110 
#    z 1.693750 0.102110 11.599280 
# 
# From -- ./inp_files/465310.got.cif
#   From: 2010.05.17/outbox.cif.g08.bks.cpg/sg2_233_cif.got.tgz:465310.got - 2010.06.03 11:33:40.
