data_PCOD9052956
_publ_section_title
;
Structure prediction by ZEFSAII (Michael W. Deem and Ramdas Pophale) SiO2 
 PCOD9052956
Probable space group: P -1
;
_chemical_formula_sum "Si O2"
_cell_formula_units_Z 16
_cell_length_a 12.766132
_cell_length_b 8.221303
_cell_length_c 17.606508
_cell_angle_alpha 27.980717
_cell_angle_beta 130.520934
_cell_angle_gamma 127.162662
_cell_volume 656.665359
_symmetry_space_group_name_H-M "P -1"
_symmetry_group_IT_number 2
_symmetry_cell_setting 'triclinic'
loop_
_space_group_symop_operation_xyz
x,y,z
-x,-y,-z
loop_
_atom_site_type_symbol
_atom_site_label
_atom_site_fract_x
_atom_site_fract_y
_atom_site_fract_z
Si Si1 0.759231 0.390096 0.292982
Si Si2 0.279020 0.991383 0.729577
Si Si3 0.625511 0.875050 0.712667
Si Si4 0.480417 0.189708 0.991083
Si Si5 0.837912 0.239972 0.854200
Si Si6 0.382873 0.245942 0.418987
Si Si7 0.942455 0.626750 0.591444
Si Si8 0.867321 0.660852 0.998839
O O1 0.725630 0.177588 0.286662
O O2 0.678162 0.735986 0.107450
O O3 0.922108 0.489042 0.337526
O O4 0.703340 0.115199 0.445128
O O5 0.190203 0.321139 0.544027
O O6 0.435764 0.008733 0.825377
O O7 0.192071 0.735652 0.853428
O O8 0.554345 0.580640 0.856860
O O9 0.604798 0.755709 0.665355
O O10 0.785568 0.857619 0.815338
O O11 0.535625 0.206109 0.542243
O O12 0.500000 0.000000 0.000000
O O13 0.704165 0.435182 0.730399
O O14 0.897144 0.417114 0.731117
O O15 0.824702 0.844347 0.982356
O O16 0.967553 0.303039 0.946006
O O17 0.000000 0.000000 0.500000
#
# Coordination Sequence:
#
# PCOD9052956 Si02
#       8
#     2   2   2   2   2   2   2   2
#     4  10  18  35  62  81 110 148 185 229 281 323
#     4  10  18  37  62  83 111 145 186 230 281 329
#     4   9  22  40  55  77 118 152 182 222 283 338
#     4  10  22  38  56  84 113 146 186 229 278 333
#     4  11  20  35  60  87 112 142 191 233 272 326
#     4  10  19  38  58  79 110 154 186 224 274 335
#     4  10  17  35  58  86 109 143 185 233 275 328
#     4  10  21  36  56  87 117 141 181 238 279 326
#
# _framework density 24.365532000000002
#
# number of rings (size 3 to 8) (size 9 to 14) (size 15 to 20)
#    0.000    2.000    5.000    0.375    0.000    2.000 
#    6.750    0.625    0.000    0.000    0.000    0.000 
#    0.000    0.000    0.000    0.000    0.000    0.000 
#
# Total GULP energy -89399.288826 kJ/mol
# GULP energy per Si atom -5587.455552 kJ/mol
# Density = 2.431007 g / cm^3
# Si number density = 24.365532 Si / 1000 Ang^3
#
#
#
# Elastic Constant Matrix: (Units=GPa)
#
#
# Indices 1 2 3 4 5 6 
#
# 1 90.1683 11.1082 55.0462 16.3041 30.2458 17.4715
# 2 11.1082 26.7975 32.3185 16.0257 18.4735 17.0678
# 3 55.0462 32.3185 190.2505 38.8036 46.1389 22.4188
# 4 16.3041 16.0257 38.8036 36.1280 16.4889 5.2779
# 5 30.2458 18.4735 46.1389 16.4889 59.4526 1.0569
# 6 17.4715 17.0678 22.4188 5.2779 1.0569 27.4807
#
#
#
# Elastic Compliance Matrix: (Units=1/GPa)
#
#
# Indices 1 2 3 4 5 6 
#
# 1 0.019603 0.021647 -0.002230 -0.007043 -0.012619 -0.022250
# 2 0.021647 0.137150 -0.001670 -0.037404 -0.040379 -0.088845
# 3 -0.002230 -0.001670 0.008487 -0.005335 -0.003394 -0.003313
# 4 -0.007043 -0.037404 -0.005335 0.047180 0.005856 0.022774
# 5 -0.012619 -0.040379 -0.003394 0.005856 0.036204 0.033354
# 6 -0.022250 -0.088845 -0.003313 0.022774 0.033354 0.102761
#
#
# Mechanical properties :
#
#
# Convention : Reuss Voigt Hill
#
# Bulk Modulus (GPa) = 4.98176 56.01801 30.49989
# Shear Modulus (GPa) = 13.06153 38.52849 25.79501
#
# Velocity S-wave (km/s) = 2.31782 3.98083 3.25725
# Velocity P-wave (km/s) = 3.03514 6.64605 5.16634
#
# Compressibility (1/GPa) = 0.20073210
#
# Stress axis : x y z
#
# Youngs Moduli (GPa) = 51.01279 7.29128 117.82798
#
# Poissons Ratio (x) = -0.15783 0.26278
# Poissons Ratio (y) = -1.10426 0.19683
# Poissons Ratio (z) = 0.11377 0.01218
#
# Static dielectric constant tensor:
#      x y z
#    x 1.960180 0.064000 0.030090 
#    y 0.064000 1.992640 -0.045720 
#    z 0.030090 -0.045720 2.034700 
# 
# From -- ./inp_files/312477.got.cif
#   From: 2010.05.17/outbox.cif.g08.bks.cpg/sg2_157_cif.got.tgz:312477.got - 2010.06.03 11:33:40.
