data_PCOD9052202
_publ_section_title
;
Structure prediction by ZEFSAII (Michael W. Deem and Ramdas Pophale) SiO2 
 PCOD9052202
Probable space group: P -1
;
_chemical_formula_sum "Si O2"
_cell_formula_units_Z 13
_cell_length_a 14.461624
_cell_length_b 9.311414
_cell_length_c 9.245791
_cell_angle_alpha 114.090773
_cell_angle_beta 124.358071
_cell_angle_gamma 30.281981
_cell_volume 508.812954
_symmetry_space_group_name_H-M "P -1"
_symmetry_group_IT_number 2
_symmetry_cell_setting 'triclinic'
loop_
_space_group_symop_operation_xyz
x,y,z
-x,-y,-z
loop_
_atom_site_type_symbol
_atom_site_label
_atom_site_fract_x
_atom_site_fract_y
_atom_site_fract_z
Si Si1 0.351035 0.826404 0.257318
Si Si2 0.737766 0.238859 0.449271
Si Si3 0.385027 0.296757 0.981920
Si Si4 0.244693 0.921582 0.887067
Si Si5 0.500000 0.000000 0.500000
Si Si6 0.200230 0.518720 0.224040
Si Si7 0.992392 0.689581 0.621450
O O1 0.488343 0.543885 0.355102
O O2 0.476881 0.840795 0.363935
O O3 0.147939 0.120151 0.283111
O O4 0.300327 0.809545 0.052705
O O5 0.780044 0.191257 0.294661
O O6 0.803872 0.308009 0.629972
O O7 0.865204 0.938128 0.492567
O O8 0.220943 0.472141 0.778872
O O9 0.570332 0.193704 0.061420
O O10 0.258143 0.479444 0.092623
O O11 0.500000 0.000000 0.000000
O O12 0.031442 0.269471 0.861861
O O13 0.366749 0.214963 0.327437
O O14 0.000000 0.500000 0.500000
#
# Coordination Sequence:
#
# PCOD9052202 Si02
#       7
#     2   2   2   2   1   2   2
#     4  11  26  50  78 113 161 203 260 329 393 461
#     4  11  28  49  82 114 154 210 267 319 396 469
#     4  12  29  48  79 118 160 205 266 320 396 467
#     4  12  27  49  80 114 157 206 263 321 393 464
#     4  10  26  42  80 108 150 208 258 304 400 454
#     4  11  27  53  76 117 159 209 255 333 383 466
#     4  12  29  50  80 115 157 210 264 325 392 470
#
# _framework density 25.549662999999999
#
# number of rings (size 3 to 8) (size 9 to 14) (size 15 to 20)
#    0.000    0.615    1.538    3.231   17.231    5.538 
#    0.000    0.769    0.000    0.000    0.000    0.000 
#    0.000    0.000    0.000    0.000    0.000    0.000 
#
# Total GULP energy -72567.319642 kJ/mol
# GULP energy per Si atom -5582.101511 kJ/mol
# Density = 2.549151 g / cm^3
# Si number density = 25.549663 Si / 1000 Ang^3
#
#
#
# Elastic Constant Matrix: (Units=GPa)
#
#
# Indices 1 2 3 4 5 6 
#
# 1 98.3274 72.7712 55.9652 -2.4976 -6.2172 -21.5561
# 2 72.7712 145.5450 59.5246 -15.6625 1.2337 -4.7740
# 3 55.9652 59.5246 167.0872 -6.9907 -13.8187 -9.4516
# 4 -2.4976 -15.6625 -6.9907 40.3915 4.8545 -18.3140
# 5 -6.2172 1.2337 -13.8187 4.8545 30.6661 -2.0318
# 6 -21.5561 -4.7740 -9.4516 -18.3140 -2.0318 51.1286
#
#
#
# Elastic Compliance Matrix: (Units=1/GPa)
#
#
# Indices 1 2 3 4 5 6 
#
# 1 0.020022 -0.008565 -0.002935 0.000320 0.003518 0.007354
# 2 -0.008565 0.012228 -0.001735 0.003610 -0.003690 -0.001643
# 3 -0.002935 -0.001735 0.007860 0.000268 0.002992 0.000269
# 4 0.000320 0.003610 0.000268 0.032111 -0.004257 0.011855
# 5 0.003518 -0.003690 0.002992 -0.004257 0.035598 0.001581
# 6 0.007354 -0.001643 0.000269 0.011855 0.001581 0.026864
#
#
# Mechanical properties :
#
#
# Convention : Reuss Voigt Hill
#
# Bulk Modulus (GPa) = 73.30507 87.49796 80.40152
# Shear Modulus (GPa) = 30.17541 39.28380 34.72961
#
# Velocity S-wave (km/s) = 3.44037 3.92541 3.69087
# Velocity P-wave (km/s) = 6.67346 7.40714 7.04985
#
# Compressibility (1/GPa) = 0.01364162
#
# Stress axis : x y z
#
# Youngs Moduli (GPa) = 49.94576 81.77737 127.23023
#
# Poissons Ratio (x) = 0.70039 0.37339
# Poissons Ratio (y) = 0.42776 0.22072
# Poissons Ratio (z) = 0.14658 0.14187
#
# Static dielectric constant tensor:
#      x y z
#    x 2.084400 -0.045670 0.022700 
#    y -0.045670 2.006090 -0.001090 
#    z 0.022700 -0.001090 2.000780 
# 
# From -- ./inp_files/299317.got.cif
#   From: 2010.05.17/outbox.cif.g08.bks.cpg/sg2_150_cif.got.tgz:299317.got - 2010.06.03 11:33:40.
