data_PCOD9052558
_publ_section_title
;
Structure prediction by ZEFSAII (Michael W. Deem and Ramdas Pophale) SiO2 
 PCOD9052558
Probable space group: P -1
;
_chemical_formula_sum "Si O2"
_cell_formula_units_Z 16
_cell_length_a 11.349761
_cell_length_b 20.758514
_cell_length_c 17.590561
_cell_angle_alpha 19.099223
_cell_angle_beta 29.606887
_cell_angle_gamma 30.749480
_cell_volume 651.354117
_symmetry_space_group_name_H-M "P -1"
_symmetry_group_IT_number 2
_symmetry_cell_setting 'triclinic'
loop_
_space_group_symop_operation_xyz
x,y,z
-x,-y,-z
loop_
_atom_site_type_symbol
_atom_site_label
_atom_site_fract_x
_atom_site_fract_y
_atom_site_fract_z
Si Si1 0.623167 0.829852 0.782864
Si Si2 0.778731 0.489428 0.844691
Si Si3 0.257424 0.053856 0.626211
Si Si4 0.979127 0.893163 0.766222
Si Si5 0.516877 0.345852 0.785606
Si Si6 0.001105 0.544150 0.040113
Si Si7 0.884758 0.585971 0.388212
Si Si8 0.740740 0.001620 0.927769
O O1 0.747257 0.622756 0.897033
O O2 0.362289 0.946695 0.764772
O O3 0.826094 0.966200 0.507925
O O4 0.558703 0.778608 0.961861
O O5 0.824878 0.707843 0.585969
O O6 0.863861 0.428548 0.781085
O O7 0.500000 0.500000 0.000000
O O8 0.926046 0.319256 0.006335
O O9 0.500000 0.000000 0.500000
O O10 0.031002 0.993173 0.783030
O O11 0.739410 0.988541 0.848872
O O12 0.977109 0.780141 0.811697
O O13 0.256700 0.497808 0.739691
O O14 0.721302 0.448592 0.592368
O O15 0.605677 0.204464 0.821133
O O16 0.000000 0.500000 0.000000
O O17 0.000000 0.500000 0.500000
O O18 0.724581 0.811735 0.204215
#
# Coordination Sequence:
#
# PCOD9052558 Si02
#       8
#     2   2   2   2   2   2   2   2
#     4  11  24  43  73 100 135 186 233 280 339 407
#     4  11  22  40  67 104 138 173 226 278 336 409
#     4  12  20  39  68 102 139 170 218 282 338 407
#     4  11  24  43  69 102 133 178 237 281 339 412
#     4  11  26  46  66 100 143 181 228 290 338 406
#     4  10  26  47  68  97 135 184 238 284 336 400
#     4  11  25  43  66 102 144 178 222 275 348 412
#     4  11  25  42  68 104 139 177 225 283 355 405
#
# _framework density 24.564211
#
# number of rings (size 3 to 8) (size 9 to 14) (size 15 to 20)
#    0.000    1.000    3.750    2.250    1.750    8.500 
#    0.000    4.375    0.000    0.000    0.000    0.000 
#    0.000    0.000    0.000    0.000    0.000    0.000 
#
# Total GULP energy -89203.865396 kJ/mol
# GULP energy per Si atom -5575.241587 kJ/mol
# Density = 2.450830 g / cm^3
# Si number density = 24.564211 Si / 1000 Ang^3
#
#
#
# Elastic Constant Matrix: (Units=GPa)
#
#
# Indices 1 2 3 4 5 6 
#
# 1 67.0258 2.9579 7.0138 -7.1458 -4.3785 4.3771
# 2 2.9579 128.4309 23.3957 -2.2706 -1.8414 21.6526
# 3 7.0138 23.3957 67.8376 -14.4152 -5.5262 6.7778
# 4 -7.1458 -2.2706 -14.4152 37.4251 5.7568 -3.1595
# 5 -4.3785 -1.8414 -5.5262 5.7568 41.5490 -10.2052
# 6 4.3771 21.6526 6.7778 -3.1595 -10.2052 29.3225
#
#
#
# Elastic Compliance Matrix: (Units=1/GPa)
#
#
# Indices 1 2 3 4 5 6 
#
# 1 0.015419 0.000147 -0.000917 0.002339 0.000773 -0.001677
# 2 0.000147 0.009444 -0.002886 -0.000861 -0.001539 -0.006957
# 3 -0.000917 -0.002886 0.017280 0.006084 0.001058 -0.000703
# 4 0.002339 -0.000861 0.006084 0.029992 -0.002864 0.001115
# 5 0.000773 -0.001539 0.001058 -0.002864 0.027046 0.009881
# 6 -0.001677 -0.006957 -0.000703 0.001115 0.009881 0.043213
#
#
# Mechanical properties :
#
#
# Convention : Reuss Voigt Hill
#
# Bulk Modulus (GPa) = 28.70947 36.66988 32.68968
# Shear Modulus (GPa) = 30.99508 36.98777 33.99143
#
# Velocity S-wave (km/s) = 3.55603 3.88462 3.72395
# Velocity P-wave (km/s) = 5.34541 5.92292 5.64156
#
# Compressibility (1/GPa) = 0.03483171
#
# Stress axis : x y z
#
# Youngs Moduli (GPa) = 64.85702 105.88479 57.86950
#
# Poissons Ratio (x) = -0.01558 0.05308
# Poissons Ratio (y) = -0.00955 0.16698
# Poissons Ratio (z) = 0.05949 0.30553
#
# Static dielectric constant tensor:
#      x y z
#    x 2.437030 0.064110 -0.082560 
#    y 0.064110 2.051370 -0.021960 
#    z -0.082560 -0.021960 2.128260 
# 
# From -- ./inp_files/570651.got.cif
#   From: 2010.05.17/outbox.cif.g08.bks.cpg/sg2_286_cif.got.tgz:570651.got - 2010.06.03 11:33:40.
