data_PCOD9052268
_publ_section_title
;
Structure prediction by ZEFSAII (Michael W. Deem and Ramdas Pophale) SiO2 
 PCOD9052268
Probable space group: P -1
;
_chemical_formula_sum "Si O2"
_cell_formula_units_Z 13
_cell_length_a 13.288004
_cell_length_b 9.864454
_cell_length_c 9.633657
_cell_angle_alpha 44.405258
_cell_angle_beta 140.826136
_cell_angle_gamma 132.146951
_cell_volume 538.166923
_symmetry_space_group_name_H-M "P -1"
_symmetry_group_IT_number 2
_symmetry_cell_setting 'triclinic'
loop_
_space_group_symop_operation_xyz
x,y,z
-x,-y,-z
loop_
_atom_site_type_symbol
_atom_site_label
_atom_site_fract_x
_atom_site_fract_y
_atom_site_fract_z
Si Si1 0.148166 0.634258 0.472375
Si Si2 0.668173 0.542725 0.427469
Si Si3 0.176134 0.581691 0.057256
Si Si4 0.660173 0.982606 0.099629
Si Si5 0.000000 0.000000 0.000000
Si Si6 0.555937 0.043511 0.367915
Si Si7 0.694936 0.690260 0.816279
O O1 0.203041 0.504254 0.507977
O O2 0.310910 0.741556 0.657330
O O3 0.000000 0.500000 0.500000
O O4 0.098373 0.826529 0.216681
O O5 0.687014 0.428462 0.673025
O O6 0.703584 0.776470 0.328382
O O7 0.484051 0.454014 0.234778
O O8 0.209516 0.439871 0.075377
O O9 0.000000 0.500000 0.000000
O O10 0.201993 0.812349 0.874373
O O11 0.600359 0.968914 0.886144
O O12 0.500000 0.000000 0.000000
O O13 0.175446 0.182305 0.029113
O O14 0.500000 0.000000 0.500000
O O15 0.648215 0.873231 0.548409
#
# Coordination Sequence:
#
# PCOD9052268 Si02
#       7
#     2   2   2   2   1   2   2
#     4  11  26  44  68 106 144 186 243 302 363 428
#     4  12  25  45  77 108 143 196 251 300 369 446
#     4  12  26  47  73 105 150 194 239 309 375 435
#     4  12  26  44  75 109 141 193 253 300 364 438
#     4  10  26  44  70 100 148 180 234 298 372 422
#     4  11  23  44  72 103 146 195 244 301 370 442
#     4  11  22  45  74 101 143 192 241 296 365 439
#
# _framework density 24.156074
#
# number of rings (size 3 to 8) (size 9 to 14) (size 15 to 20)
#    0.000    0.615    4.615    2.308    2.154    9.846 
#    0.000    0.000    0.000    0.000    0.000    0.000 
#    0.000    0.000    0.000    0.000    0.000    0.000 
#
# Total GULP energy -72509.885857 kJ/mol
# GULP energy per Si atom -5577.683527 kJ/mol
# Density = 2.410109 g / cm^3
# Si number density = 24.156074 Si / 1000 Ang^3
#
#
#
# Elastic Constant Matrix: (Units=GPa)
#
#
# Indices 1 2 3 4 5 6 
#
# 1 152.6489 70.7329 7.5678 -19.7374 16.9511 -4.7573
# 2 70.7329 179.5901 11.0222 -35.8671 9.7782 9.8211
# 3 7.5678 11.0222 50.5562 -14.9784 12.7265 -13.9242
# 4 -19.7374 -35.8671 -14.9784 48.4400 -10.0315 13.1013
# 5 16.9511 9.7782 12.7265 -10.0315 35.9877 -5.1002
# 6 -4.7573 9.8211 -13.9242 13.1013 -5.1002 44.8591
#
#
#
# Elastic Compliance Matrix: (Units=1/GPa)
#
#
# Indices 1 2 3 4 5 6 
#
# 1 0.008425 -0.003219 0.000666 0.000246 -0.003064 0.001385
# 2 -0.003219 0.008217 -0.000877 0.005714 0.000618 -0.004011
# 3 0.000666 -0.000877 0.024417 0.004200 -0.006710 0.005852
# 4 0.000246 0.005714 0.004200 0.029244 0.003861 -0.008023
# 5 -0.003064 0.000618 -0.006710 0.003861 0.032516 0.000026
# 6 0.001385 -0.004011 0.005852 -0.008023 0.000026 0.027480
#
#
# Mechanical properties :
#
#
# Convention : Reuss Voigt Hill
#
# Bulk Modulus (GPa) = 29.24017 62.38234 45.81125
# Shear Modulus (GPa) = 33.65756 45.42218 39.53987
#
# Velocity S-wave (km/s) = 3.73679 4.34102 4.05019
# Velocity P-wave (km/s) = 5.54519 7.14190 6.39358
#
# Compressibility (1/GPa) = 0.03419953
#
# Stress axis : x y z
#
# Youngs Moduli (GPa) = 118.69867 121.70380 40.95578
#
# Poissons Ratio (x) = 0.39173 -0.02729
# Poissons Ratio (y) = 0.38205 0.03591
# Poissons Ratio (z) = -0.07910 0.10672
#
# Static dielectric constant tensor:
#      x y z
#    x 1.878420 -0.029490 -0.032420 
#    y -0.029490 1.875130 0.027740 
#    z -0.032420 0.027740 1.977650 
# 
# From -- ./inp_files/242334.got.cif
#   From: 2010.05.17/outbox.cif.g08.bks.cpg/sg2_122_cif.got.tgz:242334.got - 2010.06.03 11:33:40.
