data_PCOD9052441
_publ_section_title
;
Structure prediction by ZEFSAII (Michael W. Deem and Ramdas Pophale) SiO2 
 PCOD9052441
Probable space group: P -1
;
_chemical_formula_sum "Si O2"
_cell_formula_units_Z 16
_cell_length_a 19.149564
_cell_length_b 11.661393
_cell_length_c 9.668449
_cell_angle_alpha 47.657290
_cell_angle_beta 134.054585
_cell_angle_gamma 155.943939
_cell_volume 626.990839
_symmetry_space_group_name_H-M "P -1"
_symmetry_group_IT_number 2
_symmetry_cell_setting 'triclinic'
loop_
_space_group_symop_operation_xyz
x,y,z
-x,-y,-z
loop_
_atom_site_type_symbol
_atom_site_label
_atom_site_fract_x
_atom_site_fract_y
_atom_site_fract_z
Si Si1 0.790573 0.574275 0.087418
Si Si2 0.274993 0.797211 0.868820
Si Si3 0.218290 0.317513 0.500116
Si Si4 0.302929 0.293164 0.932313
Si Si5 0.167935 0.607943 0.171526
Si Si6 0.849355 0.229797 0.731099
Si Si7 0.603683 0.826005 0.480663
Si Si8 0.130001 0.064902 0.307835
O O1 0.683992 0.293576 0.099226
O O2 0.696828 0.571485 0.061839
O O3 0.870785 0.772113 0.904079
O O4 0.961090 0.748289 0.271835
O O5 0.061105 0.537314 0.764358
O O6 0.387002 0.087395 0.727612
O O7 0.291501 0.794081 0.056963
O O8 0.226040 0.258454 0.711772
O O9 0.140552 0.387371 0.325878
O O10 0.419112 0.591128 0.494702
O O11 0.125850 0.083188 0.450142
O O12 0.500000 0.500000 0.000000
O O13 0.194342 0.000079 0.079678
O O14 0.235553 0.761877 0.285371
O O15 0.000000 0.500000 0.000000
O O16 0.748239 0.105201 0.549041
O O17 0.686861 0.768294 0.621732
#
# Coordination Sequence:
#
# PCOD9052441 Si02
#       8
#     2   2   2   2   2   2   2   2
#     4  11  22  43  75  95 138 192 239 296 344 416
#     4  11  24  46  71 102 135 187 242 291 350 418
#     4  12  27  46  69 108 146 189 239 287 365 427
#     4  12  26  46  71 105 146 188 233 297 360 419
#     4  10  26  46  70 102 147 185 234 295 353 423
#     4  11  23  47  70  99 146 186 234 294 354 421
#     4  12  25  43  73 104 142 187 235 295 355 420
#     4  11  23  45  71 103 140 180 249 292 348 423
#
# _framework density 25.518712000000001
#
# number of rings (size 3 to 8) (size 9 to 14) (size 15 to 20)
#    0.000    0.750    5.000    1.500    5.250    3.500 
#    0.000    0.000    0.000    0.000    0.000    0.000 
#    0.000    0.000    0.000    0.000    0.000    0.000 
#
# Total GULP energy -89663.004760 kJ/mol
# GULP energy per Si atom -5603.937798 kJ/mol
# Density = 2.546063 g / cm^3
# Si number density = 25.518712 Si / 1000 Ang^3
#
#
#
# Elastic Constant Matrix: (Units=GPa)
#
#
# Indices 1 2 3 4 5 6 
#
# 1 178.3390 35.2946 36.7997 7.9830 -8.8590 1.3642
# 2 35.2946 62.0944 6.2185 -2.3637 9.1970 30.1310
# 3 36.7997 6.2185 120.1683 -1.9578 -22.4567 7.4250
# 4 7.9830 -2.3637 -1.9578 35.4818 5.3844 -3.0592
# 5 -8.8590 9.1970 -22.4567 5.3844 50.6552 8.8028
# 6 1.3642 30.1310 7.4250 -3.0592 8.8028 48.5795
#
#
#
# Elastic Compliance Matrix: (Units=1/GPa)
#
#
# Indices 1 2 3 4 5 6 
#
# 1 0.007284 -0.005822 -0.001969 -0.002008 0.001083 0.003385
# 2 -0.005822 0.027918 0.000824 0.002253 -0.003080 -0.016578
# 3 -0.001969 0.000824 0.009865 0.000147 0.004340 -0.002740
# 4 -0.002008 0.002253 0.000147 0.029513 -0.004045 0.001228
# 5 0.001083 -0.003080 0.004340 -0.004045 0.023414 -0.003281
# 6 0.003385 -0.016578 -0.002740 0.001228 -0.003281 0.031863
#
#
# Mechanical properties :
#
#
# Convention : Reuss Voigt Hill
#
# Bulk Modulus (GPa) = 32.12148 57.46970 44.79559
# Shear Modulus (GPa) = 32.43215 45.76254 39.09734
#
# Velocity S-wave (km/s) = 3.56886 4.23932 3.91846
# Velocity P-wave (km/s) = 5.44032 6.82144 6.16965
#
# Compressibility (1/GPa) = 0.03113182
#
# Stress axis : x y z
#
# Youngs Moduli (GPa) = 137.29538 35.81933 101.37190
#
# Poissons Ratio (x) = 0.20855 0.19956
# Poissons Ratio (y) = 0.79936 -0.08349
# Poissons Ratio (z) = 0.27028 -0.02950
#
# Static dielectric constant tensor:
#      x y z
#    x 1.994610 0.002600 0.030150 
#    y 0.002600 2.043760 0.062660 
#    z 0.030150 0.062660 2.009060 
# 
# From -- ./inp_files/332951.got.cif
#   From: 2010.05.17/outbox.cif.g08.bks.cpg/sg2_167_cif.got.tgz:332951.got - 2010.06.03 11:33:40.
