data_PCOD9052594
_publ_section_title
;
Structure prediction by ZEFSAII (Michael W. Deem and Ramdas Pophale) SiO2 
 PCOD9052594
Probable space group: P -1
;
_chemical_formula_sum "Si O2"
_cell_formula_units_Z 16
_cell_length_a 9.830882
_cell_length_b 6.124094
_cell_length_c 31.579846
_cell_angle_alpha 66.698297
_cell_angle_beta 144.907022
_cell_angle_gamma 134.362966
_cell_volume 705.703179
_symmetry_space_group_name_H-M "P -1"
_symmetry_group_IT_number 2
_symmetry_cell_setting 'triclinic'
loop_
_space_group_symop_operation_xyz
x,y,z
-x,-y,-z
loop_
_atom_site_type_symbol
_atom_site_label
_atom_site_fract_x
_atom_site_fract_y
_atom_site_fract_z
Si Si1 0.461068 0.197535 0.625285
Si Si2 0.175228 0.602004 0.956750
Si Si3 0.467887 0.506431 0.108092
Si Si4 0.669643 0.656815 0.824111
Si Si5 0.101626 0.833415 0.483906
Si Si6 0.840086 0.587094 0.120822
Si Si7 0.911768 0.729406 0.762113
Si Si8 0.712450 0.456438 0.338246
O O1 0.808237 0.562163 0.701876
O O2 0.170902 0.171976 0.568175
O O3 0.433429 0.135253 0.572432
O O4 0.370494 0.883127 0.650089
O O5 0.226731 0.455976 0.942710
O O6 0.835256 0.514072 0.875371
O O7 0.222590 0.511987 0.020941
O O8 0.500000 0.000000 0.000000
O O9 0.337746 0.280528 0.133362
O O10 0.573565 0.405908 0.104859
O O11 0.770923 0.876562 0.178271
O O12 0.332118 0.473972 0.725891
O O13 0.935602 0.023923 0.842137
O O14 0.000000 0.500000 0.500000
O O15 0.053667 0.775263 0.425562
O O16 0.027373 0.471431 0.182324
O O17 0.586441 0.627337 0.705674
#
# Coordination Sequence:
#
# PCOD9052594 Si02
#       8
#     2   2   2   2   2   2   2   2
#     4   9  16  29  57  88 118 159 201 244 299 359
#     4  12  23  44  65  83 122 161 203 261 312 358
#     4  12  26  40  60  92 119 160 211 255 308 366
#     4  12  25  40  62  91 122 161 206 254 307 365
#     4   8  16  27  51  92 123 152 201 246 291 361
#     4  12  22  42  62  84 117 163 200 256 309 362
#     4  11  19  37  62  81 122 157 203 250 305 359
#     4  10  17  35  57  84 123 160 199 250 304 357
#
# _framework density 22.672421
#
# number of rings (size 3 to 8) (size 9 to 14) (size 15 to 20)
#    0.000    1.250    6.250    0.750    0.000    1.500 
#    0.000    0.000    0.000    0.750    0.000   35.875 
#    0.000    0.000    0.000    0.000    0.000    0.000 
#
# Total GULP energy -89169.006171 kJ/mol
# GULP energy per Si atom -5573.062886 kJ/mol
# Density = 2.262082 g / cm^3
# Si number density = 22.672421 Si / 1000 Ang^3
#
#
#
# Elastic Constant Matrix: (Units=GPa)
#
#
# Indices 1 2 3 4 5 6 
#
# 1 96.3818 20.1390 46.4985 -9.0946 -26.4246 -9.4149
# 2 20.1390 51.3420 29.8177 -8.1341 -1.6455 -17.6610
# 3 46.4985 29.8177 120.6080 -13.5467 -39.1976 -7.6013
# 4 -9.0946 -8.1341 -13.5467 41.4732 -15.6322 -4.6220
# 5 -26.4246 -1.6455 -39.1976 -15.6322 45.8724 -6.6103
# 6 -9.4149 -17.6610 -7.6013 -4.6220 -6.6103 30.3489
#
#
#
# Elastic Compliance Matrix: (Units=1/GPa)
#
#
# Indices 1 2 3 4 5 6 
#
# 1 0.016159 -0.001571 0.000393 0.009670 0.014144 0.008751
# 2 -0.001571 0.029513 -0.004919 0.005769 0.000279 0.016394
# 3 0.000393 -0.004919 0.018976 0.014891 0.022668 0.009218
# 4 0.009670 0.005769 0.014891 0.049974 0.039316 0.026261
# 5 0.014144 0.000279 0.022668 0.039316 0.067170 0.030846
# 6 0.008751 0.016394 0.009218 0.026261 0.030846 0.058232
#
#
# Mechanical properties :
#
#
# Convention : Reuss Voigt Hill
#
# Bulk Modulus (GPa) = 19.06399 51.24912 35.15656
# Shear Modulus (GPa) = 18.53890 34.99735 26.76813
#
# Velocity S-wave (km/s) = 2.86262 3.93314 3.43978
# Velocity P-wave (km/s) = 4.39919 6.57871 5.59608
#
# Compressibility (1/GPa) = 0.05245491
#
# Stress axis : x y z
#
# Youngs Moduli (GPa) = 61.88394 33.88381 52.69683
#
# Poissons Ratio (x) = 0.05324 -0.02072
# Poissons Ratio (y) = 0.09724 0.25919
# Poissons Ratio (z) = -0.02433 0.16666
#
# Static dielectric constant tensor:
#      x y z
#    x 1.865720 -0.009100 -0.059920 
#    y -0.009100 1.837690 0.047110 
#    z -0.059920 0.047110 2.000620 
# 
# From -- ./inp_files/120028.got.cif
#   From: 2010.05.17/outbox.cif.g08.bks.cpg/sg2_61_cif.got.tgz:120028.got - 2010.06.03 11:33:40.
