data_PCOD9052760
_publ_section_title
;
Structure prediction by ZEFSAII (Michael W. Deem and Ramdas Pophale) SiO2 
 PCOD9052760
Probable space group: P -1
;
_chemical_formula_sum "Si O2"
_cell_formula_units_Z 12
_cell_length_a 15.104220
_cell_length_b 8.577751
_cell_length_c 15.129921
_cell_angle_alpha 132.253667
_cell_angle_beta 161.529585
_cell_angle_gamma 49.344639
_cell_volume 458.883771
_symmetry_space_group_name_H-M "P -1"
_symmetry_group_IT_number 2
_symmetry_cell_setting 'triclinic'
loop_
_space_group_symop_operation_xyz
x,y,z
-x,-y,-z
loop_
_atom_site_type_symbol
_atom_site_label
_atom_site_fract_x
_atom_site_fract_y
_atom_site_fract_z
Si Si1 0.186437 0.401133 0.718256
Si Si2 0.551906 0.271018 0.413998
Si Si3 0.306122 0.816912 0.209223
Si Si4 0.387787 0.559704 0.728794
Si Si5 0.736930 0.063252 0.338334
Si Si6 0.982739 0.901867 0.095213
O O1 0.000000 0.500000 0.500000
O O2 0.945066 0.428948 0.575642
O O3 0.282343 0.153385 0.706781
O O4 0.459151 0.498154 0.055129
O O5 0.500000 0.500000 0.500000
O O6 0.717598 0.238487 0.466587
O O7 0.727218 0.109872 0.583429
O O8 0.241169 0.188857 0.085776
O O9 0.500251 0.612810 0.298567
O O10 0.069199 0.768963 0.038325
O O11 0.500000 0.000000 0.500000
O O12 0.151066 0.891473 0.000392
O O13 0.467480 0.796623 0.868618
O O14 0.000000 0.000000 0.500000
#
# Coordination Sequence:
#
# PCOD9052760 Si02
#       6
#     2   2   2   2   2   2
#     4  11  26  45  72 104 138 188 253 308 365 441
#     4  12  26  46  74 110 149 194 254 309 377 449
#     4  11  25  45  74 107 155 192 252 307 394 440
#     4  11  26  45  73 100 144 196 244 300 382 442
#     4  10  26  49  74 105 154 196 247 306 383 450
#     4  11  26  42  70 107 149 188 248 309 372 447
#
# _framework density 26.150414000000001
#
# number of rings (size 3 to 8) (size 9 to 14) (size 15 to 20)
#    0.000    1.000    1.667    2.500    9.333    6.667 
#    0.000    0.000    0.000    0.000    0.000    0.000 
#    0.000    0.000    0.000    0.000    0.000    0.000 
#
# Total GULP energy -66903.914411 kJ/mol
# GULP energy per Si atom -5575.326201 kJ/mol
# Density = 2.609089 g / cm^3
# Si number density = 26.150414 Si / 1000 Ang^3
#
#
#
# Elastic Constant Matrix: (Units=GPa)
#
#
# Indices 1 2 3 4 5 6 
#
# 1 115.0210 47.3744 6.3608 -12.8630 4.0471 -14.6239
# 2 47.3744 163.2454 32.2724 -32.1246 -9.2306 -29.7993
# 3 6.3608 32.2724 111.2121 -29.1305 8.2881 -0.9042
# 4 -12.8630 -32.1246 -29.1305 36.7021 9.9234 -5.8313
# 5 4.0471 -9.2306 8.2881 9.9234 37.6832 -24.7702
# 6 -14.6239 -29.7993 -0.9042 -5.8313 -24.7702 48.1901
#
#
#
# Elastic Compliance Matrix: (Units=1/GPa)
#
#
# Indices 1 2 3 4 5 6 
#
# 1 0.010201 -0.002622 0.001113 0.002893 -0.002313 0.000656
# 2 -0.002622 0.011302 -0.001985 0.006710 0.009515 0.011859
# 3 0.001113 -0.001985 0.012927 0.010679 -0.008815 -0.003886
# 4 0.002893 0.006710 0.010679 0.046047 -0.009127 0.006108
# 5 -0.002313 0.009515 -0.008815 -0.009127 0.054415 0.031882
# 6 0.000656 0.011859 -0.003886 0.006108 0.031882 0.045337
#
#
# Mechanical properties :
#
#
# Convention : Reuss Voigt Hill
#
# Bulk Modulus (GPa) = 36.44091 62.38820 49.41456
# Shear Modulus (GPa) = 25.46288 44.74647 35.10468
#
# Velocity S-wave (km/s) = 3.12382 4.14106 3.66787
# Velocity P-wave (km/s) = 5.19388 6.83913 6.07248
#
# Compressibility (1/GPa) = 0.02744168
#
# Stress axis : x y z
#
# Youngs Moduli (GPa) = 98.03122 88.47879 77.35936
#
# Poissons Ratio (x) = 0.23200 -0.08610
# Poissons Ratio (y) = 0.25704 0.15355
# Poissons Ratio (z) = -0.10911 0.17562
#
# Static dielectric constant tensor:
#      x y z
#    x 2.206560 0.090840 -0.028160 
#    y 0.090840 2.086580 0.068250 
#    z -0.028160 0.068250 2.080760 
# 
# From -- ./inp_files/229678.got.cif
#   From: 2010.05.17/outbox.cif.g08.bks.cpg/sg2_115_cif.got.tgz:229678.got - 2010.06.03 11:33:40.
