data_PCOD9052562
_publ_section_title
;
Structure prediction by ZEFSAII (Michael W. Deem and Ramdas Pophale) SiO2 
 PCOD9052562
Probable space group: P -1
;
_chemical_formula_sum "Si O2"
_cell_formula_units_Z 16
_cell_length_a 12.188942
_cell_length_b 11.701889
_cell_length_c 10.861851
_cell_angle_alpha 23.675338
_cell_angle_beta 87.140056
_cell_angle_gamma 88.125820
_cell_volume 621.012229
_symmetry_space_group_name_H-M "P -1"
_symmetry_group_IT_number 2
_symmetry_cell_setting 'triclinic'
loop_
_space_group_symop_operation_xyz
x,y,z
-x,-y,-z
loop_
_atom_site_type_symbol
_atom_site_label
_atom_site_fract_x
_atom_site_fract_y
_atom_site_fract_z
Si Si1 0.829525 0.708355 0.438586
Si Si2 0.862761 0.280628 0.515785
Si Si3 0.496417 0.208852 0.947466
Si Si4 0.011637 0.798386 0.058737
Si Si5 0.330013 0.595013 0.442453
Si Si6 0.501030 0.299497 0.374133
Si Si7 0.723938 0.948610 0.453916
Si Si8 0.742806 0.459933 0.101949
O O1 0.734223 0.598190 0.463330
O O2 0.779847 0.854494 0.417587
O O3 0.911656 0.946949 0.131995
O O4 0.894155 0.428803 0.751500
O O5 0.753700 0.216220 0.664112
O O6 0.822789 0.386442 0.281394
O O7 0.943630 0.018446 0.761177
O O8 0.918844 0.542641 0.332895
O O9 0.391232 0.376577 0.742966
O O10 0.546360 0.414006 0.849662
O O11 0.417648 0.785707 0.173330
O O12 0.475513 0.910417 0.306986
O O13 0.405584 0.139419 0.460469
O O14 0.616128 0.387068 0.218798
O O15 0.755694 0.270153 0.167148
O O16 0.761063 0.779751 0.740101
#
# Coordination Sequence:
#
# PCOD9052562 Si02
#       8
#     2   2   2   2   2   2   2   2
#     4  11  25  47  72 102 138 183 230 295 347 409
#     4  11  25  47  72 102 138 183 230 295 347 409
#     4  11  26  43  68 113 141 186 225 277 338 428
#     4  10  26  47  70 104 136 174 246 290 349 406
#     4  11  26  45  76 102 150 181 228 281 350 420
#     4  12  24  46  68 105 149 180 234 275 337 425
#     4  12  25  45  72 105 141 187 230 281 348 415
#     4  12  25  45  72 105 141 187 230 281 348 415
#
# _framework density 25.764385999999998
#
# number of rings (size 3 to 8) (size 9 to 14) (size 15 to 20)
#    0.000    0.750    2.500    3.750    3.500    8.000 
#    0.000   12.500    0.000    0.000    0.000    0.000 
#    0.000    0.000    0.000    0.000    0.000    0.000 
#
# Total GULP energy -89537.197377 kJ/mol
# GULP energy per Si atom -5596.074836 kJ/mol
# Density = 2.570575 g / cm^3
# Si number density = 25.764386 Si / 1000 Ang^3
#
#
#
# Elastic Constant Matrix: (Units=GPa)
#
#
# Indices 1 2 3 4 5 6 
#
# 1 56.7025 -5.2444 113.5072 -4.2038 47.0046 169.6892
# 2 -5.2444 58.1409 88.6448 -12.4068 51.6067 143.5614
# 3 113.5072 88.6448 -79.8475 14.5126 -136.7508 -405.8835
# 4 -4.2038 -12.4068 14.5126 42.1460 17.4788 21.8883
# 5 47.0046 51.6067 -136.7508 17.4788 -26.0162 -229.9709
# 6 169.6892 143.5614 -405.8835 21.8883 -229.9709 -729.8625
#
#
#
# Elastic Compliance Matrix: (Units=1/GPa)
#
#
# Indices 1 2 3 4 5 6 
#
# 1 0.012007 -0.004112 -0.001159 -0.001548 0.002367 0.001835
# 2 -0.004112 0.013545 -0.000537 0.003502 -0.003331 0.003161
# 3 -0.001159 -0.000537 0.007142 -0.000830 0.001464 -0.004833
# 4 -0.001548 0.003502 -0.000830 0.025766 -0.006725 0.003682
# 5 0.002367 -0.003331 0.001464 -0.006725 0.024129 -0.008724
# 6 0.001835 0.003161 -0.004833 0.003682 -0.008724 0.005225
#
#
# Mechanical properties :
#
#
# Convention : Reuss Voigt Hill
#
# Bulk Modulus (GPa) = 47.44096 47.64568 47.54332
# Shear Modulus (GPa) = 46.96767 -153.54064 -53.28648
#
# Velocity S-wave (km/s) = 4.27426 -7.72810 -4.55271
# Velocity P-wave (km/s) = 6.54312 7.81654 3.02374
#
# Compressibility (1/GPa) = 0.02107883
#
# Stress axis : x y z
#
# Youngs Moduli (GPa) = 83.28426 73.82741 140.01186
#
# Poissons Ratio (x) = 0.30360 0.16223
# Poissons Ratio (y) = 0.34249 0.07517
# Poissons Ratio (z) = 0.09650 0.03964
#
# Static dielectric constant tensor:
#      x y z
#    x 2.041830 -0.000250 -0.004720 
#    y -0.000250 2.126240 -0.013910 
#    z -0.004720 -0.013910 1.956550 
# 
# From -- ./inp_files/434165.got.cif
#   From: 2010.05.17/outbox.cif.g08.bks.cpg/sg2_218_cif.got.tgz:434165.got - 2010.06.03 11:33:40.
