data_PCOD9052195
_publ_section_title
;
Structure prediction by ZEFSAII (Michael W. Deem and Ramdas Pophale) SiO2 
 PCOD9052195
Probable space group: P -1
;
_chemical_formula_sum "Si O2"
_cell_formula_units_Z 15
_cell_length_a 11.468256
_cell_length_b 10.070925
_cell_length_c 10.791364
_cell_angle_alpha 56.290406
_cell_angle_beta 41.308536
_cell_angle_gamma 50.203663
_cell_volume 625.330026
_symmetry_space_group_name_H-M "P -1"
_symmetry_group_IT_number 2
_symmetry_cell_setting 'triclinic'
loop_
_space_group_symop_operation_xyz
x,y,z
-x,-y,-z
loop_
_atom_site_type_symbol
_atom_site_label
_atom_site_fract_x
_atom_site_fract_y
_atom_site_fract_z
Si Si1 0.000000 0.500000 0.500000
Si Si2 0.605423 0.095800 0.225602
Si Si3 0.788758 0.012481 0.697698
Si Si4 0.173282 0.201261 0.967183
Si Si5 0.608186 0.608110 0.918297
Si Si6 0.793141 0.883528 0.505323
Si Si7 0.753217 0.249170 0.251188
Si Si8 0.430720 0.382464 0.768183
O O1 0.194605 0.438404 0.290820
O O2 0.027087 0.291419 0.584811
O O3 0.548676 0.200360 0.088281
O O4 0.395139 0.105164 0.427272
O O5 0.688983 0.197148 0.198438
O O6 0.748837 0.905926 0.166644
O O7 0.634437 0.213468 0.702440
O O8 0.787677 0.919376 0.877258
O O9 0.748785 0.899580 0.679074
O O10 0.000000 0.000000 0.500000
O O11 0.943634 0.288108 0.087149
O O12 0.287146 0.323883 0.834362
O O13 0.500000 0.500000 0.000000
O O14 0.641027 0.584495 0.049014
O O15 0.809458 0.065444 0.371146
O O16 0.583536 0.422840 0.352761
#
# Coordination Sequence:
#
# PCOD9052195 Si02
#       8
#     1   2   2   2   2   2   2   2
#     4  10  26  42  74 110 142 184 254 310 360 452
#     4  11  23  45  71 102 145 193 240 313 364 439
#     4  12  25  46  77 103 142 194 256 306 354 444
#     4  12  24  46  72 105 145 193 249 301 370 444
#     4  11  23  44  77 108 144 193 256 303 376 439
#     4  11  25  48  71 108 144 190 250 307 370 437
#     4  12  27  44  72 109 150 194 241 301 383 445
#     4  12  26  48  74 107 151 199 242 310 371 444
#
# _framework density 23.987333
#
# number of rings (size 3 to 8) (size 9 to 14) (size 15 to 20)
#    0.000    0.533    5.333    3.200    3.733    1.600 
#    0.000    1.333    0.000    0.000    0.000    0.000 
#    0.000    0.000    0.000    0.000    0.000    0.000 
#
# Total GULP energy -83531.594891 kJ/mol
# GULP energy per Si atom -5568.772993 kJ/mol
# Density = 2.393274 g / cm^3
# Si number density = 23.987333 Si / 1000 Ang^3
#
#
#
# Elastic Constant Matrix: (Units=GPa)
#
#
# Indices 1 2 3 4 5 6 
#
# 1 141.4531 53.5759 19.4150 12.5849 -8.1857 16.9750
# 2 53.5759 192.5246 35.0467 22.6921 0.9476 10.4507
# 3 19.4150 35.0467 59.9302 19.3938 -11.3374 9.5115
# 4 12.5849 22.6921 19.3938 44.8784 9.7622 -0.8608
# 5 -8.1857 0.9476 -11.3374 9.7622 32.3812 -3.1485
# 6 16.9750 10.4507 9.5115 -0.8608 -3.1485 29.1720
#
#
#
# Elastic Compliance Matrix: (Units=1/GPa)
#
#
# Indices 1 2 3 4 5 6 
#
# 1 0.008627 -0.001970 0.000192 -0.002140 0.002546 -0.004165
# 2 -0.001970 0.006444 -0.002980 -0.001114 -0.001431 -0.000378
# 3 0.000192 -0.002980 0.025756 -0.012474 0.012284 -0.006484
# 4 -0.002140 -0.001114 -0.012474 0.031984 -0.014018 0.005142
# 5 0.002546 -0.001431 0.012284 -0.014018 0.039990 -0.001071
# 6 -0.004165 -0.000378 -0.006484 0.005142 -0.001071 0.038989
#
#
# Mechanical properties :
#
#
# Convention : Reuss Voigt Hill
#
# Bulk Modulus (GPa) = 31.93772 67.77591 49.85681
# Shear Modulus (GPa) = 29.11335 40.34433 34.72884
#
# Velocity S-wave (km/s) = 3.48759 4.10555 3.80912
# Velocity P-wave (km/s) = 5.43701 7.12673 6.33843
#
# Compressibility (1/GPa) = 0.03131094
#
# Stress axis : x y z
#
# Youngs Moduli (GPa) = 115.91868 155.19056 38.82562
#
# Poissons Ratio (x) = 0.30571 -0.00747
# Poissons Ratio (y) = 0.22835 0.11572
# Poissons Ratio (z) = -0.02231 0.46253
#
# Static dielectric constant tensor:
#      x y z
#    x 1.936960 -0.009180 0.016220 
#    y -0.009180 1.971890 -0.123510 
#    z 0.016220 -0.123510 2.006230 
# 
# From -- ./inp_files/419063.got.cif
#   From: 2010.05.17/outbox.cif.g08.bks.cpg/sg2_210_cif.got.tgz:419063.got - 2010.06.03 11:33:40.
