data_PCOD9052389
_publ_section_title
;
Structure prediction by ZEFSAII (Michael W. Deem and Ramdas Pophale) SiO2 
 PCOD9052389
Probable space group: P -1
;
_chemical_formula_sum "Si O2"
_cell_formula_units_Z 12
_cell_length_a 6.956948
_cell_length_b 7.906883
_cell_length_c 19.971622
_cell_angle_alpha 35.459814
_cell_angle_beta 65.250862
_cell_angle_gamma 81.727795
_cell_volume 536.751511
_symmetry_space_group_name_H-M "P -1"
_symmetry_group_IT_number 2
_symmetry_cell_setting 'triclinic'
loop_
_space_group_symop_operation_xyz
x,y,z
-x,-y,-z
loop_
_atom_site_type_symbol
_atom_site_label
_atom_site_fract_x
_atom_site_fract_y
_atom_site_fract_z
Si Si1 0.499534 0.695916 0.004346
Si Si2 0.663150 0.302895 0.527177
Si Si3 0.200385 0.089550 0.887309
Si Si4 0.671079 0.178889 0.360183
Si Si5 0.998928 0.901146 0.220452
Si Si6 0.871031 0.908499 0.706852
O O1 0.363160 0.918893 0.940740
O O2 0.500000 0.500000 0.000000
O O3 0.346589 0.416819 0.165131
O O4 0.754270 0.940499 0.902176
O O5 0.500000 0.500000 0.500000
O O6 0.861144 0.528766 0.375449
O O7 0.473768 0.982107 0.631667
O O8 0.795457 0.190509 0.601865
O O9 0.294928 0.462342 0.756200
O O10 0.148820 0.003675 0.843657
O O11 0.000000 0.000000 0.000000
O O12 0.907330 0.121132 0.350218
O O13 0.500000 0.000000 0.500000
O O14 0.048705 0.039748 0.243572
#
# Coordination Sequence:
#
# PCOD9052389 Si02
#       6
#     2   2   2   2   2   2
#     4  10  26  45  74 106 144 191 246 296 358 439
#     4  12  27  46  76 105 147 192 246 306 359 436
#     4  12  27  49  72 109 153 191 240 304 375 428
#     4  12  27  46  71 108 151 193 243 302 370 431
#     4  11  26  45  77 104 145 193 243 298 362 435
#     4  11  26  47  73 111 142 195 253 299 360 436
#
# _framework density 22.356714
#
# number of rings (size 3 to 8) (size 9 to 14) (size 15 to 20)
#    0.000    0.667    5.000    0.500    9.333    5.333 
#    0.000    0.000    0.000    0.000    0.000    0.000 
#    0.000    0.000    0.000    0.000    0.000    0.000 
#
# Total GULP energy -66899.087696 kJ/mol
# GULP energy per Si atom -5574.923975 kJ/mol
# Density = 2.230583 g / cm^3
# Si number density = 22.356714 Si / 1000 Ang^3
#
#
#
# Elastic Constant Matrix: (Units=GPa)
#
#
# Indices 1 2 3 4 5 6 
#
# 1 86.7023 36.6946 63.2107 -13.6750 -12.6920 -17.4554
# 2 36.6946 70.7513 26.3464 -10.2585 8.9181 -20.2446
# 3 63.2107 26.3464 171.7550 -9.1332 -17.9431 -15.1258
# 4 -13.6750 -10.2585 -9.1332 30.8774 -4.2958 5.0674
# 5 -12.6920 8.9181 -17.9431 -4.2958 41.5514 5.2076
# 6 -17.4554 -20.2446 -15.1258 5.0674 5.2076 29.8707
#
#
#
# Elastic Compliance Matrix: (Units=1/GPa)
#
#
# Indices 1 2 3 4 5 6 
#
# 1 0.021222 -0.008440 -0.005393 0.005563 0.006300 0.001908
# 2 -0.008440 0.023395 -0.000332 0.000644 -0.009211 0.012253
# 3 -0.005393 -0.000332 0.008093 0.000095 0.001881 0.000377
# 4 0.005563 0.000644 0.000095 0.036468 0.005806 -0.003463
# 5 0.006300 -0.009211 0.001881 0.005806 0.030369 -0.007888
# 6 0.001908 0.012253 0.000377 -0.003463 -0.007888 0.045051
#
#
# Mechanical properties :
#
#
# Convention : Reuss Voigt Hill
#
# Bulk Modulus (GPa) = 41.01727 64.63469 52.82598
# Shear Modulus (GPa) = 24.86899 33.99037 29.42968
#
# Velocity S-wave (km/s) = 3.33884 3.90342 3.63212
# Velocity P-wave (km/s) = 5.76632 7.02061 6.42415
#
# Compressibility (1/GPa) = 0.02437998
#
# Stress axis : x y z
#
# Youngs Moduli (GPa) = 47.12192 42.74391 123.56570
#
# Poissons Ratio (x) = 0.36074 0.66645
# Poissons Ratio (y) = 0.39769 0.04098
# Poissons Ratio (z) = 0.25415 0.01418
#
# Static dielectric constant tensor:
#      x y z
#    x 1.942810 0.208550 -0.051960 
#    y 0.208550 2.052010 0.005830 
#    z -0.051960 0.005830 1.811860 
# 
# From -- ./inp_files/28842.got.cif
#   From: 2010.05.17/outbox.cif.g08.bks.cpg/sg2_15_cif.got.tgz:28842.got - 2010.06.03 11:33:40.
