data_PCOD9052781
_publ_section_title
;
Structure prediction by ZEFSAII (Michael W. Deem and Ramdas Pophale) SiO2 
 PCOD9052781
Probable space group: P -1
;
_chemical_formula_sum "Si O2"
_cell_formula_units_Z 16
_cell_length_a 8.711962
_cell_length_b 11.822809
_cell_length_c 14.949304
_cell_angle_alpha 50.493962
_cell_angle_beta 69.243818
_cell_angle_gamma 108.749197
_cell_volume 724.614293
_symmetry_space_group_name_H-M "P -1"
_symmetry_group_IT_number 2
_symmetry_cell_setting 'triclinic'
loop_
_space_group_symop_operation_xyz
x,y,z
-x,-y,-z
loop_
_atom_site_type_symbol
_atom_site_label
_atom_site_fract_x
_atom_site_fract_y
_atom_site_fract_z
Si Si1 0.608528 0.853377 0.361515
Si Si2 0.407312 0.403470 0.363372
Si Si3 0.649004 0.154409 0.303580
Si Si4 0.842010 0.536116 0.482196
Si Si5 0.242323 0.491473 0.007494
Si Si6 0.496977 0.388139 0.925426
Si Si7 0.715359 0.026504 0.937164
Si Si8 0.996826 0.850167 0.019413
O O1 0.657163 0.786148 0.472549
O O2 0.376608 0.640477 0.456669
O O3 0.546229 0.976679 0.338370
O O4 0.858824 0.025435 0.164087
O O5 0.298646 0.466437 0.410964
O O6 0.331388 0.388718 0.284671
O O7 0.713080 0.604126 0.196003
O O8 0.644965 0.317136 0.184803
O O9 0.500000 0.000000 0.500000
O O10 0.946122 0.319575 0.166307
O O11 0.000000 0.500000 0.500000
O O12 0.051534 0.778126 0.272111
O O13 0.302037 0.368177 0.022677
O O14 0.364781 0.593227 0.029102
O O15 0.390507 0.195913 0.973382
O O16 0.824059 0.119214 0.968472
O O17 0.500000 0.000000 0.000000
O O18 0.000000 0.000000 0.000000
#
# Coordination Sequence:
#
# PCOD9052781 Si02
#       8
#     2   2   2   2   2   2   2   2
#     4  12  25  43  73 101 142 183 230 293 351 424
#     4  12  24  43  68 103 142 182 232 278 347 433
#     4  11  26  48  73 102 133 181 242 295 353 399
#     4  12  26  42  62 110 147 181 233 281 349 435
#     4  10  26  50  71 100 136 180 246 291 339 416
#     4  11  24  48  72  98 141 188 228 291 351 405
#     4  12  26  43  69 104 147 184 224 283 358 419
#     4  12  22  42  67 102 140 183 226 272 351 425
#
# _framework density 22.080714
#
# number of rings (size 3 to 8) (size 9 to 14) (size 15 to 20)
#    0.000    0.500    3.750    4.125    5.250    3.000 
#    0.000    1.875    0.000    0.000    0.000    0.000 
#    0.000    0.000    0.000    0.000    0.000    0.000 
#
# Total GULP energy -89331.133420 kJ/mol
# GULP energy per Si atom -5583.195839 kJ/mol
# Density = 2.203046 g / cm^3
# Si number density = 22.080714 Si / 1000 Ang^3
#
#
#
# Elastic Constant Matrix: (Units=GPa)
#
#
# Indices 1 2 3 4 5 6 
#
# 1 108.5688 17.3452 35.9154 2.8942 4.1857 6.0960
# 2 17.3452 76.4286 34.4612 9.1501 -1.4695 -4.4251
# 3 35.9154 34.4612 160.5759 25.3175 7.0646 7.2791
# 4 2.8942 9.1501 25.3175 23.4025 1.5437 7.3843
# 5 4.1857 -1.4695 7.0646 1.5437 31.0096 7.1686
# 6 6.0960 -4.4251 7.2791 7.3843 7.1686 38.3386
#
#
#
# Elastic Compliance Matrix: (Units=1/GPa)
#
#
# Indices 1 2 3 4 5 6 
#
# 1 0.010275 -0.001744 -0.002189 0.002376 -0.000685 -0.001749
# 2 -0.001744 0.015269 -0.002410 -0.004197 0.000996 0.003119
# 3 -0.002189 -0.002410 0.008551 -0.008025 -0.001427 0.000259
# 4 0.002376 -0.004197 -0.008025 0.055944 0.000901 -0.010282
# 5 -0.000685 0.000996 -0.001427 0.000901 0.034066 -0.006048
# 6 -0.001749 0.003119 0.000259 -0.010282 -0.006048 0.029784
#
#
# Mechanical properties :
#
#
# Convention : Reuss Voigt Hill
#
# Bulk Modulus (GPa) = 46.71164 57.89078 52.30121
# Shear Modulus (GPa) = 28.78343 35.74022 32.26183
#
# Velocity S-wave (km/s) = 3.61439 4.02757 3.82656
# Velocity P-wave (km/s) = 6.21445 6.92121 6.57733
#
# Compressibility (1/GPa) = 0.02140794
#
# Stress axis : x y z
#
# Youngs Moduli (GPa) = 97.32569 65.49287 116.94746
#
# Poissons Ratio (x) = 0.11420 0.25602
# Poissons Ratio (y) = 0.16970 0.28189
# Poissons Ratio (z) = 0.21306 0.15786
#
# Static dielectric constant tensor:
#      x y z
#    x 1.571400 -0.059630 0.043080 
#    y -0.059630 1.818350 0.001030 
#    z 0.043080 0.001030 1.805640 
# 
# From -- ./inp_files/500029.got.cif
#   From: 2010.05.17/outbox.cif.g08.bks.cpg/sg2_251_cif.got.tgz:500029.got - 2010.06.03 11:33:40.
