data_PCOD9052277
_publ_section_title
;
Structure prediction by ZEFSAII (Michael W. Deem and Ramdas Pophale) SiO2 
 PCOD9052277
Probable space group: P -1
;
_chemical_formula_sum "Si O2"
_cell_formula_units_Z 15
_cell_length_a 10.373488
_cell_length_b 9.494250
_cell_length_c 8.552537
_cell_angle_alpha 107.443019
_cell_angle_beta 80.908611
_cell_angle_gamma 132.136895
_cell_volume 594.792329
_symmetry_space_group_name_H-M "P -1"
_symmetry_group_IT_number 2
_symmetry_cell_setting 'triclinic'
loop_
_space_group_symop_operation_xyz
x,y,z
-x,-y,-z
loop_
_atom_site_type_symbol
_atom_site_label
_atom_site_fract_x
_atom_site_fract_y
_atom_site_fract_z
Si Si1 0.734956 0.479481 0.370838
Si Si2 0.000000 0.500000 0.500000
Si Si3 0.584593 0.845381 0.485761
Si Si4 0.715219 0.358658 0.748867
Si Si5 0.696850 0.206180 0.034391
Si Si6 0.325022 0.338507 0.076602
Si Si7 0.148658 0.161522 0.736894
Si Si8 0.775380 0.987601 0.796027
O O1 0.896304 0.572871 0.484869
O O2 0.559188 0.364431 0.467110
O O3 0.768649 0.633041 0.293539
O O4 0.726580 0.316702 0.224612
O O5 0.874564 0.403290 0.645837
O O6 0.462148 0.824462 0.368704
O O7 0.743305 0.889139 0.378335
O O8 0.674839 0.983514 0.666886
O O9 0.717170 0.325911 0.921042
O O10 0.722178 0.541453 0.799510
O O11 0.817201 0.153166 0.961135
O O12 0.500000 0.000000 0.000000
O O13 0.340271 0.217834 0.156871
O O14 0.500000 0.500000 0.000000
O O15 0.185913 0.187980 0.922797
O O16 0.942167 0.023667 0.714039
#
# Coordination Sequence:
#
# PCOD9052277 Si02
#       8
#     2   1   2   2   2   2   2   2
#     4  11  24  48  73 103 140 194 236 288 357 428
#     4  10  26  44  70 110 136 184 234 298 352 418
#     4  11  25  45  70 104 143 189 234 294 356 424
#     4  11  25  47  74 102 141 190 241 287 357 427
#     4  12  25  48  73 103 141 188 242 289 349 430
#     4  12  24  47  74 102 136 190 245 284 353 430
#     4  12  25  45  72 103 144 184 238 299 350 417
#     4  12  28  44  69 110 143 183 237 299 355 415
#
# _framework density 25.218886999999999
#
# number of rings (size 3 to 8) (size 9 to 14) (size 15 to 20)
#    0.000    0.533    4.000    3.600    5.600    1.600 
#    4.800    0.000    0.000    0.000    0.000    0.000 
#    0.000    0.000    0.000    0.000    0.000    0.000 
#
# Total GULP energy -83725.584977 kJ/mol
# GULP energy per Si atom -5581.705665 kJ/mol
# Density = 2.516149 g / cm^3
# Si number density = 25.218887 Si / 1000 Ang^3
#
#
#
# Elastic Constant Matrix: (Units=GPa)
#
#
# Indices 1 2 3 4 5 6 
#
# 1 71.1461 6.8969 48.9926 -12.8830 -0.5954 11.0299
# 2 6.8969 61.0993 25.7526 -18.9244 -7.8753 -10.4195
# 3 48.9926 25.7526 100.4408 -18.9856 -27.9818 3.6612
# 4 -12.8830 -18.9244 -18.9856 31.4411 0.5727 -3.6048
# 5 -0.5954 -7.8753 -27.9818 0.5727 43.0446 -12.0282
# 6 11.0299 -10.4195 3.6612 -3.6048 -12.0282 38.9216
#
#
#
# Elastic Compliance Matrix: (Units=1/GPa)
#
#
# Indices 1 2 3 4 5 6 
#
# 1 0.026766 0.000755 -0.016349 0.000665 -0.012855 -0.009756
# 2 0.000755 0.024069 -0.002828 0.014069 0.004999 0.009343
# 3 -0.016349 -0.002828 0.024477 0.006929 0.017179 0.007524
# 4 0.000665 0.014069 0.006929 0.045711 0.009281 0.010028
# 5 -0.012855 0.004999 0.017179 0.009281 0.039614 0.016467
# 6 -0.009756 0.009343 0.007524 0.010028 0.016467 0.036269
#
#
# Mechanical properties :
#
#
# Convention : Reuss Voigt Hill
#
# Bulk Modulus (GPa) = 25.99581 43.99673 34.99627
# Shear Modulus (GPa) = 20.27796 32.75107 26.51452
#
# Velocity S-wave (km/s) = 2.83870 3.60762 3.24601
# Velocity P-wave (km/s) = 4.59073 5.90229 5.28733
#
# Compressibility (1/GPa) = 0.03846773
#
# Stress axis : x y z
#
# Youngs Moduli (GPa) = 37.36034 41.54754 40.85413
#
# Poissons Ratio (x) = -0.03137 0.66794
# Poissons Ratio (y) = -0.02821 0.11553
# Poissons Ratio (z) = 0.61082 0.11749
#
# Static dielectric constant tensor:
#      x y z
#    x 1.997130 0.041210 0.036100 
#    y 0.041210 2.049310 0.067310 
#    z 0.036100 0.067310 1.977800 
# 
# From -- ./inp_files/159219.got.cif
#   From: 2010.05.17/outbox.cif.g08.bks.cpg/sg2_80_cif.got.tgz:159219.got - 2010.06.03 11:33:40.
