data_PCOD9052622
_publ_section_title
;
Structure prediction by ZEFSAII (Michael W. Deem and Ramdas Pophale) SiO2 
 PCOD9052622
Probable space group: P -1
;
_chemical_formula_sum "Si O2"
_cell_formula_units_Z 14
_cell_length_a 10.931678
_cell_length_b 5.040977
_cell_length_c 11.677696
_cell_angle_alpha 98.392118
_cell_angle_beta 111.855844
_cell_angle_gamma 77.879881
_cell_volume 582.316739
_symmetry_space_group_name_H-M "P -1"
_symmetry_group_IT_number 2
_symmetry_cell_setting 'triclinic'
loop_
_space_group_symop_operation_xyz
x,y,z
-x,-y,-z
loop_
_atom_site_type_symbol
_atom_site_label
_atom_site_fract_x
_atom_site_fract_y
_atom_site_fract_z
Si Si1 0.371230 0.232899 0.456003
Si Si2 0.583303 0.621321 0.264370
Si Si3 0.094808 0.722687 0.535727
Si Si4 0.095202 0.718215 0.052280
Si Si5 0.764113 0.264239 0.656534
Si Si6 0.300265 0.936301 0.787152
Si Si7 0.371192 0.699297 0.029588
O O1 0.366316 0.338211 0.590078
O O2 0.362391 0.482859 0.379144
O O3 0.500000 0.000000 0.500000
O O4 0.263352 0.043018 0.377077
O O5 0.581211 0.300936 0.230634
O O6 0.441399 0.773397 0.176066
O O7 0.686492 0.767428 0.234290
O O8 0.171087 0.676951 0.438189
O O9 0.181084 0.800899 0.680329
O O10 0.000000 0.500000 0.500000
O O11 0.000000 0.000000 0.500000
O O12 0.147933 0.721745 0.200807
O O13 0.229452 0.627589 0.016314
O O14 0.000000 0.500000 0.000000
O O15 0.000000 0.000000 0.000000
O O16 0.321927 0.923637 0.929776
O O17 0.500000 0.500000 0.000000
#
# Coordination Sequence:
#
# PCOD9052622 Si02
#       7
#     2   2   2   2   2   2   2
#     4  12  23  41  72 103 139 184 232 296 365 437
#     4  11  21  43  65 105 137 175 235 300 362 419
#     4  12  25  41  71 102 139 189 243 294 360 440
#     4  12  30  52  75 108 152 200 247 304 378 443
#     4  12  26  48  69 104 148 188 242 301 370 440
#     4  11  23  42  68 102 139 178 244 298 361 415
#     4  10  26  47  77 105 146 196 249 306 359 444
#
# _framework density 24.041896000000001
#
# number of rings (size 3 to 8) (size 9 to 14) (size 15 to 20)
#    0.000    0.571    2.857    4.286    4.000    6.857 
#    0.000    0.000    0.000    0.000    0.000    0.000 
#    0.000    0.000    0.000    0.000    0.000    0.000 
#
# Total GULP energy -78038.508714 kJ/mol
# GULP energy per Si atom -5574.179194 kJ/mol
# Density = 2.398718 g / cm^3
# Si number density = 24.041896 Si / 1000 Ang^3
#
#
#
# Elastic Constant Matrix: (Units=GPa)
#
#
# Indices 1 2 3 4 5 6 
#
# 1 106.6032 35.3837 31.9446 0.6566 14.9939 7.1126
# 2 35.3837 150.4975 51.4225 -14.2713 10.5938 13.9444
# 3 31.9446 51.4225 190.5739 -29.2520 20.8679 -2.4711
# 4 0.6566 -14.2713 -29.2520 42.8450 1.3030 11.7096
# 5 14.9939 10.5938 20.8679 1.3030 33.3790 6.8159
# 6 7.1126 13.9444 -2.4711 11.7096 6.8159 33.2429
#
#
#
# Elastic Compliance Matrix: (Units=1/GPa)
#
#
# Indices 1 2 3 4 5 6 
#
# 1 0.010909 -0.002040 -0.001125 -0.001411 -0.003420 -0.000364
# 2 -0.002040 0.008303 -0.001501 0.002915 -0.000042 -0.004176
# 3 -0.001125 -0.001501 0.006882 0.004144 -0.003618 0.000664
# 4 -0.001411 0.002915 0.004144 0.030189 -0.001841 -0.010869
# 5 -0.003420 -0.000042 -0.003618 -0.001841 0.035081 -0.006064
# 6 -0.000364 -0.004176 0.000664 -0.010869 -0.006064 0.037032
#
#
# Mechanical properties :
#
#
# Convention : Reuss Voigt Hill
#
# Bulk Modulus (GPa) = 59.65556 76.13068 67.89312
# Shear Modulus (GPa) = 34.88845 43.82165 39.35505
#
# Velocity S-wave (km/s) = 3.81353 4.27396 4.05030
# Velocity P-wave (km/s) = 6.65265 7.48934 7.08336
#
# Compressibility (1/GPa) = 0.01676290
#
# Stress axis : x y z
#
# Youngs Moduli (GPa) = 91.66960 120.43406 145.31192
#
# Poissons Ratio (x) = 0.24566 0.16348
# Poissons Ratio (y) = 0.18698 0.21807
# Poissons Ratio (z) = 0.10313 0.18073
#
# Static dielectric constant tensor:
#      x y z
#    x 1.780280 1.406220 1.246150 
#    y 1.406220 -3.025470 -3.969510 
#    z 1.246150 -3.969510 -1.230670 
# 
# From -- ./inp_files/410897.got.cif
#   From: 2010.05.17/outbox.cif.g08.bks.cpg/sg2_206_cif.got.tgz:410897.got - 2010.06.03 11:33:40.
