data_PCOD9052040
_publ_section_title
;
Structure prediction by ZEFSAII (Michael W. Deem and Ramdas Pophale) SiO2 
 PCOD9052040
Probable space group: P -1
;
_chemical_formula_sum "Si O2"
_cell_formula_units_Z 12
_cell_length_a 5.344082
_cell_length_b 20.135698
_cell_length_c 5.333952
_cell_angle_alpha 91.332391
_cell_angle_beta 90.914403
_cell_angle_gamma 55.352101
_cell_volume 472.052347
_symmetry_space_group_name_H-M "P -1"
_symmetry_group_IT_number 2
_symmetry_cell_setting 'triclinic'
loop_
_space_group_symop_operation_xyz
x,y,z
-x,-y,-z
loop_
_atom_site_type_symbol
_atom_site_label
_atom_site_fract_x
_atom_site_fract_y
_atom_site_fract_z
Si Si1 0.450270 0.095113 0.254348
Si Si2 0.263743 0.495256 0.163583
Si Si3 0.654978 0.315260 0.361379
Si Si4 0.873159 0.672888 0.347099
Si Si5 0.439601 0.788242 0.981098
Si Si6 0.130826 0.089641 0.739510
O O1 0.238216 0.110286 0.490479
O O2 0.747808 0.003971 0.285098
O O3 0.537172 0.158196 0.221311
O O4 0.295147 0.095557 0.989701
O O5 0.453569 0.409146 0.290702
O O6 0.095960 0.575955 0.332880
O O7 0.500000 0.500000 0.000000
O O8 0.000000 0.500000 0.000000
O O9 0.438631 0.306516 0.541047
O O10 0.954337 0.297119 0.494431
O O11 0.705525 0.257756 0.128236
O O12 0.771341 0.716934 0.081209
O O13 0.223823 0.851048 0.198180
#
# Coordination Sequence:
#
# PCOD9052040 Si02
#       6
#     2   2   2   2   2   2
#     4  10  25  49  79 114 160 217 273 335 414 500
#     4  12  24  50  78 107 157 214 269 330 404 488
#     4  12  29  49  78 114 157 214 267 338 410 486
#     4  12  29  49  78 114 157 214 267 338 410 486
#     4  12  29  45  78 116 166 198 278 339 421 474
#     4  10  25  49  79 114 160 217 273 335 414 500
#
# _framework density 25.420909999999999
#
# number of rings (size 3 to 8) (size 9 to 14) (size 15 to 20)
#    0.000    0.667    1.667    3.500    9.333    0.000 
#    0.000    5.000    0.000    3.000    0.000    0.000 
#    0.000    0.000    0.000    0.000    0.000    0.000 
#
# Total GULP energy -67371.248690 kJ/mol
# GULP energy per Si atom -5614.270724 kJ/mol
# Density = 2.536305 g / cm^3
# Si number density = 25.420910 Si / 1000 Ang^3
#
#
#
# Elastic Constant Matrix: (Units=GPa)
#
#
# Indices 1 2 3 4 5 6 
#
# 1 150.6710 46.0545 61.3267 -13.6426 3.5163 25.2561
# 2 46.0545 191.9306 39.2713 -9.9718 -7.8337 24.4108
# 3 61.3267 39.2713 122.1608 -5.7016 -1.3470 18.5624
# 4 -13.6426 -9.9718 -5.7016 38.5749 -6.2951 -11.8858
# 5 3.5163 -7.8337 -1.3470 -6.2951 57.1590 6.2119
# 6 25.2561 24.4108 18.5624 -11.8858 6.2119 27.1595
#
#
#
# Elastic Compliance Matrix: (Units=1/GPa)
#
#
# Indices 1 2 3 4 5 6 
#
# 1 0.009274 -0.000810 -0.003594 0.000985 -0.000116 -0.004982
# 2 -0.000810 0.006220 -0.000887 0.000017 0.001377 -0.004539
# 3 -0.003594 -0.000887 0.010820 -0.000974 0.000664 -0.003833
# 4 0.000985 0.000017 -0.000974 0.030314 0.001891 0.012568
# 5 -0.000116 0.001377 0.000664 0.001891 0.018456 -0.004976
# 6 -0.004982 -0.004539 -0.003833 0.012568 -0.004976 0.054790
#
#
# Mechanical properties :
#
#
# Convention : Reuss Voigt Hill
#
# Bulk Modulus (GPa) = 63.56381 84.22971 73.89676
# Shear Modulus (GPa) = 34.31697 45.78600 40.05148
#
# Velocity S-wave (km/s) = 3.67815 4.24856 3.97360
# Velocity P-wave (km/s) = 6.56485 7.56789 7.08414
#
# Compressibility (1/GPa) = 0.01573222
#
# Stress axis : x y z
#
# Youngs Moduli (GPa) = 107.82382 160.75959 92.42424
#
# Poissons Ratio (x) = 0.13021 0.33215
# Poissons Ratio (y) = 0.08733 0.08202
# Poissons Ratio (z) = 0.38749 0.14267
#
# Static dielectric constant tensor:
#      x y z
#    x 1.956520 -0.020490 -0.009040 
#    y -0.020490 2.001250 0.007670 
#    z -0.009040 0.007670 2.064810 
# 
# From -- ./inp_files/6302.got.cif
#   From: 2010.05.17/outbox.cif.g08.bks.cpg/sg2_4_cif.got.tgz:6302.got - 2010.06.03 11:33:40.
