data_PCOD9052962
_publ_section_title
;
Structure prediction by ZEFSAII (Michael W. Deem and Ramdas Pophale) SiO2 
 PCOD9052962
Probable space group: P -1
;
_chemical_formula_sum "Si O2"
_cell_formula_units_Z 16
_cell_length_a 14.620493
_cell_length_b 10.272074
_cell_length_c 12.307255
_cell_angle_alpha 36.575034
_cell_angle_beta 81.808031
_cell_angle_gamma 63.696780
_cell_volume 905.157654
_symmetry_space_group_name_H-M "P -1"
_symmetry_group_IT_number 2
_symmetry_cell_setting 'triclinic'
loop_
_space_group_symop_operation_xyz
x,y,z
-x,-y,-z
loop_
_atom_site_type_symbol
_atom_site_label
_atom_site_fract_x
_atom_site_fract_y
_atom_site_fract_z
Si Si1 0.499714 0.312859 0.500446
Si Si2 0.563642 0.105947 0.855561
Si Si3 0.796386 0.703614 0.191181
Si Si4 0.089336 0.522333 0.038753
Si Si5 0.275008 0.913683 0.439702
Si Si6 0.258585 0.619831 0.426190
Si Si7 0.059353 0.093407 0.004397
Si Si8 0.122208 0.764040 0.674916
O O1 0.553459 0.098109 0.733072
O O2 0.493490 0.584845 0.327913
O O3 0.601027 0.168740 0.493597
O O4 0.367449 0.441078 0.450965
O O5 0.500000 0.000000 0.000000
O O6 0.685740 0.947015 0.991540
O O7 0.766806 0.574802 0.378453
O O8 0.850291 0.484151 0.235385
O O9 0.877568 0.794817 0.144417
O O10 0.194302 0.226673 0.233659
O O11 0.119604 0.692496 0.847250
O O12 0.000000 0.500000 0.000000
O O13 0.030221 0.677317 0.054390
O O14 0.279075 0.772993 0.417233
O O15 0.214332 0.823840 0.590722
O O16 0.153138 0.847063 0.225649
O O17 0.000000 0.000000 0.000000
O O18 0.000000 0.000000 0.500000
#
# Coordination Sequence:
#
# PCOD9052962 Si02
#       8
#     2   2   2   2   2   2   2   2
#     4  11  19  30  49  83 121 147 176 230 289 337
#     4  11  17  27  47  81 115 146 176 220 282 335
#     4  11  20  33  55  83 114 151 185 229 285 333
#     4  12  20  36  57  79 110 147 185 231 285 333
#     4  11  19  32  54  87 116 142 180 230 284 337
#     4  11  19  35  55  82 118 147 185 236 280 334
#     4  12  25  40  57  81 114 153 193 235 278 335
#     4  11  19  30  52  81 111 144 180 227 280 326
#
# _framework density 17.676480000000002
#
# number of rings (size 3 to 8) (size 9 to 14) (size 15 to 20)
#    0.000    0.750    8.750    2.250    0.000    0.500 
#    0.000    0.000    0.000    0.750    0.000    1.750 
#    0.000    0.000    0.000    0.000    0.000    0.000 
#
# Total GULP energy -89122.844490 kJ/mol
# GULP energy per Si atom -5570.177781 kJ/mol
# Density = 1.763625 g / cm^3
# Si number density = 17.676480 Si / 1000 Ang^3
#
#
#
# Elastic Constant Matrix: (Units=GPa)
#
#
# Indices 1 2 3 4 5 6 
#
# 1 94.4138 48.2634 46.3348 -9.2182 -4.2493 -23.8772
# 2 48.2634 55.9787 25.3433 -14.3757 3.2092 -15.7734
# 3 46.3348 25.3433 109.2309 -6.2581 -9.0665 -15.1769
# 4 -9.2182 -14.3757 -6.2581 22.9607 -15.5429 0.5380
# 5 -4.2493 3.2092 -9.0665 -15.5429 30.5437 -0.1115
# 6 -23.8772 -15.7734 -15.1769 0.5380 -0.1115 30.8287
#
#
#
# Elastic Compliance Matrix: (Units=1/GPa)
#
#
# Indices 1 2 3 4 5 6 
#
# 1 0.023070 -0.015720 -0.004765 0.000453 0.003705 0.007484
# 2 -0.015720 0.038353 0.000322 0.020585 0.004380 0.007263
# 3 -0.004765 0.000322 0.012221 0.005419 0.005697 0.002416
# 4 0.000453 0.020585 0.005419 0.087735 0.044200 0.012180
# 5 0.003705 0.004380 0.005697 0.044200 0.057005 0.007350
# 6 0.007484 0.007263 0.002416 0.012180 0.007350 0.042954
#
#
# Mechanical properties :
#
#
# Convention : Reuss Voigt Hill
#
# Bulk Modulus (GPa) = 30.01477 55.50071 42.75774
# Shear Modulus (GPa) = 15.98611 26.17872 21.08241
#
# Velocity S-wave (km/s) = 3.01054 3.85254 3.45727
# Velocity P-wave (km/s) = 5.39457 7.15930 6.33865
#
# Compressibility (1/GPa) = 0.03331693
#
# Stress axis : x y z
#
# Youngs Moduli (GPa) = 43.34603 26.07331 81.82761
#
# Poissons Ratio (x) = 0.40987 0.38995
# Poissons Ratio (y) = 0.68140 -0.02633
# Poissons Ratio (z) = 0.20656 -0.00839
#
# Static dielectric constant tensor:
#      x y z
#    x 1.669530 -0.041600 0.015620 
#    y -0.041600 1.618700 0.016200 
#    z 0.015620 0.016200 1.639080 
# 
# From -- ./inp_files/353743.got.cif
#   From: 2010.05.17/outbox.cif.g08.bks.cpg/sg2_177_cif.got.tgz:353743.got - 2010.06.03 11:33:40.
