data_PCOD9052789
_publ_section_title
;
Structure prediction by ZEFSAII (Michael W. Deem and Ramdas Pophale) SiO2 
 PCOD9052789
Probable space group: P -1
;
_chemical_formula_sum "Si O2"
_cell_formula_units_Z 15
_cell_length_a 8.538176
_cell_length_b 9.145512
_cell_length_c 11.953134
_cell_angle_alpha 123.987321
_cell_angle_beta 79.351278
_cell_angle_gamma 115.605142
_cell_volume 695.896398
_symmetry_space_group_name_H-M "P -1"
_symmetry_group_IT_number 2
_symmetry_cell_setting 'triclinic'
loop_
_space_group_symop_operation_xyz
x,y,z
-x,-y,-z
loop_
_atom_site_type_symbol
_atom_site_label
_atom_site_fract_x
_atom_site_fract_y
_atom_site_fract_z
Si Si1 0.743006 0.716178 0.730146
Si Si2 0.556827 0.989203 0.863170
Si Si3 0.013040 0.691929 0.519594
Si Si4 0.084137 0.210311 0.638040
Si Si5 0.605209 0.032040 0.342397
Si Si6 0.000000 0.000000 0.000000
Si Si7 0.520096 0.711337 0.385847
Si Si8 0.052830 0.730120 0.081706
O O1 0.860351 0.738532 0.614964
O O2 0.638032 0.492957 0.674874
O O3 0.601571 0.804250 0.765712
O O4 0.868117 0.834468 0.864138
O O5 0.737460 0.167803 0.890937
O O6 0.407195 0.979466 0.793405
O O7 0.500000 0.000000 0.000000
O O8 0.986268 0.665864 0.379716
O O9 0.000000 0.500000 0.500000
O O10 0.198508 0.860879 0.595051
O O11 0.291969 0.294377 0.636296
O O12 0.028774 0.211154 0.773137
O O13 0.000000 0.000000 0.500000
O O14 0.502260 0.155491 0.455575
O O15 0.519420 0.824583 0.321129
O O16 0.006901 0.827376 0.018888
O O17 0.000000 0.500000 0.000000
#
# Coordination Sequence:
#
# PCOD9052789 Si02
#       8
#     2   2   2   2   2   1   2   2
#     4  11  26  47  71 107 142 196 238 308 366 442
#     4  11  28  47  69 103 147 188 242 303 363 439
#     4  12  26  42  76 105 143 191 239 300 371 439
#     4  12  25  48  72 107 147 191 245 305 380 434
#     4  11  25  44  71 110 141 181 240 304 362 448
#     4  10  26  50  74 100 152 192 250 296 372 446
#     4  11  25  43  75 105 143 184 241 308 362 441
#     4  11  28  47  77 105 147 199 247 307 372 454
#
# _framework density 21.554932000000001
#
# number of rings (size 3 to 8) (size 9 to 14) (size 15 to 20)
#    0.000    0.800    2.667    3.200   13.067    1.067 
#    0.000    1.333    0.000    0.000    0.000    0.000 
#    0.000    0.000    0.000    0.000    0.000    0.000 
#
# Total GULP energy -83639.425669 kJ/mol
# GULP energy per Si atom -5575.961711 kJ/mol
# Density = 2.150587 g / cm^3
# Si number density = 21.554932 Si / 1000 Ang^3
#
#
#
# Elastic Constant Matrix: (Units=GPa)
#
#
# Indices 1 2 3 4 5 6 
#
# 1 73.3330 29.7962 31.6080 -15.1940 3.5637 5.8953
# 2 29.7962 144.9260 36.7447 4.4771 8.8335 -11.5991
# 3 31.6080 36.7447 67.0474 -26.8960 14.0391 -13.9177
# 4 -15.1940 4.4771 -26.8960 37.2169 -3.8634 1.0018
# 5 3.5637 8.8335 14.0391 -3.8634 41.4169 -9.9691
# 6 5.8953 -11.5991 -13.9177 1.0018 -9.9691 46.4666
#
#
#
# Elastic Compliance Matrix: (Units=1/GPa)
#
#
# Indices 1 2 3 4 5 6 
#
# 1 0.018904 -0.002470 -0.007692 0.002648 0.000486 -0.005272
# 2 -0.002470 0.009348 -0.006548 -0.006888 -0.000004 0.000833
# 3 -0.007692 -0.006548 0.033243 0.020903 -0.005410 0.007687
# 4 0.002648 -0.006888 0.020903 0.043696 -0.001036 0.003041
# 5 0.000486 -0.000004 -0.005410 -0.001036 0.026827 0.004095
# 6 -0.005272 0.000833 0.007687 0.003041 0.004095 0.025513
#
#
# Mechanical properties :
#
#
# Convention : Reuss Voigt Hill
#
# Bulk Modulus (GPa) = 35.61779 53.51159 44.56469
# Shear Modulus (GPa) = 24.96144 37.49726 31.22935
#
# Velocity S-wave (km/s) = 3.40669 4.17539 3.81047
# Velocity P-wave (km/s) = 5.65987 6.93720 6.33083
#
# Compressibility (1/GPa) = 0.02807586
#
# Stress axis : x y z
#
# Youngs Moduli (GPa) = 52.89813 106.97880 30.08119
#
# Poissons Ratio (x) = 0.26420 0.23139
# Poissons Ratio (y) = 0.13064 0.19697
# Poissons Ratio (z) = 0.40690 0.70048
#
# Static dielectric constant tensor:
#      x y z
#    x 1.802840 -0.064430 -0.028380 
#    y -0.064430 1.853220 -0.016520 
#    z -0.028380 -0.016520 1.773340 
# 
# From -- ./inp_files/383220.got.cif
#   From: 2010.05.17/outbox.cif.g08.bks.cpg/sg2_192_cif.got.tgz:383220.got - 2010.06.03 11:33:40.
