data_PCOD9052338
_publ_section_title
;
Structure prediction by ZEFSAII (Michael W. Deem and Ramdas Pophale) SiO2 
 PCOD9052338
Probable space group: P -1
;
_chemical_formula_sum "Si O2"
_cell_formula_units_Z 15
_cell_length_a 5.473204
_cell_length_b 9.622943
_cell_length_c 15.530371
_cell_angle_alpha 103.699214
_cell_angle_beta 59.328243
_cell_angle_gamma 75.897767
_cell_volume 615.078345
_symmetry_space_group_name_H-M "P -1"
_symmetry_group_IT_number 2
_symmetry_cell_setting 'triclinic'
loop_
_space_group_symop_operation_xyz
x,y,z
-x,-y,-z
loop_
_atom_site_type_symbol
_atom_site_label
_atom_site_fract_x
_atom_site_fract_y
_atom_site_fract_z
Si Si1 0.500000 0.500000 0.500000
Si Si2 0.647681 0.045176 0.596209
Si Si3 0.659912 0.125415 0.802496
Si Si4 0.293382 0.397301 0.673837
Si Si5 0.330217 0.836363 0.661375
Si Si6 0.192492 0.098794 0.012731
Si Si7 0.423035 0.642724 0.772400
Si Si8 0.320043 0.541161 0.128626
O O1 0.223919 0.470507 0.601838
O O2 0.332687 0.688900 0.585923
O O3 0.623225 0.078212 0.706568
O O4 0.438982 0.211053 0.614146
O O5 0.524219 0.913734 0.587782
O O6 0.000000 0.000000 0.500000
O O7 0.345624 0.150527 0.913696
O O8 0.692001 0.289511 0.818852
O O9 0.981399 0.981001 0.759465
O O10 0.514496 0.478851 0.679197
O O11 0.035615 0.437577 0.800982
O O12 0.496218 0.757676 0.711519
O O13 0.951558 0.249049 0.131839
O O14 0.500000 0.000000 0.000000
O O15 0.000000 0.000000 0.000000
O O16 0.533766 0.590969 0.841960
O O17 0.500000 0.500000 0.000000
#
# Coordination Sequence:
#
# PCOD9052338 Si02
#       8
#     1   2   2   2   2   2   2   2
#     4  10  26  44  78 106 146 204 260 330 400 472
#     4  12  27  46  78 112 153 209 262 332 413 491
#     4  12  26  47  74 113 153 207 262 328 407 487
#     4  11  25  48  72 112 156 200 266 331 409 481
#     4  11  25  50  77 111 155 200 267 328 407 487
#     4  12  28  47  78 116 160 212 269 332 405 491
#     4  11  26  47  75 110 155 206 264 331 400 485
#     4  12  28  45  78 111 159 209 263 337 407 487
#
# _framework density 24.387138
#
# number of rings (size 3 to 8) (size 9 to 14) (size 15 to 20)
#    0.000    0.533    4.000    2.400    7.467    5.333 
#    0.000    4.667    0.000    0.000    0.000    0.000 
#    0.000    0.000    0.000    0.000    0.000    0.000 
#
# Total GULP energy -83585.249819 kJ/mol
# GULP energy per Si atom -5572.349988 kJ/mol
# Density = 2.433163 g / cm^3
# Si number density = 24.387138 Si / 1000 Ang^3
#
#
#
# Elastic Constant Matrix: (Units=GPa)
#
#
# Indices 1 2 3 4 5 6 
#
# 1 62.2589 53.3190 -7.4916 0.0042 -5.2048 13.9287
# 2 53.3190 206.9542 36.7997 -9.1545 -6.6762 23.9866
# 3 -7.4916 36.7997 71.6789 -7.6877 -13.7013 6.8168
# 4 0.0042 -9.1545 -7.6877 48.2418 7.5576 0.6896
# 5 -5.2048 -6.6762 -13.7013 7.5576 40.4004 -14.7310
# 6 13.9287 23.9866 6.8168 0.6896 -14.7310 41.8019
#
#
#
# Elastic Compliance Matrix: (Units=1/GPa)
#
#
# Indices 1 2 3 4 5 6 
#
# 1 0.023919 -0.006842 0.006895 -0.000595 0.002891 -0.004140
# 2 -0.006842 0.007664 -0.004753 0.001074 -0.002208 -0.002139
# 3 0.006895 -0.004753 0.018417 0.001105 0.005963 -0.000490
# 4 -0.000595 0.001074 0.001105 0.021858 -0.004547 -0.002561
# 5 0.002891 -0.002208 0.005963 -0.004547 0.031459 0.010492
# 6 -0.004140 -0.002139 -0.000490 -0.002561 0.010492 0.030349
#
#
# Mechanical properties :
#
#
# Convention : Reuss Voigt Hill
#
# Bulk Modulus (GPa) = 24.63065 56.23845 40.43455
# Shear Modulus (GPa) = 31.92898 43.30649 37.61774
#
# Velocity S-wave (km/s) = 3.62229 4.21859 3.93176
# Velocity P-wave (km/s) = 5.25513 6.84393 6.10147
#
# Compressibility (1/GPa) = 0.04059982
#
# Stress axis : x y z
#
# Youngs Moduli (GPa) = 41.80830 130.48076 54.29780
#
# Poissons Ratio (x) = 0.89270 -0.37437
# Poissons Ratio (y) = 0.28604 0.25808
# Poissons Ratio (z) = -0.28826 0.62019
#
# Static dielectric constant tensor:
#      x y z
#    x 2.024040 -0.044010 0.045350 
#    y -0.044010 1.915070 -0.053860 
#    z 0.045350 -0.053860 1.952970 
# 
# From -- ./inp_files/94753.got.cif
#   From: 2010.05.17/outbox.cif.g08.bks.cpg/sg2_48_cif.got.tgz:94753.got - 2010.06.03 11:33:40.
