data_PCOD9052093
_publ_section_title
;
Structure prediction by ZEFSAII (Michael W. Deem and Ramdas Pophale) SiO2 
 PCOD9052093
Probable space group: P -1
;
_chemical_formula_sum "Si O2"
_cell_formula_units_Z 10
_cell_length_a 7.574735
_cell_length_b 15.869076
_cell_length_c 5.289857
_cell_angle_alpha 111.464434
_cell_angle_beta 89.953722
_cell_angle_gamma 42.161928
_cell_volume 357.560638
_symmetry_space_group_name_H-M "P -1"
_symmetry_group_IT_number 2
_symmetry_cell_setting 'triclinic'
loop_
_space_group_symop_operation_xyz
x,y,z
-x,-y,-z
loop_
_atom_site_type_symbol
_atom_site_label
_atom_site_fract_x
_atom_site_fract_y
_atom_site_fract_z
Si Si1 0.654030 0.531834 0.110301
Si Si2 0.627148 0.850946 0.744489
Si Si3 0.121067 0.046983 0.621952
Si Si4 0.776963 0.639099 0.849399
Si Si5 0.881124 0.237368 0.334660
O O1 0.627986 0.624824 0.012763
O O2 0.458704 0.633128 0.468688
O O3 0.996888 0.393245 0.017197
O O4 0.500000 0.500000 0.000000
O O5 0.563068 0.792633 0.862862
O O6 0.461958 0.903178 0.539310
O O7 0.500000 0.000000 0.000000
O O8 0.039669 0.139091 0.482201
O O9 0.000000 0.000000 0.500000
O O10 0.972744 0.147222 0.985250
O O11 0.000000 0.500000 0.500000
O O12 0.976571 0.720844 0.628333
#
# Coordination Sequence:
#
# PCOD9052093 Si02
#       5
#     2   2   2   2   2
#     4  11  28  50  83 119 163 220 279 342 411 493
#     4  10  25  50  79 116 165 216 269 338 413 493
#     4  11  26  48  78 119 164 211 273 341 410 487
#     4  11  27  52  80 118 167 217 278 342 416 494
#     4  11  26  48  80 116 159 218 272 335 408 492
#
# _framework density 27.967286000000001
#
# number of rings (size 3 to 8) (size 9 to 14) (size 15 to 20)
#    0.000    1.200    0.000    2.400   11.200    4.800 
#    7.200    0.000    0.000    0.000    0.000    0.000 
#    0.000    0.000    0.000    0.000    0.000    0.000 
#
# Total GULP energy -56086.251330 kJ/mol
# GULP energy per Si atom -5608.625133 kJ/mol
# Density = 2.790363 g / cm^3
# Si number density = 27.967286 Si / 1000 Ang^3
#
#
#
# Elastic Constant Matrix: (Units=GPa)
#
#
# Indices 1 2 3 4 5 6 
#
# 1 201.7473 27.6710 54.4974 -0.4000 12.2805 -3.1889
# 2 27.6710 157.4976 17.7983 -18.1582 10.3779 9.9835
# 3 54.4974 17.7983 169.4991 -11.6388 -0.7883 -3.1430
# 4 -0.4000 -18.1582 -11.6388 42.0502 -6.6628 -0.8550
# 5 12.2805 10.3779 -0.7883 -6.6628 66.3170 -0.7341
# 6 -3.1889 9.9835 -3.1430 -0.8550 -0.7341 64.8422
#
#
#
# Elastic Compliance Matrix: (Units=1/GPa)
#
#
# Indices 1 2 3 4 5 6 
#
# 1 0.005620 -0.000848 -0.001783 -0.000962 -0.001023 0.000296
# 2 -0.000848 0.006967 -0.000291 0.002792 -0.000668 -0.001099
# 3 -0.001783 -0.000291 0.006636 0.001802 0.000639 0.000310
# 4 -0.000962 0.002792 0.001802 0.025850 0.002360 -0.000022
# 5 -0.001023 -0.000668 0.000639 0.002360 0.015621 0.000292
# 6 0.000296 -0.001099 0.000310 -0.000022 0.000292 0.015624
#
#
# Mechanical properties :
#
#
# Convention : Reuss Voigt Hill
#
# Bulk Modulus (GPa) = 74.74651 80.96416 77.85534
# Shear Modulus (GPa) = 57.72322 63.22703 60.47512
#
# Velocity S-wave (km/s) = 4.54801 4.75989 4.65515
# Velocity P-wave (km/s) = 7.37317 7.69553 7.53607
#
# Compressibility (1/GPa) = 0.01337855
#
# Stress axis : x y z
#
# Youngs Moduli (GPa) = 177.94488 143.53930 150.69314
#
# Poissons Ratio (x) = 0.12175 0.26871
# Poissons Ratio (y) = 0.15093 0.04380
# Poissons Ratio (z) = 0.31730 0.04172
#
# Static dielectric constant tensor:
#      x y z
#    x 2.340940 0.076720 -0.146720 
#    y 0.076720 2.337880 -0.078340 
#    z -0.146720 -0.078340 2.381180 
# 
# From -- ./inp_files/40296.got.cif
#   From: 2010.05.17/outbox.cif.g08.bks.cpg/sg2_21_cif.got.tgz:40296.got - 2010.06.03 11:33:40.
