data_PCOD9052057
_publ_section_title
;
Structure prediction by ZEFSAII (Michael W. Deem and Ramdas Pophale) SiO2 
 PCOD9052057
Probable space group: P -1
;
_chemical_formula_sum "Si O2"
_cell_formula_units_Z 14
_cell_length_a 15.745402
_cell_length_b 9.100099
_cell_length_c 5.840806
_cell_angle_alpha 125.631414
_cell_angle_beta 59.218113
_cell_angle_gamma 124.872222
_cell_volume 537.658819
_symmetry_space_group_name_H-M "P -1"
_symmetry_group_IT_number 2
_symmetry_cell_setting 'triclinic'
loop_
_space_group_symop_operation_xyz
x,y,z
-x,-y,-z
loop_
_atom_site_type_symbol
_atom_site_label
_atom_site_fract_x
_atom_site_fract_y
_atom_site_fract_z
Si Si1 0.198278 0.686446 0.859864
Si Si2 0.114115 0.937277 0.888662
Si Si3 0.245646 0.375263 0.221347
Si Si4 0.276971 0.045344 0.392682
Si Si5 0.592388 0.530757 0.598141
Si Si6 0.514212 0.918708 0.654568
Si Si7 0.920592 0.573062 0.820484
O O1 0.161125 0.788463 0.800525
O O2 0.229651 0.513091 0.564439
O O3 0.104087 0.562434 0.048388
O O4 0.274968 0.877539 0.067546
O O5 0.987930 0.807435 0.964758
O O6 0.160888 0.978319 0.605662
O O7 0.167895 0.145891 0.131883
O O8 0.371718 0.414288 0.125418
O O9 0.196269 0.450521 0.141573
O O10 0.318497 0.264064 0.433288
O O11 0.362250 0.057516 0.482873
O O12 0.500000 0.500000 0.500000
O O13 0.569542 0.302945 0.430505
O O14 0.500000 0.000000 0.500000
O O15 0.500000 0.000000 0.000000
O O16 0.000000 0.500000 0.500000
#
# Coordination Sequence:
#
# PCOD9052057 Si02
#       7
#     2   2   2   2   2   2   2
#     4  12  25  47  75 105 160 200 262 316 398 464
#     4  12  27  48  73 112 155 205 259 324 393 478
#     4  12  27  45  79 107 150 202 261 314 399 467
#     4  11  25  48  74 107 159 200 261 328 389 478
#     4  10  25  50  73 111 148 202 255 323 395 473
#     4  11  27  47  81 117 158 205 271 332 411 485
#     4  12  26  47  73 112 154 202 260 323 391 478
#
# _framework density 26.038817999999999
#
# number of rings (size 3 to 8) (size 9 to 14) (size 15 to 20)
#    0.000    0.571    4.286    1.714    8.000    1.714 
#    0.000    3.571    0.000    0.000    0.000    0.000 
#    0.000    0.000    0.000    0.000    0.000    0.000 
#
# Total GULP energy -77979.278981 kJ/mol
# GULP energy per Si atom -5569.948499 kJ/mol
# Density = 2.597955 g / cm^3
# Si number density = 26.038818 Si / 1000 Ang^3
#
#
#
# Elastic Constant Matrix: (Units=GPa)
#
#
# Indices 1 2 3 4 5 6 
#
# 1 124.4334 31.8586 29.8761 26.8402 32.0635 -2.2324
# 2 31.8586 203.2629 71.9341 36.4321 15.6307 -17.7828
# 3 29.8761 71.9341 119.6486 42.3957 14.1015 1.7047
# 4 26.8402 36.4321 42.3957 46.7675 10.0672 10.5057
# 5 32.0635 15.6307 14.1015 10.0672 42.6915 11.1909
# 6 -2.2324 -17.7828 1.7047 10.5057 11.1909 47.4773
#
#
#
# Elastic Compliance Matrix: (Units=1/GPa)
#
#
# Indices 1 2 3 4 5 6 
#
# 1 0.011450 0.000231 -0.000010 -0.005821 -0.008324 0.003876
# 2 0.000231 0.007025 -0.002873 -0.003461 -0.002026 0.003989
# 3 -0.000010 -0.002873 0.013872 -0.010266 -0.001369 0.001020
# 4 -0.005821 -0.003461 -0.010266 0.038475 0.002669 -0.010344
# 5 -0.008324 -0.002026 -0.001369 0.002669 0.032705 -0.009401
# 6 0.003876 0.003989 0.001020 -0.010344 -0.009401 0.027207
#
#
# Mechanical properties :
#
#
# Convention : Reuss Voigt Hill
#
# Bulk Modulus (GPa) = 36.97654 79.40917 58.19286
# Shear Modulus (GPa) = 34.47068 48.29901 41.38485
#
# Velocity S-wave (km/s) = 3.64238 4.31151 3.99099
# Velocity P-wave (km/s) = 5.64983 7.43963 6.60563
#
# Compressibility (1/GPa) = 0.02704417
#
# Stress axis : x y z
#
# Youngs Moduli (GPa) = 87.33976 142.34038 72.08763
#
# Poissons Ratio (x) = -0.03293 0.00069
# Poissons Ratio (y) = -0.02021 0.20713
# Poissons Ratio (z) = 0.00083 0.40898
#
# Static dielectric constant tensor:
#      x y z
#    x 2.592470 -0.370050 0.420150 
#    y -0.370050 2.550120 -0.689020 
#    z 0.420150 -0.689020 2.882790 
# 
# From -- ./inp_files/107561.got.cif
#   From: 2010.05.17/outbox.cif.g08.bks.cpg/sg2_54_cif.got.tgz:107561.got - 2010.06.03 11:33:40.
