data_PCOD9052157
_publ_section_title
;
Structure prediction by ZEFSAII (Michael W. Deem and Ramdas Pophale) SiO2 
 PCOD9052157
Probable space group: P -1
;
_chemical_formula_sum "Si O2"
_cell_formula_units_Z 14
_cell_length_a 11.729587
_cell_length_b 10.474514
_cell_length_c 12.361123
_cell_angle_alpha 113.938075
_cell_angle_beta 34.602241
_cell_angle_gamma 130.210870
_cell_volume 630.368364
_symmetry_space_group_name_H-M "P -1"
_symmetry_group_IT_number 2
_symmetry_cell_setting 'triclinic'
loop_
_space_group_symop_operation_xyz
x,y,z
-x,-y,-z
loop_
_atom_site_type_symbol
_atom_site_label
_atom_site_fract_x
_atom_site_fract_y
_atom_site_fract_z
Si Si1 0.942933 0.068720 0.463678
Si Si2 0.410957 0.480471 0.232683
Si Si3 0.425995 0.891102 0.130194
Si Si4 0.649787 0.273866 0.519340
Si Si5 0.169660 0.886582 0.813854
Si Si6 0.200647 0.518897 0.197914
Si Si7 0.934633 0.996252 0.868962
O O1 0.691177 0.048836 0.675166
O O2 0.183872 0.273274 0.337533
O O3 0.000000 0.000000 0.500000
O O4 0.905844 0.961038 0.348506
O O5 0.411223 0.587978 0.370011
O O6 0.360845 0.554604 0.191666
O O7 0.669187 0.509026 0.012540
O O8 0.214720 0.685322 0.208945
O O9 0.500000 0.000000 0.000000
O O10 0.662289 0.908658 0.000194
O O11 0.417981 0.089708 0.684192
O O12 0.917444 0.365749 0.400377
O O13 0.729196 0.225827 0.330244
O O14 0.994518 0.885037 0.857186
O O15 0.035745 0.862173 0.023404
#
# Coordination Sequence:
#
# PCOD9052157 Si02
#       7
#     2   2   2   2   2   2   2
#     4  12  24  43  69 100 134 173 213 275 345 398
#     4  11  23  37  64 100 131 167 217 288 337 377
#     4  12  24  43  69 100 134 173 213 275 345 398
#     4  11  23  39  60  94 135 171 227 260 332 385
#     4  10  26  42  60  96 138 190 212 276 314 390
#     4  11  23  37  64 100 131 167 217 288 337 377
#     4  11  24  43  63  96 138 170 232 260 325 403
#
# _framework density 22.209237000000002
#
# number of rings (size 3 to 8) (size 9 to 14) (size 15 to 20)
#    0.000    0.857    4.286    2.143   16.000    0.000 
#    0.000    0.000    0.000    6.857    0.000    0.000 
#    0.000    0.000    0.000    0.000    0.000    0.000 
#
# Total GULP energy -78129.526412 kJ/mol
# GULP energy per Si atom -5580.680458 kJ/mol
# Density = 2.215869 g / cm^3
# Si number density = 22.209237 Si / 1000 Ang^3
#
#
#
# Elastic Constant Matrix: (Units=GPa)
#
#
# Indices 1 2 3 4 5 6 
#
# 1 76.3695 33.7517 39.8230 -8.2617 8.6119 -2.4368
# 2 33.7517 72.2235 42.0043 22.8837 12.2784 -7.8125
# 3 39.8230 42.0043 166.6567 44.6103 -7.2449 1.4046
# 4 -8.2617 22.8837 44.6103 63.4818 11.2084 1.2190
# 5 8.6119 12.2784 -7.2449 11.2084 45.6135 -3.6552
# 6 -2.4368 -7.8125 1.4046 1.2190 -3.6552 22.9522
#
#
#
# Elastic Compliance Matrix: (Units=1/GPa)
#
#
# Indices 1 2 3 4 5 6 
#
# 1 0.022736 -0.010002 -0.006386 0.012111 -0.005764 -0.002161
# 2 -0.010002 0.023035 -0.001277 -0.008514 -0.001861 0.007013
# 3 -0.006386 -0.001277 0.010380 -0.008587 0.005272 -0.000452
# 4 0.012111 -0.008514 -0.008587 0.028019 -0.008559 -0.003938
# 5 -0.005764 -0.001861 0.005272 -0.008559 0.026705 0.003139
# 6 -0.002161 0.007013 -0.000452 -0.003938 0.003139 0.046463
#
#
# Mechanical properties :
#
#
# Convention : Reuss Voigt Hill
#
# Bulk Modulus (GPa) = 48.02867 60.71197 54.37032
# Shear Modulus (GPa) = 25.04897 39.72088 32.38492
#
# Velocity S-wave (km/s) = 3.36201 4.23364 3.82275
# Velocity P-wave (km/s) = 6.06163 7.16198 6.63465
#
# Compressibility (1/GPa) = 0.02082090
#
# Stress axis : x y z
#
# Youngs Moduli (GPa) = 43.98286 43.41133 96.34202
#
# Poissons Ratio (x) = 0.43422 0.61526
# Poissons Ratio (y) = 0.43993 0.12299
# Poissons Ratio (z) = 0.28088 0.05542
#
# Static dielectric constant tensor:
#      x y z
#    x 1.788940 0.055510 -0.022190 
#    y 0.055510 1.907630 0.034480 
#    z -0.022190 0.034480 1.877710 
# 
# From -- ./inp_files/426459.got.cif
#   From: 2010.05.17/outbox.cif.g08.bks.cpg/sg2_214_cif.got.tgz:426459.got - 2010.06.03 11:33:40.
