data_PCOD9052004
_publ_section_title
;
Structure prediction by ZEFSAII (Michael W. Deem and Ramdas Pophale) SiO2 
 PCOD9052004
Probable space group: P -1
;
_chemical_formula_sum "Si O2"
_cell_formula_units_Z 16
_cell_length_a 5.212749
_cell_length_b 27.839667
_cell_length_c 9.040086
_cell_angle_alpha 32.756689
_cell_angle_beta 99.627982
_cell_angle_gamma 92.543059
_cell_volume 688.345426
_symmetry_space_group_name_H-M "P -1"
_symmetry_group_IT_number 2
_symmetry_cell_setting 'triclinic'
loop_
_space_group_symop_operation_xyz
x,y,z
-x,-y,-z
loop_
_atom_site_type_symbol
_atom_site_label
_atom_site_fract_x
_atom_site_fract_y
_atom_site_fract_z
Si Si1 0.357515 0.450177 0.245010
Si Si2 0.229224 0.767924 0.369530
Si Si3 0.818901 0.662610 0.714991
Si Si4 0.006914 0.503412 0.318550
Si Si5 0.158565 0.686186 0.266836
Si Si6 0.450007 0.964282 0.423854
Si Si7 0.092216 0.084690 0.866313
Si Si8 0.025151 0.148552 0.375732
O O1 0.150626 0.406777 0.240948
O O2 0.537930 0.361673 0.562116
O O3 0.257711 0.511067 0.218625
O O4 0.500000 0.500000 0.000000
O O5 0.542795 0.732458 0.494580
O O6 0.115578 0.749602 0.244025
O O7 0.126880 0.867387 0.163361
O O8 0.070803 0.709830 0.610455
O O9 0.806035 0.594463 0.023468
O O10 0.960125 0.405168 0.516951
O O11 0.000000 0.500000 0.500000
O O12 0.069520 0.750391 0.954461
O O13 0.717010 0.902048 0.554079
O O14 0.214766 0.905318 0.544224
O O15 0.500000 0.000000 0.500000
O O16 0.350932 0.046667 0.086421
O O17 0.105378 0.145617 0.564394
O O18 0.000000 0.000000 0.000000
#
# Coordination Sequence:
#
# PCOD9052004 Si02
#       8
#     2   2   2   2   2   2   2   2
#     4  11  22  45  71  96 144 198 253 296 352 436
#     4  11  25  43  74 100 138 185 248 293 354 437
#     4  11  24  44  68 103 136 195 245 294 348 435
#     4  12  26  42  68 103 150 192 242 304 374 418
#     4  11  25  43  68 103 145 191 246 296 354 437
#     4  11  24  46  76 103 142 186 239 294 372 454
#     4  10  25  49  74 106 146 186 236 305 383 440
#     4  11  26  43  69 107 145 185 235 306 367 434
#
# _framework density 23.244143000000001
#
# number of rings (size 3 to 8) (size 9 to 14) (size 15 to 20)
#    0.000    1.000    2.500    3.375    3.500    8.500 
#    0.000    0.000    0.000    0.000    0.000    0.000 
#    0.000    0.000    0.000    0.000    0.000    0.000 
#
# Total GULP energy -89303.122813 kJ/mol
# GULP energy per Si atom -5581.445176 kJ/mol
# Density = 2.319124 g / cm^3
# Si number density = 23.244143 Si / 1000 Ang^3
#
#
#
# Elastic Constant Matrix: (Units=GPa)
#
#
# Indices 1 2 3 4 5 6 
#
# 1 75.7143 -0.5246 -0.8025 -4.3347 4.1289 -9.0618
# 2 -0.5246 98.8475 -5.5992 5.4557 12.6095 -6.9480
# 3 -0.8025 -5.5992 130.2308 18.7126 23.7889 7.9930
# 4 -4.3347 5.4557 18.7126 47.3607 4.5491 7.7605
# 5 4.1289 12.6095 23.7889 4.5491 29.4450 -6.8586
# 6 -9.0618 -6.9480 7.9930 7.7605 -6.8586 25.3728
#
#
#
# Elastic Compliance Matrix: (Units=1/GPa)
#
#
# Indices 1 2 3 4 5 6 
#
# 1 0.013859 0.000507 -0.000054 0.000582 -0.001131 0.004622
# 2 0.000507 0.011121 0.001609 -0.001629 -0.005477 0.001737
# 3 -0.000054 0.001609 0.010136 -0.002528 -0.009546 -0.004579
# 4 0.000582 -0.001629 -0.002528 0.023847 -0.002769 -0.007484
# 5 -0.001131 -0.005477 -0.009546 -0.002769 0.048088 0.014949
# 6 0.004622 0.001737 -0.004579 -0.007484 0.014949 0.049311
#
#
# Mechanical properties :
#
#
# Convention : Reuss Voigt Hill
#
# Bulk Modulus (GPa) = 25.48304 32.32667 28.90485
# Shear Modulus (GPa) = 30.24518 41.21697 35.73108
#
# Velocity S-wave (km/s) = 3.61112 4.21553 3.92498
# Velocity P-wave (km/s) = 5.32672 6.13448 5.74482
#
# Compressibility (1/GPa) = 0.03924178
#
# Stress axis : x y z
#
# Youngs Moduli (GPa) = 72.15711 89.91833 98.66280
#
# Poissons Ratio (x) = -0.04563 0.00528
# Poissons Ratio (y) = -0.03662 -0.15878
# Poissons Ratio (z) = 0.00386 -0.14470
#
# Static dielectric constant tensor:
#      x y z
#    x 1.989310 -0.018100 -0.026710 
#    y -0.018100 1.898560 -0.028520 
#    z -0.026710 -0.028520 1.961340 
# 
# From -- ./inp_files/143335.got.cif
#   From: 2010.05.17/outbox.cif.g08.bks.cpg/sg2_72_cif.got.tgz:143335.got - 2010.06.03 11:33:40.
