data_PCOD9052245
_publ_section_title
;
Structure prediction by ZEFSAII (Michael W. Deem and Ramdas Pophale) SiO2 
 PCOD9052245
Probable space group: P -1
;
_chemical_formula_sum "Si O2"
_cell_formula_units_Z 16
_cell_length_a 9.143279
_cell_length_b 9.306219
_cell_length_c 11.947200
_cell_angle_alpha 78.021538
_cell_angle_beta 43.306289
_cell_angle_gamma 75.041116
_cell_volume 673.342606
_symmetry_space_group_name_H-M "P -1"
_symmetry_group_IT_number 2
_symmetry_cell_setting 'triclinic'
loop_
_space_group_symop_operation_xyz
x,y,z
-x,-y,-z
loop_
_atom_site_type_symbol
_atom_site_label
_atom_site_fract_x
_atom_site_fract_y
_atom_site_fract_z
Si Si1 0.287885 0.432320 0.662746
Si Si2 0.137522 0.078938 0.997577
Si Si3 0.215654 0.666263 0.842194
Si Si4 0.209515 0.857504 0.188927
Si Si5 0.428124 0.856804 0.509029
Si Si6 0.458131 0.298498 0.145588
Si Si7 0.937103 0.452297 0.666789
Si Si8 0.648969 0.003160 0.688296
O O1 0.500000 0.500000 0.500000
O O2 0.229996 0.506351 0.802989
O O3 0.367790 0.257448 0.633117
O O4 0.104062 0.481561 0.665241
O O5 0.027121 0.248918 0.027573
O O6 0.113934 0.993718 0.140622
O O7 0.388998 0.047654 0.834870
O O8 0.000000 0.000000 0.000000
O O9 0.320024 0.768737 0.677988
O O10 0.352356 0.671516 0.879060
O O11 0.075597 0.722668 0.295366
O O12 0.254097 0.925055 0.271726
O O13 0.429633 0.779812 0.015186
O O14 0.282846 0.920546 0.474278
O O15 0.500000 0.000000 0.500000
O O16 0.293823 0.448907 0.193696
O O17 0.325068 0.175890 0.293594
O O18 0.000000 0.500000 0.500000
#
# Coordination Sequence:
#
# PCOD9052245 Si02
#       8
#     2   2   2   2   2   2   2   2
#     4  10  26  44  67 101 137 179 232 285 350 413
#     4  11  21  44  71 104 137 185 237 287 340 407
#     4  11  23  41  72  99 143 179 236 290 343 413
#     4  11  27  45  70 103 144 185 241 279 352 422
#     4  11  22  43  71 100 134 178 234 295 347 405
#     4  11  23  48  67 102 145 190 222 287 356 412
#     4  12  28  45  71  99 145 186 229 290 355 418
#     4  11  25  42  73 100 145 181 236 291 345 417
#
# _framework density 23.762048
#
# number of rings (size 3 to 8) (size 9 to 14) (size 15 to 20)
#    0.000    1.000    3.750    3.375   12.250    0.000 
#    0.000    2.500    0.000    0.000    0.000    0.000 
#    0.000    0.000    0.000    0.000    0.000    0.000 
#
# Total GULP energy -89608.020670 kJ/mol
# GULP energy per Si atom -5600.501292 kJ/mol
# Density = 2.370796 g / cm^3
# Si number density = 23.762048 Si / 1000 Ang^3
#
#
#
# Elastic Constant Matrix: (Units=GPa)
#
#
# Indices 1 2 3 4 5 6 
#
# 1 148.2891 43.3965 11.5524 -4.1263 16.8393 11.0607
# 2 43.3965 147.7788 18.6843 11.4034 -4.2205 9.5905
# 3 11.5524 18.6843 61.3674 -7.5059 4.2932 3.5016
# 4 -4.1263 11.4034 -7.5059 42.0811 -2.7088 7.2590
# 5 16.8393 -4.2205 4.2932 -2.7088 39.6923 7.9789
# 6 11.0607 9.5905 3.5016 7.2590 7.9789 26.5578
#
#
#
# Elastic Compliance Matrix: (Units=1/GPa)
#
#
# Indices 1 2 3 4 5 6 
#
# 1 0.008007 -0.002401 -0.000263 0.001516 -0.003138 -0.001905
# 2 -0.002401 0.008135 -0.002390 -0.002433 0.002308 -0.001651
# 3 -0.000263 -0.002390 0.017783 0.004063 -0.001373 -0.002070
# 4 0.001516 -0.002433 0.004063 0.026863 0.002156 -0.008279
# 5 -0.003138 0.002308 -0.001373 0.002156 0.028792 -0.008585
# 6 -0.001905 -0.001651 -0.002070 -0.008279 -0.008585 0.044158
#
#
# Mechanical properties :
#
#
# Convention : Reuss Voigt Hill
#
# Bulk Modulus (GPa) = 41.98401 56.07795 49.03098
# Shear Modulus (GPa) = 32.94134 40.58638 36.76386
#
# Velocity S-wave (km/s) = 3.72734 4.13732 3.93767
# Velocity P-wave (km/s) = 6.01922 6.81720 6.43060
#
# Compressibility (1/GPa) = 0.02381859
#
# Stress axis : x y z
#
# Youngs Moduli (GPa) = 124.88624 122.92713 56.23235
#
# Poissons Ratio (x) = 0.29516 0.01477
# Poissons Ratio (y) = 0.29987 0.13437
# Poissons Ratio (z) = 0.03281 0.29375
#
# Static dielectric constant tensor:
#      x y z
#    x 1.893160 -0.060810 -0.058400 
#    y -0.060810 1.921080 0.028430 
#    z -0.058400 0.028430 2.029130 
# 
# From -- ./inp_files/357069.got.cif
#   From: 2010.05.17/outbox.cif.g08.bks.cpg/sg2_179_cif.got.tgz:357069.got - 2010.06.03 11:33:40.
