data_PCOD9052488
_publ_section_title
;
Structure prediction by ZEFSAII (Michael W. Deem and Ramdas Pophale) SiO2 
 PCOD9052488
Probable space group: P -1
;
_chemical_formula_sum "Si O2"
_cell_formula_units_Z 12
_cell_length_a 8.042622
_cell_length_b 14.553993
_cell_length_c 9.224775
_cell_angle_alpha 50.462067
_cell_angle_beta 127.742858
_cell_angle_gamma 139.252842
_cell_volume 525.149194
_symmetry_space_group_name_H-M "P -1"
_symmetry_group_IT_number 2
_symmetry_cell_setting 'triclinic'
loop_
_space_group_symop_operation_xyz
x,y,z
-x,-y,-z
loop_
_atom_site_type_symbol
_atom_site_label
_atom_site_fract_x
_atom_site_fract_y
_atom_site_fract_z
Si Si1 0.829125 0.332962 0.011934
Si Si2 0.774485 0.664410 0.995708
Si Si3 0.013763 0.679705 0.413277
Si Si4 0.759829 0.109080 0.431857
Si Si5 0.556335 0.387022 0.587175
Si Si6 0.625619 0.818141 0.564028
O O1 0.736416 0.213726 0.208593
O O2 0.014423 0.322458 0.012703
O O3 0.594458 0.309525 0.816889
O O4 0.000000 0.500000 0.000000
O O5 0.718090 0.777636 0.795131
O O6 0.500000 0.500000 0.000000
O O7 0.881952 0.687747 0.191581
O O8 0.020642 0.779972 0.444810
O O9 0.315430 0.745447 0.482289
O O10 0.846083 0.508791 0.548134
O O11 0.500000 0.000000 0.500000
O O12 0.780105 0.995497 0.463725
O O13 0.500000 0.500000 0.500000
O O14 0.368720 0.269887 0.480850
#
# Coordination Sequence:
#
# PCOD9052488 Si02
#       6
#     2   2   2   2   2   2
#     4  12  25  45  73 104 143 189 242 287 352 431
#     4  12  25  41  76 108 138 189 240 290 354 419
#     4  11  23  46  69 105 141 188 233 290 353 420
#     4  10  26  46  73 102 146 191 230 299 360 409
#     4  12  24  41  72 107 140 182 242 297 348 420
#     4  11  24  46  69 101 147 185 234 292 351 421
#
# _framework density 22.850650000000002
#
# number of rings (size 3 to 8) (size 9 to 14) (size 15 to 20)
#    0.000    0.667    5.000    2.500    2.333    2.000 
#    0.000    0.000    0.000    0.000    0.000    0.000 
#    0.000    0.000    0.000    0.000    0.000    0.000 
#
# Total GULP energy -67196.693395 kJ/mol
# GULP energy per Si atom -5599.724450 kJ/mol
# Density = 2.279864 g / cm^3
# Si number density = 22.850650 Si / 1000 Ang^3
#
#
#
# Elastic Constant Matrix: (Units=GPa)
#
#
# Indices 1 2 3 4 5 6 
#
# 1 92.6672 37.1210 34.5060 6.1245 -2.5285 -13.2752
# 2 37.1210 146.4940 69.6514 -11.8013 -8.3827 -27.7990
# 3 34.5060 69.6514 239.6683 -0.8219 -3.8193 -10.5817
# 4 6.1245 -11.8013 -0.8219 46.3653 -0.1110 -4.3760
# 5 -2.5285 -8.3827 -3.8193 -0.1110 38.1579 1.0827
# 6 -13.2752 -27.7990 -10.5817 -4.3760 1.0827 41.7104
#
#
#
# Elastic Compliance Matrix: (Units=1/GPa)
#
#
# Indices 1 2 3 4 5 6 
#
# 1 0.012587 -0.002532 -0.001001 -0.002151 0.000119 0.001836
# 2 -0.002532 0.009957 -0.002246 0.003359 0.001647 0.005570
# 3 -0.001001 -0.002246 0.004940 -0.000409 -0.000049 -0.000603
# 4 -0.002151 0.003359 -0.000409 0.023065 0.000512 0.003857
# 5 0.000119 0.001647 -0.000049 0.000512 0.026559 0.000487
# 6 0.001836 0.005570 -0.000603 0.003857 0.000487 0.028511
#
#
# Mechanical properties :
#
#
# Convention : Reuss Voigt Hill
#
# Bulk Modulus (GPa) = 62.78200 84.59849 73.69024
# Shear Modulus (GPa) = 40.82163 47.75015 44.28589
#
# Velocity S-wave (km/s) = 4.23123 4.57624 4.40711
# Velocity P-wave (km/s) = 7.16977 8.06383 7.62991
#
# Compressibility (1/GPa) = 0.01592813
#
# Stress axis : x y z
#
# Youngs Moduli (GPa) = 79.44998 100.42954 202.41743
#
# Poissons Ratio (x) = 0.25425 0.20258
# Poissons Ratio (y) = 0.20114 0.45454
# Poissons Ratio (z) = 0.07952 0.22552
#
# Static dielectric constant tensor:
#      x y z
#    x -0.806970 -1.215470 0.085920 
#    y -1.215470 1.313610 0.047380 
#    z 0.085920 0.047380 1.797950 
# 
# From -- ./inp_files/152466.got.cif
#   From: 2010.05.17/outbox.cif.g08.bks.cpg/sg2_77_cif.got.tgz:152466.got - 2010.06.03 11:33:40.
