data_PCOD9052401
_publ_section_title
;
Structure prediction by ZEFSAII (Michael W. Deem and Ramdas Pophale) SiO2 
 PCOD9052401
Probable space group: P -1
;
_chemical_formula_sum "Si O2"
_cell_formula_units_Z 16
_cell_length_a 8.323721
_cell_length_b 12.915054
_cell_length_c 7.907996
_cell_angle_alpha 128.542745
_cell_angle_beta 85.449028
_cell_angle_gamma 91.931521
_cell_volume 662.684383
_symmetry_space_group_name_H-M "P -1"
_symmetry_group_IT_number 2
_symmetry_cell_setting 'triclinic'
loop_
_space_group_symop_operation_xyz
x,y,z
-x,-y,-z
loop_
_atom_site_type_symbol
_atom_site_label
_atom_site_fract_x
_atom_site_fract_y
_atom_site_fract_z
Si Si1 0.300256 0.327192 0.081177
Si Si2 0.533728 0.085731 0.810940
Si Si3 0.039336 0.565350 0.883766
Si Si4 0.556838 0.396249 0.640994
Si Si5 0.263052 0.722666 0.807696
Si Si6 0.020652 0.876484 0.750643
Si Si7 0.782070 0.671661 0.518830
Si Si8 0.319492 0.871315 0.506679
O O1 0.401614 0.456409 0.157845
O O2 0.281249 0.325932 0.283353
O O3 0.120228 0.348207 0.051542
O O4 0.392825 0.193569 0.886903
O O5 0.648351 0.079196 0.632548
O O6 0.446245 0.946913 0.694449
O O7 0.632484 0.151621 0.020283
O O8 0.192595 0.654799 0.913207
O O9 0.077394 0.439078 0.631814
O O10 0.000000 0.500000 0.000000
O O11 0.629762 0.372113 0.419839
O O12 0.367850 0.366262 0.623697
O O13 0.646321 0.284740 0.632689
O O14 0.112958 0.768709 0.752275
O O15 0.142268 0.905666 0.620121
O O16 0.858970 0.814063 0.629747
O O17 0.000000 0.000000 0.000000
#
# Coordination Sequence:
#
# PCOD9052401 Si02
#       8
#     2   2   2   2   2   2   2   2
#     4  12  23  45  70  96 131 181 217 277 328 401
#     4  11  25  45  69  94 139 175 224 272 333 394
#     4  12  27  41  66 102 140 170 217 275 344 390
#     4  11  24  42  73  99 129 175 230 269 328 392
#     4  11  23  43  69 100 131 174 222 276 326 398
#     4  11  25  43  69  98 131 177 223 268 332 401
#     4  12  23  44  66  99 133 172 219 278 331 393
#     4  10  26  46  64  99 136 177 215 279 331 394
#
# _framework density 24.144224999999999
#
# number of rings (size 3 to 8) (size 9 to 14) (size 15 to 20)
#    0.000    0.750    3.750    3.750    7.000    1.500 
#    0.000    0.625    0.000    0.000    0.000    0.000 
#    0.000    0.000    0.000    0.000    0.000    0.000 
#
# Total GULP energy -89586.591733 kJ/mol
# GULP energy per Si atom -5599.161983 kJ/mol
# Density = 2.408927 g / cm^3
# Si number density = 24.144225 Si / 1000 Ang^3
#
#
#
# Elastic Constant Matrix: (Units=GPa)
#
#
# Indices 1 2 3 4 5 6 
#
# 1 87.0575 14.8980 12.2539 2.9514 -9.0877 14.0860
# 2 14.8980 65.6153 15.1920 -4.1979 -10.2110 27.8505
# 3 12.2539 15.1920 68.8157 13.2382 -14.3184 11.8144
# 4 2.9514 -4.1979 13.2382 27.2380 4.4365 3.7899
# 5 -9.0877 -10.2110 -14.3184 4.4365 37.5453 6.3603
# 6 14.0860 27.8505 11.8144 3.7899 6.3603 34.2390
#
#
#
# Elastic Compliance Matrix: (Units=1/GPa)
#
#
# Indices 1 2 3 4 5 6 
#
# 1 0.012953 0.000359 -0.000202 -0.001089 0.004341 -0.006237
# 2 0.000359 0.028439 -0.000874 0.006549 0.011078 -0.025761
# 3 -0.000202 -0.000874 0.019943 -0.010448 0.009694 -0.006731
# 4 -0.001089 0.006549 -0.010448 0.044733 -0.006916 -0.004941
# 5 0.004341 0.011078 0.009694 -0.006916 0.038696 -0.020564
# 6 -0.006237 -0.025761 -0.006731 -0.004941 -0.020564 0.059417
#
#
# Mechanical properties :
#
#
# Convention : Reuss Voigt Hill
#
# Bulk Modulus (GPa) = 16.69463 34.01958 25.35711
# Shear Modulus (GPa) = 22.16499 31.74743 26.95621
#
# Velocity S-wave (km/s) = 3.03318 3.63010 3.34498
# Velocity P-wave (km/s) = 4.38138 5.62947 5.04417
#
# Compressibility (1/GPa) = 0.05989948
#
# Stress axis : x y z
#
# Youngs Moduli (GPa) = 77.20283 35.16349 50.14266
#
# Poissons Ratio (x) = -0.01262 0.01014
# Poissons Ratio (y) = -0.02771 0.04384
# Poissons Ratio (z) = 0.01561 0.03074
#
# Static dielectric constant tensor:
#      x y z
#    x 1.944280 -0.000730 0.014920 
#    y -0.000730 1.948860 0.004410 
#    z 0.014920 0.004410 1.895700 
# 
# From -- ./inp_files/187549.got.cif
#   From: 2010.05.17/outbox.cif.g08.bks.cpg/sg2_94_cif.got.tgz:187549.got - 2010.06.03 11:33:40.
