data_PCOD9052552
_publ_section_title
;
Structure prediction by ZEFSAII (Michael W. Deem and Ramdas Pophale) SiO2 
 PCOD9052552
Probable space group: P -1
;
_chemical_formula_sum "Si O2"
_cell_formula_units_Z 14
_cell_length_a 8.773075
_cell_length_b 14.037412
_cell_length_c 19.528603
_cell_angle_alpha 146.118085
_cell_angle_beta 143.589870
_cell_angle_gamma 58.416548
_cell_volume 716.050308
_symmetry_space_group_name_H-M "P -1"
_symmetry_group_IT_number 2
_symmetry_cell_setting 'triclinic'
loop_
_space_group_symop_operation_xyz
x,y,z
-x,-y,-z
loop_
_atom_site_type_symbol
_atom_site_label
_atom_site_fract_x
_atom_site_fract_y
_atom_site_fract_z
Si Si1 0.841460 0.635485 0.029207
Si Si2 0.252911 0.294766 0.807306
Si Si3 0.250394 0.400170 0.603024
Si Si4 0.299332 0.017456 0.377973
Si Si5 0.727565 0.809777 0.768012
Si Si6 0.645993 0.074290 0.396732
Si Si7 0.283814 0.514134 0.525948
O O1 0.843213 0.697608 0.145225
O O2 0.019193 0.819547 0.157636
O O3 0.518829 0.525758 0.821739
O O4 0.000000 0.500000 0.000000
O O5 0.972284 0.227539 0.618221
O O6 0.355812 0.129245 0.738624
O O7 0.500000 0.500000 0.000000
O O8 0.316431 0.471050 0.590801
O O9 0.967338 0.420342 0.532531
O O10 0.216614 0.186895 0.466410
O O11 0.500000 0.000000 0.500000
O O12 0.470468 0.059618 0.394039
O O13 0.501097 0.865638 0.681405
O O14 0.573172 0.677033 0.697393
O O15 0.796314 0.676142 0.660685
O O16 0.000000 0.000000 0.000000
#
# Coordination Sequence:
#
# PCOD9052552 Si02
#       7
#     2   2   2   2   2   2   2
#     4  12  25  41  70 101 130 178 219 268 339 401
#     4  11  26  41  67 100 135 174 218 271 345 402
#     4  11  25  44  69  97 136 171 225 277 326 396
#     4  12  23  43  67  97 137 171 216 271 333 397
#     4  11  26  45  70  95 132 178 230 273 336 387
#     4  11  25  44  65  98 136 173 220 280 330 398
#     4  10  26  47  67  97 130 180 225 278 328 388
#
# _framework density 19.551698999999999
#
# number of rings (size 3 to 8) (size 9 to 14) (size 15 to 20)
#    0.000    0.857    4.286    0.857    8.000    1.143 
#    0.000    2.857    0.000    0.000    0.000    0.000 
#    0.000    0.000    0.000    0.000    0.000    0.000 
#
# Total GULP energy -78334.516125 kJ/mol
# GULP energy per Si atom -5595.322580 kJ/mol
# Density = 1.950720 g / cm^3
# Si number density = 19.551699 Si / 1000 Ang^3
#
#
#
# Elastic Constant Matrix: (Units=GPa)
#
#
# Indices 1 2 3 4 5 6 
#
# 1 55.2590 16.9025 27.9221 3.4230 -2.2411 -11.1140
# 2 16.9025 125.1051 55.1414 3.1702 -8.0393 -20.2240
# 3 27.9221 55.1414 127.2718 25.6696 -3.7782 -10.2626
# 4 3.4230 3.1702 25.6696 30.9703 7.4704 -2.3747
# 5 -2.2411 -8.0393 -3.7782 7.4704 21.0124 7.0394
# 6 -11.1140 -20.2240 -10.2626 -2.3747 7.0394 31.8306
#
#
#
# Elastic Compliance Matrix: (Units=1/GPa)
#
#
# Indices 1 2 3 4 5 6 
#
# 1 0.021598 0.000095 -0.004794 0.002471 -0.001610 0.006597
# 2 0.000095 0.011034 -0.005027 0.003402 0.000234 0.005625
# 3 -0.004794 -0.005027 0.013319 -0.011351 0.004829 -0.002488
# 4 0.002471 0.003402 -0.011351 0.046275 -0.019301 0.007085
# 5 -0.001610 0.000234 0.004829 -0.019301 0.059767 -0.013514
# 6 0.006597 0.005625 -0.002488 0.007085 -0.013514 0.040008
#
#
# Mechanical properties :
#
#
# Convention : Reuss Voigt Hill
#
# Bulk Modulus (GPa) = 37.73597 56.39644 47.06621
# Shear Modulus (GPa) = 22.69777 30.60733 26.65255
#
# Velocity S-wave (km/s) = 3.41091 3.96088 3.69614
# Velocity P-wave (km/s) = 5.90381 7.05872 6.50693
#
# Compressibility (1/GPa) = 0.02649991
#
# Stress axis : x y z
#
# Youngs Moduli (GPa) = 46.30019 90.62584 75.08079
#
# Poissons Ratio (x) = -0.00862 0.35993
# Poissons Ratio (y) = -0.00441 0.37744
# Poissons Ratio (z) = 0.22196 0.45559
#
# Static dielectric constant tensor:
#      x y z
#    x 1.676360 0.002150 0.005870 
#    y 0.002150 1.653500 0.000650 
#    z 0.005870 0.000650 1.659460 
# 
# From -- ./inp_files/258739.got.cif
#   From: 2010.05.17/outbox.cif.g08.bks.cpg/sg2_130_cif.got.tgz:258739.got - 2010.06.03 11:33:40.
