data_PCOD9052374
_publ_section_title
;
Structure prediction by ZEFSAII (Michael W. Deem and Ramdas Pophale) SiO2 
 PCOD9052374
Probable space group: P -1
;
_chemical_formula_sum "Si O2"
_cell_formula_units_Z 16
_cell_length_a 7.365504
_cell_length_b 9.881586
_cell_length_c 11.569942
_cell_angle_alpha 107.691126
_cell_angle_beta 82.868849
_cell_angle_gamma 54.582411
_cell_volume 602.941737
_symmetry_space_group_name_H-M "P -1"
_symmetry_group_IT_number 2
_symmetry_cell_setting 'triclinic'
loop_
_space_group_symop_operation_xyz
x,y,z
-x,-y,-z
loop_
_atom_site_type_symbol
_atom_site_label
_atom_site_fract_x
_atom_site_fract_y
_atom_site_fract_z
Si Si1 0.835704 0.811610 0.929143
Si Si2 0.770486 0.515338 0.047498
Si Si3 0.338789 0.222415 0.693077
Si Si4 0.839346 0.302365 0.787698
Si Si5 0.511403 0.810977 0.814231
Si Si6 0.924806 0.102185 0.235545
Si Si7 0.132664 0.786136 0.480819
Si Si8 0.717955 0.775029 0.547700
O O1 0.721418 0.722539 0.869154
O O2 0.095226 0.664000 0.927216
O O3 0.883534 0.887485 0.834049
O O4 0.649194 0.968241 0.078931
O O5 0.606910 0.696694 0.187400
O O6 0.685929 0.478023 0.930796
O O7 0.000000 0.500000 0.000000
O O8 0.326619 0.292985 0.582824
O O9 0.088235 0.264799 0.740159
O O10 0.536823 0.000543 0.617818
O O11 0.729484 0.329629 0.676781
O O12 0.929337 0.114042 0.796006
O O13 0.289689 0.816934 0.817546
O O14 0.654931 0.735729 0.662854
O O15 0.793342 0.212913 0.394750
O O16 0.969447 0.729517 0.505336
O O17 0.000000 0.000000 0.500000
#
# Coordination Sequence:
#
# PCOD9052374 Si02
#       8
#     2   2   2   2   2   2   2   2
#     4  11  23  36  60  93 118 158 202 243 301 352
#     4  10  19  37  59  85 121 159 195 241 304 360
#     4   9  18  30  60  88 114 154 197 243 296 352
#     4   9  17  32  57  87 116 155 196 239 291 347
#     4  11  21  35  57  93 118 153 204 247 293 350
#     4  11  19  36  60  92 122 156 197 253 292 341
#     4   9  19  31  55  91 118 152 195 250 294 340
#     4  10  17  35  56  91 114 144 206 250 288 347
#
# _framework density 26.536560000000001
#
# number of rings (size 3 to 8) (size 9 to 14) (size 15 to 20)
#    0.000    2.000    3.750    1.125    1.750    0.000 
#    0.000    0.625    0.000   12.000    0.000    0.000 
#    0.000    0.000    0.000    0.000    0.000    0.125 
#
# Total GULP energy -89336.859645 kJ/mol
# GULP energy per Si atom -5583.553728 kJ/mol
# Density = 2.647616 g / cm^3
# Si number density = 26.536560 Si / 1000 Ang^3
#
#
#
# Elastic Constant Matrix: (Units=GPa)
#
#
# Indices 1 2 3 4 5 6 
#
# 1 109.7010 17.5069 57.8522 -9.2832 -8.4526 7.8066
# 2 17.5069 55.7383 37.8738 -6.2877 -7.4009 13.6846
# 3 57.8522 37.8738 172.7733 1.3557 37.4273 17.6661
# 4 -9.2832 -6.2877 1.3557 20.0554 9.7659 -2.8064
# 5 -8.4526 -7.4009 37.4273 9.7659 59.2063 -12.7553
# 6 7.8066 13.6846 17.6661 -2.8064 -12.7553 21.3518
#
#
#
# Elastic Compliance Matrix: (Units=1/GPa)
#
#
# Indices 1 2 3 4 5 6 
#
# 1 0.012799 0.000356 -0.006132 0.004133 0.005990 0.004288
# 2 0.000356 0.024814 -0.005642 0.005181 0.004089 -0.008241
# 3 -0.006132 -0.005642 0.013016 -0.001245 -0.012277 -0.012409
# 4 0.004133 0.005181 -0.001245 0.057051 -0.007562 -0.000820
# 5 0.005990 0.004089 -0.012277 -0.007562 0.032368 0.023689
# 6 0.004288 -0.008241 -0.012409 -0.000820 0.023689 0.074859
#
#
# Mechanical properties :
#
#
# Convention : Reuss Voigt Hill
#
# Bulk Modulus (GPa) = 35.98241 62.74205 49.36223
# Shear Modulus (GPa) = 20.24216 35.12135 27.68176
#
# Velocity S-wave (km/s) = 2.76488 3.64195 3.23330
# Velocity P-wave (km/s) = 4.87666 6.43273 5.70797
#
# Compressibility (1/GPa) = 0.02779136
#
# Stress axis : x y z
#
# Youngs Moduli (GPa) = 78.13137 40.29969 76.82771
#
# Poissons Ratio (x) = -0.01433 0.47111
# Poissons Ratio (y) = -0.02778 0.43349
# Poissons Ratio (z) = 0.47911 0.22739
#
# Static dielectric constant tensor:
#      x y z
#    x 2.059660 -0.008420 0.019670 
#    y -0.008420 2.117350 0.000860 
#    z 0.019670 0.000860 2.132580 
# 
# From -- ./inp_files/390704.got.cif
#   From: 2010.05.17/outbox.cif.g08.bks.cpg/sg2_196_cif.got.tgz:390704.got - 2010.06.03 11:33:40.
