data_PCOD9052964
_publ_section_title
;
Structure prediction by ZEFSAII (Michael W. Deem and Ramdas Pophale) SiO2 
 PCOD9052964
Probable space group: P -1
;
_chemical_formula_sum "Si O2"
_cell_formula_units_Z 16
_cell_length_a 7.736888
_cell_length_b 10.012505
_cell_length_c 12.795418
_cell_angle_alpha 114.358958
_cell_angle_beta 84.079545
_cell_angle_gamma 131.265133
_cell_volume 657.762800
_symmetry_space_group_name_H-M "P -1"
_symmetry_group_IT_number 2
_symmetry_cell_setting 'triclinic'
loop_
_space_group_symop_operation_xyz
x,y,z
-x,-y,-z
loop_
_atom_site_type_symbol
_atom_site_label
_atom_site_fract_x
_atom_site_fract_y
_atom_site_fract_z
Si Si1 0.143255 0.909816 0.509969
Si Si2 0.172412 0.507456 0.163817
Si Si3 0.317012 0.506002 0.566816
Si Si4 0.091714 0.932309 0.748344
Si Si5 0.462010 0.792715 0.059111
Si Si6 0.309585 0.782370 0.792682
Si Si7 0.763587 0.791209 0.898726
Si Si8 0.634647 0.277221 0.554593
O O1 0.276874 0.835831 0.505876
O O2 0.886186 0.702286 0.425914
O O3 0.093056 0.966108 0.638196
O O4 0.348416 0.113418 0.501076
O O5 0.242823 0.623552 0.088970
O O6 0.248930 0.381672 0.115752
O O7 0.300393 0.648643 0.304875
O O8 0.890441 0.356754 0.151644
O O9 0.500000 0.500000 0.500000
O O10 0.382483 0.678457 0.694272
O O11 0.238616 0.545155 0.478438
O O12 0.843693 0.825353 0.784264
O O13 0.157756 0.801616 0.729350
O O14 0.316496 0.135626 0.857068
O O15 0.489319 0.984341 0.112953
O O16 0.536351 0.754685 0.935151
O O17 0.000000 0.000000 0.000000
#
# Coordination Sequence:
#
# PCOD9052964 Si02
#       8
#     2   2   2   2   2   2   2   2
#     4  11  20  35  55  77 103 136 181 217 258 312
#     4  11  17  28  52  75 100 138 168 206 260 309
#     4  12  24  35  51  75 109 145 175 216 265 307
#     4   8  15  29  47  70 101 129 164 210 248 300
#     4   9  17  29  45  75 106 131 164 210 262 305
#     4   9  18  31  45  69 101 129 173 208 242 308
#     4   9  16  26  42  73 115 133 148 208 270 307
#     4  11  21  33  56  78  99 142 177 218 257 311
#
# _framework density 24.324877999999998
#
# number of rings (size 3 to 8) (size 9 to 14) (size 15 to 20)
#    0.750    1.250    5.000    2.250    1.750    0.500 
#    0.000    0.000    0.000    0.000    0.000    3.500 
#    0.000   10.000    0.000    0.000    0.000    0.000 
#
# Total GULP energy -89224.818588 kJ/mol
# GULP energy per Si atom -5576.551162 kJ/mol
# Density = 2.426951 g / cm^3
# Si number density = 24.324878 Si / 1000 Ang^3
#
#
#
# Elastic Constant Matrix: (Units=GPa)
#
#
# Indices 1 2 3 4 5 6 
#
# 1 73.4279 36.4035 24.0984 -0.3208 -24.4471 17.4864
# 2 36.4035 144.7169 40.2189 -2.1407 -20.2811 16.7170
# 3 24.0984 40.2189 122.5565 -11.3355 -26.9349 5.8353
# 4 -0.3208 -2.1407 -11.3355 23.4596 7.2715 0.7536
# 5 -24.4471 -20.2811 -26.9349 7.2715 33.5215 -9.0745
# 6 17.4864 16.7170 5.8353 0.7536 -9.0745 17.5186
#
#
#
# Elastic Compliance Matrix: (Units=1/GPa)
#
#
# Indices 1 2 3 4 5 6 
#
# 1 0.021865 -0.002211 -0.000815 -0.003261 0.010974 -0.013619
# 2 -0.002211 0.008715 -0.002057 -0.000285 0.000703 -0.005048
# 3 -0.000815 -0.002057 0.010620 0.002734 0.006820 0.002654
# 4 -0.003261 -0.000285 0.002734 0.047882 -0.012317 -0.005824
# 5 0.010974 0.000703 0.006820 -0.012317 0.049773 0.012415
# 6 -0.013619 -0.005048 0.002654 -0.005824 0.012415 0.081291
#
#
# Mechanical properties :
#
#
# Convention : Reuss Voigt Hill
#
# Bulk Modulus (GPa) = 32.22154 60.23809 46.22981
# Shear Modulus (GPa) = 20.77652 30.89865 25.83758
#
# Velocity S-wave (km/s) = 2.92571 3.56792 3.26266
# Velocity P-wave (km/s) = 4.96872 6.46461 5.76538
#
# Compressibility (1/GPa) = 0.03103514
#
# Stress axis : x y z
#
# Youngs Moduli (GPa) = 45.73497 114.74174 94.16118
#
# Poissons Ratio (x) = 0.25366 0.07676
# Poissons Ratio (y) = 0.10111 0.19367
# Poissons Ratio (z) = 0.03728 0.23600
#
# Static dielectric constant tensor:
#      x y z
#    x 1.960620 0.041530 0.046900 
#    y 0.041530 1.962520 0.014750 
#    z 0.046900 0.014750 2.069430 
# 
# From -- ./inp_files/558622.got.cif
#   From: 2010.05.17/outbox.cif.g08.bks.cpg/sg2_280_cif.got.tgz:558622.got - 2010.06.03 11:33:40.
