data_PCOD9052281
_publ_section_title
;
Structure prediction by ZEFSAII (Michael W. Deem and Ramdas Pophale) SiO2 
 PCOD9052281
Probable space group: P -1
;
_chemical_formula_sum "Si O2"
_cell_formula_units_Z 14
_cell_length_a 11.344519
_cell_length_b 9.215022
_cell_length_c 11.288974
_cell_angle_alpha 140.439165
_cell_angle_beta 115.670103
_cell_angle_gamma 52.599051
_cell_volume 595.664547
_symmetry_space_group_name_H-M "P -1"
_symmetry_group_IT_number 2
_symmetry_cell_setting 'triclinic'
loop_
_space_group_symop_operation_xyz
x,y,z
-x,-y,-z
loop_
_atom_site_type_symbol
_atom_site_label
_atom_site_fract_x
_atom_site_fract_y
_atom_site_fract_z
Si Si1 0.294057 0.279065 0.672627
Si Si2 0.933429 0.197060 0.988450
Si Si3 0.602856 0.601871 0.730599
Si Si4 0.847902 0.724372 0.016473
Si Si5 0.447927 0.290941 0.502978
Si Si6 0.973193 0.739210 0.555672
Si Si7 0.150724 0.868865 0.556427
O O1 0.220564 0.545851 0.886053
O O2 0.336966 0.325281 0.586873
O O3 0.151810 0.234928 0.572406
O O4 0.427975 0.012698 0.611541
O O5 0.073133 0.243280 0.045664
O O6 0.917226 0.019514 0.768166
O O7 0.000000 0.000000 0.000000
O O8 0.698418 0.707464 0.912283
O O9 0.472120 0.549638 0.691740
O O10 0.575305 0.706800 0.649418
O O11 0.721546 0.301249 0.582051
O O12 0.000000 0.500000 0.000000
O O13 0.808291 0.950286 0.234850
O O14 0.000000 0.500000 0.500000
O O15 0.122910 0.685783 0.521083
O O16 0.000000 0.000000 0.500000
#
# Coordination Sequence:
#
# PCOD9052281 Si02
#       7
#     2   2   2   2   2   2   2
#     4  11  23  47  66  97 139 179 236 266 337 401
#     4  11  25  41  69 107 133 167 220 294 355 391
#     4  11  23  47  66  97 139 179 236 266 337 401
#     4  11  25  41  69 107 133 167 220 294 355 391
#     4  10  26  44  70  92 138 206 220 268 318 414
#     4  11  22  39  69 104 131 166 215 291 352 396
#     4  11  22  39  69 104 131 166 215 291 352 396
#
# _framework density 23.503160999999999
#
# number of rings (size 3 to 8) (size 9 to 14) (size 15 to 20)
#    0.000    1.143    2.857    2.571    8.000    0.000 
#    0.000    8.571    0.000    0.000    0.000    0.000 
#    0.000    0.000    0.000    0.000    0.000    0.000 
#
# Total GULP energy -78038.041868 kJ/mol
# GULP energy per Si atom -5574.145848 kJ/mol
# Density = 2.344967 g / cm^3
# Si number density = 23.503161 Si / 1000 Ang^3
#
#
#
# Elastic Constant Matrix: (Units=GPa)
#
#
# Indices 1 2 3 4 5 6 
#
# 1 79.5379 11.9435 41.9094 -3.4174 15.3580 17.1857
# 2 11.9435 105.0352 11.3193 -5.5222 16.4156 12.7158
# 3 41.9094 11.3193 124.1890 -0.5295 21.5538 -3.7201
# 4 -3.4174 -5.5222 -0.5295 29.8454 -11.1355 -2.4126
# 5 15.3580 16.4156 21.5538 -11.1355 39.9566 7.0779
# 6 17.1857 12.7158 -3.7201 -2.4126 7.0779 36.4079
#
#
#
# Elastic Compliance Matrix: (Units=1/GPa)
#
#
# Indices 1 2 3 4 5 6 
#
# 1 0.018017 -0.000011 -0.005988 0.000502 -0.002012 -0.008688
# 2 -0.000011 0.010490 -0.000448 0.000414 -0.003415 -0.003013
# 3 -0.005988 -0.000448 0.011112 -0.002017 -0.004947 0.004947
# 4 0.000502 0.000414 -0.002017 0.037801 0.011310 -0.000282
# 5 -0.002012 -0.003415 -0.004947 0.011310 0.033764 -0.004178
# 6 -0.008688 -0.003013 0.004947 -0.000282 -0.004178 0.033919
#
#
# Mechanical properties :
#
#
# Convention : Reuss Voigt Hill
#
# Bulk Modulus (GPa) = 37.41863 48.78961 43.10412
# Shear Modulus (GPa) = 29.95709 37.48130 33.71919
#
# Velocity S-wave (km/s) = 3.57403 3.99774 3.79181
# Velocity P-wave (km/s) = 5.74341 6.48946 6.12780
#
# Compressibility (1/GPa) = 0.02672466
#
# Stress axis : x y z
#
# Youngs Moduli (GPa) = 55.50439 95.32520 89.99316
#
# Poissons Ratio (x) = 0.00103 0.53888
# Poissons Ratio (y) = 0.00060 0.04035
# Poissons Ratio (z) = 0.33236 0.04274
#
# Static dielectric constant tensor:
#      x y z
#    x -0.222900 0.468310 -0.790860 
#    y 0.468310 1.999730 -0.075140 
#    z -0.790860 -0.075140 2.368430 
# 
# From -- ./inp_files/420188.got.cif
#   From: 2010.05.17/outbox.cif.g08.bks.cpg/sg2_211_cif.got.tgz:420188.got - 2010.06.03 11:33:40.
