data_PCOD9052543
_publ_section_title
;
Structure prediction by ZEFSAII (Michael W. Deem and Ramdas Pophale) SiO2 
 PCOD9052543
Probable space group: P -1
;
_chemical_formula_sum "Si O2"
_cell_formula_units_Z 14
_cell_length_a 12.069480
_cell_length_b 7.570052
_cell_length_c 12.666844
_cell_angle_alpha 33.607304
_cell_angle_beta 72.953379
_cell_angle_gamma 91.645364
_cell_volume 524.739897
_symmetry_space_group_name_H-M "P -1"
_symmetry_group_IT_number 2
_symmetry_cell_setting 'triclinic'
loop_
_space_group_symop_operation_xyz
x,y,z
-x,-y,-z
loop_
_atom_site_type_symbol
_atom_site_label
_atom_site_fract_x
_atom_site_fract_y
_atom_site_fract_z
Si Si1 0.377266 0.931473 0.645687
Si Si2 0.960457 0.236427 0.035541
Si Si3 0.146482 0.032807 0.170270
Si Si4 0.328515 0.010308 0.842628
Si Si5 0.399988 0.154805 0.970588
Si Si6 0.346586 0.341875 0.267176
Si Si7 0.919761 0.199165 0.465754
O O1 0.418673 0.061362 0.690228
O O2 0.500000 0.000000 0.500000
O O3 0.324572 0.175458 0.476081
O O4 0.256886 0.490030 0.908274
O O5 0.025193 0.472445 0.795575
O O6 0.027052 0.986643 0.153776
O O7 0.000000 0.500000 0.000000
O O8 0.802512 0.026107 0.157605
O O9 0.071454 0.839598 0.393794
O O10 0.247378 0.893427 0.179727
O O11 0.382169 0.274713 0.798214
O O12 0.299841 0.626284 0.098480
O O13 0.491173 0.443922 0.893530
O O14 0.500000 0.000000 0.000000
O O15 0.243377 0.988160 0.406303
O O16 0.000000 0.000000 0.500000
#
# Coordination Sequence:
#
# PCOD9052543 Si02
#       7
#     2   2   2   2   2   2   2
#     4  12  23  38  68 102 127 167 230 281 322 387
#     4  12  21  40  69 103 131 166 224 279 327 391
#     4  12  24  42  66 104 130 172 227 274 329 395
#     4  11  24  44  65  94 139 177 211 273 341 391
#     4  10  26  47  63  91 141 181 216 270 333 405
#     4  11  21  40  67  93 132 171 215 270 336 376
#     4  12  21  37  70 104 130 168 214 281 333 374
#
# _framework density 26.679883
#
# number of rings (size 3 to 8) (size 9 to 14) (size 15 to 20)
#    0.000    0.571    8.571    0.000    0.000    4.571 
#    0.000    2.143    0.000    0.000    0.000    0.000 
#    0.000    0.000    0.000    0.000    0.000    0.000 
#
# Total GULP energy -78013.335133 kJ/mol
# GULP energy per Si atom -5572.381081 kJ/mol
# Density = 2.661916 g / cm^3
# Si number density = 26.679883 Si / 1000 Ang^3
#
#
#
# Elastic Constant Matrix: (Units=GPa)
#
#
# Indices 1 2 3 4 5 6 
#
# 1 201.3735 39.4649 49.9144 26.8075 -2.1111 9.2949
# 2 39.4649 88.0166 45.7915 39.2563 -1.4885 14.5091
# 3 49.9144 45.7915 170.7502 31.7672 20.3843 -11.4448
# 4 26.8075 39.2563 31.7672 42.0938 2.8473 3.6525
# 5 -2.1111 -1.4885 20.3843 2.8473 54.0428 7.3275
# 6 9.2949 14.5091 -11.4448 3.6525 7.3275 43.3980
#
#
#
# Elastic Compliance Matrix: (Units=1/GPa)
#
#
# Indices 1 2 3 4 5 6 
#
# 1 0.005776 -0.000847 -0.001323 -0.001842 0.000976 -0.001313
# 2 -0.000847 0.022745 -0.003544 -0.017606 0.003879 -0.007531
# 3 -0.001323 -0.003544 0.008380 -0.002311 -0.003801 0.004514
# 4 -0.001842 -0.017606 -0.002311 0.043036 -0.002283 0.002435
# 5 0.000976 0.003879 -0.003801 -0.002283 0.020997 -0.005861
# 6 -0.001313 -0.007531 0.004514 0.002435 -0.005861 0.027817
#
#
# Mechanical properties :
#
#
# Convention : Reuss Voigt Hill
#
# Bulk Modulus (GPa) = 39.25879 81.16467 60.21173
# Shear Modulus (GPa) = 33.63146 49.57157 41.60151
#
# Velocity S-wave (km/s) = 3.55428 4.31514 3.95306
# Velocity P-wave (km/s) = 5.62055 7.43741 6.59187
#
# Compressibility (1/GPa) = 0.02547200
#
# Stress axis : x y z
#
# Youngs Moduli (GPa) = 173.13322 43.96609 119.33152
#
# Poissons Ratio (x) = 0.03723 0.15789
# Poissons Ratio (y) = 0.14662 0.42295
# Poissons Ratio (z) = 0.22908 0.15583
#
# Static dielectric constant tensor:
#      x y z
#    x 2.192870 -0.185670 -0.037500 
#    y -0.185670 2.633630 -0.154280 
#    z -0.037500 -0.154280 2.157230 
# 
# From -- ./inp_files/416065.got.cif
#   From: 2010.05.17/outbox.cif.g08.bks.cpg/sg2_209_cif.got.tgz:416065.got - 2010.06.03 11:33:40.
