data_PCOD9052435
_publ_section_title
;
Structure prediction by ZEFSAII (Michael W. Deem and Ramdas Pophale) SiO2 
 PCOD9052435
Probable space group: P -1
;
_chemical_formula_sum "Si O2"
_cell_formula_units_Z 15
_cell_length_a 5.026061
_cell_length_b 25.734369
_cell_length_c 11.228943
_cell_angle_alpha 23.524318
_cell_angle_beta 80.468448
_cell_angle_gamma 78.838771
_cell_volume 568.473717
_symmetry_space_group_name_H-M "P -1"
_symmetry_group_IT_number 2
_symmetry_cell_setting 'triclinic'
loop_
_space_group_symop_operation_xyz
x,y,z
-x,-y,-z
loop_
_atom_site_type_symbol
_atom_site_label
_atom_site_fract_x
_atom_site_fract_y
_atom_site_fract_z
Si Si1 0.557882 0.191486 0.726479
Si Si2 0.395249 0.622663 0.165981
Si Si3 0.659522 0.865814 0.720666
Si Si4 0.083791 0.239635 0.836794
Si Si5 0.786050 0.417129 0.133978
Si Si6 0.943599 0.548180 0.196715
Si Si7 0.061457 0.007238 0.781824
Si Si8 0.500000 0.000000 0.000000
O O1 0.372036 0.237773 0.751438
O O2 0.774192 0.285734 0.482853
O O3 0.391899 0.160174 0.688509
O O4 0.694564 0.037822 0.046021
O O5 0.500000 0.500000 0.500000
O O6 0.098399 0.599010 0.193215
O O7 0.633132 0.604937 0.086601
O O8 0.447593 0.760102 0.932331
O O9 0.500000 0.000000 0.500000
O O10 0.849914 0.811194 0.929256
O O11 0.829292 0.895019 0.527898
O O12 0.956835 0.389674 0.528913
O O13 0.942926 0.128743 0.008377
O O14 0.500000 0.500000 0.000000
O O15 0.873916 0.402094 0.024627
O O16 0.000000 0.500000 0.000000
O O17 0.780995 0.038091 0.805340
#
# Coordination Sequence:
#
# PCOD9052435 Si02
#       8
#     2   2   2   2   2   2   2   1
#     4  11  24  46  71 103 146 200 246 315 388 447
#     4  12  29  51  78 112 158 207 251 323 404 456
#     4  12  27  47  78 113 148 199 263 316 387 474
#     4  11  24  45  76 106 147 196 250 320 382 464
#     4  12  26  45  74 111 144 199 256 309 378 455
#     4  12  27  49  77 111 158 201 260 320 393 469
#     4  11  25  46  73 106 146 198 256 317 391 454
#     4  10  26  46  70 100 148 194 250 312 382 460
#
# _framework density 26.386444000000001
#
# number of rings (size 3 to 8) (size 9 to 14) (size 15 to 20)
#    0.000    0.533    4.000    2.800    7.467    2.133 
#    0.000    0.000    0.000    0.000    0.000    0.000 
#    0.000    0.000    0.000    0.000    0.000    0.000 
#
# Total GULP energy -83890.701234 kJ/mol
# GULP energy per Si atom -5592.713416 kJ/mol
# Density = 2.632639 g / cm^3
# Si number density = 26.386444 Si / 1000 Ang^3
#
#
#
# Elastic Constant Matrix: (Units=GPa)
#
#
# Indices 1 2 3 4 5 6 
#
# 1 145.2016 45.4071 36.8017 -3.9964 -21.9805 -5.0466
# 2 45.4071 153.2517 57.5018 -0.6079 -5.5814 -9.2956
# 3 36.8017 57.5018 146.9697 -0.1794 -31.4318 7.4100
# 4 -3.9964 -0.6079 -0.1794 42.5737 -2.1615 -2.6017
# 5 -21.9805 -5.5814 -31.4318 -2.1615 44.9183 -6.6450
# 6 -5.0466 -9.2956 7.4100 -2.6017 -6.6450 52.0529
#
#
#
# Elastic Compliance Matrix: (Units=1/GPa)
#
#
# Indices 1 2 3 4 5 6 
#
# 1 0.008276 -0.002048 -0.000549 0.000991 0.003610 0.001025
# 2 -0.002048 0.008378 -0.003276 -0.000098 -0.002037 0.001499
# 3 -0.000549 -0.003276 0.009530 0.000161 0.005817 -0.001244
# 4 0.000991 -0.000098 0.000161 0.023771 0.001950 0.001493
# 5 0.003610 -0.002037 0.005817 0.001950 0.028366 0.002877
# 6 0.001025 0.001499 -0.001244 0.001493 0.002877 0.020197
#
#
# Mechanical properties :
#
#
# Convention : Reuss Voigt Hill
#
# Bulk Modulus (GPa) = 69.26849 80.53823 74.90336
# Shear Modulus (GPa) = 43.44841 48.28981 45.86911
#
# Velocity S-wave (km/s) = 4.06226 4.28261 4.17389
# Velocity P-wave (km/s) = 6.95062 7.41911 7.18868
#
# Compressibility (1/GPa) = 0.01443658
#
# Stress axis : x y z
#
# Youngs Moduli (GPa) = 120.82785 119.36372 104.92737
#
# Poissons Ratio (x) = 0.24451 0.05763
# Poissons Ratio (y) = 0.24751 0.34376
# Poissons Ratio (z) = 0.06637 0.39106
#
# Static dielectric constant tensor:
#      x y z
#    x 2.155270 0.032590 -0.053520 
#    y 0.032590 2.148020 -0.092150 
#    z -0.053520 -0.092150 2.014290 
# 
# From -- ./inp_files/371380.got.cif
#   From: 2010.05.17/outbox.cif.g08.bks.cpg/sg2_186_cif.got.tgz:371380.got - 2010.06.03 11:33:40.
