data_PCOD9052188
_publ_section_title
;
Structure prediction by ZEFSAII (Michael W. Deem and Ramdas Pophale) SiO2 
 PCOD9052188
Probable space group: P -1
;
_chemical_formula_sum "Si O2"
_cell_formula_units_Z 15
_cell_length_a 12.635309
_cell_length_b 12.347693
_cell_length_c 5.458389
_cell_angle_alpha 114.744915
_cell_angle_beta 54.343995
_cell_angle_gamma 112.509036
_cell_volume 617.195729
_symmetry_space_group_name_H-M "P -1"
_symmetry_group_IT_number 2
_symmetry_cell_setting 'triclinic'
loop_
_space_group_symop_operation_xyz
x,y,z
-x,-y,-z
loop_
_atom_site_type_symbol
_atom_site_label
_atom_site_fract_x
_atom_site_fract_y
_atom_site_fract_z
Si Si1 0.622328 0.818077 0.056222
Si Si2 0.989111 0.237797 0.776863
Si Si3 0.868042 0.017961 0.049392
Si Si4 0.473742 0.782598 0.720210
Si Si5 0.218237 0.785863 0.332295
Si Si6 0.122990 0.570560 0.556701
Si Si7 0.742938 0.619501 0.514787
Si Si8 0.500000 0.500000 0.500000
O O1 0.531452 0.830498 0.425238
O O2 0.766353 0.899635 0.989481
O O3 0.558544 0.840893 0.900252
O O4 0.641380 0.677682 0.873195
O O5 0.933473 0.244006 0.586232
O O6 0.145405 0.271286 0.624000
O O7 0.926269 0.106009 0.833188
O O8 0.934653 0.341699 0.096027
O O9 0.779184 0.095200 0.399460
O O10 0.000000 0.000000 0.000000
O O11 0.475720 0.639133 0.592191
O O12 0.324957 0.803092 0.989466
O O13 0.231668 0.665702 0.350346
O O14 0.188518 0.472763 0.515537
O O15 0.000000 0.500000 0.500000
O O16 0.659097 0.551674 0.345476
#
# Coordination Sequence:
#
# PCOD9052188 Si02
#       8
#     2   2   2   2   2   2   2   1
#     4  11  29  49  74 111 146 206 248 312 367 448
#     4  11  25  46  73 109 142 194 246 313 379 446
#     4  11  28  48  77 104 146 191 256 316 372 441
#     4  11  28  48  74 110 153 197 255 297 381 448
#     4  11  26  46  73 108 145 198 244 311 374 447
#     4  11  24  40  71 111 147 187 242 308 382 447
#     4  11  24  45  74 109 152 194 249 303 381 450
#     4  10  26  42  74 104 154 202 238 302 362 460
#
# _framework density 24.303471999999999
#
# number of rings (size 3 to 8) (size 9 to 14) (size 15 to 20)
#    0.000    1.067    1.333    2.000   16.800    3.200 
#    0.000    0.000    0.000    0.000    0.000    0.000 
#    0.000    0.000    0.000    0.000    0.000    0.000 
#
# Total GULP energy -83701.299620 kJ/mol
# GULP energy per Si atom -5580.086641 kJ/mol
# Density = 2.424816 g / cm^3
# Si number density = 24.303472 Si / 1000 Ang^3
#
#
#
# Elastic Constant Matrix: (Units=GPa)
#
#
# Indices 1 2 3 4 5 6 
#
# 1 49.8189 -12.4060 -3.3446 -4.6200 -17.5093 2.2244
# 2 -12.4060 57.4673 10.0573 0.5053 0.2336 -1.0506
# 3 -3.3446 10.0573 100.2507 -9.2690 0.8621 -3.8634
# 4 -4.6200 0.5053 -9.2690 31.5830 4.9011 -5.7606
# 5 -17.5093 0.2336 0.8621 4.9011 31.6946 -0.5592
# 6 2.2244 -1.0506 -3.8634 -5.7606 -0.5592 33.8418
#
#
#
# Elastic Compliance Matrix: (Units=1/GPa)
#
#
# Indices 1 2 3 4 5 6 
#
# 1 0.026775 0.005637 0.000298 0.001471 0.014496 -0.001061
# 2 0.005637 0.018921 -0.001782 -0.000485 0.003098 -0.000018
# 3 0.000298 -0.001782 0.010568 0.003588 -0.000634 0.001732
# 4 0.001471 -0.000485 0.003588 0.034764 -0.004549 0.006140
# 5 0.014496 0.003098 -0.000634 -0.004549 0.040239 -0.001038
# 6 -0.001061 -0.000018 0.001732 0.006140 -0.001038 0.030844
#
#
# Mechanical properties :
#
#
# Convention : Reuss Voigt Hill
#
# Bulk Modulus (GPa) = 15.48733 21.79449 18.64091
# Shear Modulus (GPa) = 28.51788 33.63923 31.07856
#
# Velocity S-wave (km/s) = 3.42922 3.72443 3.57987
# Velocity P-wave (km/s) = 4.69742 5.24235 4.97735
#
# Compressibility (1/GPa) = 0.06456892
#
# Stress axis : x y z
#
# Youngs Moduli (GPa) = 37.34857 52.85040 94.62841
#
# Poissons Ratio (x) = -0.29790 -0.02822
# Poissons Ratio (y) = -0.21052 0.16866
# Poissons Ratio (z) = -0.01114 0.09420
#
# Static dielectric constant tensor:
#      x y z
#    x 1.921190 -0.046220 0.079480 
#    y -0.046220 1.907130 0.023310 
#    z 0.079480 0.023310 1.943160 
# 
# From -- ./inp_files/71593.got.cif
#   From: 2010.05.17/outbox.cif.g08.bks.cpg/sg2_36_cif.got.tgz:71593.got - 2010.06.03 11:33:40.
