data_PCOD9052049
_publ_section_title
;
Structure prediction by ZEFSAII (Michael W. Deem and Ramdas Pophale) SiO2 
 PCOD9052049
Probable space group: P -1
;
_chemical_formula_sum "Si O2"
_cell_formula_units_Z 10
_cell_length_a 15.657833
_cell_length_b 5.101589
_cell_length_c 10.334365
_cell_angle_alpha 56.716497
_cell_angle_beta 145.199507
_cell_angle_gamma 116.458498
_cell_volume 393.829443
_symmetry_space_group_name_H-M "P -1"
_symmetry_group_IT_number 2
_symmetry_cell_setting 'triclinic'
loop_
_space_group_symop_operation_xyz
x,y,z
-x,-y,-z
loop_
_atom_site_type_symbol
_atom_site_label
_atom_site_fract_x
_atom_site_fract_y
_atom_site_fract_z
Si Si1 0.916286 0.721120 0.544662
Si Si2 0.827100 0.743569 0.971332
Si Si3 0.577606 0.830920 0.023429
Si Si4 0.476151 0.244628 0.291871
Si Si5 0.783688 0.488180 0.696705
O O1 0.751567 0.757004 0.271688
O O2 0.881822 0.694299 0.663703
O O3 0.978737 0.586950 0.257234
O O4 0.000000 0.000000 0.500000
O O5 0.689671 0.620370 0.922964
O O6 0.791391 0.629855 0.811359
O O7 0.833761 0.121425 0.871094
O O8 0.500000 0.500000 0.000000
O O9 0.536298 0.964968 0.795513
O O10 0.500000 0.000000 0.000000
O O11 0.620525 0.460839 0.431940
O O12 0.500000 0.000000 0.500000
#
# Coordination Sequence:
#
# PCOD9052049 Si02
#       5
#     2   2   2   2   2
#     4  12  30  49  82 116 169 204 265 331 404 462
#     4  11  27  50  80 119 157 205 269 323 402 463
#     4  12  30  53  79 113 160 212 263 326 400 468
#     4  10  25  49  85 111 156 207 271 317 392 477
#     4  11  25  52  80 114 159 214 261 323 389 485
#
# _framework density 25.391698999999999
#
# number of rings (size 3 to 8) (size 9 to 14) (size 15 to 20)
#    0.000    0.800    2.000    1.800   14.000    2.400 
#    0.000    0.000    0.000    0.000    0.000    0.000 
#    0.000    0.000    0.000    0.000    0.000    0.000 
#
# Total GULP energy -55928.478850 kJ/mol
# GULP energy per Si atom -5592.847885 kJ/mol
# Density = 2.533391 g / cm^3
# Si number density = 25.391699 Si / 1000 Ang^3
#
#
#
# Elastic Constant Matrix: (Units=GPa)
#
#
# Indices 1 2 3 4 5 6 
#
# 1 182.6864 73.3004 91.4893 19.6903 1.9690 2.3989
# 2 73.3004 141.6924 70.3041 6.0398 -8.6986 -5.8662
# 3 91.4893 70.3041 199.0655 2.9351 18.7434 -20.3889
# 4 19.6903 6.0398 2.9351 48.0372 -0.0154 -3.0743
# 5 1.9690 -8.6986 18.7434 -0.0154 61.0402 8.8109
# 6 2.3989 -5.8662 -20.3889 -3.0743 8.8109 56.0354
#
#
#
# Elastic Compliance Matrix: (Units=1/GPa)
#
#
# Indices 1 2 3 4 5 6 
#
# 1 0.008516 -0.002752 -0.003165 -0.003084 0.000603 -0.002068
# 2 -0.002752 0.009816 -0.002422 0.000037 0.002244 -0.000087
# 3 -0.003165 -0.002422 0.007955 0.001329 -0.003169 0.003348
# 4 -0.003084 0.000037 0.001329 0.022118 -0.000575 0.001923
# 5 0.000603 0.002244 -0.003169 -0.000575 0.018210 -0.003839
# 6 -0.002068 -0.000087 0.003348 0.001923 -0.003839 0.019853
#
#
# Mechanical properties :
#
#
# Convention : Reuss Voigt Hill
#
# Bulk Modulus (GPa) = 104.08344 110.40352 107.24348
# Shear Modulus (GPa) = 47.01423 52.24592 49.63008
#
# Velocity S-wave (km/s) = 4.30764 4.54100 4.42586
# Velocity P-wave (km/s) = 8.11302 8.43023 8.27315
#
# Compressibility (1/GPa) = 0.00960768
#
# Stress axis : x y z
#
# Youngs Moduli (GPa) = 117.42146 101.87489 125.70197
#
# Poissons Ratio (x) = 0.28040 0.39786
# Poissons Ratio (y) = 0.32319 0.30451
# Poissons Ratio (z) = 0.37165 0.24679
#
# Static dielectric constant tensor:
#      x y z
#    x 1.889040 0.044990 0.166320 
#    y 0.044990 2.020550 -0.085780 
#    z 0.166320 -0.085780 2.010270 
# 
# From -- ./inp_files/286342.got.cif
#   From: 2010.05.17/outbox.cif.g08.bks.cpg/sg2_144_cif.got.tgz:286342.got - 2010.06.03 11:33:40.
