data_PCOD9052439
_publ_section_title
;
Structure prediction by ZEFSAII (Michael W. Deem and Ramdas Pophale) SiO2 
 PCOD9052439
Probable space group: P -1
;
_chemical_formula_sum "Si O2"
_cell_formula_units_Z 16
_cell_length_a 14.644016
_cell_length_b 20.792196
_cell_length_c 12.487766
_cell_angle_alpha 28.025947
_cell_angle_beta 151.890907
_cell_angle_gamma 151.412525
_cell_volume 752.001198
_symmetry_space_group_name_H-M "P -1"
_symmetry_group_IT_number 2
_symmetry_cell_setting 'triclinic'
loop_
_space_group_symop_operation_xyz
x,y,z
-x,-y,-z
loop_
_atom_site_type_symbol
_atom_site_label
_atom_site_fract_x
_atom_site_fract_y
_atom_site_fract_z
Si Si1 0.039861 0.372019 0.597109
Si Si2 0.302057 0.419640 0.332269
Si Si3 0.902328 0.227787 0.329634
Si Si4 0.353866 0.703682 0.848714
Si Si5 0.558084 0.947233 0.250892
Si Si6 0.108000 0.707725 0.201071
Si Si7 0.157636 0.164036 0.873988
Si Si8 0.832299 0.825002 0.606463
O O1 0.133683 0.555984 0.419340
O O2 0.161599 0.296594 0.763199
O O3 0.799679 0.306082 0.393960
O O4 0.012926 0.324328 0.763099
O O5 0.500000 0.500000 0.500000
O O6 0.283299 0.263782 0.490101
O O7 0.071524 0.368640 0.227192
O O8 0.343717 0.539479 0.104413
O O9 0.752784 0.263128 0.205312
O O10 0.056410 0.182354 0.630193
O O11 0.742281 0.091901 0.288412
O O12 0.602740 0.819117 0.918336
O O13 0.339944 0.855966 0.226317
O O14 0.657483 0.830928 0.497415
O O15 0.500000 0.000000 0.000000
O O16 0.967155 0.743640 0.915426
O O17 0.000000 0.000000 0.000000
O O18 0.000000 0.000000 0.500000
#
# Coordination Sequence:
#
# PCOD9052439 Si02
#       8
#     2   2   2   2   2   2   2   2
#     4  10  26  46  70 102 136 184 239 284 349 416
#     4  12  24  44  72 103 139 185 233 294 352 424
#     4  11  26  44  67 105 135 183 234 284 359 420
#     4  11  25  45  72  98 139 182 231 294 354 411
#     4  12  27  42  71 104 141 183 232 289 357 416
#     4  11  25  46  71  99 140 186 232 290 346 426
#     4  11  27  45  70 101 139 180 236 293 347 422
#     4  12  25  45  69 105 145 180 231 289 354 420
#
# _framework density 21.276561999999998
#
# number of rings (size 3 to 8) (size 9 to 14) (size 15 to 20)
#    0.000    0.750    5.000    0.375    8.750    1.000 
#    0.000    2.500    0.000    0.000    0.000    0.000 
#    0.000    0.000    0.000    0.000    0.000    0.000 
#
# Total GULP energy -89497.867589 kJ/mol
# GULP energy per Si atom -5593.616724 kJ/mol
# Density = 2.122814 g / cm^3
# Si number density = 21.276562 Si / 1000 Ang^3
#
#
#
# Elastic Constant Matrix: (Units=GPa)
#
#
# Indices 1 2 3 4 5 6 
#
# 1 52.8551 49.5259 10.7313 4.8623 -2.7420 0.2282
# 2 49.5259 140.5253 18.3952 14.5997 -0.3018 -1.8120
# 3 10.7313 18.3952 31.5929 -4.4244 -4.7393 1.3759
# 4 4.8623 14.5997 -4.4244 28.7622 8.9623 -1.9666
# 5 -2.7420 -0.3018 -4.7393 8.9623 29.2256 2.7957
# 6 0.2282 -1.8120 1.3759 -1.9666 2.7957 51.4539
#
#
#
# Elastic Compliance Matrix: (Units=1/GPa)
#
#
# Indices 1 2 3 4 5 6 
#
# 1 0.028926 -0.009502 -0.004110 -0.001504 0.002462 -0.000544
# 2 -0.009502 0.011522 -0.004177 -0.004861 0.000005 0.000374
# 3 -0.004110 -0.004177 0.037072 0.007383 0.003417 -0.001024
# 4 -0.001504 -0.004861 0.007383 0.042569 -0.012233 0.001930
# 5 0.002462 0.000005 0.003417 -0.012233 0.039010 -0.002689
# 6 -0.000544 0.000374 -0.001024 0.001930 -0.002689 0.019698
#
#
# Mechanical properties :
#
#
# Convention : Reuss Voigt Hill
#
# Bulk Modulus (GPa) = 23.84314 42.47536 33.15925
# Shear Modulus (GPa) = 21.89567 31.64306 26.76937
#
# Velocity S-wave (km/s) = 3.21144 3.86064 3.55091
# Velocity P-wave (km/s) = 4.99817 6.31502 5.69479
#
# Compressibility (1/GPa) = 0.04194079
#
# Stress axis : x y z
#
# Youngs Moduli (GPa) = 34.57091 86.79352 26.97445
#
# Poissons Ratio (x) = 0.82471 0.11087
# Poissons Ratio (y) = 0.32849 0.11268
# Poissons Ratio (z) = 0.14210 0.36255
#
# Static dielectric constant tensor:
#      x y z
#    x 1.790860 -0.001260 0.015350 
#    y -0.001260 1.771640 -0.010220 
#    z 0.015350 -0.010220 1.771400 
# 
# From -- ./inp_files/457653.got.cif
#   From: 2010.05.17/outbox.cif.g08.bks.cpg/sg2_229_cif.got.tgz:457653.got - 2010.06.03 11:33:40.
