data_PCOD9052643
_publ_section_title
;
Structure prediction by ZEFSAII (Michael W. Deem and Ramdas Pophale) SiO2 
 PCOD9052643
Probable space group: P -1
;
_chemical_formula_sum "Si O2"
_cell_formula_units_Z 15
_cell_length_a 21.091779
_cell_length_b 5.113969
_cell_length_c 11.984290
_cell_angle_alpha 62.850231
_cell_angle_beta 29.475076
_cell_angle_gamma 66.022703
_cell_volume 565.841427
_symmetry_space_group_name_H-M "P -1"
_symmetry_group_IT_number 2
_symmetry_cell_setting 'triclinic'
loop_
_space_group_symop_operation_xyz
x,y,z
-x,-y,-z
loop_
_atom_site_type_symbol
_atom_site_label
_atom_site_fract_x
_atom_site_fract_y
_atom_site_fract_z
Si Si1 0.184296 0.041053 0.708406
Si Si2 0.217024 0.446583 0.853148
Si Si3 0.676806 0.965176 0.045440
Si Si4 0.400898 0.219306 0.050094
Si Si5 0.092389 0.734246 0.454347
Si Si6 0.875869 0.919072 0.437815
Si Si7 0.568929 0.736989 0.617946
Si Si8 0.000000 0.500000 0.000000
O O1 0.122324 0.892840 0.719397
O O2 0.331117 0.132782 0.472846
O O3 0.090370 0.315270 0.808161
O O4 0.186612 0.790827 0.847135
O O5 0.247581 0.280145 0.951472
O O6 0.341176 0.405047 0.588421
O O7 0.095761 0.349776 0.985699
O O8 0.636894 0.864162 0.002743
O O9 0.541421 0.038078 0.299281
O O10 0.777613 0.229255 0.825815
O O11 0.480561 0.512515 0.862149
O O12 0.268254 0.209320 0.322882
O O13 0.500000 0.000000 0.000000
O O14 0.048616 0.392924 0.592081
O O15 0.122303 0.856537 0.507616
O O16 0.000000 0.000000 0.500000
#
# Coordination Sequence:
#
# PCOD9052643 Si02
#       8
#     2   2   2   2   2   2   2   1
#     4  11  26  45  72 104 138 191 240 306 359 444
#     4  11  25  45  68 102 139 186 242 297 369 433
#     4  11  25  43  68 104 144 186 240 304 357 439
#     4  11  24  42  68 102 143 191 235 298 364 438
#     4  11  26  48  71 107 145 196 241 305 371 435
#     4  11  25  45  75 103 145 185 251 300 365 440
#     4  11  23  43  69 100 141 186 239 297 366 429
#     4  10  26  48  70 100 138 192 238 298 366 438
#
# _framework density 26.509195999999999
#
# number of rings (size 3 to 8) (size 9 to 14) (size 15 to 20)
#    0.000    1.067    1.333    3.600    9.333    5.333 
#    0.000    0.000    0.000    0.000    0.000    0.000 
#    0.000    0.000    0.000    0.000    0.000    0.000 
#
# Total GULP energy -83742.906363 kJ/mol
# GULP energy per Si atom -5582.860424 kJ/mol
# Density = 2.644886 g / cm^3
# Si number density = 26.509196 Si / 1000 Ang^3
#
#
#
# Elastic Constant Matrix: (Units=GPa)
#
#
# Indices 1 2 3 4 5 6 
#
# 1 118.3083 43.5232 20.8900 -2.6465 4.5918 -38.7549
# 2 43.5232 132.4929 9.8212 23.5118 12.2029 -30.8347
# 3 20.8900 9.8212 106.1895 9.4133 -25.7273 -23.5836
# 4 -2.6465 23.5118 9.4133 38.8183 -9.8159 -4.1718
# 5 4.5918 12.2029 -25.7273 -9.8159 37.4666 0.5355
# 6 -38.7549 -30.8347 -23.5836 -4.1718 0.5355 58.2526
#
#
#
# Elastic Compliance Matrix: (Units=1/GPa)
#
#
# Indices 1 2 3 4 5 6 
#
# 1 0.011825 -0.002943 -0.001107 0.003401 -0.000447 0.006109
# 2 -0.002943 0.011269 -0.000404 -0.008022 -0.005736 0.003322
# 3 -0.001107 -0.000404 0.012768 -0.000230 0.008916 0.004120
# 4 0.003401 -0.008022 -0.000230 0.033678 0.010858 0.000235
# 5 -0.000447 -0.005736 0.008916 0.010858 0.037570 0.000708
# 6 0.006109 0.003322 0.004120 0.000235 0.000708 0.024667
#
#
# Mechanical properties :
#
#
# Convention : Reuss Voigt Hill
#
# Bulk Modulus (GPa) = 37.10161 56.16218 46.63189
# Shear Modulus (GPa) = 33.40646 45.75793 39.58220
#
# Velocity S-wave (km/s) = 3.55376 4.15916 3.86832
# Velocity P-wave (km/s) = 5.55563 6.65558 6.13033
#
# Compressibility (1/GPa) = 0.02695301
#
# Stress axis : x y z
#
# Youngs Moduli (GPa) = 84.56526 88.73723 78.32234
#
# Poissons Ratio (x) = 0.26116 0.08672
# Poissons Ratio (y) = 0.24888 0.03166
# Poissons Ratio (z) = 0.09364 0.03587
#
# Static dielectric constant tensor:
#      x y z
#    x 2.022770 -0.119910 0.057920 
#    y -0.119910 2.058760 0.057070 
#    z 0.057920 0.057070 2.146730 
# 
# From -- ./inp_files/67398.got.cif
#   From: 2010.05.17/outbox.cif.g08.bks.cpg/sg2_34_cif.got.tgz:67398.got - 2010.06.03 11:33:40.
