data_PCOD9052295
_publ_section_title
;
Structure prediction by ZEFSAII (Michael W. Deem and Ramdas Pophale) SiO2 
 PCOD9052295
Probable space group: P -1
;
_chemical_formula_sum "Si O2"
_cell_formula_units_Z 11
_cell_length_a 9.620975
_cell_length_b 9.067934
_cell_length_c 13.906616
_cell_angle_alpha 51.524104
_cell_angle_beta 54.282885
_cell_angle_gamma 31.724703
_cell_volume 495.042239
_symmetry_space_group_name_H-M "P -1"
_symmetry_group_IT_number 2
_symmetry_cell_setting 'triclinic'
loop_
_space_group_symop_operation_xyz
x,y,z
-x,-y,-z
loop_
_atom_site_type_symbol
_atom_site_label
_atom_site_fract_x
_atom_site_fract_y
_atom_site_fract_z
Si Si1 0.433475 0.344030 0.623564
Si Si2 0.248017 0.237636 0.572515
Si Si3 0.500000 0.000000 0.000000
Si Si4 0.480837 0.625938 0.057290
Si Si5 0.065933 0.986606 0.778793
Si Si6 0.073594 0.168179 0.246633
O O1 0.500000 0.500000 0.500000
O O2 0.309516 0.337746 0.587633
O O3 0.213379 0.515906 0.729140
O O4 0.710793 0.021600 0.678609
O O5 0.000000 0.500000 0.500000
O O6 0.500000 0.000000 0.500000
O O7 0.195075 0.078798 0.702888
O O8 0.480774 0.850899 0.982885
O O9 0.227391 0.141116 0.107650
O O10 0.727265 0.344904 0.135446
O O11 0.500000 0.500000 0.000000
O O12 0.203972 0.788164 0.145337
O O13 0.987316 0.993374 0.699649
#
# Coordination Sequence:
#
# PCOD9052295 Si02
#       6
#     2   2   1   2   2   2
#     4  12  25  42  70 100 134 181 233 287 348 423
#     4  12  25  43  69  99 139 180 230 288 354 418
#     4  10  26  44  72 102 144 190 234 288 364 404
#     4  11  25  43  69 100 141 180 236 289 342 424
#     4  11  24  44  66  99 136 183 225 288 350 402
#     4  11  24  44  68  98 139 178 234 286 345 424
#
# _framework density 22.220326
#
# number of rings (size 3 to 8) (size 9 to 14) (size 15 to 20)
#    0.000    0.727    0.000    7.636    5.091    6.545 
#    0.000    0.000    0.000    0.000    0.000    0.000 
#    0.000    0.000    0.000    0.000    0.000    0.000 
#
# Total GULP energy -61242.626343 kJ/mol
# GULP energy per Si atom -5567.511486 kJ/mol
# Density = 2.216975 g / cm^3
# Si number density = 22.220326 Si / 1000 Ang^3
#
#
#
# Elastic Constant Matrix: (Units=GPa)
#
#
# Indices 1 2 3 4 5 6 
#
# 1 206.2942 30.1237 31.0057 11.7936 -11.0133 26.8629
# 2 30.1237 115.3872 17.5979 32.4846 0.0208 -9.9830
# 3 31.0057 17.5979 47.8982 20.5611 -28.2656 4.0675
# 4 11.7936 32.4846 20.5611 36.4171 -9.5874 7.1463
# 5 -11.0133 0.0208 -28.2656 -9.5874 49.2258 -0.4154
# 6 26.8629 -9.9830 4.0675 7.1463 -0.4154 51.2431
#
#
#
# Elastic Compliance Matrix: (Units=1/GPa)
#
#
# Indices 1 2 3 4 5 6 
#
# 1 0.006103 -0.002044 -0.004588 0.002964 -0.000721 -0.003653
# 2 -0.002044 0.013385 -0.000337 -0.012991 -0.003141 0.005492
# 3 -0.004588 -0.000337 0.043572 -0.017699 0.020559 0.001515
# 4 0.002964 -0.012991 -0.017699 0.050020 0.000166 -0.009654
# 5 -0.000721 -0.003141 0.020559 0.000166 0.031978 -0.001629
# 6 -0.003653 0.005492 0.001515 -0.009654 -0.001629 0.023712
#
#
# Mechanical properties :
#
#
# Convention : Reuss Voigt Hill
#
# Bulk Modulus (GPa) = 20.35736 58.55937 39.45837
# Shear Modulus (GPa) = 25.11532 46.76736 35.94134
#
# Velocity S-wave (km/s) = 3.36562 4.59269 4.02618
# Velocity P-wave (km/s) = 4.92795 7.38478 6.27772
#
# Compressibility (1/GPa) = 0.04912229
#
# Stress axis : x y z
#
# Youngs Moduli (GPa) = 163.85168 74.71221 22.95040
#
# Poissons Ratio (x) = 0.15270 0.10529
# Poissons Ratio (y) = 0.33489 0.00774
# Poissons Ratio (z) = 0.75167 0.02521
#
# Static dielectric constant tensor:
#      x y z
#    x 1.726410 0.062900 0.098780 
#    y 0.062900 1.773110 -0.074660 
#    z 0.098780 -0.074660 1.818080 
# 
# From -- ./inp_files/50398.got.cif
#   From: 2010.05.17/outbox.cif.g08.bks.cpg/sg2_26_cif.got.tgz:50398.got - 2010.06.03 11:33:40.
