data_PCOD9052726
_publ_section_title
;
Structure prediction by ZEFSAII (Michael W. Deem and Ramdas Pophale) SiO2 
 PCOD9052726
Probable space group: P -1
;
_chemical_formula_sum "Si O2"
_cell_formula_units_Z 15
_cell_length_a 18.387315
_cell_length_b 4.986844
_cell_length_c 8.903325
_cell_angle_alpha 70.075230
_cell_angle_beta 131.724041
_cell_angle_gamma 108.693942
_cell_volume 567.713908
_symmetry_space_group_name_H-M "P -1"
_symmetry_group_IT_number 2
_symmetry_cell_setting 'triclinic'
loop_
_space_group_symop_operation_xyz
x,y,z
-x,-y,-z
loop_
_atom_site_type_symbol
_atom_site_label
_atom_site_fract_x
_atom_site_fract_y
_atom_site_fract_z
Si Si1 0.500000 0.000000 0.000000
Si Si2 0.539085 0.943962 0.397972
Si Si3 0.053506 0.232997 0.343379
Si Si4 0.905173 0.129396 0.787937
Si Si5 0.270968 0.314202 0.318758
Si Si6 0.353990 0.462352 0.708876
Si Si7 0.180891 0.815581 0.938657
Si Si8 0.204537 0.428696 0.767216
O O1 0.429831 0.243085 0.890133
O O2 0.522044 0.142168 0.823114
O O3 0.596424 0.242363 0.352145
O O4 0.500000 0.000000 0.500000
O O5 0.620290 0.728926 0.574325
O O6 0.085478 0.532520 0.242267
O O7 0.107163 0.301990 0.562850
O O8 0.935555 0.198511 0.188140
O O9 0.090114 0.962023 0.363098
O O10 0.811021 0.957657 0.770242
O O11 0.000000 0.000000 0.000000
O O12 0.280409 0.318170 0.511025
O O13 0.234453 0.600647 0.154043
O O14 0.292271 0.533967 0.753871
O O15 0.188275 0.675595 0.811577
O O16 0.229756 0.145185 0.942307
#
# Coordination Sequence:
#
# PCOD9052726 Si02
#       8
#     1   2   2   2   2   2   2   2
#     4  10  26  48  78 116 148 196 254 318 404 472
#     4  11  27  50  82 114 153 200 258 329 396 482
#     4  12  24  45  70 102 148 204 264 310 380 452
#     4  12  24  42  76 105 152 204 254 318 376 452
#     4  11  27  46  72 112 148 199 261 314 390 461
#     4  11  26  49  78 105 154 197 254 315 401 469
#     4  12  28  43  71 109 151 200 260 319 372 461
#     4  12  27  46  72 104 153 202 249 317 388 456
#
# _framework density 26.421759000000002
#
# number of rings (size 3 to 8) (size 9 to 14) (size 15 to 20)
#    0.000    0.533    2.667    4.000    7.467    3.200 
#    0.000    0.000    0.000    0.000    0.000    0.000 
#    0.000    0.000    0.000    0.000    0.000    0.000 
#
# Total GULP energy -83874.652034 kJ/mol
# GULP energy per Si atom -5591.643469 kJ/mol
# Density = 2.636162 g / cm^3
# Si number density = 26.421759 Si / 1000 Ang^3
#
#
#
# Elastic Constant Matrix: (Units=GPa)
#
#
# Indices 1 2 3 4 5 6 
#
# 1 172.5519 20.5120 33.7766 -8.6689 -20.7146 -25.1649
# 2 20.5120 81.9455 9.2732 -21.2922 -0.1263 2.6001
# 3 33.7766 9.2732 138.5313 -23.5417 -0.6290 -0.8947
# 4 -8.6689 -21.2922 -23.5417 44.1066 -5.0490 -9.9250
# 5 -20.7146 -0.1263 -0.6290 -5.0490 38.2733 -6.3411
# 6 -25.1649 2.6001 -0.8947 -9.9250 -6.3411 41.4121
#
#
#
# Elastic Compliance Matrix: (Units=1/GPa)
#
#
# Indices 1 2 3 4 5 6 
#
# 1 0.007935 -0.001458 -0.001405 0.002153 0.005587 0.006254
# 2 -0.001458 0.014306 0.000575 0.006926 0.000167 -0.000086
# 3 -0.001405 0.000575 0.008293 0.004517 0.000036 0.000377
# 4 0.002153 0.006926 0.004517 0.031838 0.007066 0.009683
# 5 0.005587 0.000167 0.000036 0.007066 0.031731 0.009938
# 6 0.006254 -0.000086 0.000377 0.009683 0.009938 0.031804
#
#
# Mechanical properties :
#
#
# Convention : Reuss Voigt Hill
#
# Bulk Modulus (GPa) = 38.52518 57.79471 48.15994
# Shear Modulus (GPa) = 35.93638 46.72284 41.32961
#
# Velocity S-wave (km/s) = 3.69196 4.20973 3.95932
# Velocity P-wave (km/s) = 5.72596 6.74911 6.25848
#
# Compressibility (1/GPa) = 0.02595705
#
# Stress axis : x y z
#
# Youngs Moduli (GPa) = 126.02899 69.90236 120.58490
#
# Poissons Ratio (x) = 0.10189 0.16948
# Poissons Ratio (y) = 0.18370 -0.06934
# Poissons Ratio (z) = 0.17713 -0.04019
#
# Static dielectric constant tensor:
#      x y z
#    x 2.034820 0.083700 -0.048070 
#    y 0.083700 2.331430 0.402320 
#    z -0.048070 0.402320 2.507300 
# 
# From -- ./inp_files/122487.got.cif
#   From: 2010.05.17/outbox.cif.g08.bks.cpg/sg2_62_cif.got.tgz:122487.got - 2010.06.03 11:33:40.
