data_PCOD9052310
_publ_section_title
;
Structure prediction by ZEFSAII (Michael W. Deem and Ramdas Pophale) SiO2 
 PCOD9052310
Probable space group: P -1
;
_chemical_formula_sum "Si O2"
_cell_formula_units_Z 14
_cell_length_a 11.880652
_cell_length_b 8.496488
_cell_length_c 8.814452
_cell_angle_alpha 122.345499
_cell_angle_beta 99.993522
_cell_angle_gamma 51.601966
_cell_volume 571.933263
_symmetry_space_group_name_H-M "P -1"
_symmetry_group_IT_number 2
_symmetry_cell_setting 'triclinic'
loop_
_space_group_symop_operation_xyz
x,y,z
-x,-y,-z
loop_
_atom_site_type_symbol
_atom_site_label
_atom_site_fract_x
_atom_site_fract_y
_atom_site_fract_z
Si Si1 0.993280 0.218509 0.544300
Si Si2 0.404174 0.593173 0.179557
Si Si3 0.249581 0.195350 0.708695
Si Si4 0.393209 0.344579 0.601705
Si Si5 0.898104 0.131327 0.191252
Si Si6 0.882931 0.351691 0.881888
Si Si7 0.502059 0.829092 0.791597
O O1 0.879255 0.424561 0.744813
O O2 0.143256 0.173249 0.578014
O O3 0.949719 0.244885 0.373754
O O4 0.000000 0.000000 0.500000
O O5 0.448562 0.737985 0.348944
O O6 0.237324 0.693601 0.156547
O O7 0.460263 0.383958 0.205618
O O8 0.500000 0.500000 0.000000
O O9 0.348556 0.222489 0.636923
O O10 0.344927 0.993409 0.754798
O O11 0.156242 0.446574 0.908521
O O12 0.395332 0.283979 0.394299
O O13 0.271778 0.636425 0.751290
O O14 0.951177 0.890854 0.167428
O O15 0.000000 0.000000 0.000000
O O16 0.500000 0.000000 0.000000
#
# Coordination Sequence:
#
# PCOD9052310 Si02
#       7
#     2   2   2   2   2   2   2
#     4  10  26  44  73 106 152 203 256 311 384 455
#     4  12  24  48  80 114 150 200 258 320 385 466
#     4  12  25  50  75 113 157 203 254 326 383 461
#     4  12  27  48  77 116 153 203 261 313 393 456
#     4  11  23  47  73 107 148 199 256 312 372 455
#     4  11  23  48  74 111 152 199 256 315 387 453
#     4  12  27  48  76 114 156 201 259 319 390 458
#
# _framework density 24.478379
#
# number of rings (size 3 to 8) (size 9 to 14) (size 15 to 20)
#    0.000    0.571    4.286    2.143    8.000    0.571 
#    2.571    0.000    0.000    0.000    0.000    0.000 
#    0.000    0.000    0.000    0.000    0.000    0.000 
#
# Total GULP energy -78213.653741 kJ/mol
# GULP energy per Si atom -5586.689553 kJ/mol
# Density = 2.442266 g / cm^3
# Si number density = 24.478379 Si / 1000 Ang^3
#
#
#
# Elastic Constant Matrix: (Units=GPa)
#
#
# Indices 1 2 3 4 5 6 
#
# 1 144.4824 28.2323 41.4971 -5.2488 8.5073 -17.7799
# 2 28.2323 96.0265 13.7329 0.5744 -3.1572 -7.2791
# 3 41.4971 13.7329 178.2261 -18.7811 -15.2840 -5.1710
# 4 -5.2488 0.5744 -18.7811 49.1731 -1.7494 -3.9166
# 5 8.5073 -3.1572 -15.2840 -1.7494 50.4390 -3.6516
# 6 -17.7799 -7.2791 -5.1710 -3.9166 -3.6516 40.7795
#
#
#
# Elastic Compliance Matrix: (Units=1/GPa)
#
#
# Indices 1 2 3 4 5 6 
#
# 1 0.008320 -0.002030 -0.001815 0.000384 -0.001857 0.002906
# 2 -0.002030 0.011175 -0.000304 -0.000337 0.001020 0.001130
# 3 -0.001815 -0.000304 0.006529 0.002422 0.002380 0.000428
# 4 0.000384 -0.000337 0.002422 0.021572 0.001587 0.002628
# 5 -0.001857 0.001020 0.002380 0.001587 0.021104 0.001716
# 6 0.002906 0.001130 0.000428 0.002628 0.001716 0.026451
#
#
# Mechanical properties :
#
#
# Convention : Reuss Voigt Hill
#
# Bulk Modulus (GPa) = 56.41224 65.07327 60.74275
# Shear Modulus (GPa) = 45.72182 50.42984 48.07583
#
# Velocity S-wave (km/s) = 4.32655 4.54384 4.43653
# Velocity P-wave (km/s) = 6.93213 7.36005 7.14929
#
# Compressibility (1/GPa) = 0.01772665
#
# Stress axis : x y z
#
# Youngs Moduli (GPa) = 120.19137 89.48402 153.16958
#
# Poissons Ratio (x) = 0.18162 0.27804
# Poissons Ratio (y) = 0.24394 0.04653
# Poissons Ratio (z) = 0.21818 0.02718
#
# Static dielectric constant tensor:
#      x y z
#    x 1.970490 -0.015630 -0.017890 
#    y -0.015630 2.004010 0.023040 
#    z -0.017890 0.023040 2.088860 
# 
# From -- ./inp_files/245540.got.cif
#   From: 2010.05.17/outbox.cif.g08.bks.cpg/sg2_123_cif.got.tgz:245540.got - 2010.06.03 11:33:40.
