data_PCOD9052094
_publ_section_title
;
Structure prediction by ZEFSAII (Michael W. Deem and Ramdas Pophale) SiO2 
 PCOD9052094
Probable space group: P -1
;
_chemical_formula_sum "Si O2"
_cell_formula_units_Z 12
_cell_length_a 8.218386
_cell_length_b 5.540640
_cell_length_c 16.720262
_cell_angle_alpha 97.851212
_cell_angle_beta 55.045467
_cell_angle_gamma 122.251228
_cell_volume 511.788837
_symmetry_space_group_name_H-M "P -1"
_symmetry_group_IT_number 2
_symmetry_cell_setting 'triclinic'
loop_
_space_group_symop_operation_xyz
x,y,z
-x,-y,-z
loop_
_atom_site_type_symbol
_atom_site_label
_atom_site_fract_x
_atom_site_fract_y
_atom_site_fract_z
Si Si1 0.177568 0.835938 0.224119
Si Si2 0.928364 0.746981 0.124276
Si Si3 0.481176 0.333102 0.577125
Si Si4 0.194238 0.207804 0.385549
Si Si5 0.287022 0.931465 0.881704
Si Si6 0.879313 0.299641 0.385744
O O1 0.090939 0.877107 0.164880
O O2 0.958994 0.516822 0.300248
O O3 0.200087 0.030897 0.302430
O O4 0.437853 0.884335 0.155276
O O5 0.784562 0.387853 0.146354
O O6 0.769982 0.881436 0.154454
O O7 0.114668 0.854623 0.002804
O O8 0.500000 0.500000 0.500000
O O9 0.552161 0.565078 0.636407
O O10 0.688769 0.277603 0.500725
O O11 0.236109 0.022594 0.632342
O O12 0.107905 0.398350 0.378881
O O13 0.000000 0.000000 0.500000
#
# Coordination Sequence:
#
# PCOD9052094 Si02
#       6
#     2   2   2   2   2   2
#     4  12  27  44  74 112 145 193 257 307 369 452
#     4  10  25  51  78 114 153 193 244 312 392 451
#     4  11  23  45  67  89 135 200 241 303 368 421
#     4  12  25  45  62  99 144 189 246 299 361 433
#     4  10  25  50  81 112 152 195 244 313 384 461
#     4  11  25  42  66  97 139 191 248 306 362 437
#
# _framework density 23.447168000000001
#
# number of rings (size 3 to 8) (size 9 to 14) (size 15 to 20)
#    0.000    1.000    3.333    1.000    4.667    4.000 
#    0.000    5.000    0.000    0.000    0.000    0.000 
#    0.000    0.000    0.000    0.000    0.000    0.000 
#
# Total GULP energy -67061.552102 kJ/mol
# GULP energy per Si atom -5588.462675 kJ/mol
# Density = 2.339380 g / cm^3
# Si number density = 23.447168 Si / 1000 Ang^3
#
#
#
# Elastic Constant Matrix: (Units=GPa)
#
#
# Indices 1 2 3 4 5 6 
#
# 1 159.6083 58.1978 46.5801 13.1512 19.9200 8.9381
# 2 58.1978 155.1332 45.5818 13.3352 23.6182 17.6060
# 3 46.5801 45.5818 97.0682 14.5806 15.5430 4.3104
# 4 13.1512 13.3352 14.5806 21.3697 5.8211 -0.2251
# 5 19.9200 23.6182 15.5430 5.8211 48.3976 2.7059
# 6 8.9381 17.6060 4.3104 -0.2251 2.7059 38.2754
#
#
#
# Elastic Compliance Matrix: (Units=1/GPa)
#
#
# Indices 1 2 3 4 5 6 
#
# 1 0.008009 -0.001850 -0.002469 -0.001727 -0.001356 -0.000656
# 2 -0.001850 0.008731 -0.002390 -0.002085 -0.002304 -0.003165
# 3 -0.002469 -0.002390 0.013737 -0.005945 -0.001526 0.000202
# 4 -0.001727 -0.002085 -0.005945 0.054062 -0.003008 0.002563
# 5 -0.001356 -0.002304 -0.001526 -0.003008 0.023203 -0.000110
# 6 -0.000656 -0.003165 0.000202 0.002563 -0.000110 0.027735
#
#
# Mechanical properties :
#
#
# Convention : Reuss Voigt Hill
#
# Bulk Modulus (GPa) = 58.61384 79.16989 68.89186
# Shear Modulus (GPa) = 32.34563 39.03855 35.69209
#
# Velocity S-wave (km/s) = 3.71821 4.08482 3.90582
# Velocity P-wave (km/s) = 6.59439 7.48907 7.05592
#
# Compressibility (1/GPa) = 0.01706082
#
# Stress axis : x y z
#
# Youngs Moduli (GPa) = 124.86621 114.52961 72.79503
#
# Poissons Ratio (x) = 0.21184 0.17971
# Poissons Ratio (y) = 0.23096 0.17396
# Poissons Ratio (z) = 0.30826 0.27370
#
# Static dielectric constant tensor:
#      x y z
#    x 1.930960 -0.074820 -0.056040 
#    y -0.074820 1.916700 0.088980 
#    z -0.056040 0.088980 1.927350 
# 
# From -- ./inp_files/488508.got.cif
#   From: 2010.05.17/outbox.cif.g08.bks.cpg/sg2_245_cif.got.tgz:488508.got - 2010.06.03 11:33:40.
