data_PCOD9052288
_publ_section_title
;
Structure prediction by ZEFSAII (Michael W. Deem and Ramdas Pophale) SiO2 
 PCOD9052288
Probable space group: P -1
;
_chemical_formula_sum "Si O2"
_cell_formula_units_Z 13
_cell_length_a 9.176207
_cell_length_b 12.171113
_cell_length_c 8.814939
_cell_angle_alpha 82.308154
_cell_angle_beta 128.452773
_cell_angle_gamma 132.107461
_cell_volume 499.462824
_symmetry_space_group_name_H-M "P -1"
_symmetry_group_IT_number 2
_symmetry_cell_setting 'triclinic'
loop_
_space_group_symop_operation_xyz
x,y,z
-x,-y,-z
loop_
_atom_site_type_symbol
_atom_site_label
_atom_site_fract_x
_atom_site_fract_y
_atom_site_fract_z
Si Si1 0.865238 0.316081 0.427888
Si Si2 0.912318 0.869149 0.137905
Si Si3 0.879378 0.799325 0.810145
Si Si4 0.392918 0.403639 0.790708
Si Si5 0.800790 0.278675 0.062976
Si Si6 0.500000 0.000000 0.500000
Si Si7 0.630210 0.365833 0.710700
O O1 0.691376 0.230301 0.172510
O O2 0.000000 0.500000 0.500000
O O3 0.146282 0.367866 0.570270
O O4 0.690240 0.180941 0.478354
O O5 0.769225 0.779527 0.221031
O O6 0.222687 0.953326 0.322884
O O7 0.762779 0.746291 0.916733
O O8 0.926327 0.005037 0.099761
O O9 0.622316 0.712934 0.548027
O O10 0.067200 0.779794 0.886074
O O11 0.621290 0.458876 0.813654
O O12 0.500000 0.500000 0.000000
O O13 0.064871 0.485066 0.197664
O O14 0.609815 0.238567 0.807232
#
# Coordination Sequence:
#
# PCOD9052288 Si02
#       7
#     2   2   2   2   2   1   2
#     4  11  25  45  76 109 148 201 250 307 385 443
#     4  10  26  44  71 104 146 204 243 309 384 436
#     4  11  24  45  70 102 148 194 249 305 378 443
#     4  11  23  45  71 105 147 194 250 310 372 453
#     4  11  25  44  71 114 140 204 248 306 382 443
#     4  10  26  50  70 112 152 192 258 316 364 464
#     4  11  25  43  73 107 153 187 254 314 359 459
#
# _framework density 26.027961000000001
#
# number of rings (size 3 to 8) (size 9 to 14) (size 15 to 20)
#    0.000    1.231    1.538    2.308    6.462    6.769 
#    0.000    1.538    0.000    0.000    0.000    0.000 
#    0.000    0.000    0.000    0.000    0.000    0.000 
#
# Total GULP energy -72521.161691 kJ/mol
# GULP energy per Si atom -5578.550899 kJ/mol
# Density = 2.596872 g / cm^3
# Si number density = 26.027961 Si / 1000 Ang^3
#
#
#
# Elastic Constant Matrix: (Units=GPa)
#
#
# Indices 1 2 3 4 5 6 
#
# 1 81.9239 56.7286 63.3094 -13.2080 -2.0719 8.2787
# 2 56.7286 131.5798 36.4506 -41.4102 -6.3753 -2.8340
# 3 63.3094 36.4506 125.8698 -23.5810 15.6330 -14.9045
# 4 -13.2080 -41.4102 -23.5810 35.6528 -2.8632 11.7377
# 5 -2.0719 -6.3753 15.6330 -2.8632 39.6902 -0.6610
# 6 8.2787 -2.8340 -14.9045 11.7377 -0.6610 43.6898
#
#
#
# Elastic Compliance Matrix: (Units=1/GPa)
#
#
# Indices 1 2 3 4 5 6 
#
# 1 0.034065 -0.013040 -0.017150 -0.010006 0.005544 -0.010379
# 2 -0.013040 0.018126 0.004747 0.019485 0.001768 0.000058
# 3 -0.017150 0.004747 0.018485 0.008377 -0.006684 0.007512
# 4 -0.010006 0.019485 0.008377 0.055698 0.003178 -0.008898
# 5 0.005544 0.001768 -0.006684 0.003178 0.028570 -0.003638
# 6 -0.010379 0.000058 0.007512 -0.008898 -0.003638 0.029757
#
#
# Mechanical properties :
#
#
# Convention : Reuss Voigt Hill
#
# Bulk Modulus (GPa) = 50.52789 72.48341 61.50565
# Shear Modulus (GPa) = 20.64574 35.99888 28.32231
#
# Velocity S-wave (km/s) = 2.81946 3.72302 3.30229
# Velocity P-wave (km/s) = 5.48217 6.81101 6.18240
#
# Compressibility (1/GPa) = 0.01979105
#
# Stress axis : x y z
#
# Youngs Moduli (GPa) = 29.35602 55.17017 54.09854
#
# Poissons Ratio (x) = 0.71940 0.92777
# Poissons Ratio (y) = 0.38279 -0.25682
# Poissons Ratio (z) = 0.50345 -0.26191
#
# Static dielectric constant tensor:
#      x y z
#    x 2.006390 -0.005490 -0.088350 
#    y -0.005490 2.170680 0.025590 
#    z -0.088350 0.025590 2.129900 
# 
# From -- ./inp_files/187154.got.cif
#   From: 2010.05.17/outbox.cif.g08.bks.cpg/sg2_94_cif.got.tgz:187154.got - 2010.06.03 11:33:40.
