data_PCOD9052006
_publ_section_title
;
Structure prediction by ZEFSAII (Michael W. Deem and Ramdas Pophale) SiO2 
 PCOD9052006
Probable space group: P -1
;
_chemical_formula_sum "Si O2"
_cell_formula_units_Z 14
_cell_length_a 18.818111
_cell_length_b 9.365373
_cell_length_c 5.645904
_cell_angle_alpha 88.809871
_cell_angle_beta 86.248938
_cell_angle_gamma 144.209911
_cell_volume 575.995248
_symmetry_space_group_name_H-M "P -1"
_symmetry_group_IT_number 2
_symmetry_cell_setting 'triclinic'
loop_
_space_group_symop_operation_xyz
x,y,z
-x,-y,-z
loop_
_atom_site_type_symbol
_atom_site_label
_atom_site_fract_x
_atom_site_fract_y
_atom_site_fract_z
Si Si1 0.133569 0.041877 0.527663
Si Si2 0.694654 0.513958 0.819565
Si Si3 0.188860 0.892445 0.855173
Si Si4 0.438187 0.950924 0.269190
Si Si5 0.122411 0.266913 0.849878
Si Si6 0.970155 0.596685 0.270922
Si Si7 0.549915 0.744444 0.000337
O O1 0.221764 0.215628 0.284019
O O2 0.116410 0.175907 0.607150
O O3 0.197513 0.059947 0.723047
O O4 0.017123 0.760885 0.481578
O O5 0.687278 0.347428 0.697403
O O6 0.559431 0.357810 0.830286
O O7 0.750155 0.564521 0.060256
O O8 0.125702 0.687065 0.679272
O O9 0.318825 0.049293 0.909193
O O10 0.089988 0.740583 0.095222
O O11 0.500000 0.000000 0.500000
O O12 0.500000 0.000000 0.000000
O O13 0.433509 0.116018 0.230475
O O14 0.101151 0.399388 0.861247
O O15 0.000000 0.000000 0.000000
O O16 0.500000 0.500000 0.000000
#
# Coordination Sequence:
#
# PCOD9052006 Si02
#       7
#     2   2   2   2   2   2   2
#     4  12  23  42  72 108 138 193 248 310 377 449
#     4  11  26  44  72 106 146 191 250 303 384 451
#     4  11  25  45  70 100 155 187 242 309 379 454
#     4  10  25  49  74 107 151 201 251 309 372 452
#     4  12  23  43  70  99 140 185 246 311 363 443
#     4  11  24  45  68 105 140 193 246 307 376 447
#     4  11  24  48  74 107 151 197 247 309 384 457
#
# _framework density 24.305754
#
# number of rings (size 3 to 8) (size 9 to 14) (size 15 to 20)
#    0.000    0.857    2.857    3.429    6.000    0.571 
#    7.714    0.000    0.000    0.000    0.000    0.000 
#    0.000    0.000    0.000    0.000    0.000    0.000 
#
# Total GULP energy -78062.708539 kJ/mol
# GULP energy per Si atom -5575.907753 kJ/mol
# Density = 2.425043 g / cm^3
# Si number density = 24.305754 Si / 1000 Ang^3
#
#
#
# Elastic Constant Matrix: (Units=GPa)
#
#
# Indices 1 2 3 4 5 6 
#
# 1 124.0268 58.6388 24.2407 3.2279 25.3054 6.0095
# 2 58.6388 155.6826 32.6927 22.6258 17.1941 -23.4701
# 3 24.2407 32.6927 68.4138 16.9315 26.0932 7.8223
# 4 3.2279 22.6258 16.9315 39.4207 -5.2650 10.9837
# 5 25.3054 17.1941 26.0932 -5.2650 32.8407 -1.3126
# 6 6.0095 -23.4701 7.8223 10.9837 -1.3126 55.5297
#
#
#
# Elastic Compliance Matrix: (Units=1/GPa)
#
#
# Indices 1 2 3 4 5 6 
#
# 1 0.011660 -0.004538 0.000905 0.001333 -0.007264 -0.003743
# 2 -0.004538 0.010720 -0.002053 -0.006930 -0.001330 0.006651
# 3 0.000905 -0.002053 0.028204 -0.013462 -0.024304 -0.002851
# 4 0.001333 -0.006930 -0.013462 0.040010 0.019366 -0.008633
# 5 -0.007264 -0.001330 -0.024304 0.019366 0.059208 0.001216
# 6 -0.003743 0.006651 -0.002851 -0.008633 0.001216 0.023362
#
#
# Mechanical properties :
#
#
# Convention : Reuss Voigt Hill
#
# Bulk Modulus (GPa) = 25.50085 64.36306 44.93196
# Shear Modulus (GPa) = 25.30279 41.06162 33.18221
#
# Velocity S-wave (km/s) = 3.22999 4.11466 3.69887
# Velocity P-wave (km/s) = 4.94215 7.00800 6.06370
#
# Compressibility (1/GPa) = 0.03921438
#
# Stress axis : x y z
#
# Youngs Moduli (GPa) = 85.76391 93.28037 35.45548
#
# Poissons Ratio (x) = 0.42328 -0.03210
# Poissons Ratio (y) = 0.38917 0.07279
# Poissons Ratio (z) = -0.07766 0.19150
#
# Static dielectric constant tensor:
#      x y z
#    x 3.926120 1.099450 -2.260560 
#    y 1.099450 2.730400 -1.360160 
#    z -2.260560 -1.360160 4.572370 
# 
# From -- ./inp_files/106953.got.cif
#   From: 2010.05.17/outbox.cif.g08.bks.cpg/sg2_54_cif.got.tgz:106953.got - 2010.06.03 11:33:40.
