data_PCOD9052007
_publ_section_title
;
Structure prediction by ZEFSAII (Michael W. Deem and Ramdas Pophale) SiO2 
 PCOD9052007
Probable space group: P -1
;
_chemical_formula_sum "Si O2"
_cell_formula_units_Z 11
_cell_length_a 7.859995
_cell_length_b 9.438094
_cell_length_c 9.104486
_cell_angle_alpha 78.812265
_cell_angle_beta 134.220863
_cell_angle_gamma 78.920770
_cell_volume 420.171673
_symmetry_space_group_name_H-M "P -1"
_symmetry_group_IT_number 2
_symmetry_cell_setting 'triclinic'
loop_
_space_group_symop_operation_xyz
x,y,z
-x,-y,-z
loop_
_atom_site_type_symbol
_atom_site_label
_atom_site_fract_x
_atom_site_fract_y
_atom_site_fract_z
Si Si1 0.313754 0.935148 0.985355
Si Si2 0.000000 0.000000 0.500000
Si Si3 0.023818 0.597838 0.854250
Si Si4 0.430992 0.667032 0.758291
Si Si5 0.299200 0.111715 0.234069
Si Si6 0.279339 0.421429 0.596334
O O1 0.503235 0.742318 0.161254
O O2 0.062334 0.004128 0.711203
O O3 0.500000 0.000000 0.000000
O O4 0.251947 0.017633 0.091171
O O5 0.843236 0.205273 0.356164
O O6 0.967275 0.764631 0.866448
O O7 0.790425 0.625470 0.594407
O O8 0.310066 0.480310 0.979072
O O9 0.000000 0.500000 0.000000
O O10 0.547475 0.791566 0.759527
O O11 0.369642 0.563237 0.619732
O O12 0.500000 0.000000 0.500000
O O13 0.000000 0.500000 0.500000
#
# Coordination Sequence:
#
# PCOD9052007 Si02
#       6
#     2   1   2   2   2   2
#     4  12  26  49  73 109 154 200 254 320 364 453
#     4  12  26  46  76 106 150 198 264 300 386 430
#     4  10  25  49  74 109 156 194 248 311 382 452
#     4  11  27  46  78 108 149 201 250 314 375 452
#     4  11  24  51  78 109 156 201 250 314 384 455
#     4  12  27  47  79 112 150 198 256 317 380 444
#
# _framework density 26.179773999999998
#
# number of rings (size 3 to 8) (size 9 to 14) (size 15 to 20)
#    0.000    0.727    3.636    2.182    7.636    8.727 
#    0.000    1.818    0.000    0.000    0.000    0.000 
#    0.000    0.000    0.000    0.000    0.000    0.000 
#
# Total GULP energy -61324.633811 kJ/mol
# GULP energy per Si atom -5574.966710 kJ/mol
# Density = 2.612019 g / cm^3
# Si number density = 26.179774 Si / 1000 Ang^3
#
#
#
# Elastic Constant Matrix: (Units=GPa)
#
#
# Indices 1 2 3 4 5 6 
#
# 1 72.2389 39.8798 31.5466 9.2596 0.3575 1.2518
# 2 39.8798 193.7182 78.8007 -7.8888 -4.1596 -46.0630
# 3 31.5466 78.8007 205.4754 -1.7664 -20.7209 -36.4229
# 4 9.2596 -7.8888 -1.7664 52.4173 -8.7658 -4.8260
# 5 0.3575 -4.1596 -20.7209 -8.7658 35.4482 6.4031
# 6 1.2518 -46.0630 -36.4229 -4.8260 6.4031 50.6527
#
#
#
# Elastic Compliance Matrix: (Units=1/GPa)
#
#
# Indices 1 2 3 4 5 6 
#
# 1 0.018194 -0.004547 -0.002477 -0.004955 -0.002206 -0.006559
# 2 -0.004547 0.008415 -0.001276 0.002625 -0.000354 0.007142
# 3 -0.002477 -0.001276 0.006708 0.001374 0.003520 0.003410
# 4 -0.004955 0.002625 0.001374 0.021790 0.005672 0.004857
# 5 -0.002206 -0.000354 0.003520 0.005672 0.031872 -0.001225
# 6 -0.006559 0.007142 0.003410 0.004857 -0.001225 0.029469
#
#
# Mechanical properties :
#
#
# Convention : Reuss Voigt Hill
#
# Bulk Modulus (GPa) = 59.82065 85.76519 72.79292
# Shear Modulus (GPa) = 36.06972 49.11735 42.59354
#
# Velocity S-wave (km/s) = 3.71586 4.33616 4.03794
# Velocity P-wave (km/s) = 6.42726 7.60927 7.04310
#
# Compressibility (1/GPa) = 0.01671664
#
# Stress axis : x y z
#
# Youngs Moduli (GPa) = 54.96194 118.83911 149.08018
#
# Poissons Ratio (x) = 0.54031 0.36933
# Poissons Ratio (y) = 0.24989 0.19026
# Poissons Ratio (z) = 0.13616 0.15166
#
# Static dielectric constant tensor:
#      x y z
#    x 2.372270 0.136970 0.207340 
#    y 0.136970 2.207420 0.077870 
#    z 0.207340 0.077870 2.089850 
# 
# From -- ./inp_files/158352.got.cif
#   From: 2010.05.17/outbox.cif.g08.bks.cpg/sg2_80_cif.got.tgz:158352.got - 2010.06.03 11:33:40.
