data_PCOD9052056
_publ_section_title
;
Structure prediction by ZEFSAII (Michael W. Deem and Ramdas Pophale) SiO2 
 PCOD9052056
Probable space group: P -1
;
_chemical_formula_sum "Si O2"
_cell_formula_units_Z 16
_cell_length_a 7.561231
_cell_length_b 8.723211
_cell_length_c 17.984544
_cell_angle_alpha 44.645406
_cell_angle_beta 78.054725
_cell_angle_gamma 53.099663
_cell_volume 613.288573
_symmetry_space_group_name_H-M "P -1"
_symmetry_group_IT_number 2
_symmetry_cell_setting 'triclinic'
loop_
_space_group_symop_operation_xyz
x,y,z
-x,-y,-z
loop_
_atom_site_type_symbol
_atom_site_label
_atom_site_fract_x
_atom_site_fract_y
_atom_site_fract_z
Si Si1 0.589242 0.374199 0.148605
Si Si2 0.275754 0.971043 0.360845
Si Si3 0.968187 0.532093 0.580041
Si Si4 0.217969 0.859854 0.627281
Si Si5 0.696655 0.787575 0.993537
Si Si6 0.388531 0.538466 0.378211
Si Si7 0.908104 0.403415 0.867414
Si Si8 0.312360 0.087522 0.811848
O O1 0.704385 0.183131 0.279152
O O2 0.299898 0.612415 0.104482
O O3 0.641522 0.177986 0.142073
O O4 0.294316 0.481367 0.918333
O O5 0.303648 0.809674 0.339078
O O6 0.487011 0.726765 0.481620
O O7 0.239783 0.254641 0.252909
O O8 0.028112 0.074792 0.380104
O O9 0.828162 0.425179 0.650797
O O10 0.000000 0.500000 0.500000
O O11 0.213731 0.329556 0.674078
O O12 0.821143 0.866393 0.494760
O O13 0.421156 0.573476 0.663755
O O14 0.944468 0.688138 0.036638
O O15 0.500000 0.000000 0.000000
O O16 0.562939 0.961901 0.869984
O O17 0.106828 0.230247 0.844290
#
# Coordination Sequence:
#
# PCOD9052056 Si02
#       8
#     2   2   2   2   2   2   2   2
#     4  12  24  46  76 104 140 189 231 291 356 419
#     4  11  23  42  63 101 146 180 236 291 344 420
#     4  12  22  42  67 100 143 185 231 284 349 417
#     4  12  23  41  69 102 143 186 228 288 354 418
#     4  10  25  50  72 104 144 180 241 298 344 416
#     4  11  24  39  64 100 141 192 231 283 351 423
#     4  11  25  46  74 107 141 182 238 294 350 420
#     4  11  25  45  74 101 143 190 231 293 348 417
#
# _framework density 26.088861999999999
#
# number of rings (size 3 to 8) (size 9 to 14) (size 15 to 20)
#    0.000    0.750    3.750    3.375    0.000    3.500 
#    0.000    0.000    0.000    0.000    0.000    0.000 
#    0.000    0.000    0.000    0.000    0.000    0.000 
#
# Total GULP energy -89825.854752 kJ/mol
# GULP energy per Si atom -5614.115922 kJ/mol
# Density = 2.602948 g / cm^3
# Si number density = 26.088862 Si / 1000 Ang^3
#
#
#
# Elastic Constant Matrix: (Units=GPa)
#
#
# Indices 1 2 3 4 5 6 
#
# 1 83.5379 15.2964 16.1791 7.0290 22.3490 -8.5667
# 2 15.2964 133.5037 18.0950 10.1149 -12.8327 4.5234
# 3 16.1791 18.0950 141.0747 8.3886 26.1836 13.2213
# 4 7.0290 10.1149 8.3886 31.0536 7.5562 4.2436
# 5 22.3490 -12.8327 26.1836 7.5562 44.4174 -4.0603
# 6 -8.5667 4.5234 13.2213 4.2436 -4.0603 42.7943
#
#
#
# Elastic Compliance Matrix: (Units=1/GPa)
#
#
# Indices 1 2 3 4 5 6 
#
# 1 0.014856 -0.002430 -0.000157 -0.001026 -0.007667 0.002653
# 2 -0.002430 0.008728 -0.001614 -0.003111 0.005215 -0.000107
# 3 -0.000157 -0.001614 0.008676 0.000050 -0.005793 -0.003096
# 4 -0.001026 -0.003111 0.000050 0.035659 -0.006851 -0.004078
# 5 -0.007667 0.005215 -0.005793 -0.006851 0.032778 0.003493
# 6 0.002653 -0.000107 -0.003096 -0.004078 0.003493 0.025602
#
#
# Mechanical properties :
#
#
# Convention : Reuss Voigt Hill
#
# Bulk Modulus (GPa) = 41.91337 50.80638 46.35988
# Shear Modulus (GPa) = 35.05012 44.22277 39.63645
#
# Velocity S-wave (km/s) = 3.66934 4.12160 3.90203
# Velocity P-wave (km/s) = 5.83546 6.49360 6.17330
#
# Compressibility (1/GPa) = 0.02385873
#
# Stress axis : x y z
#
# Youngs Moduli (GPa) = 67.31482 114.57056 115.26361
#
# Poissons Ratio (x) = 0.27842 0.01805
# Poissons Ratio (y) = 0.16358 0.18600
# Poissons Ratio (z) = 0.01054 0.18489
#
# Static dielectric constant tensor:
#      x y z
#    x 2.023360 -0.008480 -0.014470 
#    y -0.008480 2.012580 0.001760 
#    z -0.014470 0.001760 2.071400 
# 
# From -- ./inp_files/557122.got.cif
#   From: 2010.05.17/outbox.cif.g08.bks.cpg/sg2_279_cif.got.tgz:557122.got - 2010.06.03 11:33:40.
