data_PCOD9052226
_publ_section_title
;
Structure prediction by ZEFSAII (Michael W. Deem and Ramdas Pophale) SiO2 
 PCOD9052226
Probable space group: P -1
;
_chemical_formula_sum "Si O2"
_cell_formula_units_Z 13
_cell_length_a 8.891351
_cell_length_b 18.180243
_cell_length_c 12.690899
_cell_angle_alpha 25.666214
_cell_angle_beta 143.606395
_cell_angle_gamma 134.974948
_cell_volume 525.791643
_symmetry_space_group_name_H-M "P -1"
_symmetry_group_IT_number 2
_symmetry_cell_setting 'triclinic'
loop_
_space_group_symop_operation_xyz
x,y,z
-x,-y,-z
loop_
_atom_site_type_symbol
_atom_site_label
_atom_site_fract_x
_atom_site_fract_y
_atom_site_fract_z
Si Si1 0.600133 0.017778 0.415537
Si Si2 0.871826 0.587237 0.918558
Si Si3 0.400487 0.392688 0.859435
Si Si4 0.570875 0.929678 0.243520
Si Si5 0.808221 0.162896 0.699480
Si Si6 0.000000 0.000000 0.500000
Si Si7 0.017313 0.529505 0.310359
O O1 0.886304 0.978925 0.586587
O O2 0.500000 0.000000 0.500000
O O3 0.440707 0.873325 0.459157
O O4 0.512511 0.218565 0.095794
O O5 0.617093 0.489949 0.914062
O O6 0.799162 0.784299 0.592114
O O7 0.011700 0.578920 0.120620
O O8 0.000000 0.500000 0.000000
O O9 0.181343 0.368847 0.853623
O O10 0.283532 0.510358 0.546509
O O11 0.311287 0.853948 0.231603
O O12 0.701898 0.069723 0.206361
O O13 0.500000 0.000000 0.000000
O O14 0.925362 0.336201 0.514357
O O15 0.000000 0.000000 0.000000
#
# Coordination Sequence:
#
# PCOD9052226 Si02
#       7
#     2   2   2   2   2   1   2
#     4  11  24  41  73 100 140 187 234 292 356 420
#     4  12  27  44  71 102 144 188 234 298 356 425
#     4  11  24  45  71 105 138 187 232 296 362 425
#     4  11  27  45  68 100 141 185 227 295 357 417
#     4  11  23  44  71 100 135 184 237 292 345 427
#     4  10  26  44  64 104 138 176 244 286 342 426
#     4  11  25  45  72 104 143 179 245 290 357 436
#
# _framework density 24.724623000000001
#
# number of rings (size 3 to 8) (size 9 to 14) (size 15 to 20)
#    0.000    0.923    3.077    2.308    8.615    1.846 
#    0.000    0.000    0.000    0.000    0.000    0.000 
#    0.000    0.000    0.000    0.000    0.000    0.000 
#
# Total GULP energy -72379.729437 kJ/mol
# GULP energy per Si atom -5567.671495 kJ/mol
# Density = 2.466835 g / cm^3
# Si number density = 24.724623 Si / 1000 Ang^3
#
#
#
# Elastic Constant Matrix: (Units=GPa)
#
#
# Indices 1 2 3 4 5 6 
#
# 1 124.8669 7.4256 56.0608 -17.8306 -4.0832 -25.5683
# 2 7.4256 80.7051 18.6789 -1.9302 -13.2974 -6.7310
# 3 56.0608 18.6789 111.8463 -0.4364 -20.9332 -26.0933
# 4 -17.8306 -1.9302 -0.4364 45.3501 -13.5274 -0.3482
# 5 -4.0832 -13.2974 -20.9332 -13.5274 42.6847 6.0499
# 6 -25.5683 -6.7310 -26.0933 -0.3482 6.0499 48.3227
#
#
#
# Elastic Compliance Matrix: (Units=1/GPa)
#
#
# Indices 1 2 3 4 5 6 
#
# 1 0.011634 0.000462 -0.005133 0.004469 -0.000344 0.003523
# 2 0.000462 0.013475 -0.001541 0.001935 0.003986 0.000804
# 3 -0.005133 -0.001541 0.013591 -0.000426 0.005024 0.003776
# 4 0.004469 0.001935 -0.000426 0.026595 0.009042 0.001464
# 5 -0.000344 0.003986 0.005024 0.009042 0.030053 -0.000611
# 6 0.003523 0.000804 0.003776 0.001464 -0.000611 0.024797
#
#
# Mechanical properties :
#
#
# Convention : Reuss Voigt Hill
#
# Bulk Modulus (GPa) = 38.05874 53.52763 45.79319
# Shear Modulus (GPa) = 35.37903 42.95503 39.16703
#
# Velocity S-wave (km/s) = 3.78686 4.17266 3.98443
# Velocity P-wave (km/s) = 5.87766 6.70159 6.30310
#
# Compressibility (1/GPa) = 0.02627518
#
# Stress axis : x y z
#
# Youngs Moduli (GPa) = 85.95344 74.21174 73.57959
#
# Poissons Ratio (x) = -0.03427 0.37772
# Poissons Ratio (y) = -0.03969 0.11336
# Poissons Ratio (z) = 0.44124 0.11434
#
# Static dielectric constant tensor:
#      x y z
#    x 1.968350 -0.208920 -0.055420 
#    y -0.208920 1.899680 0.109650 
#    z -0.055420 0.109650 1.999950 
# 
# From -- ./inp_files/159815.got.cif
#   From: 2010.05.17/outbox.cif.g08.bks.cpg/sg2_80_cif.got.tgz:159815.got - 2010.06.03 11:33:40.
