data_PCOD9052952
_publ_section_title
;
Structure prediction by ZEFSAII (Michael W. Deem and Ramdas Pophale) SiO2 
 PCOD9052952
Probable space group: P -1
;
_chemical_formula_sum "Si O2"
_cell_formula_units_Z 14
_cell_length_a 14.614895
_cell_length_b 31.514871
_cell_length_c 9.381790
_cell_angle_alpha 144.893172
_cell_angle_beta 28.065188
_cell_angle_gamma 163.118024
_cell_volume 579.336523
_symmetry_space_group_name_H-M "P -1"
_symmetry_group_IT_number 2
_symmetry_cell_setting 'triclinic'
loop_
_space_group_symop_operation_xyz
x,y,z
-x,-y,-z
loop_
_atom_site_type_symbol
_atom_site_label
_atom_site_fract_x
_atom_site_fract_y
_atom_site_fract_z
Si Si1 0.901652 0.211266 0.396718
Si Si2 0.994316 0.372716 0.918632
Si Si3 0.068770 0.884914 0.662750
Si Si4 0.466040 0.660769 0.658111
Si Si5 0.520626 0.123081 0.073052
Si Si6 0.309391 0.422972 0.899909
Si Si7 0.085531 0.868337 0.123232
O O1 0.020279 0.176982 0.229848
O O2 0.965594 0.212598 0.147336
O O3 0.424320 0.059309 0.651375
O O4 0.078359 0.338109 0.589834
O O5 0.929683 0.429487 0.090403
O O6 0.263826 0.462960 0.937818
O O7 0.583203 0.206232 0.096686
O O8 0.689598 0.778241 0.798796
O O9 0.269059 0.879911 0.294883
O O10 0.466510 0.575339 0.463798
O O11 0.741500 0.752517 0.391522
O O12 0.130441 0.961198 0.231280
O O13 0.500000 0.000000 0.000000
O O14 0.500000 0.500000 0.000000
O O15 0.846232 0.254016 0.101496
#
# Coordination Sequence:
#
# PCOD9052952 Si02
#       7
#     2   2   2   2   2   2   2
#     4   9  15  29  49  66 107 137 163 197 245 299
#     4   9  19  32  49  80  99 129 178 205 238 308
#     4   8  14  27  46  65  97 139 157 191 240 291
#     4  11  19  31  54  78 102 129 171 205 251 298
#     4   7  15  30  44  71 103 125 160 197 248 282
#     4   9  18  35  53  71 100 131 170 218 255 280
#     4  11  16  30  51  77 107 138 157 198 254 310
#
# _framework density 24.165575
#
# number of rings (size 3 to 8) (size 9 to 14) (size 15 to 20)
#    0.857    2.000    5.714    0.857    0.000    1.714 
#    0.000    0.000    3.143    0.857    0.000    2.000 
#    0.000    0.000    0.000    0.000    0.000    0.000 
#
# Total GULP energy -77968.013112 kJ/mol
# GULP energy per Si atom -5569.143794 kJ/mol
# Density = 2.411057 g / cm^3
# Si number density = 24.165575 Si / 1000 Ang^3
#
#
#
# Elastic Constant Matrix: (Units=GPa)
#
#
# Indices 1 2 3 4 5 6 
#
# 1 146.9115 20.8411 38.9899 7.9872 12.4450 37.0146
# 2 20.8411 42.6588 12.9493 1.8102 13.0052 26.6541
# 3 38.9899 12.9493 38.0944 -2.5775 14.1045 10.0025
# 4 7.9872 1.8102 -2.5775 22.4527 -6.9247 21.2680
# 5 12.4450 13.0052 14.1045 -6.9247 42.0089 13.5470
# 6 37.0146 26.6541 10.0025 21.2680 13.5470 51.3097
#
#
#
# Elastic Compliance Matrix: (Units=1/GPa)
#
#
# Indices 1 2 3 4 5 6 
#
# 1 0.011502 0.003741 -0.010908 0.007261 0.004242 -0.012244
# 2 0.003741 0.046904 -0.008857 0.035597 0.006713 -0.041865
# 3 -0.010908 -0.008857 0.042416 -0.000918 -0.010818 0.007438
# 4 0.007261 0.035597 -0.000918 0.136596 0.038811 -0.090417
# 5 0.004242 0.006713 -0.010818 0.038811 0.040573 -0.031238
# 6 -0.012244 -0.041865 0.007438 -0.090417 -0.031238 0.094345
#
#
# Mechanical properties :
#
#
# Convention : Reuss Voigt Hill
#
# Bulk Modulus (GPa) = 14.54076 41.46949 28.00512
# Shear Modulus (GPa) = 11.70113 33.47988 22.59050
#
# Velocity S-wave (km/s) = 2.20286 3.72618 3.06080
# Velocity P-wave (km/s) = 3.53558 5.97582 4.90972
#
# Compressibility (1/GPa) = 0.06877221
#
# Stress axis : x y z
#
# Youngs Moduli (GPa) = 86.94175 21.32032 23.57588
#
# Poissons Ratio (x) = -0.07975 0.25718
# Poissons Ratio (y) = -0.32522 0.20881
# Poissons Ratio (z) = 0.94840 0.18883
#
# Static dielectric constant tensor:
#      x y z
#    x 1.975520 -0.046720 -0.024040 
#    y -0.046720 2.096480 0.009250 
#    z -0.024040 0.009250 1.931380 
# 
# From -- ./inp_files/285353.got.cif
#   From: 2010.05.17/outbox.cif.g08.bks.cpg/sg2_143_cif.got.tgz:285353.got - 2010.06.03 11:33:40.
