data_PCOD9052685
_publ_section_title
;
Structure prediction by ZEFSAII (Michael W. Deem and Ramdas Pophale) SiO2 
 PCOD9052685
Probable space group: P -1
;
_chemical_formula_sum "Si O2"
_cell_formula_units_Z 12
_cell_length_a 12.832489
_cell_length_b 5.264758
_cell_length_c 12.342462
_cell_angle_alpha 111.811185
_cell_angle_beta 44.982949
_cell_angle_gamma 86.534908
_cell_volume 476.271858
_symmetry_space_group_name_H-M "P -1"
_symmetry_group_IT_number 2
_symmetry_cell_setting 'triclinic'
loop_
_space_group_symop_operation_xyz
x,y,z
-x,-y,-z
loop_
_atom_site_type_symbol
_atom_site_label
_atom_site_fract_x
_atom_site_fract_y
_atom_site_fract_z
Si Si1 0.732902 0.503279 0.853226
Si Si2 0.942505 0.791264 0.671849
Si Si3 0.244658 0.378957 0.513943
Si Si4 0.535732 0.469875 0.340002
Si Si5 0.609755 0.265450 0.724974
Si Si6 0.888142 0.365143 0.113810
O O1 0.812496 0.732822 0.832482
O O2 0.671831 0.486825 0.772789
O O3 0.859413 0.144813 0.743549
O O4 0.566587 0.629800 0.068550
O O5 0.000000 0.500000 0.500000
O O6 0.110529 0.697720 0.603725
O O7 0.443801 0.273716 0.342034
O O8 0.187590 0.444282 0.689819
O O9 0.242075 0.085212 0.416493
O O10 0.500000 0.500000 0.500000
O O11 0.427571 0.743354 0.376900
O O12 0.727166 0.391060 0.170891
O O13 0.000000 0.500000 0.000000
O O14 0.000000 0.000000 0.000000
#
# Coordination Sequence:
#
# PCOD9052685 Si02
#       6
#     2   2   2   2   2   2
#     4  11  28  45  73 112 152 197 244 309 357 449
#     4  12  25  47  72 110 152 192 248 297 375 432
#     4  11  27  44  79 103 148 200 243 302 375 440
#     4  10  26  48  74 103 146 194 249 303 371 439
#     4  11  26  46  75 106 150 197 253 296 378 434
#     4  11  29  49  73 109 145 186 250 311 373 435
#
# _framework density 25.195692999999999
#
# number of rings (size 3 to 8) (size 9 to 14) (size 15 to 20)
#    0.000    1.000    1.667    1.500   16.333    2.667 
#    0.000    0.000    0.000    0.000    0.000    0.000 
#    0.000    0.000    0.000    0.000    0.000    0.000 
#
# Total GULP energy -66973.056163 kJ/mol
# GULP energy per Si atom -5581.088014 kJ/mol
# Density = 2.513835 g / cm^3
# Si number density = 25.195693 Si / 1000 Ang^3
#
#
#
# Elastic Constant Matrix: (Units=GPa)
#
#
# Indices 1 2 3 4 5 6 
#
# 1 152.7435 49.8895 48.1717 -5.2139 -36.1725 -13.6878
# 2 49.8895 133.6094 50.4639 -9.8098 -22.3522 -4.4140
# 3 48.1717 50.4639 101.8791 -0.7698 -20.9726 8.0681
# 4 -5.2139 -9.8098 -0.7698 41.0185 13.7648 -11.2064
# 5 -36.1725 -22.3522 -20.9726 13.7648 46.8713 -11.3860
# 6 -13.6878 -4.4140 8.0681 -11.2064 -11.3860 48.1699
#
#
#
# Elastic Compliance Matrix: (Units=1/GPa)
#
#
# Indices 1 2 3 4 5 6 
#
# 1 0.010004 -0.001263 -0.003058 -0.000095 0.006959 0.004862
# 2 -0.001263 0.010072 -0.004165 0.002144 0.001871 0.002203
# 3 -0.003058 -0.004165 0.013975 -0.002765 0.001793 -0.003811
# 4 -0.000095 0.002144 -0.002765 0.028839 -0.007398 0.005593
# 5 0.006959 0.001871 0.001793 -0.007398 0.032468 0.007802
# 6 0.004862 0.002203 -0.003811 0.005593 0.007802 0.026127
#
#
# Mechanical properties :
#
#
# Convention : Reuss Voigt Hill
#
# Bulk Modulus (GPa) = 58.55050 76.14247 67.34648
# Shear Modulus (GPa) = 34.68599 43.19241 38.93920
#
# Velocity S-wave (km/s) = 3.71437 4.14488 3.93551
# Velocity P-wave (km/s) = 6.45632 7.29333 6.88755
#
# Compressibility (1/GPa) = 0.01707927
#
# Stress axis : x y z
#
# Youngs Moduli (GPa) = 99.95655 99.28181 71.55769
#
# Poissons Ratio (x) = 0.12536 0.21883
# Poissons Ratio (y) = 0.12621 0.29806
# Poissons Ratio (z) = 0.30568 0.41354
#
# Static dielectric constant tensor:
#      x y z
#    x 1.971210 0.023350 -0.016980 
#    y 0.023350 2.281240 -0.084570 
#    z -0.016980 -0.084570 2.016670 
# 
# From -- ./inp_files/26367.got.cif
#   From: 2010.05.17/outbox.cif.g08.bks.cpg/sg2_14_cif.got.tgz:26367.got - 2010.06.03 11:33:40.
