data_PCOD9052368
_publ_section_title
;
Structure prediction by ZEFSAII (Michael W. Deem and Ramdas Pophale) SiO2 
 PCOD9052368
Probable space group: P -1
;
_chemical_formula_sum "Si O2"
_cell_formula_units_Z 16
_cell_length_a 18.028480
_cell_length_b 11.728341
_cell_length_c 9.268164
_cell_angle_alpha 140.539160
_cell_angle_beta 37.447579
_cell_angle_gamma 141.599403
_cell_volume 679.371742
_symmetry_space_group_name_H-M "P -1"
_symmetry_group_IT_number 2
_symmetry_cell_setting 'triclinic'
loop_
_space_group_symop_operation_xyz
x,y,z
-x,-y,-z
loop_
_atom_site_type_symbol
_atom_site_label
_atom_site_fract_x
_atom_site_fract_y
_atom_site_fract_z
Si Si1 0.806026 0.341547 0.478183
Si Si2 0.858691 0.302936 0.030696
Si Si3 0.456805 0.825521 0.093540
Si Si4 0.402026 0.718981 0.749645
Si Si5 0.860493 0.024308 0.247382
Si Si6 0.665337 0.661032 0.667064
Si Si7 0.184130 0.249622 0.187072
Si Si8 0.107801 0.019084 0.525244
O O1 0.809962 0.274147 0.242815
O O2 0.873662 0.232247 0.366478
O O3 0.863278 0.582244 0.625057
O O4 0.654904 0.262717 0.697029
O O5 0.743962 0.319111 0.125303
O O6 0.883104 0.126603 0.751480
O O7 0.000000 0.500000 0.000000
O O8 0.402233 0.712061 0.915340
O O9 0.590314 0.801736 0.906458
O O10 0.494568 0.056681 0.234567
O O11 0.429862 0.549621 0.463357
O O12 0.823589 0.000131 0.448969
O O13 0.766093 0.843477 0.111166
O O14 0.000000 0.000000 0.000000
O O15 0.707858 0.652552 0.757111
O O16 0.804246 0.760589 0.455757
O O17 0.051473 0.063806 0.276170
#
# Coordination Sequence:
#
# PCOD9052368 Si02
#       8
#     2   2   2   2   2   2   2   2
#     4  12  26  47  73 107 147 197 239 308 369 436
#     4  12  23  47  77 108 145 193 243 307 372 440
#     4  11  28  47  73 105 154 200 251 300 361 451
#     4  11  25  49  72 108 147 200 251 299 371 438
#     4  10  26  45  70 107 148 191 241 305 373 445
#     4  12  24  46  75 106 144 201 248 306 368 439
#     4  11  25  47  70 113 149 192 248 309 379 437
#     4  11  23  46  72 107 152 190 247 312 373 444
#
# _framework density 23.551172000000001
#
# number of rings (size 3 to 8) (size 9 to 14) (size 15 to 20)
#    0.000    0.750    3.750    2.250    3.500    7.000 
#    2.250    0.000    0.000    0.000    0.000    0.000 
#    0.000    0.000    0.000    0.000    0.000    0.000 
#
# Total GULP energy -89580.206440 kJ/mol
# GULP energy per Si atom -5598.762903 kJ/mol
# Density = 2.349757 g / cm^3
# Si number density = 23.551172 Si / 1000 Ang^3
#
#
#
# Elastic Constant Matrix: (Units=GPa)
#
#
# Indices 1 2 3 4 5 6 
#
# 1 132.5899 39.6190 40.1079 8.0053 28.9507 -13.5496
# 2 39.6190 80.1156 45.8139 9.4778 18.6140 -0.3020
# 3 40.1079 45.8139 93.8093 8.1429 33.1303 -7.4191
# 4 8.0053 9.4778 8.1429 40.3651 1.0445 -10.3608
# 5 28.9507 18.6140 33.1303 1.0445 48.2244 2.7989
# 6 -13.5496 -0.3020 -7.4191 -10.3608 2.7989 31.0388
#
#
#
# Elastic Compliance Matrix: (Units=1/GPa)
#
#
# Indices 1 2 3 4 5 6 
#
# 1 0.010320 -0.003693 -0.000616 0.000307 -0.004635 0.004843
# 2 -0.003693 0.019145 -0.008098 -0.003311 0.000725 -0.004532
# 3 -0.000616 -0.008098 0.018684 -0.000237 -0.009620 0.004907
# 4 0.000307 -0.003311 -0.000237 0.027938 0.000108 0.009361
# 5 -0.004635 0.000725 -0.009620 0.000108 0.030252 -0.007008
# 6 0.004843 -0.004532 0.004907 0.009361 -0.007008 0.039217
#
#
# Mechanical properties :
#
#
# Convention : Reuss Voigt Hill
#
# Bulk Modulus (GPa) = 42.85198 61.95515 52.40357
# Shear Modulus (GPa) = 28.06626 35.99060 32.02843
#
# Velocity S-wave (km/s) = 3.45587 3.91344 3.69175
# Velocity P-wave (km/s) = 5.84455 6.83987 6.36170
#
# Compressibility (1/GPa) = 0.02333614
#
# Stress axis : x y z
#
# Youngs Moduli (GPa) = 96.89906 52.23239 53.52038
#
# Poissons Ratio (x) = 0.19288 0.03296
# Poissons Ratio (y) = 0.35781 0.43343
# Poissons Ratio (z) = 0.05967 0.42300
#
# Static dielectric constant tensor:
#      x y z
#    x 1.911310 0.006050 -0.010840 
#    y 0.006050 1.900540 0.005880 
#    z -0.010840 0.005880 1.887070 
# 
# From -- ./inp_files/333875.got.cif
#   From: 2010.05.17/outbox.cif.g08.bks.cpg/sg2_167_cif.got.tgz:333875.got - 2010.06.03 11:33:40.
