data_PCOD9052365
_publ_section_title
;
Structure prediction by ZEFSAII (Michael W. Deem and Ramdas Pophale) SiO2 
 PCOD9052365
Probable space group: P -1
;
_chemical_formula_sum "Si O2"
_cell_formula_units_Z 14
_cell_length_a 5.637837
_cell_length_b 14.710680
_cell_length_c 7.424709
_cell_angle_alpha 116.458805
_cell_angle_beta 91.384746
_cell_angle_gamma 105.445165
_cell_volume 524.041179
_symmetry_space_group_name_H-M "P -1"
_symmetry_group_IT_number 2
_symmetry_cell_setting 'triclinic'
loop_
_space_group_symop_operation_xyz
x,y,z
-x,-y,-z
loop_
_atom_site_type_symbol
_atom_site_label
_atom_site_fract_x
_atom_site_fract_y
_atom_site_fract_z
Si Si1 0.991189 0.921271 0.759642
Si Si2 0.769289 0.069944 0.642273
Si Si3 0.083746 0.592894 0.228290
Si Si4 0.285257 0.444416 0.307196
Si Si5 0.837789 0.766928 0.398747
Si Si6 0.503971 0.315895 0.969265
Si Si7 0.818938 0.226536 0.118282
O O1 0.171036 0.855583 0.798454
O O2 0.746193 0.815082 0.613069
O O3 0.926893 0.001978 0.679073
O O4 0.000000 0.000000 0.000000
O O5 0.899401 0.137514 0.528642
O O6 0.500000 0.000000 0.500000
O O7 0.764527 0.155734 0.870941
O O8 0.153458 0.534321 0.346210
O O9 0.316703 0.667997 0.187891
O O10 0.891134 0.656197 0.323726
O O11 0.000000 0.500000 0.000000
O O12 0.500000 0.500000 0.500000
O O13 0.073224 0.328647 0.224330
O O14 0.426819 0.419900 0.109995
O O15 0.728880 0.770127 0.202080
O O16 0.608596 0.283708 0.126546
#
# Coordination Sequence:
#
# PCOD9052365 Si02
#       7
#     2   2   2   2   2   2   2
#     4  10  26  45  70 102 142 182 233 296 362 412
#     4  11  22  48  75 102 133 184 244 292 349 424
#     4  12  24  46  71 109 137 186 245 280 348 427
#     4  12  28  43  70 106 149 188 230 289 359 422
#     4  12  25  45  75 104 139 187 239 293 345 427
#     4  12  23  45  73  96 148 184 236 285 345 413
#     4  11  24  48  64 108 146 176 236 297 350 421
#
# _framework density 26.71546
#
# number of rings (size 3 to 8) (size 9 to 14) (size 15 to 20)
#    0.000    0.571    5.714    1.714    4.000    0.571 
#    0.000    2.143    0.000    0.000    0.000    0.000 
#    0.000    0.000    0.000    0.000    0.000    0.000 
#
# Total GULP energy -77962.356971 kJ/mol
# GULP energy per Si atom -5568.739784 kJ/mol
# Density = 2.665465 g / cm^3
# Si number density = 26.715460 Si / 1000 Ang^3
#
#
#
# Elastic Constant Matrix: (Units=GPa)
#
#
# Indices 1 2 3 4 5 6 
#
# 1 42.3801 47.2793 39.3828 -2.5030 20.4140 -6.7708
# 2 47.2793 175.4506 70.8005 -20.0238 17.3315 -32.1217
# 3 39.3828 70.8005 191.2283 2.6787 33.5850 -14.8154
# 4 -2.5030 -20.0238 2.6787 61.8652 -10.7868 1.2616
# 5 20.4140 17.3315 33.5850 -10.7868 46.4566 3.3942
# 6 -6.7708 -32.1217 -14.8154 1.2616 3.3942 45.5286
#
#
#
# Elastic Compliance Matrix: (Units=1/GPa)
#
#
# Indices 1 2 3 4 5 6 
#
# 1 0.043719 -0.009642 -0.002854 -0.003741 -0.014416 -0.000051
# 2 -0.009642 0.010057 -0.001791 0.003224 0.002175 0.004828
# 3 -0.002854 -0.001791 0.007245 -0.001688 -0.003781 0.000998
# 4 -0.003741 0.003224 -0.001688 0.018146 0.005858 0.000229
# 5 -0.014416 0.002175 -0.003781 0.005858 0.031459 -0.004347
# 6 -0.000051 0.004828 0.000998 0.000229 -0.004347 0.026005
#
#
# Mechanical properties :
#
#
# Convention : Reuss Voigt Hill
#
# Bulk Modulus (GPa) = 30.81830 80.44271 55.63050
# Shear Modulus (GPa) = 28.40553 47.54318 37.97435
#
# Velocity S-wave (km/s) = 3.26431 4.22312 3.77429
# Velocity P-wave (km/s) = 5.07626 7.34547 6.31365
#
# Compressibility (1/GPa) = 0.03244826
#
# Stress axis : x y z
#
# Youngs Moduli (GPa) = 22.87330 99.42834 138.02272
#
# Poissons Ratio (x) = 0.95867 0.39388
# Poissons Ratio (y) = 0.22054 0.24722
# Poissons Ratio (z) = 0.06527 0.17809
#
# Static dielectric constant tensor:
#      x y z
#    x 2.123880 -0.074730 0.109350 
#    y -0.074730 2.060750 0.032310 
#    z 0.109350 0.032310 1.934420 
# 
# From -- ./inp_files/39042.got.cif
#   From: 2010.05.17/outbox.cif.g08.bks.cpg/sg2_20_cif.got.tgz:39042.got - 2010.06.03 11:33:40.
