data_PCOD9052194
_publ_section_title
;
Structure prediction by ZEFSAII (Michael W. Deem and Ramdas Pophale) SiO2 
 PCOD9052194
Probable space group: P -1
;
_chemical_formula_sum "Si O2"
_cell_formula_units_Z 16
_cell_length_a 11.007373
_cell_length_b 4.976374
_cell_length_c 13.941040
_cell_angle_alpha 92.581171
_cell_angle_beta 60.855339
_cell_angle_gamma 68.666792
_cell_volume 597.640001
_symmetry_space_group_name_H-M "P -1"
_symmetry_group_IT_number 2
_symmetry_cell_setting 'triclinic'
loop_
_space_group_symop_operation_xyz
x,y,z
-x,-y,-z
loop_
_atom_site_type_symbol
_atom_site_label
_atom_site_fract_x
_atom_site_fract_y
_atom_site_fract_z
Si Si1 0.914824 0.999748 0.287488
Si Si2 0.260801 0.578710 0.966112
Si Si3 0.096432 0.720397 0.384384
Si Si4 0.296470 0.146629 0.772582
Si Si5 0.629418 0.823455 0.638258
Si Si6 0.639121 0.586170 0.437651
Si Si7 0.826233 0.838307 0.893742
Si Si8 0.619131 0.226091 0.817174
O O1 0.834406 0.928110 0.225721
O O2 0.982311 0.746419 0.340559
O O3 0.029261 0.138448 0.210124
O O4 0.784869 0.276073 0.397811
O O5 0.243575 0.403483 0.877674
O O6 0.444362 0.446573 0.915140
O O7 0.203465 0.933672 0.000541
O O8 0.174243 0.468539 0.077305
O O9 0.198393 0.426587 0.402462
O O10 0.241896 0.693896 0.260636
O O11 0.000000 0.000000 0.500000
O O12 0.343011 0.301608 0.670187
O O13 0.456593 0.842241 0.729729
O O14 0.630840 0.822826 0.524201
O O15 0.608326 0.100017 0.715096
O O16 0.500000 0.500000 0.500000
O O17 0.686972 0.986486 0.872841
#
# Coordination Sequence:
#
# PCOD9052194 Si02
#       8
#     2   2   2   2   2   2   2   2
#     4  11  27  46  72 109 157 194 251 315 383 457
#     4  11  27  48  80 104 151 201 266 318 385 447
#     4  11  25  44  70 110 153 195 242 310 385 453
#     4  11  28  45  76 110 145 203 257 313 370 466
#     4  11  25  43  76 105 149 195 251 303 374 459
#     4  12  26  45  75 108 157 200 252 305 379 463
#     4  11  27  49  73 114 148 202 252 334 386 442
#     4  10  26  42  74 108 147 197 255 311 375 469
#
# _framework density 26.771968000000001
#
# number of rings (size 3 to 8) (size 9 to 14) (size 15 to 20)
#    0.000    1.000    2.500    1.125   15.750    2.500 
#    0.000    0.000    0.000    0.000    0.000    0.000 
#    0.000    0.000    0.000    0.000    0.000    0.000 
#
# Total GULP energy -89393.989987 kJ/mol
# GULP energy per Si atom -5587.124374 kJ/mol
# Density = 2.671103 g / cm^3
# Si number density = 26.771968 Si / 1000 Ang^3
#
#
#
# Elastic Constant Matrix: (Units=GPa)
#
#
# Indices 1 2 3 4 5 6 
#
# 1 130.5729 28.8614 43.3838 10.9112 3.2994 -8.7126
# 2 28.8614 83.8590 14.6676 0.6566 -9.4367 3.7064
# 3 43.3838 14.6676 100.7977 3.3471 7.1431 6.0618
# 4 10.9112 0.6566 3.3471 43.2393 -1.0658 -4.1395
# 5 3.2994 -9.4367 7.1431 -1.0658 69.0625 3.4186
# 6 -8.7126 3.7064 6.0618 -4.1395 3.4186 36.0447
#
#
#
# Elastic Compliance Matrix: (Units=1/GPa)
#
#
# Indices 1 2 3 4 5 6 
#
# 1 0.010021 -0.002958 -0.003968 -0.001883 -0.000662 0.003240
# 2 -0.002958 0.013402 -0.000717 0.000448 0.002159 -0.002126
# 3 -0.003968 -0.000717 0.011982 -0.000211 -0.001011 -0.002829
# 4 -0.001883 0.000448 -0.000211 0.023836 0.000430 0.002231
# 5 -0.000662 0.002159 -0.001011 0.000430 0.014996 -0.001585
# 6 0.003240 -0.002126 -0.002829 0.002231 -0.001585 0.029627
#
#
# Mechanical properties :
#
#
# Convention : Reuss Voigt Hill
#
# Bulk Modulus (GPa) = 49.70578 54.33946 52.02262
# Shear Modulus (GPa) = 39.72797 44.89042 42.30920
#
# Velocity S-wave (km/s) = 3.85637 4.09928 3.97968
# Velocity P-wave (km/s) = 6.19963 6.53809 6.37111
#
# Compressibility (1/GPa) = 0.02011838
#
# Stress axis : x y z
#
# Youngs Moduli (GPa) = 99.78992 74.61825 83.45935
#
# Poissons Ratio (x) = 0.22071 0.33118
# Poissons Ratio (y) = 0.29516 0.05985
# Poissons Ratio (z) = 0.39598 0.05351
#
# Static dielectric constant tensor:
#      x y z
#    x 2.184120 -0.061750 -0.083980 
#    y -0.061750 2.192360 0.002500 
#    z -0.083980 0.002500 2.125090 
# 
# From -- ./inp_files/510955.got.cif
#   From: 2010.05.17/outbox.cif.g08.bks.cpg/sg2_256_cif.got.tgz:510955.got - 2010.06.03 11:33:40.
