data_PCOD9052709
_publ_section_title
;
Structure prediction by ZEFSAII (Michael W. Deem and Ramdas Pophale) SiO2 
 PCOD9052709
Probable space group: P -1
;
_chemical_formula_sum "Si O2"
_cell_formula_units_Z 12
_cell_length_a 14.248658
_cell_length_b 5.973557
_cell_length_c 11.692462
_cell_angle_alpha 54.091509
_cell_angle_beta 37.904828
_cell_angle_gamma 49.891771
_cell_volume 461.104504
_symmetry_space_group_name_H-M "P -1"
_symmetry_group_IT_number 2
_symmetry_cell_setting 'triclinic'
loop_
_space_group_symop_operation_xyz
x,y,z
-x,-y,-z
loop_
_atom_site_type_symbol
_atom_site_label
_atom_site_fract_x
_atom_site_fract_y
_atom_site_fract_z
Si Si1 0.445934 0.856548 0.982734
Si Si2 0.883572 0.204298 0.711851
Si Si3 0.100949 0.706298 0.062958
Si Si4 0.316666 0.637174 0.679833
Si Si5 0.307702 0.236394 0.411673
Si Si6 0.150032 0.618411 0.629209
O O1 0.252596 0.932957 0.152182
O O2 0.500000 0.500000 0.000000
O O3 0.533802 0.935171 0.764934
O O4 0.500000 0.000000 0.000000
O O5 0.870212 0.235769 0.851577
O O6 0.828362 0.527064 0.609227
O O7 0.064051 0.967907 0.582682
O O8 0.991052 0.506830 0.224266
O O9 0.272463 0.580915 0.866974
O O10 0.000000 0.000000 0.000000
O O11 0.500000 0.500000 0.500000
O O12 0.202203 0.541744 0.732212
O O13 0.266544 0.985607 0.593869
O O14 0.309652 0.461636 0.444214
#
# Coordination Sequence:
#
# PCOD9052709 Si02
#       6
#     2   2   2   2   2   2
#     4  10  26  48  76 118 165 209 262 329 411 475
#     4  11  27  47  84 109 161 208 262 336 401 482
#     4  12  26  52  72 115 157 208 263 322 408 484
#     4  12  30  48  79 110 160 208 267 333 399 484
#     4  11  27  48  76 117 153 198 274 328 400 469
#     4  12  26  47  80 112 155 207 269 324 412 470
#
# _framework density 26.024470000000001
#
# number of rings (size 3 to 8) (size 9 to 14) (size 15 to 20)
#    0.000    0.667    3.333    1.000   14.000    3.333 
#    0.000    0.000    0.000    0.000    0.000    0.000 
#    0.000    0.000    0.000    0.000    0.000    0.000 
#
# Total GULP energy -67086.239443 kJ/mol
# GULP energy per Si atom -5590.519954 kJ/mol
# Density = 2.596524 g / cm^3
# Si number density = 26.024470 Si / 1000 Ang^3
#
#
#
# Elastic Constant Matrix: (Units=GPa)
#
#
# Indices 1 2 3 4 5 6 
#
# 1 122.4582 35.3054 27.5304 -4.1866 4.2370 30.5892
# 2 35.3054 123.2909 45.5384 12.6977 1.7568 1.6014
# 3 27.5304 45.5384 147.6347 15.9592 20.9911 18.6634
# 4 -4.1866 12.6977 15.9592 54.7802 -1.4776 1.4566
# 5 4.2370 1.7568 20.9911 -1.4776 49.6331 1.4490
# 6 30.5892 1.6014 18.6634 1.4566 1.4490 40.9337
#
#
#
# Elastic Compliance Matrix: (Units=1/GPa)
#
#
# Indices 1 2 3 4 5 6 
#
# 1 0.011291 -0.003240 -0.000197 0.001879 -0.000468 -0.008271
# 2 -0.003240 0.010251 -0.002930 -0.001833 0.000999 0.003386
# 3 -0.000197 -0.002930 0.008887 -0.001926 -0.003590 -0.003595
# 4 0.001879 -0.001833 -0.001926 0.019452 0.001333 -0.001193
# 5 -0.000468 0.000999 -0.003590 0.001333 0.021678 0.001133
# 6 -0.008271 0.003386 -0.003595 -0.001193 0.001133 0.032120
#
#
# Mechanical properties :
#
#
# Convention : Reuss Voigt Hill
#
# Bulk Modulus (GPa) = 56.50989 67.79245 62.15117
# Shear Modulus (GPa) = 40.87946 48.07005 44.47476
#
# Velocity S-wave (km/s) = 3.96764 4.30246 4.13844
# Velocity P-wave (km/s) = 6.53841 7.12655 6.83881
#
# Compressibility (1/GPa) = 0.01769602
#
# Stress axis : x y z
#
# Youngs Moduli (GPa) = 88.56647 97.54740 112.52305
#
# Poissons Ratio (x) = 0.31604 0.02217
# Poissons Ratio (y) = 0.28694 0.32968
# Poissons Ratio (z) = 0.01745 0.28580
#
# Static dielectric constant tensor:
#      x y z
#    x 2.021900 0.023600 -0.020870 
#    y 0.023600 2.180990 0.069360 
#    z -0.020870 0.069360 2.090560 
# 
# From -- ./inp_files/228625.got.cif
#   From: 2010.05.17/outbox.cif.g08.bks.cpg/sg2_115_cif.got.tgz:228625.got - 2010.06.03 11:33:40.
