data_PCOD9052128
_publ_section_title
;
Structure prediction by ZEFSAII (Michael W. Deem and Ramdas Pophale) SiO2 
 PCOD9052128
Probable space group: P -1
;
_chemical_formula_sum "Si O2"
_cell_formula_units_Z 14
_cell_length_a 9.364954
_cell_length_b 16.757498
_cell_length_c 4.919223
_cell_angle_alpha 58.287958
_cell_angle_beta 109.465632
_cell_angle_gamma 126.584992
_cell_volume 527.113520
_symmetry_space_group_name_H-M "P -1"
_symmetry_group_IT_number 2
_symmetry_cell_setting 'triclinic'
loop_
_space_group_symop_operation_xyz
x,y,z
-x,-y,-z
loop_
_atom_site_type_symbol
_atom_site_label
_atom_site_fract_x
_atom_site_fract_y
_atom_site_fract_z
Si Si1 0.114505 0.969976 0.320096
Si Si2 0.244135 0.186572 0.298532
Si Si3 0.839857 0.466535 0.747726
Si Si4 0.270553 0.823390 0.713316
Si Si5 0.382271 0.486163 0.200138
Si Si6 0.382143 0.747561 0.375904
Si Si7 0.099700 0.325780 0.943668
O O1 0.229114 0.915323 0.416311
O O2 0.947440 0.880667 0.553083
O O3 0.246911 0.087648 0.328443
O O4 0.000000 0.000000 0.000000
O O5 0.429346 0.245248 0.473226
O O6 0.202844 0.271322 0.967321
O O7 0.679042 0.429785 0.922789
O O8 0.758609 0.368711 0.652036
O O9 0.000000 0.500000 0.000000
O O10 0.121652 0.425991 0.593614
O O11 0.305014 0.770200 0.563881
O O12 0.097993 0.750913 0.930949
O O13 0.415574 0.840540 0.002182
O O14 0.500000 0.500000 0.500000
O O15 0.203846 0.374982 0.205013
O O16 0.500000 0.500000 0.000000
#
# Coordination Sequence:
#
# PCOD9052128 Si02
#       7
#     2   2   2   2   2   2   2
#     4  10  25  52  84 114 155 208 261 327 418 484
#     4  10  26  49  81 116 154 207 264 336 404 484
#     4  12  30  52  79 113 169 223 268 325 400 476
#     4  11  30  50  81 115 161 206 268 332 400 477
#     4  12  26  47  74 109 149 203 265 328 383 453
#     4  12  30  50  77 125 160 208 272 331 397 472
#     4  11  27  52  76 111 160 217 268 323 395 482
#
# _framework density 26.559746000000001
#
# number of rings (size 3 to 8) (size 9 to 14) (size 15 to 20)
#    0.000    0.857    1.429    1.714   14.000    5.143 
#    0.000    0.000    0.000    0.000    0.000    0.000 
#    0.000    0.000    0.000    0.000    0.000    0.000 
#
# Total GULP energy -78131.616303 kJ/mol
# GULP energy per Si atom -5580.829736 kJ/mol
# Density = 2.649929 g / cm^3
# Si number density = 26.559746 Si / 1000 Ang^3
#
#
#
# Elastic Constant Matrix: (Units=GPa)
#
#
# Indices 1 2 3 4 5 6 
#
# 1 167.4121 60.6247 66.9791 0.3350 19.9954 -40.1257
# 2 60.6247 115.9149 68.8607 -13.4801 22.7845 -18.1405
# 3 66.9791 68.8607 190.5576 3.3472 26.8897 -11.7484
# 4 0.3350 -13.4801 3.3472 42.8862 -7.4860 9.9001
# 5 19.9954 22.7845 26.8897 -7.4860 54.1509 2.2029
# 6 -40.1257 -18.1405 -11.7484 9.9001 2.2029 49.5297
#
#
#
# Elastic Compliance Matrix: (Units=1/GPa)
#
#
# Indices 1 2 3 4 5 6 
#
# 1 0.009592 -0.002908 -0.001520 -0.002884 -0.002248 0.007021
# 2 -0.002908 0.013252 -0.003445 0.003819 -0.002304 0.001019
# 3 -0.001520 -0.003445 0.007305 -0.001898 -0.001867 -0.000298
# 4 -0.002884 0.003819 -0.001898 0.027077 0.004428 -0.006997
# 5 -0.002248 -0.002304 -0.001867 0.004428 0.022008 -0.004972
# 6 0.007021 0.001019 -0.000298 -0.006997 -0.004972 0.027800
#
#
# Mechanical properties :
#
#
# Convention : Reuss Voigt Hill
#
# Bulk Modulus (GPa) = 69.43757 96.31264 82.87510
# Shear Modulus (GPa) = 39.19069 47.80803 43.49936
#
# Velocity S-wave (km/s) = 3.84548 4.24726 4.05136
# Velocity P-wave (km/s) = 6.77625 7.77134 7.29079
#
# Compressibility (1/GPa) = 0.01440143
#
# Stress axis : x y z
#
# Youngs Moduli (GPa) = 104.25820 75.46269 136.88447
#
# Poissons Ratio (x) = 0.21948 0.20801
# Poissons Ratio (y) = 0.30323 0.47163
# Poissons Ratio (z) = 0.15843 0.26000
#
# Static dielectric constant tensor:
#      x y z
#    x 2.259680 0.071050 0.149430 
#    y 0.071050 2.541220 -0.225940 
#    z 0.149430 -0.225940 2.729030 
# 
# From -- ./inp_files/47172.got.cif
#   From: 2010.05.17/outbox.cif.g08.bks.cpg/sg2_24_cif.got.tgz:47172.got - 2010.06.03 11:33:40.
