data_PCOD9052665
_publ_section_title
;
Structure prediction by ZEFSAII (Michael W. Deem and Ramdas Pophale) SiO2 
 PCOD9052665
Probable space group: P -1
;
_chemical_formula_sum "Si O2"
_cell_formula_units_Z 16
_cell_length_a 10.315920
_cell_length_b 12.046179
_cell_length_c 10.284678
_cell_angle_alpha 63.765049
_cell_angle_beta 142.731576
_cell_angle_gamma 117.668211
_cell_volume 679.131015
_symmetry_space_group_name_H-M "P -1"
_symmetry_group_IT_number 2
_symmetry_cell_setting 'triclinic'
loop_
_space_group_symop_operation_xyz
x,y,z
-x,-y,-z
loop_
_atom_site_type_symbol
_atom_site_label
_atom_site_fract_x
_atom_site_fract_y
_atom_site_fract_z
Si Si1 0.288756 0.502368 0.127481
Si Si2 0.073930 0.715889 0.971353
Si Si3 0.279653 0.320717 0.643899
Si Si4 0.869322 0.427518 0.312635
Si Si5 0.987045 0.148079 0.894847
Si Si6 0.433838 0.241604 0.084780
Si Si7 0.339616 0.948661 0.517202
Si Si8 0.887845 0.890146 0.564451
O O1 0.187644 0.503286 0.900239
O O2 0.215455 0.616314 0.090554
O O3 0.171571 0.371727 0.166719
O O4 0.550410 0.546510 0.311076
O O5 0.069048 0.821888 0.805670
O O6 0.122891 0.790515 0.107301
O O7 0.284087 0.215477 0.594059
O O8 0.031771 0.339037 0.440990
O O9 0.347255 0.266919 0.861373
O O10 0.634998 0.355588 0.214453
O O11 0.000000 0.500000 0.500000
O O12 0.852765 0.152164 0.653267
O O13 0.233384 0.223551 0.032754
O O14 0.000000 0.000000 0.000000
O O15 0.532170 0.116278 0.241242
O O16 0.500000 0.000000 0.500000
O O17 0.230048 0.052520 0.442752
O O18 0.000000 0.000000 0.500000
#
# Coordination Sequence:
#
# PCOD9052665 Si02
#       8
#     2   2   2   2   2   2   2   2
#     4  10  26  48  72 104 143 195 243 302 367 437
#     4  11  25  48  69 106 149 187 251 298 364 445
#     4  11  26  46  74 102 143 188 243 304 366 441
#     4  11  25  46  73 104 137 185 244 304 369 434
#     4  12  24  44  72 103 149 193 237 306 365 441
#     4  11  25  44  70 103 144 183 242 298 368 441
#     4  12  26  45  68 110 145 193 246 293 375 440
#     4  12  25  45  76 103 150 194 242 307 367 447
#
# _framework density 23.559519999999999
#
# number of rings (size 3 to 8) (size 9 to 14) (size 15 to 20)
#    0.000    0.750    3.750    2.250    8.750    2.000 
#    0.000    0.000    0.000    0.000    0.000    0.000 
#    0.000    0.000    0.000    0.000    0.000    0.000 
#
# Total GULP energy -89566.987810 kJ/mol
# GULP energy per Si atom -5597.936738 kJ/mol
# Density = 2.350590 g / cm^3
# Si number density = 23.559520 Si / 1000 Ang^3
#
#
#
# Elastic Constant Matrix: (Units=GPa)
#
#
# Indices 1 2 3 4 5 6 
#
# 1 100.9456 45.5947 14.1396 18.2094 2.0093 -7.9324
# 2 45.5947 85.5799 23.5961 5.9949 -7.2230 -7.6089
# 3 14.1396 23.5961 73.0872 13.8355 4.2744 5.7076
# 4 18.2094 5.9949 13.8355 41.4326 0.0272 -3.6461
# 5 2.0093 -7.2230 4.2744 0.0272 27.2281 6.2854
# 6 -7.9324 -7.6089 5.7076 -3.6461 6.2854 57.8765
#
#
#
# Elastic Compliance Matrix: (Units=1/GPa)
#
#
# Indices 1 2 3 4 5 6 
#
# 1 0.014399 -0.007744 0.000871 -0.005417 -0.003457 0.000904
# 2 -0.007744 0.017643 -0.005144 0.002680 0.005754 0.001309
# 3 0.000871 -0.005144 0.016562 -0.005356 -0.003529 -0.002144
# 4 -0.005417 0.002680 -0.005356 0.028069 0.001521 0.001741
# 5 -0.003457 0.005754 -0.003529 0.001521 0.039893 -0.003606
# 6 0.000904 0.001309 -0.002144 0.001741 -0.003606 0.018287
#
#
# Mechanical properties :
#
#
# Convention : Reuss Voigt Hill
#
# Bulk Modulus (GPa) = 40.69711 47.36373 44.03042
# Shear Modulus (GPa) = 29.92644 37.05959 33.49302
#
# Velocity S-wave (km/s) = 3.56792 3.97043 3.77455
# Velocity P-wave (km/s) = 5.85535 6.41612 6.14214
#
# Compressibility (1/GPa) = 0.02457177
#
# Stress axis : x y z
#
# Youngs Moduli (GPa) = 69.45028 56.67892 60.37882
#
# Poissons Ratio (x) = 0.43889 -0.05261
# Poissons Ratio (y) = 0.53779 0.31059
# Poissons Ratio (z) = -0.06052 0.29156
#
# Static dielectric constant tensor:
#      x y z
#    x 1.895270 -0.000590 0.000030 
#    y -0.000590 1.915350 0.005760 
#    z 0.000030 0.005760 1.905990 
# 
# From -- ./inp_files/427927.got.cif
#   From: 2010.05.17/outbox.cif.g08.bks.cpg/sg2_214_cif.got.tgz:427927.got - 2010.06.03 11:33:40.
