data_PCOD9052971
_publ_section_title
;
Structure prediction by ZEFSAII (Michael W. Deem and Ramdas Pophale) SiO2 
 PCOD9052971
Probable space group: P -1
;
_chemical_formula_sum "Si O2"
_cell_formula_units_Z 14
_cell_length_a 9.216241
_cell_length_b 15.342656
_cell_length_c 8.945511
_cell_angle_alpha 86.684550
_cell_angle_beta 83.345933
_cell_angle_gamma 25.290277
_cell_volume 533.441461
_symmetry_space_group_name_H-M "P -1"
_symmetry_group_IT_number 2
_symmetry_cell_setting 'triclinic'
loop_
_space_group_symop_operation_xyz
x,y,z
-x,-y,-z
loop_
_atom_site_type_symbol
_atom_site_label
_atom_site_fract_x
_atom_site_fract_y
_atom_site_fract_z
Si Si1 0.603856 0.245750 0.563258
Si Si2 0.012479 0.866844 0.003273
Si Si3 0.911349 0.237917 0.679235
Si Si4 0.364192 0.243553 0.837990
Si Si5 0.188449 0.120600 0.350922
Si Si6 0.875106 0.756892 0.933762
Si Si7 0.450026 0.649138 0.729543
O O1 0.635915 0.324827 0.621448
O O2 0.404812 0.299230 0.709009
O O3 0.000000 0.000000 0.500000
O O4 0.536358 0.890473 0.270974
O O5 0.967939 0.884970 0.183131
O O6 0.098554 0.718460 0.963502
O O7 0.316696 0.753625 0.894979
O O8 0.674726 0.082236 0.936891
O O9 0.172989 0.123177 0.529368
O O10 0.733815 0.422346 0.731653
O O11 0.071498 0.361246 0.970339
O O12 0.562030 0.658295 0.590773
O O13 0.885647 0.218050 0.318478
O O14 0.131040 0.238545 0.246542
O O15 0.500000 0.000000 0.000000
#
# Coordination Sequence:
#
# PCOD9052971 Si02
#       7
#     2   2   2   2   2   2   2
#     4  11  17  31  49  67  97 120 153 188 226 276
#     4   9  17  30  48  69  94 119 152 196 225 266
#     4  11  19  27  48  74  94 120 151 189 233 269
#     4   9  16  31  47  67  92 125 150 185 233 269
#     4   8  14  27  46  63  89 119 155 186 209 273
#     4   7  14  29  47  63  88 125 155 185 221 268
#     4   9  18  31  46  67  94 126 153 181 228 279
#
# _framework density 26.244676999999999
#
# number of rings (size 3 to 8) (size 9 to 14) (size 15 to 20)
#    0.000    3.429    4.286    2.143    0.000    0.571 
#    0.000    6.429    0.000    8.571    0.000    0.000 
#    0.000    0.000    0.000    0.000    0.000    0.000 
#
# Total GULP energy -77983.892759 kJ/mol
# GULP energy per Si atom -5570.278054 kJ/mol
# Density = 2.618494 g / cm^3
# Si number density = 26.244677 Si / 1000 Ang^3
#
#
#
# Elastic Constant Matrix: (Units=GPa)
#
#
# Indices 1 2 3 4 5 6 
#
# 1 57.6934 14.0339 41.1836 -4.3994 -22.3622 8.5761
# 2 14.0339 49.1668 15.8477 -10.8519 -2.2398 -4.1769
# 3 41.1836 15.8477 290.2161 -31.8096 -38.7723 -2.0357
# 4 -4.3994 -10.8519 -31.8096 18.0627 12.0593 -5.6805
# 5 -22.3622 -2.2398 -38.7723 12.0593 49.9258 -5.6304
# 6 8.5761 -4.1769 -2.0357 -5.6805 -5.6304 19.2961
#
#
#
# Elastic Compliance Matrix: (Units=1/GPa)
#
#
# Indices 1 2 3 4 5 6 
#
# 1 0.029897 -0.013354 -0.004524 -0.023428 0.012699 -0.019847
# 2 -0.013354 0.031782 0.002802 0.032471 -0.007927 0.020356
# 3 -0.004524 0.002802 0.005307 0.011988 0.000084 0.006731
# 4 -0.023428 0.032471 0.011988 0.120942 -0.023591 0.047426
# 5 0.012699 -0.007927 0.000084 -0.023591 0.030518 -0.005391
# 6 -0.019847 0.020356 0.006731 0.047426 -0.005391 0.078150
#
#
# Mechanical properties :
#
#
# Convention : Reuss Voigt Hill
#
# Bulk Modulus (GPa) = 27.14762 59.91186 43.52974
# Shear Modulus (GPa) = 14.74819 39.19100 26.96959
#
# Velocity S-wave (km/s) = 2.37312 3.86851 3.20913
# Velocity P-wave (km/s) = 4.22794 6.54458 5.50940
#
# Compressibility (1/GPa) = 0.03683564
#
# Stress axis : x y z
#
# Youngs Moduli (GPa) = 33.44868 31.46399 188.42580
#
# Poissons Ratio (x) = 0.42016 0.85239
# Poissons Ratio (y) = 0.44667 -0.52803
# Poissons Ratio (z) = 0.15131 -0.08817
#
# Static dielectric constant tensor:
#      x y z
#    x 2.267420 -0.031250 -0.088260 
#    y -0.031250 2.099190 0.004620 
#    z -0.088260 0.004620 2.237680 
# 
# From -- ./inp_files/280457.got.cif
#   From: 2010.05.17/outbox.cif.g08.bks.cpg/sg2_141_cif.got.tgz:280457.got - 2010.06.03 11:33:40.
