data_PCOD9052657
_publ_section_title
;
Structure prediction by ZEFSAII (Michael W. Deem and Ramdas Pophale) SiO2 
 PCOD9052657
Probable space group: P -1
;
_chemical_formula_sum "Si O2"
_cell_formula_units_Z 16
_cell_length_a 9.114098
_cell_length_b 12.640235
_cell_length_c 15.555843
_cell_angle_alpha 45.146161
_cell_angle_beta 78.016205
_cell_angle_gamma 115.796404
_cell_volume 676.748434
_symmetry_space_group_name_H-M "P -1"
_symmetry_group_IT_number 2
_symmetry_cell_setting 'triclinic'
loop_
_space_group_symop_operation_xyz
x,y,z
-x,-y,-z
loop_
_atom_site_type_symbol
_atom_site_label
_atom_site_fract_x
_atom_site_fract_y
_atom_site_fract_z
Si Si1 0.146012 0.280104 0.479616
Si Si2 0.785735 0.837039 0.039865
Si Si3 0.293283 0.927555 0.014758
Si Si4 0.225726 0.560826 0.454708
Si Si5 0.074272 0.186337 0.148526
Si Si6 0.795568 0.428003 0.006862
Si Si7 0.480041 0.082605 0.636141
Si Si8 0.060943 0.641413 0.675391
O O1 0.469984 0.523561 0.278841
O O2 0.135208 0.338830 0.543356
O O3 0.033833 0.314731 0.408870
O O4 0.968436 0.982143 0.681300
O O5 0.785442 0.016071 0.936606
O O6 0.869230 0.827073 0.946659
O O7 0.000000 0.000000 0.000000
O O8 0.477636 0.160010 0.786382
O O9 0.083780 0.639669 0.161548
O O10 0.500000 0.000000 0.000000
O O11 0.299433 0.632349 0.504062
O O12 0.000000 0.500000 0.500000
O O13 0.787495 0.039432 0.268218
O O14 0.287890 0.492286 0.978391
O O15 0.568361 0.113393 0.193566
O O16 0.956300 0.608402 0.798590
O O17 0.000000 0.500000 0.000000
O O18 0.619597 0.133471 0.504486
#
# Coordination Sequence:
#
# PCOD9052657 Si02
#       8
#     2   2   2   2   2   2   2   2
#     4  11  26  41  65 106 140 177 222 283 356 405
#     4  11  26  43  67 102 147 181 219 285 351 411
#     4  11  21  39  66 101 136 177 224 275 335 406
#     4  11  20  37  68 102 137 167 222 281 337 403
#     4  11  27  45  66 101 144 181 227 286 344 409
#     4  10  26  48  70  97 133 184 241 281 334 406
#     4  11  24  43  73 101 131 185 234 280 338 408
#     4  12  24  43  73  99 132 180 236 284 333 410
#
# _framework density 23.642462999999999
#
# number of rings (size 3 to 8) (size 9 to 14) (size 15 to 20)
#    0.000    1.000    5.000    1.500    7.000    5.500 
#    0.000    1.250    0.000    0.000    0.000    0.000 
#    0.000    0.000    0.000    0.000    0.000    0.000 
#
# Total GULP energy -89305.087626 kJ/mol
# GULP energy per Si atom -5581.567977 kJ/mol
# Density = 2.358865 g / cm^3
# Si number density = 23.642463 Si / 1000 Ang^3
#
#
#
# Elastic Constant Matrix: (Units=GPa)
#
#
# Indices 1 2 3 4 5 6 
#
# 1 80.9255 33.1768 32.1014 3.7402 -6.5051 -26.5217
# 2 33.1768 123.8872 34.1236 26.4036 3.1475 -33.1554
# 3 32.1014 34.1236 85.6494 20.8818 -5.1502 -18.1532
# 4 3.7402 26.4036 20.8818 40.9961 -11.2146 2.0887
# 5 -6.5051 3.1475 -5.1502 -11.2146 39.9055 -5.5110
# 6 -26.5217 -33.1554 -18.1532 2.0887 -5.5110 39.8349
#
#
#
# Elastic Compliance Matrix: (Units=1/GPa)
#
#
# Indices 1 2 3 4 5 6 
#
# 1 0.018073 -0.001899 -0.004511 0.002646 0.004483 0.008878
# 2 -0.001899 0.013424 -0.000391 -0.009523 -0.002735 0.009851
# 3 -0.004511 -0.000391 0.016421 -0.007987 -0.000202 0.004545
# 4 0.002646 -0.009523 -0.007987 0.037408 0.009216 -0.010491
# 5 0.004483 -0.002735 -0.000202 0.009216 0.029145 0.004166
# 6 0.008878 0.009851 0.004545 -0.010491 0.004166 0.042411
#
#
# Mechanical properties :
#
#
# Convention : Reuss Voigt Hill
#
# Bulk Modulus (GPa) = 29.14250 54.36289 41.75270
# Shear Modulus (GPa) = 27.48436 36.88465 32.18450
#
# Velocity S-wave (km/s) = 3.41324 3.95410 3.69358
# Velocity P-wave (km/s) = 5.28079 6.62497 5.99070
#
# Compressibility (1/GPa) = 0.03431414
#
# Stress axis : x y z
#
# Youngs Moduli (GPa) = 55.33224 74.49531 60.89947
#
# Poissons Ratio (x) = 0.14150 0.27471
# Poissons Ratio (y) = 0.10510 0.02381
# Poissons Ratio (z) = 0.24960 0.02913
#
# Static dielectric constant tensor:
#      x y z
#    x 1.862170 -0.007300 -0.025780 
#    y -0.007300 1.931570 -0.047960 
#    z -0.025780 -0.047960 2.062310 
# 
# From -- ./inp_files/500026.got.cif
#   From: 2010.05.17/outbox.cif.g08.bks.cpg/sg2_251_cif.got.tgz:500026.got - 2010.06.03 11:33:40.
