data_PCOD9052425
_publ_section_title
;
Structure prediction by ZEFSAII (Michael W. Deem and Ramdas Pophale) SiO2 
 PCOD9052425
Probable space group: P -1
;
_chemical_formula_sum "Si O2"
_cell_formula_units_Z 14
_cell_length_a 9.163267
_cell_length_b 12.783012
_cell_length_c 13.671350
_cell_angle_alpha 159.379286
_cell_angle_beta 89.020811
_cell_angle_gamma 91.010970
_cell_volume 563.886223
_symmetry_space_group_name_H-M "P -1"
_symmetry_group_IT_number 2
_symmetry_cell_setting 'triclinic'
loop_
_space_group_symop_operation_xyz
x,y,z
-x,-y,-z
loop_
_atom_site_type_symbol
_atom_site_label
_atom_site_fract_x
_atom_site_fract_y
_atom_site_fract_z
Si Si1 0.500000 0.500000 0.500000
Si Si2 0.000000 0.000000 0.000000
Si Si3 0.474095 0.740056 0.926475
Si Si4 0.390522 0.766700 0.251406
Si Si5 0.955166 0.092718 0.320795
Si Si6 0.225497 0.465398 0.159152
Si Si7 0.175030 0.613074 0.590800
Si Si8 0.704459 0.846398 0.589516
O O1 0.502617 0.690670 0.770261
O O2 0.341924 0.643431 0.599931
O O3 0.123006 0.733992 0.801748
O O4 0.879788 0.705621 0.720491
O O5 0.625537 0.689774 0.939933
O O6 0.362934 0.468671 0.717905
O O7 0.394824 0.051033 0.226305
O O8 0.269456 0.667311 0.243562
O O9 0.500000 0.000000 0.500000
O O10 0.326436 0.911095 0.281245
O O11 0.500000 0.500000 0.000000
O O12 0.850414 0.335905 0.583340
O O13 0.916539 0.113795 0.222852
O O14 0.124342 0.144286 0.382592
O O15 0.893601 0.780012 0.083169
#
# Coordination Sequence:
#
# PCOD9052425 Si02
#       8
#     1   1   2   2   2   2   2   2
#     4  12  30  46  74 108 142 188 250 298 364 430
#     4  10  26  46  68  98 134 190 236 296 360 422
#     4  12  27  48  72 107 141 197 241 304 358 443
#     4  12  23  44  77 111 144 193 242 298 360 433
#     4  12  27  46  70 109 150 189 237 306 368 425
#     4  12  24  47  74 104 153 187 241 304 363 425
#     4  11  26  47  69 100 141 188 240 297 359 426
#     4  12  27  48  75 107 146 191 248 297 367 436
#
# _framework density 24.827703
#
# number of rings (size 3 to 8) (size 9 to 14) (size 15 to 20)
#    0.000    0.286    4.286    3.429    6.000    2.286 
#    0.000    0.000    0.000    0.000    0.000    0.000 
#    0.000    0.000    0.000    0.000    0.000    0.000 
#
# Total GULP energy -78089.663024 kJ/mol
# GULP energy per Si atom -5577.833073 kJ/mol
# Density = 2.477119 g / cm^3
# Si number density = 24.827703 Si / 1000 Ang^3
#
#
#
# Elastic Constant Matrix: (Units=GPa)
#
#
# Indices 1 2 3 4 5 6 
#
# 1 193.0409 29.2333 59.1556 1.3886 -5.9171 2.6153
# 2 29.2333 76.8030 -3.3173 -1.6197 -4.5955 -5.1569
# 3 59.1556 -3.3173 168.7735 8.7583 -0.8072 0.8838
# 4 1.3886 -1.6197 8.7583 32.3418 9.3447 -1.0407
# 5 -5.9171 -4.5955 -0.8072 9.3447 30.5197 0.2809
# 6 2.6153 -5.1569 0.8838 -1.0407 0.2809 41.7759
#
#
#
# Elastic Compliance Matrix: (Units=1/GPa)
#
#
# Indices 1 2 3 4 5 6 
#
# 1 0.006276 -0.002483 -0.002239 -0.000040 0.000802 -0.000658
# 2 -0.002483 0.014241 0.001143 0.000095 0.001647 0.001881
# 3 -0.002239 0.001143 0.006829 -0.001831 0.000479 0.000088
# 4 -0.000040 0.000095 -0.001831 0.034523 -0.010621 0.000984
# 5 0.000802 0.001647 0.000479 -0.010621 0.036437 -0.000367
# 6 -0.000658 0.001881 0.000088 0.000984 -0.000367 0.024236
#
#
# Mechanical properties :
#
#
# Convention : Reuss Voigt Hill
#
# Bulk Modulus (GPa) = 49.53048 67.64005 58.58527
# Shear Modulus (GPa) = 36.64878 44.49720 40.57299
#
# Velocity S-wave (km/s) = 3.84620 4.23808 4.04689
# Velocity P-wave (km/s) = 6.30217 7.15900 6.74421
#
# Compressibility (1/GPa) = 0.02018959
#
# Stress axis : x y z
#
# Youngs Moduli (GPa) = 159.33188 70.21740 146.42786
#
# Poissons Ratio (x) = 0.17433 0.32789
# Poissons Ratio (y) = 0.39557 -0.16740
# Poissons Ratio (z) = 0.35678 -0.08027
#
# Static dielectric constant tensor:
#      x y z
#    x 2.074080 0.192420 -0.024180 
#    y 0.192420 2.013680 -0.046510 
#    z -0.024180 -0.046510 1.974430 
# 
# From -- ./inp_files/504814.got.cif
#   From: 2010.05.17/outbox.cif.g08.bks.cpg/sg2_253_cif.got.tgz:504814.got - 2010.06.03 11:33:40.
