data_PCOD9052257
_publ_section_title
;
Structure prediction by ZEFSAII (Michael W. Deem and Ramdas Pophale) SiO2 
 PCOD9052257
Probable space group: P -1
;
_chemical_formula_sum "Si O2"
_cell_formula_units_Z 15
_cell_length_a 5.801321
_cell_length_b 22.519774
_cell_length_c 5.095901
_cell_angle_alpha 113.405922
_cell_angle_beta 83.547397
_cell_angle_gamma 110.088214
_cell_volume 573.576916
_symmetry_space_group_name_H-M "P -1"
_symmetry_group_IT_number 2
_symmetry_cell_setting 'triclinic'
loop_
_space_group_symop_operation_xyz
x,y,z
-x,-y,-z
loop_
_atom_site_type_symbol
_atom_site_label
_atom_site_fract_x
_atom_site_fract_y
_atom_site_fract_z
Si Si1 0.348065 0.875053 0.173084
Si Si2 0.500000 0.000000 0.500000
Si Si3 0.044029 0.613109 0.667572
Si Si4 0.253833 0.055174 0.139090
Si Si5 0.046093 0.246252 0.096769
Si Si6 0.391414 0.198785 0.603803
Si Si7 0.478094 0.326301 0.561876
Si Si8 0.264424 0.433504 0.900413
O O1 0.245792 0.925468 0.437295
O O2 0.466757 0.828790 0.242178
O O3 0.558551 0.940556 0.125119
O O4 0.165738 0.822790 0.908781
O O5 0.646667 0.967523 0.650812
O O6 0.051458 0.691420 0.847595
O O7 0.858668 0.581351 0.395974
O O8 0.315829 0.621548 0.550767
O O9 0.943393 0.570120 0.865177
O O10 0.289910 0.135888 0.305656
O O11 0.000000 0.000000 0.000000
O O12 0.259872 0.278054 0.331060
O O13 0.169632 0.219671 0.792816
O O14 0.573009 0.271252 0.599745
O O15 0.368200 0.371187 0.840023
O O16 0.500000 0.500000 0.000000
#
# Coordination Sequence:
#
# PCOD9052257 Si02
#       8
#     2   1   2   2   2   2   2   2
#     4  11  26  44  68 101 138 187 247 313 392 458
#     4  10  26  44  68  94 140 190 242 312 394 464
#     4  11  25  45  77 110 155 199 259 310 380 458
#     4  11  26  46  69 101 142 192 253 320 392 480
#     4  11  24  43  70 103 145 188 249 319 381 449
#     4  11  24  43  69 102 141 188 249 317 390 449
#     4  11  26  45  76 110 151 199 256 316 380 459
#     4  11  26  48  75 116 160 203 252 312 382 457
#
# _framework density 26.151679000000001
#
# number of rings (size 3 to 8) (size 9 to 14) (size 15 to 20)
#    0.000    1.067    1.333    3.200    9.333    4.267 
#    0.000    0.000    0.000    0.000    0.000    0.000 
#    0.000    0.000    0.000    0.000    0.000    0.000 
#
# Total GULP energy -83872.796404 kJ/mol
# GULP energy per Si atom -5591.519760 kJ/mol
# Density = 2.609216 g / cm^3
# Si number density = 26.151679 Si / 1000 Ang^3
#
#
#
# Elastic Constant Matrix: (Units=GPa)
#
#
# Indices 1 2 3 4 5 6 
#
# 1 39.0361 27.3685 29.3726 9.2675 7.5862 15.5355
# 2 27.3685 116.5121 49.1880 21.5554 13.8618 35.4685
# 3 29.3726 49.1880 114.2724 13.5745 15.1557 12.8976
# 4 9.2675 21.5554 13.5745 51.8618 14.7103 4.9172
# 5 7.5862 13.8618 15.1557 14.7103 44.7602 2.4047
# 6 15.5355 35.4685 12.8976 4.9172 2.4047 47.4269
#
#
#
# Elastic Compliance Matrix: (Units=1/GPa)
#
#
# Indices 1 2 3 4 5 6 
#
# 1 0.036699 -0.002684 -0.006868 -0.002376 -0.001863 -0.007806
# 2 -0.002684 0.014100 -0.003923 -0.003273 -0.001067 -0.008205
# 3 -0.006868 -0.003923 0.012232 0.000001 -0.001868 0.001951
# 4 -0.002376 -0.003273 0.000001 0.022686 -0.006103 0.001184
# 5 -0.001863 -0.001067 -0.001868 -0.006103 0.025558 0.001253
# 6 -0.007806 -0.008205 0.001951 0.001184 0.001253 0.029061
#
#
# Mechanical properties :
#
#
# Convention : Reuss Voigt Hill
#
# Bulk Modulus (GPa) = 27.71400 53.51987 40.61693
# Shear Modulus (GPa) = 27.88428 39.73588 33.81008
#
# Velocity S-wave (km/s) = 3.26889 3.90223 3.59952
# Velocity P-wave (km/s) = 4.98678 6.38849 5.73065
#
# Compressibility (1/GPa) = 0.03608285
#
# Stress axis : x y z
#
# Youngs Moduli (GPa) = 27.24853 70.92389 81.75111
#
# Poissons Ratio (x) = 0.19034 0.56143
# Poissons Ratio (y) = 0.07313 0.32070
# Poissons Ratio (z) = 0.18713 0.27823
#
# Static dielectric constant tensor:
#      x y z
#    x 2.077850 0.068440 -0.059960 
#    y 0.068440 2.108660 -0.011880 
#    z -0.059960 -0.011880 2.206350 
# 
# From -- ./inp_files/9320.got.cif
#   From: 2010.05.17/outbox.cif.g08.bks.cpg/sg2_5_cif.got.tgz:9320.got - 2010.06.03 11:33:40.
