data_PCOD9052929
_publ_section_title
;
Structure prediction by ZEFSAII (Michael W. Deem and Ramdas Pophale) SiO2 
 PCOD9052929
Probable space group: P -1
;
_chemical_formula_sum "Si O2"
_cell_formula_units_Z 15
_cell_length_a 11.866195
_cell_length_b 8.793695
_cell_length_c 17.289521
_cell_angle_alpha 68.564167
_cell_angle_beta 25.829457
_cell_angle_gamma 86.603933
_cell_volume 546.419912
_symmetry_space_group_name_H-M "P -1"
_symmetry_group_IT_number 2
_symmetry_cell_setting 'triclinic'
loop_
_space_group_symop_operation_xyz
x,y,z
-x,-y,-z
loop_
_atom_site_type_symbol
_atom_site_label
_atom_site_fract_x
_atom_site_fract_y
_atom_site_fract_z
Si Si1 0.677484 0.237204 0.816358
Si Si2 0.646858 0.501595 0.329967
Si Si3 0.630385 0.637671 0.631280
Si Si4 0.855637 0.264691 0.327549
Si Si5 0.512332 0.293918 0.072421
Si Si6 0.891290 0.850389 0.923168
Si Si7 0.000000 0.000000 0.000000
Si Si8 0.302223 0.993595 0.390229
O O1 0.429243 0.196914 0.911191
O O2 0.055070 0.341015 0.536244
O O3 0.665781 0.338286 0.883368
O O4 0.500000 0.000000 0.000000
O O5 0.500000 0.500000 0.500000
O O6 0.354491 0.359200 0.471394
O O7 0.907743 0.759339 0.101377
O O8 0.769159 0.374171 0.303046
O O9 0.272362 0.395270 0.910290
O O10 0.637919 0.816708 0.632148
O O11 0.632551 0.138503 0.569533
O O12 0.237854 0.473749 0.082620
O O13 0.845904 0.092779 0.317542
O O14 0.111516 0.180564 0.338179
O O15 0.495705 0.119682 0.167113
O O16 0.004146 0.992978 0.902549
#
# Coordination Sequence:
#
# PCOD9052929 Si02
#       8
#     2   2   2   2   2   2   1   2
#     4  12  24  43  76 106 153 197 243 316 381 445
#     4  11  28  49  72 106 150 198 256 309 376 451
#     4  11  24  48  69 110 150 197 253 307 377 452
#     4  12  25  46  78 107 152 202 251 312 375 457
#     4  11  24  43  71 108 152 189 254 304 375 448
#     4  11  25  49  76 113 147 200 256 309 380 449
#     4  10  28  50  76 104 152 194 252 310 372 450
#     4  11  24  44  72 110 150 191 250 316 372 444
#
# _framework density 27.451416999999999
#
# number of rings (size 3 to 8) (size 9 to 14) (size 15 to 20)
#    0.000    0.800    4.000    1.600    5.600    3.733 
#    4.800    0.000    0.000    0.000    0.000    0.000 
#    0.000    0.000    0.000    0.000    0.000    0.000 
#
# Total GULP energy -83765.845007 kJ/mol
# GULP energy per Si atom -5584.389667 kJ/mol
# Density = 2.738894 g / cm^3
# Si number density = 27.451417 Si / 1000 Ang^3
#
#
#
# Elastic Constant Matrix: (Units=GPa)
#
#
# Indices 1 2 3 4 5 6 
#
# 1 156.8501 64.1774 10.7186 -16.9475 -6.6488 2.5337
# 2 64.1774 141.8160 18.0953 -20.6522 -15.5812 15.6897
# 3 10.7186 18.0953 79.4575 -31.3353 8.0968 -0.8940
# 4 -16.9475 -20.6522 -31.3353 40.3501 3.0642 5.0551
# 5 -6.6488 -15.5812 8.0968 3.0642 46.5255 -9.6478
# 6 2.5337 15.6897 -0.8940 5.0551 -9.6478 74.4464
#
#
#
# Elastic Compliance Matrix: (Units=1/GPa)
#
#
# Indices 1 2 3 4 5 6 
#
# 1 0.007941 -0.003426 0.000494 0.001940 -0.000163 0.000305
# 2 -0.003426 0.009579 -0.000848 0.002857 0.002303 -0.001808
# 3 0.000494 -0.000848 0.019179 0.015192 -0.004813 -0.001263
# 4 0.001940 0.002857 0.015192 0.039700 -0.004813 -0.003805
# 5 -0.000163 0.002303 -0.004813 -0.004813 0.023997 0.002899
# 6 0.000305 -0.001808 -0.001263 -0.003805 0.002899 0.014422
#
#
# Mechanical properties :
#
#
# Convention : Reuss Voigt Hill
#
# Bulk Modulus (GPa) = 34.31666 62.67848 48.49757
# Shear Modulus (GPa) = 37.85259 51.27322 44.56290
#
# Velocity S-wave (km/s) = 3.71737 4.32647 4.03344
# Velocity P-wave (km/s) = 5.56356 6.91664 6.27667
#
# Compressibility (1/GPa) = 0.02914036
#
# Stress axis : x y z
#
# Youngs Moduli (GPa) = 125.92438 104.39478 52.14019
#
# Poissons Ratio (x) = 0.35765 -0.02575
# Poissons Ratio (y) = 0.43141 0.04419
# Poissons Ratio (z) = -0.06220 0.08848
#
# Static dielectric constant tensor:
#      x y z
#    x 2.290150 0.050960 0.171460 
#    y 0.050960 2.165060 0.172850 
#    z 0.171460 0.172850 2.394560 
# 
# From -- ./inp_files/565864.got.cif
#   From: 2010.05.17/outbox.cif.g08.bks.cpg/sg2_283_cif.got.tgz:565864.got - 2010.06.03 11:33:40.
