data_PCOD9052090
_publ_section_title
;
Structure prediction by ZEFSAII (Michael W. Deem and Ramdas Pophale) SiO2 
 PCOD9052090
Probable space group: P -1
;
_chemical_formula_sum "Si O2"
_cell_formula_units_Z 16
_cell_length_a 5.011160
_cell_length_b 16.235284
_cell_length_c 9.108928
_cell_angle_alpha 72.272054
_cell_angle_beta 68.706983
_cell_angle_gamma 102.057072
_cell_volume 613.614677
_symmetry_space_group_name_H-M "P -1"
_symmetry_group_IT_number 2
_symmetry_cell_setting 'triclinic'
loop_
_space_group_symop_operation_xyz
x,y,z
-x,-y,-z
loop_
_atom_site_type_symbol
_atom_site_label
_atom_site_fract_x
_atom_site_fract_y
_atom_site_fract_z
Si Si1 0.950852 0.837917 0.871429
Si Si2 0.149144 0.672805 0.027512
Si Si3 0.633631 0.508750 0.131812
Si Si4 0.385446 0.748985 0.487814
Si Si5 0.457969 0.053874 0.119681
Si Si6 0.244541 0.600058 0.344993
Si Si7 0.723659 0.073815 0.528819
Si Si8 0.306882 0.304286 0.297789
O O1 0.225686 0.910079 0.873375
O O2 0.027378 0.860973 0.670715
O O3 0.650733 0.862190 0.949008
O O4 0.994376 0.743847 0.963967
O O5 0.119229 0.651539 0.217104
O O6 0.985873 0.572765 0.039441
O O7 0.496579 0.704715 0.877463
O O8 0.488758 0.568224 0.228550
O O9 0.503532 0.405110 0.272719
O O10 0.500000 0.500000 0.000000
O O11 0.386421 0.678981 0.396101
O O12 0.402904 0.854135 0.401866
O O13 0.649421 0.760862 0.547832
O O14 0.037994 0.699277 0.649360
O O15 0.211509 0.986437 0.320878
O O16 0.500000 0.000000 0.000000
O O17 0.000000 0.500000 0.500000
O O18 0.500000 0.000000 0.500000
#
# Coordination Sequence:
#
# PCOD9052090 Si02
#       8
#     2   2   2   2   2   2   2   2
#     4  11  26  46  77 107 145 195 253 306 378 456
#     4  12  28  45  77 109 151 203 265 314 376 461
#     4  12  26  46  76 106 155 205 261 307 384 452
#     4  12  28  47  78 113 154 196 260 318 392 450
#     4  11  26  48  74 111 151 190 241 317 390 451
#     4  12  28  47  72 113 159 206 252 323 387 454
#     4  10  25  50  79 109 150 200 254 314 381 464
#     4  12  26  49  75 110 150 204 257 315 371 465
#
# _framework density 26.074992999999999
#
# number of rings (size 3 to 8) (size 9 to 14) (size 15 to 20)
#    0.000    0.500    3.750    2.625    7.000    3.000 
#    0.000    0.000    0.000    0.000    0.000    0.000 
#    0.000    0.000    0.000    0.000    0.000    0.000 
#
# Total GULP energy -89567.099107 kJ/mol
# GULP energy per Si atom -5597.943694 kJ/mol
# Density = 2.601564 g / cm^3
# Si number density = 26.074993 Si / 1000 Ang^3
#
#
#
# Elastic Constant Matrix: (Units=GPa)
#
#
# Indices 1 2 3 4 5 6 
#
# 1 97.1944 9.4414 32.5280 13.5462 18.1834 -7.4897
# 2 9.4414 156.3981 47.6997 18.9808 11.0605 -16.2889
# 3 32.5280 47.6997 117.1814 6.8532 22.7206 -2.0924
# 4 13.5462 18.9808 6.8532 57.9910 2.8914 3.3865
# 5 18.1834 11.0605 22.7206 2.8914 45.8453 -6.0823
# 6 -7.4897 -16.2889 -2.0924 3.3865 -6.0823 53.5894
#
#
#
# Elastic Compliance Matrix: (Units=1/GPa)
#
#
# Indices 1 2 3 4 5 6 
#
# 1 0.012313 0.000900 -0.002966 -0.002758 -0.003233 0.001686
# 2 0.000900 0.007917 -0.003247 -0.002559 -0.000158 0.002549
# 3 -0.002966 -0.003247 0.011371 0.000691 -0.003911 -0.001445
# 4 -0.002758 -0.002559 0.000691 0.018787 -0.000126 -0.002338
# 5 -0.003233 -0.000158 -0.003911 -0.000126 0.025376 0.002235
# 6 0.001686 0.002549 -0.001445 -0.002338 0.002235 0.020016
#
#
# Mechanical properties :
#
#
# Convention : Reuss Voigt Hill
#
# Bulk Modulus (GPa) = 47.67414 61.12358 54.39886
# Shear Modulus (GPa) = 44.09307 50.22548 47.15927
#
# Velocity S-wave (km/s) = 4.11665 4.39360 4.25738
# Velocity P-wave (km/s) = 6.39679 7.01646 6.71378
#
# Compressibility (1/GPa) = 0.02097573
#
# Stress axis : x y z
#
# Youngs Moduli (GPa) = 81.21498 126.30947 87.94461
#
# Poissons Ratio (x) = -0.11371 0.26085
# Poissons Ratio (y) = -0.07311 0.28553
# Poissons Ratio (z) = 0.24089 0.41009
#
# Static dielectric constant tensor:
#      x y z
#    x 2.120120 0.007590 -0.052250 
#    y 0.007590 2.179810 -0.073270 
#    z -0.052250 -0.073270 2.126530 
# 
# From -- ./inp_files/135110.got.cif
#   From: 2010.05.17/outbox.cif.g08.bks.cpg/sg2_68_cif.got.tgz:135110.got - 2010.06.03 11:33:40.
