data_PCOD9052584
_publ_section_title
;
Structure prediction by ZEFSAII (Michael W. Deem and Ramdas Pophale) SiO2 
 PCOD9052584
Probable space group: P -1
;
_chemical_formula_sum "Si O2"
_cell_formula_units_Z 16
_cell_length_a 11.038542
_cell_length_b 11.924852
_cell_length_c 11.406287
_cell_angle_alpha 105.201521
_cell_angle_beta 42.732358
_cell_angle_gamma 70.961091
_cell_volume 599.890840
_symmetry_space_group_name_H-M "P -1"
_symmetry_group_IT_number 2
_symmetry_cell_setting 'triclinic'
loop_
_space_group_symop_operation_xyz
x,y,z
-x,-y,-z
loop_
_atom_site_type_symbol
_atom_site_label
_atom_site_fract_x
_atom_site_fract_y
_atom_site_fract_z
Si Si1 0.593984 0.527571 0.328415
Si Si2 0.786567 0.610200 0.383665
Si Si3 0.855179 0.913724 0.194441
Si Si4 0.905400 0.261874 0.453827
Si Si5 0.598733 0.945137 0.604712
Si Si6 0.268610 0.776652 0.211822
Si Si7 0.721353 0.738625 0.917686
Si Si8 0.742596 0.134762 0.997009
O O1 0.500000 0.500000 0.500000
O O2 0.647253 0.629563 0.369441
O O3 0.352870 0.631264 0.427950
O O4 0.907183 0.310218 0.020450
O O5 0.838078 0.721088 0.378002
O O6 0.076767 0.390654 0.148439
O O7 0.566203 0.705777 0.676087
O O8 0.645158 0.008708 0.482034
O O9 0.021448 0.947985 0.098365
O O10 0.687406 0.980058 0.211324
O O11 0.768321 0.306958 0.691229
O O12 0.069587 0.300319 0.331272
O O13 0.155940 0.037006 0.181615
O O14 0.535458 0.043431 0.795835
O O15 0.238379 0.776822 0.094333
O O16 0.566500 0.698214 0.985646
O O17 0.000000 0.000000 0.500000
#
# Coordination Sequence:
#
# PCOD9052584 Si02
#       8
#     2   2   2   2   2   2   2   2
#     4  12  22  41  69 104 147 181 229 290 357 425
#     4  12  25  41  72 106 142 183 233 292 356 429
#     4  11  23  42  67 102 145 182 235 289 354 430
#     4  11  23  44  74 104 139 195 228 294 362 404
#     4  11  24  42  67 107 141 184 227 294 363 416
#     4  10  26  47  72 103 140 191 243 292 346 419
#     4  12  24  47  73 105 143 181 240 294 349 424
#     4  11  23  45  69 101 140 188 240 285 349 424
#
# _framework density 26.671520000000001
#
# number of rings (size 3 to 8) (size 9 to 14) (size 15 to 20)
#    0.000    0.750    5.000    2.250    1.750    5.000 
#    2.250    2.500    0.000    0.000    0.000    0.000 
#    0.000    0.000    0.000    0.000    0.000    0.000 
#
# Total GULP energy -89628.297055 kJ/mol
# GULP energy per Si atom -5601.768566 kJ/mol
# Density = 2.661081 g / cm^3
# Si number density = 26.671520 Si / 1000 Ang^3
#
#
#
# Elastic Constant Matrix: (Units=GPa)
#
#
# Indices 1 2 3 4 5 6 
#
# 1 104.7948 24.9234 26.3052 -18.3676 -13.7367 0.4723
# 2 24.9234 110.2837 32.6791 -26.1195 -0.7436 -2.3278
# 3 26.3052 32.6791 95.1577 -11.2777 10.3778 -0.4554
# 4 -18.3676 -26.1195 -11.2777 41.8981 0.5861 7.5323
# 5 -13.7367 -0.7436 10.3778 0.5861 37.9040 -0.2220
# 6 0.4723 -2.3278 -0.4554 7.5323 -0.2220 42.7305
#
#
#
# Elastic Compliance Matrix: (Units=1/GPa)
#
#
# Indices 1 2 3 4 5 6 
#
# 1 0.011873 -0.000816 -0.003090 0.003952 0.005067 -0.000879
# 2 -0.000816 0.011620 -0.003117 0.006122 0.000688 -0.000467
# 3 -0.003090 -0.003117 0.012983 0.000276 -0.004740 -0.000070
# 4 0.003952 0.006122 0.000276 0.030386 0.000977 -0.005058
# 5 0.005067 0.000688 -0.004740 0.000977 0.029514 -0.000088
# 6 -0.000879 -0.000467 -0.000070 -0.005058 -0.000088 0.024277
#
#
# Mechanical properties :
#
#
# Convention : Reuss Voigt Hill
#
# Bulk Modulus (GPa) = 44.58377 53.11684 48.85030
# Shear Modulus (GPa) = 35.16755 39.59507 37.38131
#
# Velocity S-wave (km/s) = 3.63511 3.85716 3.74778
# Velocity P-wave (km/s) = 5.86267 6.30835 6.08959
#
# Compressibility (1/GPa) = 0.02242969
#
# Stress axis : x y z
#
# Youngs Moduli (GPa) = 84.22493 86.05747 77.02464
#
# Poissons Ratio (x) = 0.07022 0.23803
# Poissons Ratio (y) = 0.06873 0.24007
# Poissons Ratio (z) = 0.26029 0.26822
#
# Static dielectric constant tensor:
#      x y z
#    x 2.106640 0.016950 -0.053230 
#    y 0.016950 2.146550 0.003580 
#    z -0.053230 0.003580 2.076800 
# 
# From -- ./inp_files/428322.got.cif
#   From: 2010.05.17/outbox.cif.g08.bks.cpg/sg2_215_cif.got.tgz:428322.got - 2010.06.03 11:33:40.
