data_PCOD9052405
_publ_section_title
;
Structure prediction by ZEFSAII (Michael W. Deem and Ramdas Pophale) SiO2 
 PCOD9052405
Probable space group: P -1
;
_chemical_formula_sum "Si O2"
_cell_formula_units_Z 13
_cell_length_a 14.439309
_cell_length_b 8.704254
_cell_length_c 14.489597
_cell_angle_alpha 64.127253
_cell_angle_beta 19.726991
_cell_angle_gamma 65.617989
_cell_volume 553.066376
_symmetry_space_group_name_H-M "P -1"
_symmetry_group_IT_number 2
_symmetry_cell_setting 'triclinic'
loop_
_space_group_symop_operation_xyz
x,y,z
-x,-y,-z
loop_
_atom_site_type_symbol
_atom_site_label
_atom_site_fract_x
_atom_site_fract_y
_atom_site_fract_z
Si Si1 0.272886 0.303598 0.530026
Si Si2 0.906370 0.965686 0.950245
Si Si3 0.285724 0.020679 0.276934
Si Si4 0.869371 0.317926 0.052726
Si Si5 0.639409 0.158538 0.566368
Si Si6 0.500000 0.500000 0.500000
Si Si7 0.271280 0.390896 0.294707
O O1 0.581259 0.271187 0.285536
O O2 0.295832 0.378971 0.386217
O O3 0.069236 0.141927 0.758742
O O4 0.100561 0.402964 0.747398
O O5 0.977213 0.843967 0.001980
O O6 0.055795 0.878593 0.745938
O O7 0.583550 0.975117 0.231712
O O8 0.280585 0.199804 0.292042
O O9 0.351759 0.870384 0.326423
O O10 0.000000 0.000000 0.500000
O O11 0.500000 0.000000 0.000000
O O12 0.752432 0.427783 0.217069
O O13 0.528457 0.332661 0.584303
O O14 0.000000 0.500000 0.500000
O O15 0.500000 0.500000 0.000000
#
# Coordination Sequence:
#
# PCOD9052405 Si02
#       7
#     2   2   2   2   2   1   2
#     4  12  24  43  72  99 142 187 246 294 374 432
#     4  11  22  42  70 103 136 181 237 293 349 439
#     4  12  27  49  79 109 149 201 258 317 388 458
#     4  11  24  40  69 107 142 190 231 296 359 451
#     4  11  24  44  74  98 146 192 236 298 373 439
#     4  10  26  46  66 108 154 188 238 298 372 450
#     4  12  28  49  76 111 152 197 263 329 382 445
#
# _framework density 23.505315
#
# number of rings (size 3 to 8) (size 9 to 14) (size 15 to 20)
#    0.000    0.615    1.538    6.462    2.154    9.231 
#    0.000    1.538    0.000    0.000    0.000    0.000 
#    0.000    0.000    0.000    0.000    0.000    0.000 
#
# Total GULP energy -72475.833961 kJ/mol
# GULP energy per Si atom -5575.064151 kJ/mol
# Density = 2.345182 g / cm^3
# Si number density = 23.505315 Si / 1000 Ang^3
#
#
#
# Elastic Constant Matrix: (Units=GPa)
#
#
# Indices 1 2 3 4 5 6 
#
# 1 153.6862 23.7675 94.5443 -14.9556 20.4818 -31.4459
# 2 23.7675 49.5861 33.6030 -5.7881 7.9673 -8.1145
# 3 94.5443 33.6030 184.5297 0.4541 12.7179 -14.8058
# 4 -14.9556 -5.7881 0.4541 38.0368 0.6572 5.1355
# 5 20.4818 7.9673 12.7179 0.6572 67.6052 -4.9730
# 6 -31.4459 -8.1145 -14.8058 5.1355 -4.9730 29.5316
#
#
#
# Elastic Compliance Matrix: (Units=1/GPa)
#
#
# Indices 1 2 3 4 5 6 
#
# 1 0.012476 0.000085 -0.005507 0.003731 -0.002088 0.009547
# 2 0.000085 0.024156 -0.004014 0.003272 -0.001867 0.003832
# 3 -0.005507 -0.004014 0.008789 -0.002611 0.000363 -0.002045
# 4 0.003731 0.003272 -0.002611 0.028532 -0.001423 -0.001638
# 5 -0.002088 -0.001867 0.000363 -0.001423 0.015614 0.000322
# 6 0.009547 0.003832 -0.002045 -0.001638 0.000322 0.044394
#
#
# Mechanical properties :
#
#
# Convention : Reuss Voigt Hill
#
# Bulk Modulus (GPa) = 37.66690 76.84796 57.25743
# Shear Modulus (GPa) = 30.92481 42.76053 36.84267
#
# Velocity S-wave (km/s) = 3.63113 4.26982 3.96336
# Velocity P-wave (km/s) = 5.79998 7.55469 6.73473
#
# Compressibility (1/GPa) = 0.02654851
#
# Stress axis : x y z
#
# Youngs Moduli (GPa) = 80.15334 41.39841 113.77873
#
# Poissons Ratio (x) = -0.00353 0.62658
# Poissons Ratio (y) = -0.00683 0.45674
# Poissons Ratio (z) = 0.44140 0.16618
#
# Static dielectric constant tensor:
#      x y z
#    x 2.067530 0.184640 -0.012240 
#    y 0.184640 1.966630 -0.056460 
#    z -0.012240 -0.056460 1.764360 
# 
# From -- ./inp_files/528199.got.cif
#   From: 2010.05.17/outbox.cif.g08.bks.cpg/sg2_265_cif.got.tgz:528199.got - 2010.06.03 11:33:40.
