data_PCOD9052232
_publ_section_title
;
Structure prediction by ZEFSAII (Michael W. Deem and Ramdas Pophale) SiO2 
 PCOD9052232
Probable space group: P -1
;
_chemical_formula_sum "Si O2"
_cell_formula_units_Z 16
_cell_length_a 7.644594
_cell_length_b 22.654508
_cell_length_c 9.285108
_cell_angle_alpha 129.505963
_cell_angle_beta 147.145156
_cell_angle_gamma 50.741801
_cell_volume 654.224569
_symmetry_space_group_name_H-M "P -1"
_symmetry_group_IT_number 2
_symmetry_cell_setting 'triclinic'
loop_
_space_group_symop_operation_xyz
x,y,z
-x,-y,-z
loop_
_atom_site_type_symbol
_atom_site_label
_atom_site_fract_x
_atom_site_fract_y
_atom_site_fract_z
Si Si1 0.881063 0.906853 0.814990
Si Si2 0.334083 0.138625 0.707450
Si Si3 0.523330 0.415319 0.313426
Si Si4 0.251810 0.551655 0.797194
Si Si5 0.720662 0.282867 0.862597
Si Si6 0.423562 0.946543 0.993367
Si Si7 0.860564 0.687561 0.249197
Si Si8 0.408715 0.187656 0.297810
O O1 0.742668 0.905326 0.556334
O O2 0.656855 0.860801 0.682211
O O3 0.269080 0.863657 0.019460
O O4 0.831887 0.990501 0.990681
O O5 0.147514 0.229739 0.704121
O O6 0.298362 0.090735 0.753795
O O7 0.500000 0.500000 0.500000
O O8 0.606599 0.430539 0.230244
O O9 0.810641 0.352203 0.496118
O O10 0.213719 0.375414 0.015797
O O11 0.000000 0.500000 0.500000
O O12 0.500000 0.500000 0.000000
O O13 0.151849 0.637306 0.933019
O O14 0.438561 0.292841 0.808030
O O15 0.554068 0.258679 0.566656
O O16 0.043768 0.216942 0.024242
O O17 0.371229 0.869217 0.755343
O O18 0.500000 0.000000 0.000000
#
# Coordination Sequence:
#
# PCOD9052232 Si02
#       8
#     2   2   2   2   2   2   2   2
#     4  11  22  42  70  96 127 175 230 273 324 401
#     4  12  23  43  69  99 131 173 235 275 324 400
#     4  11  24  44  69  96 134 172 213 274 339 385
#     4  11  23  42  67  99 130 172 224 262 320 410
#     4  11  21  40  69  93 130 177 218 267 329 389
#     4  10  26  44  66 100 141 178 217 281 345 390
#     4  11  21  40  70  97 126 172 228 270 320 395
#     4  11  21  41  63  97 131 171 218 273 334 385
#
# _framework density 24.456434000000002
#
# number of rings (size 3 to 8) (size 9 to 14) (size 15 to 20)
#    0.000    1.000    2.500    5.625    0.000    2.000 
#    6.750    5.625    0.000    0.000    0.000    0.000 
#    0.000    0.000    0.000    0.000    0.000    0.000 
#
# Total GULP energy -89498.216814 kJ/mol
# GULP energy per Si atom -5593.638551 kJ/mol
# Density = 2.440077 g / cm^3
# Si number density = 24.456434 Si / 1000 Ang^3
#
#
#
# Elastic Constant Matrix: (Units=GPa)
#
#
# Indices 1 2 3 4 5 6 
#
# 1 84.2703 25.1343 31.9242 -8.0159 -26.0315 4.2899
# 2 25.1343 119.7308 35.5043 -11.7259 -20.6671 17.4632
# 3 31.9242 35.5043 164.0630 -6.9418 -18.6426 2.4495
# 4 -8.0159 -11.7259 -6.9418 61.9001 4.5032 -12.1122
# 5 -26.0315 -20.6671 -18.6426 4.5032 31.9782 4.4613
# 6 4.2899 17.4632 2.4495 -12.1122 4.4613 33.2574
#
#
#
# Elastic Compliance Matrix: (Units=1/GPa)
#
#
# Indices 1 2 3 4 5 6 
#
# 1 0.016796 -0.000239 -0.001674 0.000302 0.012995 -0.003551
# 2 -0.000239 0.010995 -0.001439 0.000105 0.006969 -0.006533
# 3 -0.001674 -0.001439 0.006927 0.000229 0.001668 0.000321
# 4 0.000302 0.000105 0.000229 0.017782 -0.003001 0.006768
# 5 0.012995 0.006969 0.001668 -0.003001 0.049591 -0.013204
# 6 -0.003551 -0.006533 0.000321 0.006768 -0.013204 0.038170
#
#
# Mechanical properties :
#
#
# Convention : Reuss Voigt Hill
#
# Bulk Modulus (GPa) = 35.69663 61.46553 48.58108
# Shear Modulus (GPa) = 31.98922 43.79389 37.89156
#
# Velocity S-wave (km/s) = 3.62056 4.23625 3.94045
# Velocity P-wave (km/s) = 5.66619 7.00820 6.37262
#
# Compressibility (1/GPa) = 0.02801385
#
# Stress axis : x y z
#
# Youngs Moduli (GPa) = 59.53909 90.94951 144.36549
#
# Poissons Ratio (x) = 0.02172 0.24168
# Poissons Ratio (y) = 0.01422 0.20775
# Poissons Ratio (z) = 0.09967 0.13088
#
# Static dielectric constant tensor:
#      x y z
#    x 1.998200 -0.027080 0.045020 
#    y -0.027080 1.907100 0.030640 
#    z 0.045020 0.030640 1.922230 
# 
# From -- ./inp_files/226573.got.cif
#   From: 2010.05.17/outbox.cif.g08.bks.cpg/sg2_114_cif.got.tgz:226573.got - 2010.06.03 11:33:40.
