data_PCOD9052480
_publ_section_title
;
Structure prediction by ZEFSAII (Michael W. Deem and Ramdas Pophale) SiO2 
 PCOD9052480
Probable space group: P -1
;
_chemical_formula_sum "Si O2"
_cell_formula_units_Z 15
_cell_length_a 12.848264
_cell_length_b 10.372616
_cell_length_c 14.975576
_cell_angle_alpha 55.175147
_cell_angle_beta 153.008582
_cell_angle_gamma 134.416107
_cell_volume 638.434826
_symmetry_space_group_name_H-M "P -1"
_symmetry_group_IT_number 2
_symmetry_cell_setting 'triclinic'
loop_
_space_group_symop_operation_xyz
x,y,z
-x,-y,-z
loop_
_atom_site_type_symbol
_atom_site_label
_atom_site_fract_x
_atom_site_fract_y
_atom_site_fract_z
Si Si1 0.500000 0.500000 0.000000
Si Si2 0.399433 0.129146 0.831607
Si Si3 0.824198 0.850422 0.708301
Si Si4 0.045747 0.614943 0.901688
Si Si5 0.958398 0.840417 0.105367
Si Si6 0.892392 0.383292 0.374425
Si Si7 0.255013 0.605169 0.410858
Si Si8 0.176921 0.983731 0.523665
O O1 0.330672 0.334590 0.019333
O O2 0.321822 0.585179 0.849820
O O3 0.145022 0.109163 0.696435
O O4 0.279833 0.060840 0.668897
O O5 0.667987 0.321078 0.948709
O O6 0.500000 0.000000 0.000000
O O7 0.571354 0.705273 0.628276
O O8 0.023325 0.784466 0.855224
O O9 0.691663 0.864489 0.510000
O O10 0.954871 0.040959 0.783950
O O11 0.833225 0.507281 0.704417
O O12 0.000000 0.500000 0.000000
O O13 0.147933 0.750751 0.270504
O O14 0.000000 0.000000 0.000000
O O15 0.767216 0.176269 0.386456
O O16 0.000000 0.500000 0.500000
O O17 0.123630 0.457966 0.448333
#
# Coordination Sequence:
#
# PCOD9052480 Si02
#       8
#     1   2   2   2   2   2   2   2
#     4  10  26  46  72 110 146 178 264 302 370 452
#     4  11  24  45  69 102 143 189 247 295 370 445
#     4  12  26  45  72 109 148 191 255 303 379 461
#     4  12  26  44  72 106 148 196 241 312 376 446
#     4  11  26  47  75 104 145 204 244 313 379 450
#     4  11  26  44  73 103 140 192 238 311 374 436
#     4  11  26  46  69 106 148 188 248 307 375 451
#     4  11  25  42  73 102 143 195 241 309 368 446
#
# _framework density 23.494959000000001
#
# number of rings (size 3 to 8) (size 9 to 14) (size 15 to 20)
#    0.000    0.800    1.333    4.800    9.333    5.333 
#    0.000    0.000    0.000    0.000    0.000    0.000 
#    0.000    0.000    0.000    0.000    0.000    0.000 
#
# Total GULP energy -83515.353220 kJ/mol
# GULP energy per Si atom -5567.690215 kJ/mol
# Density = 2.344148 g / cm^3
# Si number density = 23.494959 Si / 1000 Ang^3
#
#
#
# Elastic Constant Matrix: (Units=GPa)
#
#
# Indices 1 2 3 4 5 6 
#
# 1 80.2774 1.5364 0.8309 3.3261 -9.8753 12.8332
# 2 1.5364 53.3702 3.4533 -12.4888 -0.0391 8.8765
# 3 0.8309 3.4533 40.3173 -3.0842 5.8890 6.8453
# 4 3.3261 -12.4888 -3.0842 36.6196 7.5888 -2.0161
# 5 -9.8753 -0.0391 5.8890 7.5888 44.2666 -0.0501
# 6 12.8332 8.8765 6.8453 -2.0161 -0.0501 57.2620
#
#
#
# Elastic Compliance Matrix: (Units=1/GPa)
#
#
# Indices 1 2 3 4 5 6 
#
# 1 0.013463 -0.000393 -0.000414 -0.002270 0.003444 -0.002984
# 2 -0.000393 0.020949 -0.000571 0.007232 -0.001236 -0.002838
# 3 -0.000414 -0.000571 0.026144 0.002725 -0.004041 -0.002852
# 4 -0.002270 0.007232 0.002725 0.031517 -0.006265 0.000166
# 5 0.003444 -0.001236 -0.004041 -0.006265 0.024969 -0.000296
# 6 -0.002984 -0.002838 -0.002852 0.000166 -0.000296 0.018919
#
#
# Mechanical properties :
#
#
# Convention : Reuss Voigt Hill
#
# Bulk Modulus (GPa) = 17.30097 20.62290 18.96194
# Shear Modulus (GPa) = 31.64905 38.83926 35.24416
#
# Velocity S-wave (km/s) = 3.67421 4.07023 3.87728
# Velocity P-wave (km/s) = 5.03780 5.55749 5.30401
#
# Compressibility (1/GPa) = 0.05780023
#
# Stress axis : x y z
#
# Youngs Moduli (GPa) = 74.27593 47.73585 38.25028
#
# Poissons Ratio (x) = 0.01877 0.01583
# Poissons Ratio (y) = 0.02920 0.02183
# Poissons Ratio (z) = 0.03074 0.02724
#
# Static dielectric constant tensor:
#      x y z
#    x 1.938750 0.070010 0.002970 
#    y 0.070010 1.851530 -0.041460 
#    z 0.002970 -0.041460 1.831530 
# 
# From -- ./inp_files/515266.got.cif
#   From: 2010.05.17/outbox.cif.g08.bks.cpg/sg2_258_cif.got.tgz:515266.got - 2010.06.03 11:33:40.
