data_PCOD9052736
_publ_section_title
;
Structure prediction by ZEFSAII (Michael W. Deem and Ramdas Pophale) SiO2 
 PCOD9052736
Probable space group: P -1
;
_chemical_formula_sum "Si O2"
_cell_formula_units_Z 14
_cell_length_a 17.568315
_cell_length_b 9.178318
_cell_length_c 4.947741
_cell_angle_alpha 93.893696
_cell_angle_beta 67.597045
_cell_angle_gamma 130.482030
_cell_volume 542.434206
_symmetry_space_group_name_H-M "P -1"
_symmetry_group_IT_number 2
_symmetry_cell_setting 'triclinic'
loop_
_space_group_symop_operation_xyz
x,y,z
-x,-y,-z
loop_
_atom_site_type_symbol
_atom_site_label
_atom_site_fract_x
_atom_site_fract_y
_atom_site_fract_z
Si Si1 0.293912 0.059843 0.818520
Si Si2 0.917601 0.305648 0.273644
Si Si3 0.507521 0.617544 0.749941
Si Si4 0.744371 0.448792 0.386841
Si Si5 0.730754 0.231345 0.853754
Si Si6 0.727169 0.646275 0.857752
Si Si7 0.058970 0.209580 0.079021
O O1 0.380040 0.167753 0.464151
O O2 0.277184 0.190205 0.023824
O O3 0.178472 0.870024 0.819075
O O4 0.333399 0.984746 0.968087
O O5 0.732061 0.345492 0.113783
O O6 0.851663 0.316631 0.596205
O O7 0.000000 0.500000 0.000000
O O8 0.500000 0.500000 0.500000
O O9 0.389847 0.559872 0.897368
O O10 0.500000 0.500000 0.000000
O O11 0.692006 0.277698 0.655359
O O12 0.878329 0.628953 0.226233
O O13 0.717944 0.582699 0.548488
O O14 0.024644 0.770074 0.689632
O O15 0.841753 0.723873 0.845732
O O16 0.000000 0.000000 0.000000
#
# Coordination Sequence:
#
# PCOD9052736 Si02
#       7
#     2   2   2   2   2   2   2
#     4  11  26  48  84 117 148 207 273 320 385 475
#     4  12  26  48  79 109 161 211 261 316 388 474
#     4  10  26  48  83 117 154 201 260 332 395 459
#     4  12  27  49  73 109 160 207 250 326 396 458
#     4  12  26  50  76 108 157 209 263 313 385 478
#     4  11  27  49  79 115 159 195 263 331 397 456
#     4  12  26  46  75 114 156 199 258 320 401 453
#
# _framework density 25.809583
#
# number of rings (size 3 to 8) (size 9 to 14) (size 15 to 20)
#    0.000    0.571    5.714    0.000   10.000    4.000 
#    0.000    1.429    0.000    0.000    0.000    0.000 
#    0.000    0.000    0.000    0.000    0.000    0.000 
#
# Total GULP energy -78113.937791 kJ/mol
# GULP energy per Si atom -5579.566985 kJ/mol
# Density = 2.575084 g / cm^3
# Si number density = 25.809583 Si / 1000 Ang^3
#
#
#
# Elastic Constant Matrix: (Units=GPa)
#
#
# Indices 1 2 3 4 5 6 
#
# 1 88.1877 48.3703 28.6631 18.5089 -7.4140 -11.3670
# 2 48.3703 135.4935 68.6823 22.1080 1.7844 -21.9172
# 3 28.6631 68.6823 168.0911 31.5288 7.1025 -3.3404
# 4 18.5089 22.1080 31.5288 69.8323 -8.5803 -7.0833
# 5 -7.4140 1.7844 7.1025 -8.5803 47.7129 -0.7729
# 6 -11.3670 -21.9172 -3.3404 -7.0833 -0.7729 40.3383
#
#
#
# Elastic Compliance Matrix: (Units=1/GPa)
#
#
# Indices 1 2 3 4 5 6 
#
# 1 0.014719 -0.004581 -0.000350 -0.001888 0.002193 0.001340
# 2 -0.004581 0.011802 -0.003853 -0.000373 -0.000570 0.004726
# 3 -0.000350 -0.003853 0.008132 -0.002768 -0.001652 -0.002036
# 4 -0.001888 -0.000373 -0.002768 0.016787 0.003185 0.002045
# 5 0.002193 -0.000570 -0.001652 0.003185 0.022158 0.001155
# 6 0.001340 0.004726 -0.002036 0.002045 0.001155 0.027948
#
#
# Mechanical properties :
#
#
# Convention : Reuss Voigt Hill
#
# Bulk Modulus (GPa) = 58.53386 75.91152 67.22269
# Shear Modulus (GPa) = 40.06087 47.98048 44.02067
#
# Velocity S-wave (km/s) = 3.94403 4.31631 4.13436
# Velocity P-wave (km/s) = 6.59309 7.36999 6.99234
#
# Compressibility (1/GPa) = 0.01708413
#
# Stress axis : x y z
#
# Youngs Moduli (GPa) = 67.93788 84.73174 122.97434
#
# Poissons Ratio (x) = 0.38819 0.04304
# Poissons Ratio (y) = 0.31125 0.47383
# Poissons Ratio (z) = 0.02378 0.32648
#
# Static dielectric constant tensor:
#      x y z
#    x 2.187620 -0.014230 0.042250 
#    y -0.014230 2.104790 -0.085440 
#    z 0.042250 -0.085440 2.177000 
# 
# From -- ./inp_files/122264.got.cif
#   From: 2010.05.17/outbox.cif.g08.bks.cpg/sg2_62_cif.got.tgz:122264.got - 2010.06.03 11:33:40.
