data_PCOD9052803
_publ_section_title
;
Structure prediction by ZEFSAII (Michael W. Deem and Ramdas Pophale) SiO2 
 PCOD9052803
Probable space group: P -1
;
_chemical_formula_sum "Si O2"
_cell_formula_units_Z 16
_cell_length_a 14.918696
_cell_length_b 14.654867
_cell_length_c 7.627376
_cell_angle_alpha 103.549698
_cell_angle_beta 48.042050
_cell_angle_gamma 142.304871
_cell_volume 577.378783
_symmetry_space_group_name_H-M "P -1"
_symmetry_group_IT_number 2
_symmetry_cell_setting 'triclinic'
loop_
_space_group_symop_operation_xyz
x,y,z
-x,-y,-z
loop_
_atom_site_type_symbol
_atom_site_label
_atom_site_fract_x
_atom_site_fract_y
_atom_site_fract_z
Si Si1 0.771119 0.348889 0.364523
Si Si2 0.677097 0.003613 0.685159
Si Si3 0.085886 0.759941 0.843480
Si Si4 0.120155 0.660060 0.291966
Si Si5 0.732630 0.759981 0.763570
Si Si6 0.491603 0.600004 0.635894
Si Si7 0.925453 0.137152 0.763617
Si Si8 0.703698 0.855628 0.177569
O O1 0.509987 0.210789 0.585369
O O2 0.766028 0.236968 0.385968
O O3 0.878025 0.503656 0.418291
O O4 0.000000 0.500000 0.000000
O O5 0.787567 0.179648 0.680850
O O6 0.718927 0.980142 0.808278
O O7 0.825649 0.100040 0.350389
O O8 0.382129 0.798606 0.936630
O O9 0.786356 0.548726 0.109522
O O10 0.124804 0.808634 0.021684
O O11 0.000000 0.500000 0.500000
O O12 0.551092 0.650351 0.786258
O O13 0.822714 0.712870 0.606936
O O14 0.646288 0.734159 0.055588
O O15 0.000000 0.000000 0.500000
O O16 0.500000 0.500000 0.500000
O O17 0.690573 0.799821 0.357957
O O18 0.934904 0.068171 0.881040
#
# Coordination Sequence:
#
# PCOD9052803 Si02
#       8
#     2   2   2   2   2   2   2   2
#     4  12  25  46  71 111 158 199 255 313 387 474
#     4  11  27  46  75 112 154 206 259 320 387 467
#     4  12  27  46  76 114 157 204 252 325 395 466
#     4  11  24  47  70 105 156 204 258 309 382 468
#     4  10  26  50  76 109 148 201 263 325 391 459
#     4  12  27  50  78 115 151 204 267 324 394 471
#     4  11  26  49  73 112 154 198 264 326 390 465
#     4  11  28  48  79 109 154 208 257 325 397 471
#
# _framework density 27.711444
#
# number of rings (size 3 to 8) (size 9 to 14) (size 15 to 20)
#    0.000    0.750    3.750    1.500    7.000    7.000 
#    0.000    0.000    0.000    0.000    0.000    0.000 
#    0.000    0.000    0.000    0.000    0.000    0.000 
#
# Total GULP energy -89324.251478 kJ/mol
# GULP energy per Si atom -5582.765717 kJ/mol
# Density = 2.764837 g / cm^3
# Si number density = 27.711444 Si / 1000 Ang^3
#
#
#
# Elastic Constant Matrix: (Units=GPa)
#
#
# Indices 1 2 3 4 5 6 
#
# 1 105.4754 20.6517 20.4131 2.7042 3.9166 4.2883
# 2 20.6517 113.2480 14.8068 6.1203 -5.1731 9.2585
# 3 20.4131 14.8068 72.8581 17.6134 -1.1776 0.5788
# 4 2.7042 6.1203 17.6134 47.5621 -4.3477 10.6095
# 5 3.9166 -5.1731 -1.1776 -4.3477 56.6132 -5.9568
# 6 4.2883 9.2585 0.5788 10.6095 -5.9568 60.7819
#
#
#
# Elastic Compliance Matrix: (Units=1/GPa)
#
#
# Indices 1 2 3 4 5 6 
#
# 1 0.010365 -0.001553 -0.002768 0.000702 -0.000934 -0.000683
# 2 -0.001553 0.009444 -0.001396 -0.000272 0.000795 -0.001190
# 3 -0.002768 -0.001396 0.016214 -0.005950 0.000081 0.001300
# 4 0.000702 -0.000272 -0.005950 0.024243 0.001237 -0.004062
# 5 -0.000934 0.000795 0.000081 0.001237 0.018055 0.001498
# 6 -0.000683 -0.001190 0.001300 -0.004062 0.001498 0.017525
#
#
# Mechanical properties :
#
#
# Convention : Reuss Voigt Hill
#
# Bulk Modulus (GPa) = 40.66875 44.81385 42.74130
# Shear Modulus (GPa) = 43.29860 48.70545 46.00203
#
# Velocity S-wave (km/s) = 3.95711 4.19691 4.07878
# Velocity P-wave (km/s) = 5.96540 6.30017 6.13507
#
# Compressibility (1/GPa) = 0.02458891
#
# Stress axis : x y z
#
# Youngs Moduli (GPa) = 96.47758 105.88425 61.67536
#
# Poissons Ratio (x) = 0.16445 0.17071
# Poissons Ratio (y) = 0.14984 0.08611
# Poissons Ratio (z) = 0.26704 0.14783
#
# Static dielectric constant tensor:
#      x y z
#    x 2.301990 -0.066150 0.067040 
#    y -0.066150 2.264750 0.053940 
#    z 0.067040 0.053940 2.155820 
# 
# From -- ./inp_files/315386.got.cif
#   From: 2010.05.17/outbox.cif.g08.bks.cpg/sg2_158_cif.got.tgz:315386.got - 2010.06.03 11:33:40.
