data_PCOD9052448
_publ_section_title
;
Structure prediction by ZEFSAII (Michael W. Deem and Ramdas Pophale) SiO2 
 PCOD9052448
Probable space group: P -1
;
_chemical_formula_sum "Si O2"
_cell_formula_units_Z 13
_cell_length_a 9.288288
_cell_length_b 9.845139
_cell_length_c 12.135797
_cell_angle_alpha 133.557723
_cell_angle_beta 103.274426
_cell_angle_gamma 47.422010
_cell_volume 530.790390
_symmetry_space_group_name_H-M "P -1"
_symmetry_group_IT_number 2
_symmetry_cell_setting 'triclinic'
loop_
_space_group_symop_operation_xyz
x,y,z
-x,-y,-z
loop_
_atom_site_type_symbol
_atom_site_label
_atom_site_fract_x
_atom_site_fract_y
_atom_site_fract_z
Si Si1 0.303582 0.168474 0.645628
Si Si2 0.888993 0.805947 0.170658
Si Si3 0.917034 0.644660 0.686209
Si Si4 0.198309 0.760784 0.323997
Si Si5 0.438869 0.426582 0.847657
Si Si6 0.471178 0.197018 0.187236
Si Si7 0.000000 0.000000 0.000000
O O1 0.257520 0.058011 0.668013
O O2 0.359298 0.299954 0.802242
O O3 0.079022 0.405785 0.673082
O O4 0.500000 0.000000 0.500000
O O5 0.083379 0.767709 0.203687
O O6 0.716802 0.022909 0.168657
O O7 0.000000 0.500000 0.000000
O O8 0.685962 0.751498 0.720611
O O9 0.000000 0.500000 0.500000
O O10 0.925689 0.859808 0.837444
O O11 0.351488 0.776933 0.309500
O O12 0.349269 0.477857 0.260825
O O13 0.000000 0.000000 0.500000
O O14 0.500000 0.500000 0.000000
O O15 0.237295 0.695700 0.894210
O O16 0.500000 0.000000 0.000000
#
# Coordination Sequence:
#
# PCOD9052448 Si02
#       7
#     2   2   2   2   2   2   1
#     4  11  23  43  68 106 140 185 251 297 369 454
#     4  12  24  45  75 102 141 197 247 297 375 455
#     4  11  24  44  75 109 147 197 248 314 377 448
#     4  12  27  47  71 110 153 187 246 318 379 448
#     4  11  26  43  73 102 144 192 239 312 375 439
#     4  12  25  46  76 105 148 202 249 303 381 459
#     4  10  26  46  70 112 152 184 262 306 374 454
#
# _framework density 24.491779999999999
#
# number of rings (size 3 to 8) (size 9 to 14) (size 15 to 20)
#    0.000    0.615    3.077    3.692    4.308    5.538 
#    0.000    0.000    0.000    0.000    0.000    0.000 
#    0.000    0.000    0.000    0.000    0.000    0.000 
#
# Total GULP energy -72456.869511 kJ/mol
# GULP energy per Si atom -5573.605347 kJ/mol
# Density = 2.443604 g / cm^3
# Si number density = 24.491780 Si / 1000 Ang^3
#
#
#
# Elastic Constant Matrix: (Units=GPa)
#
#
# Indices 1 2 3 4 5 6 
#
# 1 137.0035 31.5268 19.1931 -1.8591 7.8967 -20.7744
# 2 31.5268 118.7594 -1.0368 13.5667 8.7985 -36.7966
# 3 19.1931 -1.0368 66.4503 -4.9681 -9.4751 1.3227
# 4 -1.8591 13.5667 -4.9681 41.1277 -4.0595 -3.7477
# 5 7.8967 8.7985 -9.4751 -4.0595 49.3349 -7.8953
# 6 -20.7744 -36.7966 1.3227 -3.7477 -7.8953 43.8620
#
#
#
# Elastic Compliance Matrix: (Units=1/GPa)
#
#
# Indices 1 2 3 4 5 6 
#
# 1 0.008487 -0.001412 -0.002637 0.000673 -0.001114 0.002772
# 2 -0.001412 0.012010 0.000067 -0.003270 -0.000733 0.008994
# 3 -0.002637 0.000067 0.016504 0.002131 0.003618 -0.000857
# 4 0.000673 -0.003270 0.002131 0.026010 0.003071 0.000286
# 5 -0.001114 -0.000733 0.003618 0.003071 0.022002 0.002971
# 6 0.002772 0.008994 -0.000857 0.000286 0.002971 0.032242
#
#
# Mechanical properties :
#
#
# Convention : Reuss Voigt Hill
#
# Bulk Modulus (GPa) = 34.43764 46.84214 40.63989
# Shear Modulus (GPa) = 37.06525 45.03359 41.04942
#
# Velocity S-wave (km/s) = 3.89443 4.29269 4.09840
# Velocity P-wave (km/s) = 5.85778 6.61337 6.24701
#
# Compressibility (1/GPa) = 0.02903799
#
# Stress axis : x y z
#
# Youngs Moduli (GPa) = 117.82686 83.26283 60.59189
#
# Poissons Ratio (x) = 0.11753 0.15978
# Poissons Ratio (y) = 0.16632 -0.00406
# Poissons Ratio (z) = 0.31072 -0.00558
#
# Static dielectric constant tensor:
#      x y z
#    x 2.041230 0.006570 -0.020480 
#    y 0.006570 1.953920 -0.039830 
#    z -0.020480 -0.039830 2.100490 
# 
# From -- ./inp_files/183925.got.cif
#   From: 2010.05.17/outbox.cif.g08.bks.cpg/sg2_92_cif.got.tgz:183925.got - 2010.06.03 11:33:40.
