data_PCOD9052652
_publ_section_title
;
Structure prediction by ZEFSAII (Michael W. Deem and Ramdas Pophale) SiO2 
 PCOD9052652
Probable space group: P -1
;
_chemical_formula_sum "Si O2"
_cell_formula_units_Z 16
_cell_length_a 9.067396
_cell_length_b 13.885571
_cell_length_c 9.412561
_cell_angle_alpha 57.628688
_cell_angle_beta 107.217313
_cell_angle_gamma 67.106002
_cell_volume 702.195854
_symmetry_space_group_name_H-M "P -1"
_symmetry_group_IT_number 2
_symmetry_cell_setting 'triclinic'
loop_
_space_group_symop_operation_xyz
x,y,z
-x,-y,-z
loop_
_atom_site_type_symbol
_atom_site_label
_atom_site_fract_x
_atom_site_fract_y
_atom_site_fract_z
Si Si1 0.159000 0.913353 0.746331
Si Si2 0.240514 0.175460 0.092960
Si Si3 0.610669 0.357511 0.445875
Si Si4 0.470161 0.187974 0.608738
Si Si5 0.799381 0.296680 0.853029
Si Si6 0.517909 0.114641 0.987203
Si Si7 0.272175 0.663665 0.803036
Si Si8 0.087813 0.333390 0.209960
O O1 0.319967 0.754800 0.831598
O O2 0.108060 0.856312 0.909461
O O3 0.267141 0.968972 0.800382
O O4 0.000000 0.000000 0.500000
O O5 0.247458 0.209718 0.230847
O O6 0.369207 0.993614 0.245585
O O7 0.339489 0.212259 0.978318
O O8 0.992644 0.286635 0.908404
O O9 0.519331 0.276783 0.465410
O O10 0.738012 0.296493 0.676439
O O11 0.410116 0.542784 0.262829
O O12 0.765874 0.300357 0.403545
O O13 0.496431 0.203627 0.771752
O O14 0.231594 0.273440 0.437660
O O15 0.500000 0.000000 0.000000
O O16 0.094180 0.670542 0.813779
O O17 0.500000 0.500000 0.000000
O O18 0.000000 0.500000 0.000000
#
# Coordination Sequence:
#
# PCOD9052652 Si02
#       8
#     2   2   2   2   2   2   2   2
#     4  12  27  46  77 106 147 192 253 307 366 445
#     4  11  25  44  72 101 148 185 252 301 367 436
#     4  11  25  46  74 101 154 190 245 308 373 443
#     4  11  25  46  72 102 145 197 240 310 374 438
#     4  11  24  48  69 108 143 194 245 306 373 448
#     4  10  26  48  70 106 150 190 245 304 376 440
#     4  12  26  45  71 106 148 193 250 302 366 445
#     4  12  27  46  70 107 150 195 248 300 373 449
#
# _framework density 22.785664000000001
#
# number of rings (size 3 to 8) (size 9 to 14) (size 15 to 20)
#    0.000    0.750    3.750    1.875   10.500    1.500 
#    0.000    1.250    0.000    0.000    0.000    0.000 
#    0.000    0.000    0.000    0.000    0.000    0.000 
#
# Total GULP energy -89268.692461 kJ/mol
# GULP energy per Si atom -5579.293279 kJ/mol
# Density = 2.273380 g / cm^3
# Si number density = 22.785664 Si / 1000 Ang^3
#
#
#
# Elastic Constant Matrix: (Units=GPa)
#
#
# Indices 1 2 3 4 5 6 
#
# 1 103.0680 35.9775 40.2902 22.8598 -3.0892 -7.7519
# 2 35.9775 76.3998 22.1423 23.3563 -8.3808 -5.6396
# 3 40.2902 22.1423 119.5416 29.4649 10.0223 1.0436
# 4 22.8598 23.3563 29.4649 37.2787 2.6476 -3.6016
# 5 -3.0892 -8.3808 10.0223 2.6476 41.9662 11.7499
# 6 -7.7519 -5.6396 1.0436 -3.6016 11.7499 40.9191
#
#
#
# Elastic Compliance Matrix: (Units=1/GPa)
#
#
# Indices 1 2 3 4 5 6 
#
# 1 0.013134 -0.004248 -0.002980 -0.002928 0.000580 0.001555
# 2 -0.004248 0.018319 -0.000040 -0.009147 0.003997 -0.000232
# 3 -0.002980 -0.000040 0.011298 -0.006997 -0.002252 -0.000827
# 4 -0.002928 -0.009147 -0.006997 0.040439 -0.003763 0.003003
# 5 0.000580 0.003997 -0.002252 -0.003763 0.027552 -0.007525
# 6 0.001555 -0.000232 -0.000827 0.003003 -0.007525 0.027147
#
#
# Mechanical properties :
#
#
# Convention : Reuss Voigt Hill
#
# Bulk Modulus (GPa) = 35.44278 55.09216 45.26747
# Shear Modulus (GPa) = 30.89679 37.40610 34.15145
#
# Velocity S-wave (km/s) = 3.68635 4.05612 3.87565
# Velocity P-wave (km/s) = 5.80582 6.79464 6.31960
#
# Compressibility (1/GPa) = 0.02821449
#
# Stress axis : x y z
#
# Youngs Moduli (GPa) = 76.13979 54.58918 88.51193
#
# Poissons Ratio (x) = 0.23188 0.26379
# Poissons Ratio (y) = 0.32341 0.00354
# Poissons Ratio (z) = 0.22692 0.00218
#
# Static dielectric constant tensor:
#      x y z
#    x 1.835600 0.022610 0.047510 
#    y 0.022610 1.793760 0.080740 
#    z 0.047510 0.080740 1.704040 
# 
# From -- ./inp_files/205973.got.cif
#   From: 2010.05.17/outbox.cif.g08.bks.cpg/sg2_103_cif.got.tgz:205973.got - 2010.06.03 11:33:40.
