data_PCOD9052294
_publ_section_title
;
Structure prediction by ZEFSAII (Michael W. Deem and Ramdas Pophale) SiO2 
 PCOD9052294
Probable space group: P -1
;
_chemical_formula_sum "Si O2"
_cell_formula_units_Z 10
_cell_length_a 4.883050
_cell_length_b 16.379264
_cell_length_c 13.054406
_cell_angle_alpha 28.906278
_cell_angle_beta 124.711086
_cell_angle_gamma 134.817278
_cell_volume 354.544732
_symmetry_space_group_name_H-M "P -1"
_symmetry_group_IT_number 2
_symmetry_cell_setting 'triclinic'
loop_
_space_group_symop_operation_xyz
x,y,z
-x,-y,-z
loop_
_atom_site_type_symbol
_atom_site_label
_atom_site_fract_x
_atom_site_fract_y
_atom_site_fract_z
Si Si1 0.522115 0.649190 0.428036
Si Si2 0.410579 0.998044 0.215995
Si Si3 0.369070 0.800329 0.752613
Si Si4 0.500000 0.500000 0.000000
Si Si5 0.464640 0.350073 0.336960
Si Si6 0.500000 0.000000 0.000000
O O1 0.500000 0.500000 0.500000
O O2 0.501174 0.580971 0.616146
O O3 0.268943 0.755397 0.254701
O O4 0.941911 0.854970 0.278873
O O5 0.590211 0.864130 0.431536
O O6 0.521662 0.066567 0.049985
O O7 0.514084 0.152143 0.158179
O O8 0.572390 0.699508 0.854123
O O9 0.895134 0.662527 0.793092
O O10 0.500000 0.000000 0.500000
O O11 0.224788 0.528880 0.816192
#
# Coordination Sequence:
#
# PCOD9052294 Si02
#       6
#     2   2   2   1   2   1
#     4  11  25  48  69  98 142 183 232 283 337 409
#     4  11  24  48  72 101 141 182 228 288 344 406
#     4  12  24  46  72 101 143 177 229 288 346 410
#     4  12  26  40  70 106 138 182 226 276 350 408
#     4  11  24  46  69 106 138 181 228 284 347 409
#     4  10  26  44  72 102 132 186 234 278 344 402
#
# _framework density 28.205186999999999
#
# number of rings (size 3 to 8) (size 9 to 14) (size 15 to 20)
#    0.000    0.800    4.000    1.800    2.800    3.200 
#   10.800    0.000    0.000    0.000    0.000    0.000 
#    0.000    0.000    0.000    0.000    0.000    0.000 
#
# Total GULP energy -55669.890032 kJ/mol
# GULP energy per Si atom -5566.989003 kJ/mol
# Density = 2.814099 g / cm^3
# Si number density = 28.205187 Si / 1000 Ang^3
#
#
#
# Elastic Constant Matrix: (Units=GPa)
#
#
# Indices 1 2 3 4 5 6 
#
# 1 91.3944 72.0295 17.5524 6.6200 -8.2323 -36.0472
# 2 72.0295 197.4087 72.4105 22.1975 -23.2185 -93.4953
# 3 17.5524 72.4105 145.7012 22.0855 -15.1840 -39.5573
# 4 6.6200 22.1975 22.0855 65.1553 -28.1550 -14.5736
# 5 -8.2323 -23.2185 -15.1840 -28.1550 50.8488 0.3994
# 6 -36.0472 -93.4953 -39.5573 -14.5736 0.3994 88.6898
#
#
#
# Elastic Compliance Matrix: (Units=1/GPa)
#
#
# Indices 1 2 3 4 5 6 
#
# 1 0.015555 -0.005634 0.001185 0.000368 0.000496 0.000970
# 2 -0.005634 0.014107 -0.002879 0.001716 0.005529 0.011555
# 3 0.001185 -0.002879 0.008751 -0.001608 0.000591 0.001083
# 4 0.000368 0.001716 -0.001608 0.021654 0.012316 0.004744
# 5 0.000496 0.005529 0.000591 0.012316 0.029203 0.008186
# 6 0.000970 0.011555 0.001083 0.004744 0.008186 0.025076
#
#
# Mechanical properties :
#
#
# Convention : Reuss Voigt Hill
#
# Bulk Modulus (GPa) = 42.09340 84.27656 63.18498
# Shear Modulus (GPa) = 36.51765 59.10623 47.81194
#
# Velocity S-wave (km/s) = 3.60212 4.58272 4.12168
# Velocity P-wave (km/s) = 5.67950 7.61225 6.71577
#
# Compressibility (1/GPa) = 0.02375670
#
# Stress axis : x y z
#
# Youngs Moduli (GPa) = 64.28897 70.88545 114.27540
#
# Poissons Ratio (x) = 0.39938 -0.13545
# Poissons Ratio (y) = 0.36222 0.32902
# Poissons Ratio (z) = -0.07620 0.20409
#
# Static dielectric constant tensor:
#      x y z
#    x -0.187160 -0.356620 0.000020 
#    y -0.356620 2.056890 -0.230280 
#    z 0.000020 -0.230280 1.286140 
# 
# From -- ./inp_files/17913.got.cif
#   From: 2010.05.17/outbox.cif.g08.bks.cpg/sg2_9_cif.got.tgz:17913.got - 2010.06.03 11:33:40.
