data_PCOD9052901
_publ_section_title
;
Structure prediction by ZEFSAII (Michael W. Deem and Ramdas Pophale) SiO2 
 PCOD9052901
Probable space group: P -1
;
_chemical_formula_sum "Si O2"
_cell_formula_units_Z 15
_cell_length_a 14.547837
_cell_length_b 23.444856
_cell_length_c 8.230965
_cell_angle_alpha 40.478041
_cell_angle_beta 40.117933
_cell_angle_gamma 21.990530
_cell_volume 661.715228
_symmetry_space_group_name_H-M "P -1"
_symmetry_group_IT_number 2
_symmetry_cell_setting 'triclinic'
loop_
_space_group_symop_operation_xyz
x,y,z
-x,-y,-z
loop_
_atom_site_type_symbol
_atom_site_label
_atom_site_fract_x
_atom_site_fract_y
_atom_site_fract_z
Si Si1 0.000000 0.000000 0.500000
Si Si2 0.414671 0.291927 0.614909
Si Si3 0.938524 0.370921 0.641549
Si Si4 0.680622 0.709747 0.879616
Si Si5 0.691967 0.375208 0.737117
Si Si6 0.231456 0.528012 0.859551
Si Si7 0.101490 0.018487 0.952480
Si Si8 0.724130 0.816562 0.103909
O O1 0.701493 0.176764 0.490432
O O2 0.066451 0.000112 0.222355
O O3 0.396930 0.217776 0.680918
O O4 0.226349 0.462580 0.440688
O O5 0.331819 0.305378 0.879771
O O6 0.114255 0.319911 0.370086
O O7 0.132084 0.242812 0.793672
O O8 0.753656 0.388491 0.795853
O O9 0.751993 0.583648 0.960886
O O10 0.402016 0.880512 0.827389
O O11 0.436609 0.451157 0.885666
O O12 0.684549 0.460528 0.437287
O O13 0.931144 0.190859 0.781124
O O14 0.953418 0.701023 0.914309
O O15 0.000000 0.000000 0.000000
O O16 0.500000 0.000000 0.000000
#
# Coordination Sequence:
#
# PCOD9052901 Si02
#       8
#     1   2   2   2   2   2   2   2
#     4  10  28  42  76 108 148 182 254 304 364 440
#     4  11  24  48  72 102 141 190 239 299 364 436
#     4  12  26  44  74 104 140 193 242 294 364 442
#     4  11  23  46  76 101 136 195 241 286 364 440
#     4  11  26  44  73 110 139 183 248 303 360 433
#     4  11  24  49  73 104 145 186 243 299 363 445
#     4  11  25  45  74 104 148 196 238 299 371 436
#     4  12  30  44  67 104 147 190 240 304 367 424
#
# _framework density 22.668361999999998
#
# number of rings (size 3 to 8) (size 9 to 14) (size 15 to 20)
#    0.000    0.800    4.000    1.600    9.333    2.133 
#    0.000    0.000    0.000    0.000    0.000    0.000 
#    0.000    0.000    0.000    0.000    0.000    0.000 
#
# Total GULP energy -83712.072334 kJ/mol
# GULP energy per Si atom -5580.804822 kJ/mol
# Density = 2.261677 g / cm^3
# Si number density = 22.668362 Si / 1000 Ang^3
#
#
#
# Elastic Constant Matrix: (Units=GPa)
#
#
# Indices 1 2 3 4 5 6 
#
# 1 122.5787 46.9874 25.9203 -22.3774 -11.6767 -8.3730
# 2 46.9874 173.8286 15.7030 -9.4099 -11.4314 -27.8120
# 3 25.9203 15.7030 29.8341 13.8222 3.8120 -8.8331
# 4 -22.3774 -9.4099 13.8222 43.8467 5.1074 5.1536
# 5 -11.6767 -11.4314 3.8120 5.1074 29.3702 -7.3450
# 6 -8.3730 -27.8120 -8.8331 5.1536 -7.3450 39.1359
#
#
#
# Elastic Compliance Matrix: (Units=1/GPa)
#
#
# Indices 1 2 3 4 5 6 
#
# 1 0.016432 -0.001940 -0.021835 0.014700 0.005113 -0.003767
# 2 -0.001940 0.007462 -0.001079 -0.000098 0.003625 0.005337
# 3 -0.021835 -0.001079 0.075036 -0.035685 -0.009007 0.014506
# 4 0.014700 -0.000098 -0.035685 0.042733 0.000372 -0.010536
# 5 0.005113 0.003625 -0.009007 0.000372 0.040914 0.009267
# 6 -0.003767 0.005337 0.014506 -0.010536 0.009267 0.034940
#
#
# Mechanical properties :
#
#
# Convention : Reuss Voigt Hill
#
# Bulk Modulus (GPa) = 20.31644 55.94031 38.12837
# Shear Modulus (GPa) = 17.62852 38.31260 27.97056
#
# Velocity S-wave (km/s) = 2.79170 4.11559 3.51651
# Velocity P-wave (km/s) = 4.40152 6.87861 5.77446
#
# Compressibility (1/GPa) = 0.04922123
#
# Stress axis : x y z
#
# Youngs Moduli (GPa) = 60.85619 134.01736 13.32696
#
# Poissons Ratio (x) = 0.26000 0.29099
# Poissons Ratio (y) = 0.11806 0.01439
# Poissons Ratio (z) = 1.32878 0.14467
#
# Static dielectric constant tensor:
#      x y z
#    x 1.990590 0.119860 -0.045950 
#    y 0.119860 1.918480 -0.032130 
#    z -0.045950 -0.032130 1.880640 
# 
# From -- ./inp_files/176340.got.cif
#   From: 2010.05.17/outbox.cif.g08.bks.cpg/sg2_89_cif.got.tgz:176340.got - 2010.06.03 11:33:40.
