data_PCOD9052649
_publ_section_title
;
Structure prediction by ZEFSAII (Michael W. Deem and Ramdas Pophale) SiO2 
 PCOD9052649
Probable space group: P -1
;
_chemical_formula_sum "Si O2"
_cell_formula_units_Z 13
_cell_length_a 7.508155
_cell_length_b 12.478965
_cell_length_c 10.796219
_cell_angle_alpha 143.817985
_cell_angle_beta 62.764283
_cell_angle_gamma 123.618763
_cell_volume 497.164422
_symmetry_space_group_name_H-M "P -1"
_symmetry_group_IT_number 2
_symmetry_cell_setting 'triclinic'
loop_
_space_group_symop_operation_xyz
x,y,z
-x,-y,-z
loop_
_atom_site_type_symbol
_atom_site_label
_atom_site_fract_x
_atom_site_fract_y
_atom_site_fract_z
Si Si1 0.273048 0.527133 0.569491
Si Si2 0.201175 0.153172 0.145444
Si Si3 0.500000 0.500000 0.000000
Si Si4 0.289800 0.032465 0.636939
Si Si5 0.146358 0.011106 0.310095
Si Si6 0.392953 0.909930 0.734333
Si Si7 0.982278 0.550193 0.908416
O O1 0.500000 0.500000 0.500000
O O2 0.192003 0.366172 0.336633
O O3 0.594499 0.888538 0.015120
O O4 0.302364 0.734368 0.694576
O O5 0.199345 0.105230 0.245264
O O6 0.000000 0.000000 0.000000
O O7 0.730002 0.463964 0.878447
O O8 0.922563 0.216731 0.902151
O O9 0.073613 0.957294 0.554080
O O10 0.247485 0.909936 0.663576
O O11 0.500000 0.000000 0.500000
O O12 0.365738 0.264325 0.847442
O O13 0.373683 0.090430 0.379891
O O14 0.874377 0.508765 0.294810
O O15 0.000000 0.500000 0.000000
#
# Coordination Sequence:
#
# PCOD9052649 Si02
#       7
#     2   2   1   2   2   2   2
#     4  12  27  46  82 117 150 203 264 313 393 462
#     4  12  25  47  73 110 153 195 249 318 380 450
#     4  10  26  48  70 102 152 198 248 298 380 458
#     4  11  27  46  72 108 145 198 253 307 374 460
#     4  11  23  48  72 104 151 192 247 320 378 447
#     4  12  25  48  76 108 154 196 246 325 385 448
#     4  11  25  49  76 109 153 205 251 318 386 461
#
# _framework density 26.148289999999999
#
# number of rings (size 3 to 8) (size 9 to 14) (size 15 to 20)
#    0.000    0.615    4.615    2.308    2.154    4.923 
#    0.000    0.000    0.000    0.000    0.000    0.000 
#    0.000    0.000    0.000    0.000    0.000    0.000 
#
# Total GULP energy -72467.157338 kJ/mol
# GULP energy per Si atom -5574.396718 kJ/mol
# Density = 2.608878 g / cm^3
# Si number density = 26.148290 Si / 1000 Ang^3
#
#
#
# Elastic Constant Matrix: (Units=GPa)
#
#
# Indices 1 2 3 4 5 6 
#
# 1 193.4526 75.1783 41.0184 -5.6515 11.8234 33.9159
# 2 75.1783 127.0309 24.1180 -0.6710 -7.4745 25.8542
# 3 41.0184 24.1180 95.0036 11.5991 -10.9668 -4.1948
# 4 -5.6515 -0.6710 11.5991 36.1436 11.9241 -10.5431
# 5 11.8234 -7.4745 -10.9668 11.9241 48.9369 3.8120
# 6 33.9159 25.8542 -4.1948 -10.5431 3.8120 52.4709
#
#
#
# Elastic Compliance Matrix: (Units=1/GPa)
#
#
# Indices 1 2 3 4 5 6 
#
# 1 0.008205 -0.003820 -0.003471 0.002737 -0.003787 -0.002874
# 2 -0.003820 0.011233 -0.000690 -0.002401 0.003369 -0.003848
# 3 -0.003471 -0.000690 0.013609 -0.005986 0.005078 0.002100
# 4 0.002737 -0.002401 -0.005986 0.035853 -0.011650 0.006986
# 5 -0.003787 0.003369 0.005078 -0.011650 0.026077 -0.003042
# 6 -0.002874 -0.003848 0.002100 0.006986 -0.003042 0.024604
#
#
# Mechanical properties :
#
#
# Convention : Reuss Voigt Hill
#
# Bulk Modulus (GPa) = 58.53201 77.34628 67.93914
# Shear Modulus (GPa) = 35.40112 45.85510 40.62811
#
# Velocity S-wave (km/s) = 3.68348 4.19221 3.94605
# Velocity P-wave (km/s) = 6.36584 7.28539 6.84108
#
# Compressibility (1/GPa) = 0.01708467
#
# Stress axis : x y z
#
# Youngs Moduli (GPa) = 121.87727 89.02600 73.47895
#
# Poissons Ratio (x) = 0.34011 0.25504
# Poissons Ratio (y) = 0.46561 0.05070
# Poissons Ratio (z) = 0.42302 0.06142
#
# Static dielectric constant tensor:
#      x y z
#    x 2.094430 0.048400 -0.019360 
#    y 0.048400 2.160700 -0.035970 
#    z -0.019360 -0.035970 2.201930 
# 
# From -- ./inp_files/341171.got.cif
#   From: 2010.05.17/outbox.cif.g08.bks.cpg/sg2_171_cif.got.tgz:341171.got - 2010.06.03 11:33:40.
