data_PCOD9052473
_publ_section_title
;
Structure prediction by ZEFSAII (Michael W. Deem and Ramdas Pophale) SiO2 
 PCOD9052473
Probable space group: P -1
;
_chemical_formula_sum "Si O2"
_cell_formula_units_Z 13
_cell_length_a 8.553981
_cell_length_b 7.899090
_cell_length_c 14.650807
_cell_angle_alpha 58.162516
_cell_angle_beta 42.675776
_cell_angle_gamma 48.963878
_cell_volume 504.203622
_symmetry_space_group_name_H-M "P -1"
_symmetry_group_IT_number 2
_symmetry_cell_setting 'triclinic'
loop_
_space_group_symop_operation_xyz
x,y,z
-x,-y,-z
loop_
_atom_site_type_symbol
_atom_site_label
_atom_site_fract_x
_atom_site_fract_y
_atom_site_fract_z
Si Si1 0.500000 0.500000 0.500000
Si Si2 0.575964 0.044224 0.056212
Si Si3 0.083986 0.353155 0.296336
Si Si4 0.532792 0.306914 0.388130
Si Si5 0.275751 0.436550 0.857353
Si Si6 0.816749 0.253904 0.780807
Si Si7 0.218796 0.077387 0.493913
O O1 0.380222 0.553341 0.425920
O O2 0.797806 0.450520 0.350322
O O3 0.320864 0.242672 0.154786
O O4 0.653363 0.812088 0.143348
O O5 0.796179 0.119617 0.916351
O O6 0.500000 0.000000 0.000000
O O7 0.096304 0.561273 0.281194
O O8 0.145475 0.158427 0.400895
O O9 0.757780 0.323139 0.233649
O O10 0.383912 0.199707 0.427342
O O11 0.596182 0.193335 0.496475
O O12 0.524060 0.381558 0.831617
O O13 0.000000 0.500000 0.000000
O O14 0.005576 0.121576 0.652036
#
# Coordination Sequence:
#
# PCOD9052473 Si02
#       7
#     1   2   2   2   2   2   2
#     4  12  28  40  74 112 148 184 246 312 360 440
#     4  10  26  46  72 103 147 200 241 301 371 438
#     4  12  25  48  74 112 148 194 247 303 375 440
#     4  11  25  45  72 107 149 188 245 308 363 439
#     4  11  24  44  72 102 141 194 248 300 357 435
#     4  11  22  47  72 103 147 198 239 301 372 436
#     4  11  24  47  76 106 144 198 245 302 376 441
#
# _framework density 25.783232999999999
#
# number of rings (size 3 to 8) (size 9 to 14) (size 15 to 20)
#    0.000    0.923    3.077    2.769   10.769    0.615 
#    0.000    0.769    0.000    0.000    0.000    0.000 
#    0.000    0.000    0.000    0.000    0.000    0.000 
#
# Total GULP energy -72371.361913 kJ/mol
# GULP energy per Si atom -5567.027839 kJ/mol
# Density = 2.572455 g / cm^3
# Si number density = 25.783233 Si / 1000 Ang^3
#
#
#
# Elastic Constant Matrix: (Units=GPa)
#
#
# Indices 1 2 3 4 5 6 
#
# 1 62.6588 20.0264 23.4436 -13.7773 -17.1795 1.8535
# 2 20.0264 110.0139 59.5463 -1.6242 0.2876 -7.6225
# 3 23.4436 59.5463 169.6837 -0.7348 -20.0163 -15.7844
# 4 -13.7773 -1.6242 -0.7348 64.6017 7.1710 3.3049
# 5 -17.1795 0.2876 -20.0163 7.1710 45.8481 -4.7113
# 6 1.8535 -7.6225 -15.7844 3.3049 -4.7113 27.3142
#
#
#
# Elastic Compliance Matrix: (Units=1/GPa)
#
#
# Indices 1 2 3 4 5 6 
#
# 1 0.019939 -0.003147 -0.001109 0.003585 0.006216 -0.002234
# 2 -0.003147 0.011892 -0.004015 -0.000132 -0.002911 0.000726
# 3 -0.001109 -0.004015 0.008329 -0.000903 0.003854 0.004542
# 4 0.003585 -0.000132 -0.000903 0.016611 -0.001972 -0.003152
# 5 0.006216 -0.002911 0.003854 -0.001972 0.026750 0.005845
# 6 -0.002234 0.000726 0.004542 -0.003152 0.005845 0.040979
#
#
# Mechanical properties :
#
#
# Convention : Reuss Voigt Hill
#
# Bulk Modulus (GPa) = 42.34294 60.93211 51.63752
# Shear Modulus (GPa) = 33.57635 43.50882 38.54258
#
# Velocity S-wave (km/s) = 3.61259 4.11236 3.87055
# Velocity P-wave (km/s) = 5.81888 6.79944 6.32818
#
# Compressibility (1/GPa) = 0.02361669
#
# Stress axis : x y z
#
# Youngs Moduli (GPa) = 50.15275 84.09254 120.06819
#
# Poissons Ratio (x) = 0.26466 0.13319
# Poissons Ratio (y) = 0.15785 0.48204
# Poissons Ratio (z) = 0.05563 0.33761
#
# Static dielectric constant tensor:
#      x y z
#    x 2.144610 0.109130 0.135030 
#    y 0.109130 3.265880 0.445050 
#    z 0.135030 0.445050 3.246060 
# 
# From -- ./inp_files/492211.got.cif
#   From: 2010.05.17/outbox.cif.g08.bks.cpg/sg2_247_cif.got.tgz:492211.got - 2010.06.03 11:33:40.
