data_PCOD9052311
_publ_section_title
;
Structure prediction by ZEFSAII (Michael W. Deem and Ramdas Pophale) SiO2 
 PCOD9052311
Probable space group: P -1
;
_chemical_formula_sum "Si O2"
_cell_formula_units_Z 14
_cell_length_a 8.496924
_cell_length_b 8.228813
_cell_length_c 9.304457
_cell_angle_alpha 113.116179
_cell_angle_beta 86.052468
_cell_angle_gamma 95.845244
_cell_volume 594.923407
_symmetry_space_group_name_H-M "P -1"
_symmetry_group_IT_number 2
_symmetry_cell_setting 'triclinic'
loop_
_space_group_symop_operation_xyz
x,y,z
-x,-y,-z
loop_
_atom_site_type_symbol
_atom_site_label
_atom_site_fract_x
_atom_site_fract_y
_atom_site_fract_z
Si Si1 0.174143 0.584099 0.989082
Si Si2 0.354927 0.219588 0.184076
Si Si3 0.675276 0.778444 0.148249
Si Si4 0.827993 0.088118 0.406741
Si Si5 0.340321 0.881117 0.274394
Si Si6 0.118998 0.346849 0.450099
Si Si7 0.697071 0.370324 0.297798
O O1 0.230061 0.724557 0.153991
O O2 0.288161 0.424447 0.923466
O O3 0.194302 0.667743 0.858870
O O4 0.000000 0.500000 0.000000
O O5 0.204748 0.316121 0.283659
O O6 0.516263 0.338318 0.249585
O O7 0.354812 0.045808 0.221925
O O8 0.345793 0.173792 0.001379
O O9 0.514541 0.813518 0.252500
O O10 0.813641 0.905840 0.256013
O O11 0.735511 0.068001 0.554362
O O12 0.735538 0.229628 0.368481
O O13 0.007432 0.174256 0.442205
O O14 0.252340 0.430988 0.580077
O O15 0.000000 0.500000 0.500000
#
# Coordination Sequence:
#
# PCOD9052311 Si02
#       7
#     2   2   2   2   2   2   2
#     4  12  29  46  75 107 148 189 244 303 365 431
#     4  12  26  46  78 103 149 196 242 296 358 438
#     4  12  27  47  73 109 145 192 242 301 363 428
#     4  11  26  47  76 105 150 187 244 302 363 426
#     4  12  26  49  72 110 147 191 246 294 362 435
#     4  10  26  44  73 107 148 188 242 299 364 420
#     4  11  24  48  73 105 145 187 249 289 367 424
#
# _framework density 23.532443000000001
#
# number of rings (size 3 to 8) (size 9 to 14) (size 15 to 20)
#    0.000    0.571    2.857    3.429   12.000    1.143 
#    0.000    0.000    0.000    0.000    0.000    0.000 
#    0.000    0.000    0.000    0.000    0.000    0.000 
#
# Total GULP energy -78503.807464 kJ/mol
# GULP energy per Si atom -5607.414819 kJ/mol
# Density = 2.347888 g / cm^3
# Si number density = 23.532443 Si / 1000 Ang^3
#
#
#
# Elastic Constant Matrix: (Units=GPa)
#
#
# Indices 1 2 3 4 5 6 
#
# 1 108.5384 54.9970 51.5911 13.0751 -12.1829 23.7662
# 2 54.9970 82.0703 40.5208 -7.1446 18.2523 15.8422
# 3 51.5911 40.5208 145.4827 -0.8925 12.6147 18.8084
# 4 13.0751 -7.1446 -0.8925 39.1703 14.3546 9.9989
# 5 -12.1829 18.2523 12.6147 14.3546 42.8760 9.5374
# 6 23.7662 15.8422 18.8084 9.9989 9.5374 39.2364
#
#
#
# Elastic Compliance Matrix: (Units=1/GPa)
#
#
# Indices 1 2 3 4 5 6 
#
# 1 0.039736 -0.032955 -0.007449 -0.031909 0.040156 -0.008821
# 2 -0.032955 0.044523 0.002774 0.033639 -0.040843 0.002011
# 3 -0.007449 0.002774 0.009594 0.006390 -0.008065 -0.000875
# 4 -0.031909 0.033639 0.006390 0.059259 -0.044764 -0.001538
# 5 0.040156 -0.040843 -0.008065 -0.044764 0.071701 -0.009988
# 6 -0.008821 0.002011 -0.000875 -0.001538 -0.009988 0.033257
#
#
# Mechanical properties :
#
#
# Convention : Reuss Voigt Hill
#
# Bulk Modulus (GPa) = 53.79009 70.03434 61.91222
# Shear Modulus (GPa) = 14.72629 36.85537 25.79083
#
# Velocity S-wave (km/s) = 2.50429 3.96176 3.31413
# Velocity P-wave (km/s) = 5.59190 7.12409 6.40399
#
# Compressibility (1/GPa) = 0.01859078
#
# Stress axis : x y z
#
# Youngs Moduli (GPa) = 25.16636 22.46034 104.22706
#
# Poissons Ratio (x) = 0.74019 0.77643
# Poissons Ratio (y) = 0.82937 -0.28909
# Poissons Ratio (z) = 0.18747 -0.06230
#
# Static dielectric constant tensor:
#      x y z
#    x 1.884720 -0.016440 0.032750 
#    y -0.016440 1.905230 -0.004480 
#    z 0.032750 -0.004480 1.855130 
# 
# From -- ./inp_files/156666.got.cif
#   From: 2010.05.17/outbox.cif.g08.bks.cpg/sg2_79_cif.got.tgz:156666.got - 2010.06.03 11:33:40.
