data_PCOD9052995
_publ_section_title
;
Structure prediction by ZEFSAII (Michael W. Deem and Ramdas Pophale) SiO2 
 PCOD9052995
Probable space group: P -1
;
_chemical_formula_sum "Si O2"
_cell_formula_units_Z 14
_cell_length_a 5.421044
_cell_length_b 12.093161
_cell_length_c 12.982511
_cell_angle_alpha 136.147648
_cell_angle_beta 92.414712
_cell_angle_gamma 73.091370
_cell_volume 545.822227
_symmetry_space_group_name_H-M "P -1"
_symmetry_group_IT_number 2
_symmetry_cell_setting 'triclinic'
loop_
_space_group_symop_operation_xyz
x,y,z
-x,-y,-z
loop_
_atom_site_type_symbol
_atom_site_label
_atom_site_fract_x
_atom_site_fract_y
_atom_site_fract_z
Si Si1 0.155796 0.027029 0.819565
Si Si2 0.308221 0.073576 0.272631
Si Si3 0.215303 0.610065 0.986332
Si Si4 0.477837 0.240657 0.772004
Si Si5 0.594594 0.517045 0.738720
Si Si6 0.899633 0.535978 0.406449
Si Si7 0.235166 0.875151 0.488653
O O1 0.044239 0.233603 0.951516
O O2 0.451631 0.942485 0.811155
O O3 0.193745 0.955851 0.654534
O O4 0.932877 0.959077 0.809237
O O5 0.215310 0.253804 0.452994
O O6 0.440199 0.912869 0.246750
O O7 0.304961 0.677637 0.137109
O O8 0.220253 0.418794 0.877277
O O9 0.440792 0.598783 0.896076
O O10 0.510605 0.163647 0.607161
O O11 0.346230 0.521599 0.664170
O O12 0.755109 0.315409 0.626590
O O13 0.835000 0.559736 0.721999
O O14 0.000000 0.500000 0.500000
O O15 0.000000 0.000000 0.500000
#
# Coordination Sequence:
#
# PCOD9052995 Si02
#       7
#     2   2   2   2   2   2   2
#     4  11  22  37  62  87 132 166 207 248 290 368
#     4  11  21  40  60  91 117 164 210 257 306 355
#     4   9  20  38  58  95 134 170 200 237 314 374
#     4   9  19  35  60  89 133 174 202 245 291 380
#     4  11  24  41  65  96 128 161 206 263 317 379
#     4  12  24  45  70  93 117 157 220 279 323 360
#     4  11  17  36  60  95 127 172 209 242 295 364
#
# _framework density 25.649374999999999
#
# number of rings (size 3 to 8) (size 9 to 14) (size 15 to 20)
#    0.000    1.429    5.714    0.429    0.000    3.429 
#    5.143    0.000    0.000   12.000    0.000    0.000 
#    0.000    0.000    0.000    0.000    0.000    0.000 
#
# Total GULP energy -78101.948677 kJ/mol
# GULP energy per Si atom -5578.710620 kJ/mol
# Density = 2.559100 g / cm^3
# Si number density = 25.649375 Si / 1000 Ang^3
#
#
#
# Elastic Constant Matrix: (Units=GPa)
#
#
# Indices 1 2 3 4 5 6 
#
# 1 155.5253 9.2494 25.2383 4.4050 -26.7883 -21.1900
# 2 9.2494 33.8052 33.6357 -2.3048 -6.6631 -19.2599
# 3 25.2383 33.6357 123.3284 17.0184 -25.6975 -6.4800
# 4 4.4050 -2.3048 17.0184 28.3135 -5.8770 0.8729
# 5 -26.7883 -6.6631 -25.6975 -5.8770 45.2277 5.1119
# 6 -21.1900 -19.2599 -6.4800 0.8729 5.1119 14.9585
#
#
#
# Elastic Compliance Matrix: (Units=1/GPa)
#
#
# Indices 1 2 3 4 5 6 
#
# 1 -0.025097 -0.206395 0.054053 -0.034115 0.012680 -0.280225
# 2 -0.206395 -1.264128 0.333172 -0.204521 0.055747 -1.782805
# 3 0.054053 0.333172 -0.077858 0.048829 -0.010193 0.472456
# 4 -0.034115 -0.204521 0.048829 0.006108 0.011521 -0.294801
# 5 0.012680 0.055747 -0.010193 0.011521 0.024934 0.076130
# 6 -0.280225 -1.782805 0.472456 -0.294801 0.076130 -2.429730
#
#
# Mechanical properties :
#
#
# Convention : Reuss Voigt Hill
#
# Bulk Modulus (GPa) = -0.99461 49.87842 24.44191
# Shear Modulus (GPa) = -1.12043 34.00230 16.44094
#
# Velocity S-wave (km/s) = -0.66164 3.64491 2.53452
# Velocity P-wave (km/s) = 0.98606 6.09937 4.25617
#
# Compressibility (1/GPa) = -1.00542341
#
# Stress axis : x y z
#
# Youngs Moduli (GPa) = -39.84557 -0.79106 -12.84386
#
# Poissons Ratio (x) = -0.16327 0.69425
# Poissons Ratio (y) = -8.22394 4.27922
# Poissons Ratio (z) = 2.15376 0.26356
#
# Static dielectric constant tensor:
#      x y z
#    x 2.285420 -0.044710 -0.190780 
#    y -0.044710 2.178640 0.270520 
#    z -0.190780 0.270520 2.473110 
# 
# From -- ./inp_files/484483.got.cif
#   From: 2010.05.17/outbox.cif.g08.bks.cpg/sg2_243_cif.got.tgz:484483.got - 2010.06.03 11:33:40.
