data_PCOD9052911
_publ_section_title
;
Structure prediction by ZEFSAII (Michael W. Deem and Ramdas Pophale) SiO2 
 PCOD9052911
Probable space group: P -1
;
_chemical_formula_sum "Si O2"
_cell_formula_units_Z 15
_cell_length_a 17.750339
_cell_length_b 11.843563
_cell_length_c 9.348550
_cell_angle_alpha 38.276708
_cell_angle_beta 125.428483
_cell_angle_gamma 150.588322
_cell_volume 561.720525
_symmetry_space_group_name_H-M "P -1"
_symmetry_group_IT_number 2
_symmetry_cell_setting 'triclinic'
loop_
_space_group_symop_operation_xyz
x,y,z
-x,-y,-z
loop_
_atom_site_type_symbol
_atom_site_label
_atom_site_fract_x
_atom_site_fract_y
_atom_site_fract_z
Si Si1 0.167131 0.165858 0.042631
Si Si2 0.500000 0.000000 0.500000
Si Si3 0.713440 0.176489 0.151038
Si Si4 0.683617 0.565415 0.335785
Si Si5 0.918861 0.648849 0.642706
Si Si6 0.056890 0.633851 0.587488
Si Si7 0.700296 0.734743 0.496028
Si Si8 0.442193 0.765669 0.929887
O O1 0.296434 0.525793 0.886282
O O2 0.151553 0.979771 0.323577
O O3 0.230390 0.183290 0.947185
O O4 0.000000 0.000000 0.000000
O O5 0.465927 0.769427 0.583559
O O6 0.577179 0.993446 0.728264
O O7 0.832020 0.343836 0.250475
O O8 0.684451 0.923143 0.322226
O O9 0.810417 0.432084 0.877069
O O10 0.569022 0.072805 0.146033
O O11 0.826028 0.651876 0.448121
O O12 0.648481 0.609248 0.400705
O O13 0.934860 0.491859 0.721025
O O14 0.105469 0.999003 0.544730
O O15 0.000000 0.500000 0.500000
O O16 0.400323 0.542495 0.219661
#
# Coordination Sequence:
#
# PCOD9052911 Si02
#       8
#     2   1   2   2   2   2   2   2
#     4  11  20  35  60  94 130 173 213 257 334 388
#     4  10  28  46  68  94 120 184 236 270 322 370
#     4  11  24  39  64 104 138 167 211 267 335 402
#     4  11  23  41  67  91 131 176 222 269 319 390
#     4  11  22  39  63 106 137 173 205 267 337 400
#     4  11  22  33  57 100 145 171 204 261 330 405
#     4  11  22  41  68 103 135 166 211 265 342 393
#     4  11  22  45  66  88 131 173 220 277 315 389
#
# _framework density 26.703672000000001
#
# number of rings (size 3 to 8) (size 9 to 14) (size 15 to 20)
#    0.000    1.067    5.333    2.800    7.467    0.533 
#    0.000    1.333    0.000    0.000    0.000    0.000 
#    0.000    0.000    0.000    0.000    0.000    0.000 
#
# Total GULP energy -83623.872956 kJ/mol
# GULP energy per Si atom -5574.924864 kJ/mol
# Density = 2.664289 g / cm^3
# Si number density = 26.703672 Si / 1000 Ang^3
#
#
#
# Elastic Constant Matrix: (Units=GPa)
#
#
# Indices 1 2 3 4 5 6 
#
# 1 103.6750 55.4505 39.0631 11.3072 -17.1067 -35.7109
# 2 55.4505 111.6024 -2.5529 23.3190 -12.0125 -22.4566
# 3 39.0631 -2.5529 135.8491 18.3533 -44.3699 -11.9691
# 4 11.3072 23.3190 18.3533 31.3952 -15.7784 -2.9703
# 5 -17.1067 -12.0125 -44.3699 -15.7784 57.8053 9.4318
# 6 -35.7109 -22.4566 -11.9691 -2.9703 9.4318 58.1449
#
#
#
# Elastic Compliance Matrix: (Units=1/GPa)
#
#
# Indices 1 2 3 4 5 6 
#
# 1 0.018211 -0.008515 -0.005492 0.003206 -0.000875 0.007071
# 2 -0.008515 0.015913 0.004722 -0.010758 0.001291 0.001129
# 3 -0.005492 0.004722 0.012048 -0.004931 0.007341 -0.000512
# 4 0.003206 -0.010758 -0.004931 0.045195 0.007611 -0.002127
# 5 -0.000875 0.001291 0.007341 0.007611 0.025390 -0.002257
# 6 0.007071 0.001129 -0.000512 -0.002127 -0.002257 0.022129
#
#
# Mechanical properties :
#
#
# Convention : Reuss Voigt Hill
#
# Bulk Modulus (GPa) = 36.23033 59.44977 47.84005
# Shear Modulus (GPa) = 30.00185 46.74681 38.37433
#
# Velocity S-wave (km/s) = 3.35552 4.18853 3.79495
# Velocity P-wave (km/s) = 5.34880 6.76038 6.09559
#
# Compressibility (1/GPa) = 0.02760118
#
# Stress axis : x y z
#
# Youngs Moduli (GPa) = 54.91245 62.84120 83.00180
#
# Poissons Ratio (x) = 0.53509 0.45587
# Poissons Ratio (y) = 0.46758 -0.39193
# Poissons Ratio (z) = 0.30159 -0.29673
#
# Static dielectric constant tensor:
#      x y z
#    x 1.938220 -0.069660 0.121110 
#    y -0.069660 2.165230 -0.017730 
#    z 0.121110 -0.017730 2.005840 
# 
# From -- ./inp_files/332773.got.cif
#   From: 2010.05.17/outbox.cif.g08.bks.cpg/sg2_167_cif.got.tgz:332773.got - 2010.06.03 11:33:40.
