data_PCOD9052015
_publ_section_title
;
Structure prediction by ZEFSAII (Michael W. Deem and Ramdas Pophale) SiO2 
 PCOD9052015
Probable space group: P -1
;
_chemical_formula_sum "Si O2"
_cell_formula_units_Z 10
_cell_length_a 17.486550
_cell_length_b 4.890192
_cell_length_c 5.240570
_cell_angle_alpha 92.783005
_cell_angle_beta 106.713982
_cell_angle_gamma 58.095989
_cell_volume 361.403837
_symmetry_space_group_name_H-M "P -1"
_symmetry_group_IT_number 2
_symmetry_cell_setting 'triclinic'
loop_
_space_group_symop_operation_xyz
x,y,z
-x,-y,-z
loop_
_atom_site_type_symbol
_atom_site_label
_atom_site_fract_x
_atom_site_fract_y
_atom_site_fract_z
Si Si1 0.844205 0.337140 0.888212
Si Si2 0.685420 0.549563 0.395011
Si Si3 0.718967 0.954360 0.090990
Si Si4 0.996215 0.696497 0.254474
Si Si5 0.485078 0.708124 0.248181
O O1 0.752369 0.351908 0.687487
O O2 0.913206 0.275672 0.712800
O O3 0.806573 0.682696 0.001686
O O4 0.905267 0.056348 0.139159
O O5 0.717499 0.786915 0.344905
O O6 0.572048 0.759420 0.335031
O O7 0.706909 0.288007 0.182045
O O8 0.624643 0.015289 0.861455
O O9 0.000000 0.500000 0.500000
O O10 0.000000 0.500000 0.000000
O O11 0.500000 0.500000 0.500000
O O12 0.500000 0.500000 0.000000
#
# Coordination Sequence:
#
# PCOD9052015 Si02
#       5
#     2   2   2   2   2
#     4  11  30  49  84 120 160 211 278 339 410 494
#     4  11  28  49  81 118 165 212 273 327 400 482
#     4  11  28  49  81 118 165 212 273 327 400 482
#     4  11  30  55  83 114 166 208 270 346 428 488
#     4  10  25  49  75 117 168 216 262 329 395 474
#
# _framework density 27.669878000000001
#
# number of rings (size 3 to 8) (size 9 to 14) (size 15 to 20)
#    0.000    1.200    0.000    0.600   22.400    2.400 
#    0.000    3.000    0.000    0.000    0.000    0.000 
#    0.000    0.000    0.000    0.000    0.000    0.000 
#
# Total GULP energy -56129.375099 kJ/mol
# GULP energy per Si atom -5612.937510 kJ/mol
# Density = 2.760690 g / cm^3
# Si number density = 27.669878 Si / 1000 Ang^3
#
#
#
# Elastic Constant Matrix: (Units=GPa)
#
#
# Indices 1 2 3 4 5 6 
#
# 1 111.8373 40.9107 45.9824 -10.6683 -0.8719 -24.7046
# 2 40.9107 150.2672 53.7350 -19.2979 5.1804 -20.8127
# 3 45.9824 53.7350 193.0159 -16.7315 -20.4420 -13.8782
# 4 -10.6683 -19.2979 -16.7315 54.7882 0.4375 13.5706
# 5 -0.8719 5.1804 -20.4420 0.4375 59.8699 -7.9090
# 6 -24.7046 -20.8127 -13.8782 13.5706 -7.9090 51.5288
#
#
#
# Elastic Compliance Matrix: (Units=1/GPa)
#
#
# Indices 1 2 3 4 5 6 
#
# 1 0.011311 -0.001847 -0.001855 -0.000065 0.000251 0.004233
# 2 -0.001847 0.008218 -0.001728 0.001683 -0.001163 0.001347
# 3 -0.001855 -0.001728 0.006452 0.000914 0.002355 0.000271
# 4 -0.000065 0.001683 0.000914 0.020237 -0.000580 -0.004524
# 5 0.000251 -0.001163 0.002355 -0.000580 0.018039 0.003206
# 6 0.004233 0.001347 0.000271 -0.004524 0.003206 0.023736
#
#
# Mechanical properties :
#
#
# Convention : Reuss Voigt Hill
#
# Bulk Modulus (GPa) = 66.13472 81.81962 73.97717
# Shear Modulus (GPa) = 48.12604 54.20352 51.16478
#
# Velocity S-wave (km/s) = 4.17501 4.43079 4.30480
# Velocity P-wave (km/s) = 6.86980 7.47061 7.17649
#
# Compressibility (1/GPa) = 0.01512065
#
# Stress axis : x y z
#
# Youngs Moduli (GPa) = 88.41257 121.67776 154.98615
#
# Poissons Ratio (x) = 0.22470 0.28753
# Poissons Ratio (y) = 0.16327 0.26788
# Poissons Ratio (z) = 0.16402 0.21031
#
# Static dielectric constant tensor:
#      x y z
#    x 2.264940 0.007630 0.059480 
#    y 0.007630 2.114600 -0.023730 
#    z 0.059480 -0.023730 2.150750 
# 
# From -- ./inp_files/5412.got.cif
#   From: 2010.05.17/outbox.cif.g08.bks.cpg/sg2_3_cif.got.tgz:5412.got - 2010.06.03 11:33:40.
