data_PCOD9052137
_publ_section_title
;
Structure prediction by ZEFSAII (Michael W. Deem and Ramdas Pophale) SiO2 
 PCOD9052137
Probable space group: P -1
;
_chemical_formula_sum "Si O2"
_cell_formula_units_Z 15
_cell_length_a 5.909840
_cell_length_b 11.992361
_cell_length_c 17.811575
_cell_angle_alpha 144.550108
_cell_angle_beta 51.684790
_cell_angle_gamma 125.172733
_cell_volume 567.426053
_symmetry_space_group_name_H-M "P -1"
_symmetry_group_IT_number 2
_symmetry_cell_setting 'triclinic'
loop_
_space_group_symop_operation_xyz
x,y,z
-x,-y,-z
loop_
_atom_site_type_symbol
_atom_site_label
_atom_site_fract_x
_atom_site_fract_y
_atom_site_fract_z
Si Si1 0.675444 0.244238 0.772751
Si Si2 0.000000 0.000000 0.000000
Si Si3 0.065410 0.375027 0.988840
Si Si4 0.482937 0.292749 0.120320
Si Si5 0.894910 0.277894 0.425532
Si Si6 0.553305 0.897529 0.712673
Si Si7 0.790415 0.318428 0.214874
Si Si8 0.225974 0.660628 0.354542
O O1 0.852714 0.455293 0.872580
O O2 0.758567 0.204953 0.648010
O O3 0.715511 0.089358 0.743805
O O4 0.335133 0.264044 0.858629
O O5 0.766503 0.888405 0.923838
O O6 0.037842 0.218499 0.068339
O O7 0.763730 0.237460 0.991671
O O8 0.000000 0.500000 0.000000
O O9 0.552938 0.351661 0.224033
O O10 0.433986 0.499743 0.209793
O O11 0.665956 0.194775 0.360716
O O12 0.720619 0.253034 0.527078
O O13 0.000000 0.500000 0.500000
O O14 0.193625 0.198662 0.349262
O O15 0.311403 0.878082 0.820404
O O16 0.913806 0.512352 0.339457
#
# Coordination Sequence:
#
# PCOD9052137 Si02
#       8
#     2   1   2   2   2   2   2   2
#     4  11  27  46  69 115 145 199 255 309 374 462
#     4  10  26  38  62 112 144 184 248 308 372 442
#     4  11  24  44  74 101 157 203 243 295 390 462
#     4  11  23  43  72 106 143 204 245 313 371 463
#     4  12  27  51  78 110 145 202 254 326 387 450
#     4  12  30  46  78 111 152 191 262 321 379 446
#     4  11  24  43  68 103 144 197 237 312 374 453
#     4  11  24  45  74  99 145 192 262 298 386 447
#
# _framework density 26.435162999999999
#
# number of rings (size 3 to 8) (size 9 to 14) (size 15 to 20)
#    0.000    0.800    4.000    1.600    9.333    1.067 
#    0.000    0.000    0.000    0.000    0.000    0.000 
#    0.000    0.000    0.000    0.000    0.000    0.000 
#
# Total GULP energy -83579.695102 kJ/mol
# GULP energy per Si atom -5571.979673 kJ/mol
# Density = 2.637500 g / cm^3
# Si number density = 26.435163 Si / 1000 Ang^3
#
#
#
# Elastic Constant Matrix: (Units=GPa)
#
#
# Indices 1 2 3 4 5 6 
#
# 1 134.5081 32.8449 31.5145 6.4213 -11.4279 -17.2861
# 2 32.8449 153.3661 14.8936 4.0879 -16.9344 -27.5917
# 3 31.5145 14.8936 40.4114 -9.2874 -5.3019 -3.8064
# 4 6.4213 4.0879 -9.2874 40.4556 -5.8686 0.9781
# 5 -11.4279 -16.9344 -5.3019 -5.8686 37.3620 1.3856
# 6 -17.2861 -27.5917 -3.8064 0.9781 1.3856 59.4117
#
#
#
# Elastic Compliance Matrix: (Units=1/GPa)
#
#
# Indices 1 2 3 4 5 6 
#
# 1 0.009986 -0.000806 -0.007909 -0.003226 0.000984 0.002054
# 2 -0.000806 0.007766 -0.001732 -0.000726 0.002795 0.003208
# 3 -0.007909 -0.001732 0.034106 0.009754 0.003211 -0.001156
# 4 -0.003226 -0.000726 0.009754 0.028232 0.004548 -0.001222
# 5 0.000984 0.002795 0.003211 0.004548 0.029465 0.001028
# 6 0.002054 0.003208 -0.001156 -0.001222 0.001028 0.018841
#
#
# Mechanical properties :
#
#
# Convention : Reuss Voigt Hill
#
# Bulk Modulus (GPa) = 32.29605 54.08798 43.19201
# Shear Modulus (GPa) = 31.32595 44.04804 37.68699
#
# Velocity S-wave (km/s) = 3.44613 4.08642 3.77986
# Velocity P-wave (km/s) = 5.29887 6.53989 5.95181
#
# Compressibility (1/GPa) = 0.03096354
#
# Stress axis : x y z
#
# Youngs Moduli (GPa) = 100.13904 128.76188 29.32066
#
# Poissons Ratio (x) = 0.10382 0.23191
# Poissons Ratio (y) = 0.08074 0.05077
# Poissons Ratio (z) = 0.79203 0.22297
#
# Static dielectric constant tensor:
#      x y z
#    x 2.538460 0.097300 -0.272530 
#    y 0.097300 2.184850 -0.272270 
#    z -0.272530 -0.272270 2.571210 
# 
# From -- ./inp_files/229752.got.cif
#   From: 2010.05.17/outbox.cif.g08.bks.cpg/sg2_115_cif.got.tgz:229752.got - 2010.06.03 11:33:40.
