data_PCOD9052823
_publ_section_title
;
Structure prediction by ZEFSAII (Michael W. Deem and Ramdas Pophale) SiO2 
 PCOD9052823
Probable space group: P -1
;
_chemical_formula_sum "Si O2"
_cell_formula_units_Z 16
_cell_length_a 12.193970
_cell_length_b 6.914771
_cell_length_c 26.986657
_cell_angle_alpha 74.195459
_cell_angle_beta 146.399342
_cell_angle_gamma 132.137409
_cell_volume 668.638344
_symmetry_space_group_name_H-M "P -1"
_symmetry_group_IT_number 2
_symmetry_cell_setting 'triclinic'
loop_
_space_group_symop_operation_xyz
x,y,z
-x,-y,-z
loop_
_atom_site_type_symbol
_atom_site_label
_atom_site_fract_x
_atom_site_fract_y
_atom_site_fract_z
Si Si1 0.739101 0.179079 0.816465
Si Si2 0.686945 0.811377 0.508543
Si Si3 0.245183 0.943751 0.935863
Si Si4 0.403609 0.877658 0.606651
Si Si5 0.137215 0.092854 0.975423
Si Si6 0.277079 0.296113 0.771202
Si Si7 0.649000 0.308108 0.860137
Si Si8 0.717541 0.758980 0.682052
O O1 0.474517 0.009647 0.774549
O O2 0.004192 0.584200 0.900399
O O3 0.967327 0.169774 0.901326
O O4 0.596872 0.103534 0.714199
O O5 0.500000 0.500000 0.500000
O O6 0.617302 0.636812 0.442665
O O7 0.552767 0.920445 0.434599
O O8 0.083308 0.185802 0.653900
O O9 0.989489 0.846768 0.808704
O O10 0.359518 0.200549 0.003542
O O11 0.500000 0.000000 0.000000
O O12 0.569737 0.808644 0.657083
O O13 0.000000 0.500000 0.500000
O O14 0.392429 0.312019 0.104306
O O15 0.789957 0.655968 0.879218
O O16 0.369365 0.135484 0.810240
O O17 0.962116 0.053641 0.709784
O O18 0.000000 0.500000 0.000000
#
# Coordination Sequence:
#
# PCOD9052823 Si02
#       8
#     2   2   2   2   2   2   2   2
#     4  11  24  44  68 104 147 185 244 312 373 441
#     4  10  26  51  72 105 152 199 249 304 377 446
#     4  11  24  41  73 105 143 187 232 307 383 442
#     4  12  28  46  78 112 143 200 257 313 375 439
#     4  11  24  43  68 109 144 186 247 309 369 445
#     4  11  25  44  72 100 146 199 242 301 369 444
#     4  11  25  43  67 105 147 192 248 298 377 449
#     4  11  25  48  71 106 147 188 254 306 371 450
#
# _framework density 23.929227999999998
#
# number of rings (size 3 to 8) (size 9 to 14) (size 15 to 20)
#    0.000    1.000    3.750    1.125    7.000    3.500 
#    2.250    0.000    0.000    0.000    0.000    0.000 
#    0.000    0.000    0.000    0.000    0.000    0.000 
#
# Total GULP energy -89146.435342 kJ/mol
# GULP energy per Si atom -5571.652209 kJ/mol
# Density = 2.387476 g / cm^3
# Si number density = 23.929228 Si / 1000 Ang^3
#
#
#
# Elastic Constant Matrix: (Units=GPa)
#
#
# Indices 1 2 3 4 5 6 
#
# 1 160.3448 26.8984 74.1814 -12.6339 -21.6177 -55.2245
# 2 26.8984 95.0355 41.6384 -17.1452 -10.6813 -16.1503
# 3 74.1814 41.6384 142.7472 -19.4600 -29.1369 -17.3614
# 4 -12.6339 -17.1452 -19.4600 29.2862 0.4336 -4.0964
# 5 -21.6177 -10.6813 -29.1369 0.4336 47.1606 -3.6455
# 6 -55.2245 -16.1503 -17.3614 -4.0964 -3.6455 37.9645
#
#
#
# Elastic Compliance Matrix: (Units=1/GPa)
#
#
# Indices 1 2 3 4 5 6 
#
# 1 0.022249 0.005618 -0.004637 0.014576 0.011200 0.035282
# 2 0.005618 0.015485 -0.002916 0.011597 0.005348 0.015191
# 3 -0.004637 -0.002916 0.011305 0.003457 0.004007 -0.002058
# 4 0.014576 0.011597 0.003457 0.054196 0.013641 0.034874
# 5 0.011200 0.005348 0.004007 0.013641 0.031827 0.024927
# 6 0.035282 0.015191 -0.002058 0.034874 0.024927 0.089341
#
#
# Mechanical properties :
#
#
# Convention : Reuss Voigt Hill
#
# Bulk Modulus (GPa) = 22.13893 75.95154 49.04523
# Shear Modulus (GPa) = 20.54840 39.90956 30.22898
#
# Velocity S-wave (km/s) = 2.93356 4.08832 3.55810
# Velocity P-wave (km/s) = 4.55481 7.35492 6.11723
#
# Compressibility (1/GPa) = 0.04516931
#
# Stress axis : x y z
#
# Youngs Moduli (GPa) = 44.94543 64.57928 88.45951
#
# Poissons Ratio (x) = -0.36284 0.41018
# Poissons Ratio (y) = -0.25252 0.25797
# Poissons Ratio (z) = 0.20841 0.18833
#
# Static dielectric constant tensor:
#      x y z
#    x 2.631320 0.282660 -0.173600 
#    y 0.282660 2.121630 0.026570 
#    z -0.173600 0.026570 1.808690 
# 
# From -- ./inp_files/622870.got.cif
#   From: 2010.05.17/outbox.cif.g08.bks.cpg/sg2_312_cif.got.tgz:622870.got - 2010.06.03 11:33:40.
