data_PCOD9052647
_publ_section_title
;
Structure prediction by ZEFSAII (Michael W. Deem and Ramdas Pophale) SiO2 
 PCOD9052647
Probable space group: P -1
;
_chemical_formula_sum "Si O2"
_cell_formula_units_Z 14
_cell_length_a 14.700615
_cell_length_b 12.047617
_cell_length_c 8.462215
_cell_angle_alpha 138.666926
_cell_angle_beta 72.260113
_cell_angle_gamma 139.115853
_cell_volume 514.161095
_symmetry_space_group_name_H-M "P -1"
_symmetry_group_IT_number 2
_symmetry_cell_setting 'triclinic'
loop_
_space_group_symop_operation_xyz
x,y,z
-x,-y,-z
loop_
_atom_site_type_symbol
_atom_site_label
_atom_site_fract_x
_atom_site_fract_y
_atom_site_fract_z
Si Si1 0.869688 0.888477 0.791367
Si Si2 0.532714 0.180168 0.317511
Si Si3 0.500000 0.000000 0.500000
Si Si4 0.575720 0.737663 0.084349
Si Si5 0.022384 0.700566 0.603748
Si Si6 0.040870 0.370526 0.785407
Si Si7 0.000000 0.000000 0.500000
Si Si8 0.695520 0.829447 0.568915
O O1 0.703732 0.541499 0.569490
O O2 0.781023 0.922529 0.790749
O O3 0.967219 0.951094 0.657111
O O4 0.002713 0.168632 0.142958
O O5 0.377179 0.090920 0.322887
O O6 0.552037 0.118385 0.408458
O O7 0.500000 0.000000 0.000000
O O8 0.559288 0.895520 0.331149
O O9 0.776353 0.993283 0.226345
O O10 0.500000 0.500000 0.000000
O O11 0.459449 0.528574 0.768246
O O12 0.919488 0.550633 0.334152
O O13 0.000000 0.500000 0.500000
O O14 0.150216 0.395548 0.853070
O O15 0.854392 0.002691 0.549377
O O16 0.000000 0.500000 0.000000
#
# Coordination Sequence:
#
# PCOD9052647 Si02
#       8
#     2   2   1   2   2   2   1   2
#     4  11  25  48  75 106 151 204 251 314 388 452
#     4  12  26  43  74 116 151 198 256 316 382 460
#     4  12  26  44  74 116 148 194 258 310 376 462
#     4  12  23  49  74 108 150 199 249 312 381 453
#     4  12  25  45  75 111 146 197 254 312 384 462
#     4  11  25  48  74 102 147 196 247 310 382 453
#     4  10  26  48  70 102 142 200 248 304 374 448
#     4  11  23  48  76 102 152 198 250 311 381 453
#
# _framework density 27.228822999999998
#
# number of rings (size 3 to 8) (size 9 to 14) (size 15 to 20)
#    0.000    0.571    4.286    3.000    4.000    1.714 
#   12.857    0.000    0.000    0.000    0.000    0.000 
#    0.000    0.000    0.000    0.000    0.000    0.000 
#
# Total GULP energy -78036.547836 kJ/mol
# GULP energy per Si atom -5574.039131 kJ/mol
# Density = 2.716685 g / cm^3
# Si number density = 27.228823 Si / 1000 Ang^3
#
#
#
# Elastic Constant Matrix: (Units=GPa)
#
#
# Indices 1 2 3 4 5 6 
#
# 1 100.4633 43.0258 16.0886 13.2223 -27.0081 -1.6760
# 2 43.0258 207.1538 44.0115 -2.8757 -11.6844 -23.3320
# 3 16.0886 44.0115 90.5085 -15.9909 -21.1490 -5.4388
# 4 13.2223 -2.8757 -15.9909 58.9016 5.8229 -10.2734
# 5 -27.0081 -11.6844 -21.1490 5.8229 56.2393 14.3127
# 6 -1.6760 -23.3320 -5.4388 -10.2734 14.3127 59.0035
#
#
#
# Elastic Compliance Matrix: (Units=1/GPa)
#
#
# Indices 1 2 3 4 5 6 
#
# 1 0.013686 -0.002784 -0.000419 -0.004602 0.007150 -0.003286
# 2 -0.002784 0.006177 -0.002617 0.000869 -0.001819 0.002715
# 3 -0.000419 -0.002617 0.013951 0.003301 0.004213 -0.000208
# 4 -0.004602 0.000869 0.003301 0.020243 -0.004170 0.005054
# 5 0.007150 -0.001819 0.004213 -0.004170 0.024588 -0.006818
# 6 -0.003286 0.002715 -0.000208 0.005054 -0.006818 0.020443
#
#
# Mechanical properties :
#
#
# Convention : Reuss Voigt Hill
#
# Bulk Modulus (GPa) = 45.09869 67.15303 56.12586
# Shear Modulus (GPa) = 42.33008 54.49552 48.41280
#
# Velocity S-wave (km/s) = 3.94713 4.47854 4.22121
# Velocity P-wave (km/s) = 6.11325 7.17350 6.66450
#
# Compressibility (1/GPa) = 0.02217359
#
# Stress axis : x y z
#
# Youngs Moduli (GPa) = 73.06536 161.89338 71.68093
#
# Poissons Ratio (x) = 0.45078 0.03002
# Poissons Ratio (y) = 0.20345 0.18758
# Poissons Ratio (z) = 0.03060 0.42367
#
# Static dielectric constant tensor:
#      x y z
#    x 1.091720 0.199410 0.176820 
#    y 0.199410 2.028550 -0.016910 
#    z 0.176820 -0.016910 2.536940 
# 
# From -- ./inp_files/333899.got.cif
#   From: 2010.05.17/outbox.cif.g08.bks.cpg/sg2_167_cif.got.tgz:333899.got - 2010.06.03 11:33:40.
