data_PCOD9052041
_publ_section_title
;
Structure prediction by ZEFSAII (Michael W. Deem and Ramdas Pophale) SiO2 
 PCOD9052041
Probable space group: P -1
;
_chemical_formula_sum "Si O2"
_cell_formula_units_Z 14
_cell_length_a 9.621645
_cell_length_b 8.450891
_cell_length_c 9.701108
_cell_angle_alpha 49.747100
_cell_angle_beta 110.872336
_cell_angle_gamma 122.193075
_cell_volume 509.376182
_symmetry_space_group_name_H-M "P -1"
_symmetry_group_IT_number 2
_symmetry_cell_setting 'triclinic'
loop_
_space_group_symop_operation_xyz
x,y,z
-x,-y,-z
loop_
_atom_site_type_symbol
_atom_site_label
_atom_site_fract_x
_atom_site_fract_y
_atom_site_fract_z
Si Si1 0.392939 0.046515 0.558075
Si Si2 0.881030 0.791028 0.735445
Si Si3 0.615174 0.672710 0.063343
Si Si4 0.688483 0.269578 0.036095
Si Si5 0.896457 0.113411 0.998010
Si Si6 0.280163 0.613751 0.528271
Si Si7 0.018295 0.611441 0.637676
O O1 0.266117 0.149022 0.405665
O O2 0.557594 0.231627 0.587880
O O3 0.500000 0.000000 0.500000
O O4 0.172132 0.711212 0.529365
O O5 0.991516 0.758127 0.670383
O O6 0.999769 0.942241 0.814051
O O7 0.797248 0.541015 0.916367
O O8 0.655785 0.514403 0.269448
O O9 0.787034 0.901107 0.979351
O O10 0.500000 0.500000 0.000000
O O11 0.492909 0.762009 0.039931
O O12 0.768096 0.166597 0.013416
O O13 0.683377 0.160772 0.245202
O O14 0.996718 0.357034 0.819736
O O15 0.145500 0.445111 0.475063
#
# Coordination Sequence:
#
# PCOD9052041 Si02
#       7
#     2   2   2   2   2   2   2
#     4  12  28  45  81 119 163 215 273 330 404 482
#     4  11  27  51  84 115 167 214 266 335 402 484
#     4  12  27  47  79 114 162 212 267 337 403 477
#     4  11  25  51  80 117 161 213 272 332 397 489
#     4  11  27  50  81 117 157 221 271 327 411 483
#     4  11  26  48  75 119 165 208 272 337 399 475
#     4  10  25  49  79 115 167 213 267 337 404 480
#
# _framework density 27.484597999999998
#
# number of rings (size 3 to 8) (size 9 to 14) (size 15 to 20)
#    0.000    0.857    1.429    3.857   10.000    5.143 
#    0.000    0.000    0.000    0.000    0.000    0.000 
#    0.000    0.000    0.000    0.000    0.000    0.000 
#
# Total GULP energy -78374.126398 kJ/mol
# GULP energy per Si atom -5598.151886 kJ/mol
# Density = 2.742204 g / cm^3
# Si number density = 27.484598 Si / 1000 Ang^3
#
#
#
# Elastic Constant Matrix: (Units=GPa)
#
#
# Indices 1 2 3 4 5 6 
#
# 1 201.9057 53.2968 62.2885 1.6073 20.4253 3.2769
# 2 53.2968 121.5792 61.2525 -2.1854 0.8572 6.8685
# 3 62.2885 61.2525 151.7802 -2.4082 23.3125 11.3655
# 4 1.6073 -2.1854 -2.4082 47.7763 11.9952 4.4115
# 5 20.4253 0.8572 23.3125 11.9952 53.9645 4.3484
# 6 3.2769 6.8685 11.3655 4.4115 4.3484 34.5199
#
#
#
# Elastic Compliance Matrix: (Units=1/GPa)
#
#
# Indices 1 2 3 4 5 6 
#
# 1 0.006085 -0.001928 -0.001501 0.000003 -0.001666 0.000510
# 2 -0.001928 0.011117 -0.003989 -0.000135 0.002387 -0.000999
# 3 -0.001501 -0.003989 0.009544 0.001445 -0.003657 -0.001930
# 4 0.000003 -0.000135 0.001445 0.022607 -0.005434 -0.002654
# 5 -0.001666 0.002387 -0.003657 -0.005434 0.022007 -0.001190
# 6 0.000510 -0.000999 -0.001930 -0.002654 -0.001190 0.030244
#
#
# Mechanical properties :
#
#
# Convention : Reuss Voigt Hill
#
# Bulk Modulus (GPa) = 83.97292 92.10451 88.03871
# Shear Modulus (GPa) = 41.52450 47.14729 44.33589
#
# Velocity S-wave (km/s) = 3.89115 4.14624 4.02072
# Velocity P-wave (km/s) = 7.12791 7.51704 7.32506
#
# Compressibility (1/GPa) = 0.01190860
#
# Stress axis : x y z
#
# Youngs Moduli (GPa) = 164.33363 89.94994 104.78152
#
# Poissons Ratio (x) = 0.17344 0.15733
# Poissons Ratio (y) = 0.31686 0.41799
# Poissons Ratio (z) = 0.24674 0.35883
#
# Static dielectric constant tensor:
#      x y z
#    x 2.122370 0.098420 -0.027370 
#    y 0.098420 2.499560 0.027770 
#    z -0.027370 0.027770 2.099350 
# 
# From -- ./inp_files/416407.got.cif
#   From: 2010.05.17/outbox.cif.g08.bks.cpg/sg2_209_cif.got.tgz:416407.got - 2010.06.03 11:33:40.
