data_PCOD9052885
_publ_section_title
;
Structure prediction by ZEFSAII (Michael W. Deem and Ramdas Pophale) SiO2 
 PCOD9052885
Probable space group: P -1
;
_chemical_formula_sum "Si O2"
_cell_formula_units_Z 16
_cell_length_a 5.746023
_cell_length_b 12.186966
_cell_length_c 25.088818
_cell_angle_alpha 30.577295
_cell_angle_beta 113.522236
_cell_angle_gamma 126.591339
_cell_volume 689.008628
_symmetry_space_group_name_H-M "P -1"
_symmetry_group_IT_number 2
_symmetry_cell_setting 'triclinic'
loop_
_space_group_symop_operation_xyz
x,y,z
-x,-y,-z
loop_
_atom_site_type_symbol
_atom_site_label
_atom_site_fract_x
_atom_site_fract_y
_atom_site_fract_z
Si Si1 0.930922 0.163040 0.965239
Si Si2 0.576398 0.004492 0.090674
Si Si3 0.345386 0.627252 0.324953
Si Si4 0.471434 0.722109 0.789791
Si Si5 0.871048 0.571025 0.909817
Si Si6 0.378541 0.651927 0.597711
Si Si7 0.724258 0.918437 0.622493
Si Si8 0.690064 0.937314 0.327379
O O1 0.672362 0.158495 0.908439
O O2 0.156268 0.460594 0.872521
O O3 0.862538 0.040254 0.069782
O O4 0.000000 0.000000 0.000000
O O5 0.479632 0.867985 0.195452
O O6 0.647310 0.293116 0.978964
O O7 0.484179 0.472570 0.375354
O O8 0.501263 0.717050 0.359679
O O9 0.980218 0.505332 0.349541
O O10 0.683577 0.690669 0.862393
O O11 0.574520 0.721324 0.739451
O O12 0.515870 0.995105 0.686570
O O13 0.121960 0.797124 0.801144
O O14 0.000000 0.500000 0.000000
O O15 0.609831 0.761434 0.623063
O O16 0.395580 0.893115 0.470605
O O17 0.076828 0.073199 0.607198
#
# Coordination Sequence:
#
# PCOD9052885 Si02
#       8
#     2   2   2   2   2   2   2   2
#     4  11  23  39  64 101 137 187 236 295 358 426
#     4  11  24  39  64  98 144 182 239 294 358 428
#     4  12  29  47  75 112 147 194 246 310 369 435
#     4  11  24  42  72 101 141 194 238 297 366 443
#     4  11  22  42  60  96 140 188 235 280 356 435
#     4  11  29  52  77 109 144 191 253 314 372 436
#     4  10  27  49  78 104 144 190 248 310 376 440
#     4  11  26  45  72 108 148 194 243 298 374 448
#
# _framework density 23.221768000000001
#
# number of rings (size 3 to 8) (size 9 to 14) (size 15 to 20)
#    0.000    1.000    3.750    0.750   12.250    2.500 
#    0.000    0.000    0.000    0.000    0.000    0.000 
#    0.000    0.000    0.000    0.000    0.000    0.000 
#
# Total GULP energy -89124.919346 kJ/mol
# GULP energy per Si atom -5570.307459 kJ/mol
# Density = 2.316891 g / cm^3
# Si number density = 23.221768 Si / 1000 Ang^3
#
#
#
# Elastic Constant Matrix: (Units=GPa)
#
#
# Indices 1 2 3 4 5 6 
#
# 1 66.7487 57.3701 19.0410 -7.1056 9.4041 -12.4819
# 2 57.3701 152.9851 38.3103 12.0635 11.5607 -5.5802
# 3 19.0410 38.3103 45.3498 1.5781 7.1156 2.6064
# 4 -7.1056 12.0635 1.5781 38.3814 1.7186 9.5183
# 5 9.4041 11.5607 7.1156 1.7186 39.6326 -5.5436
# 6 -12.4819 -5.5802 2.6064 9.5183 -5.5436 26.5814
#
#
#
# Elastic Compliance Matrix: (Units=1/GPa)
#
#
# Indices 1 2 3 4 5 6 
#
# 1 0.026132 -0.008832 -0.003872 0.005806 -0.002020 0.008296
# 2 -0.008832 0.011838 -0.006173 -0.005323 0.000104 0.000871
# 3 -0.003872 -0.006173 0.029849 0.002041 -0.003786 -0.007561
# 4 0.005806 -0.005323 0.002041 0.031454 -0.003022 -0.010484
# 5 -0.002020 0.000104 -0.003786 -0.003022 0.027364 0.006233
# 6 0.008296 0.000871 -0.007561 -0.010484 0.006233 0.047494
#
#
# Mechanical properties :
#
#
# Convention : Reuss Voigt Hill
#
# Bulk Modulus (GPa) = 33.26328 54.94738 44.10533
# Shear Modulus (GPa) = 22.53190 30.94323 26.73756
#
# Velocity S-wave (km/s) = 3.11833 3.65432 3.39691
# Velocity P-wave (km/s) = 5.22691 6.44350 5.86683
#
# Compressibility (1/GPa) = 0.03006318
#
# Stress axis : x y z
#
# Youngs Moduli (GPa) = 38.26783 84.47147 33.50159
#
# Poissons Ratio (x) = 0.74608 0.12973
# Poissons Ratio (y) = 0.33799 0.20682
# Poissons Ratio (z) = 0.14819 0.52147
#
# Static dielectric constant tensor:
#      x y z
#    x 2.390420 0.050020 0.015080 
#    y 0.050020 1.862120 -0.034870 
#    z 0.015080 -0.034870 1.882720 
# 
# From -- ./inp_files/109304.got.cif
#   From: 2010.05.17/outbox.cif.g08.bks.cpg/sg2_55_cif.got.tgz:109304.got - 2010.06.03 11:33:40.
