data_PCOD9052050
_publ_section_title
;
Structure prediction by ZEFSAII (Michael W. Deem and Ramdas Pophale) SiO2 
 PCOD9052050
Probable space group: P -1
;
_chemical_formula_sum "Si O2"
_cell_formula_units_Z 16
_cell_length_a 13.957790
_cell_length_b 12.474172
_cell_length_c 15.184609
_cell_angle_alpha 50.480180
_cell_angle_beta 149.869959
_cell_angle_gamma 148.524718
_cell_volume 639.085027
_symmetry_space_group_name_H-M "P -1"
_symmetry_group_IT_number 2
_symmetry_cell_setting 'triclinic'
loop_
_space_group_symop_operation_xyz
x,y,z
-x,-y,-z
loop_
_atom_site_type_symbol
_atom_site_label
_atom_site_fract_x
_atom_site_fract_y
_atom_site_fract_z
Si Si1 0.006445 0.261092 0.751052
Si Si2 0.195109 0.381603 0.540475
Si Si3 0.624885 0.796459 0.139096
Si Si4 0.752853 0.740184 0.529050
Si Si5 0.595473 0.208788 0.564535
Si Si6 0.562375 0.741115 0.907538
Si Si7 0.516849 0.010546 0.252642
Si Si8 0.331580 0.731957 0.107314
O O1 0.885666 0.291091 0.715912
O O2 0.186211 0.225022 0.941022
O O3 0.711121 0.041302 0.579814
O O4 0.239643 0.486797 0.761174
O O5 0.376354 0.363576 0.743362
O O6 0.107811 0.272232 0.432311
O O7 0.388277 0.628860 0.546421
O O8 0.879333 0.232481 0.416475
O O9 0.568107 0.754555 0.012075
O O10 0.390497 0.747342 0.041826
O O11 0.970936 0.047773 0.302196
O O12 0.500000 0.500000 0.500000
O O13 0.582892 0.770080 0.329112
O O14 0.581974 0.182912 0.671519
O O15 0.599832 0.923203 0.819523
O O16 0.389348 0.914393 0.103172
O O17 0.000000 0.500000 0.000000
#
# Coordination Sequence:
#
# PCOD9052050 Si02
#       8
#     2   2   2   2   2   2   2   2
#     4  10  25  50  64 103 133 175 243 284 344 407
#     4  11  22  45  71 101 137 181 231 278 334 421
#     4  11  24  46  69 100 148 185 223 278 344 417
#     4  11  23  41  69 101 140 187 228 271 337 422
#     4  11  25  47  76  98 130 183 239 283 341 409
#     4  11  26  45  69 100 143 178 223 294 352 390
#     4  12  24  44  73 102 141 178 227 284 349 408
#     4  11  25  41  64 106 141 178 230 274 341 413
#
# _framework density 25.035792000000001
#
# number of rings (size 3 to 8) (size 9 to 14) (size 15 to 20)
#    0.000    1.000    3.750    2.250    5.250    3.500 
#    9.000    0.000    0.000    0.000    0.000    0.000 
#    0.000    0.000    0.000    0.000    0.000    0.000 
#
# Total GULP energy -89619.761340 kJ/mol
# GULP energy per Si atom -5601.235084 kJ/mol
# Density = 2.497881 g / cm^3
# Si number density = 25.035792 Si / 1000 Ang^3
#
#
#
# Elastic Constant Matrix: (Units=GPa)
#
#
# Indices 1 2 3 4 5 6 
#
# 1 63.4909 20.1133 17.7156 6.9990 6.9813 -2.2723
# 2 20.1133 122.4474 23.0787 -3.9307 -0.5767 4.1527
# 3 17.7156 23.0787 69.9849 19.0466 12.8872 3.4582
# 4 6.9990 -3.9307 19.0466 34.5871 -4.2944 1.3558
# 5 6.9813 -0.5767 12.8872 -4.2944 34.6176 -4.7361
# 6 -2.2723 4.1527 3.4582 1.3558 -4.7361 42.3872
#
#
#
# Elastic Compliance Matrix: (Units=1/GPa)
#
#
# Indices 1 2 3 4 5 6 
#
# 1 0.017957 -0.002662 -0.002334 -0.003072 -0.003017 0.001175
# 2 -0.002662 0.009542 -0.004084 0.004225 0.002661 -0.000582
# 3 -0.002334 -0.004084 0.021632 -0.013007 -0.009557 -0.002142
# 4 -0.003072 0.004225 -0.013007 0.038447 0.010358 0.000410
# 5 -0.003017 0.002661 -0.009557 0.010358 0.034920 0.003928
# 6 0.001175 -0.000582 -0.002142 0.000410 0.003928 0.024313
#
#
# Mechanical properties :
#
#
# Convention : Reuss Voigt Hill
#
# Bulk Modulus (GPa) = 32.28883 41.97093 37.12988
# Shear Modulus (GPa) = 28.52348 35.31940 31.92144
#
# Velocity S-wave (km/s) = 3.37903 3.76008 3.57463
# Velocity P-wave (km/s) = 5.30555 5.97090 5.64803
#
# Compressibility (1/GPa) = 0.03097046
#
# Stress axis : x y z
#
# Youngs Moduli (GPa) = 55.68719 104.80320 46.22827
#
# Poissons Ratio (x) = 0.27903 0.10791
# Poissons Ratio (y) = 0.14826 0.18878
# Poissons Ratio (z) = 0.12998 0.42798
#
# Static dielectric constant tensor:
#      x y z
#    x 1.988860 -0.007680 -0.013660 
#    y -0.007680 2.007280 -0.033060 
#    z -0.013660 -0.033060 1.936740 
# 
# From -- ./inp_files/299749.got.cif
#   From: 2010.05.17/outbox.cif.g08.bks.cpg/sg2_150_cif.got.tgz:299749.got - 2010.06.03 11:33:40.
