data_PCOD9052148
_publ_section_title
;
Structure prediction by ZEFSAII (Michael W. Deem and Ramdas Pophale) SiO2 
 PCOD9052148
Probable space group: P -1
;
_chemical_formula_sum "Si O2"
_cell_formula_units_Z 14
_cell_length_a 11.417506
_cell_length_b 9.468702
_cell_length_c 5.201881
_cell_angle_alpha 66.564581
_cell_angle_beta 91.737085
_cell_angle_gamma 101.549178
_cell_volume 504.771315
_symmetry_space_group_name_H-M "P -1"
_symmetry_group_IT_number 2
_symmetry_cell_setting 'triclinic'
loop_
_space_group_symop_operation_xyz
x,y,z
-x,-y,-z
loop_
_atom_site_type_symbol
_atom_site_label
_atom_site_fract_x
_atom_site_fract_y
_atom_site_fract_z
Si Si1 0.500000 0.500000 0.500000
Si Si2 0.840477 0.326194 0.563481
Si Si3 0.079303 0.186418 0.173162
Si Si4 0.833249 0.011139 0.110499
Si Si5 0.371574 0.624107 0.803546
Si Si6 0.238978 0.402664 0.359620
Si Si7 0.000000 0.500000 0.000000
Si Si8 0.577097 0.058344 0.209398
O O1 0.486590 0.599070 0.681767
O O2 0.350343 0.428596 0.542984
O O3 0.709661 0.299351 0.447186
O O4 0.844788 0.470616 0.663939
O O5 0.072123 0.628484 0.700967
O O6 0.848121 0.167869 0.818056
O O7 0.159935 0.234054 0.402687
O O8 0.951536 0.065921 0.252648
O O9 0.054293 0.356896 0.969674
O O10 0.154815 0.122778 0.999571
O O11 0.704488 0.005475 0.240110
O O12 0.405614 0.751934 0.938030
O O13 0.296960 0.473439 0.045732
O O14 0.500000 0.000000 0.500000
O O15 0.500000 0.000000 0.000000
#
# Coordination Sequence:
#
# PCOD9052148 Si02
#       8
#     1   2   2   2   2   2   1   2
#     4  10  26  40  80 108 162 202 278 354 402 506
#     4  11  24  48  78 111 162 210 271 346 418 513
#     4  11  26  47  83 120 162 217 271 350 423 520
#     4  11  26  52  79 120 170 216 285 341 431 519
#     4  11  23  49  75 117 155 213 278 350 420 495
#     4  11  23  48  76 114 154 217 271 343 425 497
#     4  12  24  48  76 118 152 214 270 328 424 502
#     4  12  28  50  82 117 167 231 285 357 434 514
#
# _framework density 27.735330999999999
#
# number of rings (size 3 to 8) (size 9 to 14) (size 15 to 20)
#    0.000    0.857    2.857    3.000    4.000    4.000 
#    0.000    2.857    0.000    0.000    0.000    0.000 
#    0.000    0.000    0.000    0.000    0.000    0.000 
#
# Total GULP energy -78107.385878 kJ/mol
# GULP energy per Si atom -5579.098991 kJ/mol
# Density = 2.767220 g / cm^3
# Si number density = 27.735331 Si / 1000 Ang^3
#
#
#
# Elastic Constant Matrix: (Units=GPa)
#
#
# Indices 1 2 3 4 5 6 
#
# 1 189.0250 67.4050 62.8739 17.6222 -23.0413 -5.8570
# 2 67.4050 196.2911 26.9218 36.5803 -12.9792 0.3038
# 3 62.8739 26.9218 134.9121 12.9705 -19.3976 -8.3515
# 4 17.6222 36.5803 12.9705 43.0979 5.1944 -12.9195
# 5 -23.0413 -12.9792 -19.3976 5.1944 51.1523 20.9997
# 6 -5.8570 0.3038 -8.3515 -12.9195 20.9997 55.6304
#
#
#
# Elastic Compliance Matrix: (Units=1/GPa)
#
#
# Indices 1 2 3 4 5 6 
#
# 1 0.007122 -0.001730 -0.002592 -0.001147 0.002201 -0.000727
# 2 -0.001730 0.007077 0.000276 -0.006583 0.002948 -0.002821
# 3 -0.002592 0.000276 0.009177 -0.002442 0.002852 -0.000541
# 4 -0.001147 -0.006583 -0.002442 0.035013 -0.011623 0.012067
# 5 0.002201 0.002948 0.002852 -0.011623 0.028868 -0.012953
# 6 -0.000727 -0.002821 -0.000541 0.012067 -0.012953 0.025525
#
#
# Mechanical properties :
#
#
# Convention : Reuss Voigt Hill
#
# Bulk Modulus (GPa) = 65.42926 92.73663 79.08294
# Shear Modulus (GPa) = 39.69255 54.17795 46.93525
#
# Velocity S-wave (km/s) = 3.78712 4.42451 4.11817
# Velocity P-wave (km/s) = 6.53948 7.72079 7.15456
#
# Compressibility (1/GPa) = 0.01528368
#
# Stress axis : x y z
#
# Youngs Moduli (GPa) = 140.40883 141.30909 108.97285
#
# Poissons Ratio (x) = 0.24442 0.28248
# Poissons Ratio (y) = 0.24286 -0.03008
# Poissons Ratio (z) = 0.36397 -0.03901
#
# Static dielectric constant tensor:
#      x y z
#    x 2.279360 -0.123450 -0.101560 
#    y -0.123450 2.083310 -0.247280 
#    z -0.101560 -0.247280 2.417250 
# 
# From -- ./inp_files/60435.got.cif
#   From: 2010.05.17/outbox.cif.g08.bks.cpg/sg2_31_cif.got.tgz:60435.got - 2010.06.03 11:33:40.
