data_PCOD9052689
_publ_section_title
;
Structure prediction by ZEFSAII (Michael W. Deem and Ramdas Pophale) SiO2 
 PCOD9052689
Probable space group: P -1
;
_chemical_formula_sum "Si O2"
_cell_formula_units_Z 13
_cell_length_a 9.638354
_cell_length_b 5.240505
_cell_length_c 15.347813
_cell_angle_alpha 77.291899
_cell_angle_beta 137.829605
_cell_angle_gamma 89.229145
_cell_volume 488.898284
_symmetry_space_group_name_H-M "P -1"
_symmetry_group_IT_number 2
_symmetry_cell_setting 'triclinic'
loop_
_space_group_symop_operation_xyz
x,y,z
-x,-y,-z
loop_
_atom_site_type_symbol
_atom_site_label
_atom_site_fract_x
_atom_site_fract_y
_atom_site_fract_z
Si Si1 0.016763 0.618551 0.402285
Si Si2 0.500000 0.000000 0.000000
Si Si3 0.227957 0.555721 0.265745
Si Si4 0.502363 0.752534 0.726349
Si Si5 0.402912 0.234831 0.525199
Si Si6 0.182296 0.068320 0.013181
Si Si7 0.230476 0.752845 0.761378
O O1 0.881719 0.495177 0.275425
O O2 0.000000 0.500000 0.500000
O O3 0.259149 0.487797 0.494671
O O4 0.931971 0.943448 0.337950
O O5 0.405780 0.798571 0.908000
O O6 0.339093 0.937172 0.014037
O O7 0.339345 0.497406 0.228561
O O8 0.302912 0.284341 0.379225
O O9 0.352943 0.747631 0.357703
O O10 0.978080 0.671890 0.128164
O O11 0.339651 0.693758 0.722593
O O12 0.382739 0.972676 0.584826
O O13 0.653018 0.884699 0.843334
O O14 0.000000 0.000000 0.000000
#
# Coordination Sequence:
#
# PCOD9052689 Si02
#       7
#     2   1   2   2   2   2   2
#     4  12  24  43  70 107 145 197 246 312 384 456
#     4  10  26  48  74 116 146 198 264 316 380 466
#     4  11  24  43  65 103 139 190 246 312 373 458
#     4  11  23  42  69 102 135 198 246 308 372 466
#     4  11  24  40  68 100 145 184 252 304 379 452
#     4  11  23  46  74 102 147 195 250 313 384 453
#     4  11  26  45  74 106 154 196 254 318 382 452
#
# _framework density 26.590399999999999
#
# number of rings (size 3 to 8) (size 9 to 14) (size 15 to 20)
#    0.000    0.923    3.077    3.231    2.154    1.846 
#    0.000    1.538    0.000    0.000    0.000    0.000 
#    0.000    0.000    0.000    0.000    0.000    0.000 
#
# Total GULP energy -72370.076249 kJ/mol
# GULP energy per Si atom -5566.928942 kJ/mol
# Density = 2.652988 g / cm^3
# Si number density = 26.590400 Si / 1000 Ang^3
#
#
#
# Elastic Constant Matrix: (Units=GPa)
#
#
# Indices 1 2 3 4 5 6 
#
# 1 147.3792 48.3972 41.0629 15.7338 -16.5398 -18.2136
# 2 48.3972 104.7063 26.6112 2.0386 -13.9349 -24.5726
# 3 41.0629 26.6112 78.1535 -0.5759 -19.8940 -0.7745
# 4 15.7338 2.0386 -0.5759 34.1942 -10.8054 3.1945
# 5 -16.5398 -13.9349 -19.8940 -10.8054 30.3071 1.8260
# 6 -18.2136 -24.5726 -0.7745 3.1945 1.8260 38.5457
#
#
#
# Elastic Compliance Matrix: (Units=1/GPa)
#
#
# Indices 1 2 3 4 5 6 
#
# 1 0.009719 -0.002602 -0.004415 -0.004935 -0.000748 0.003290
# 2 -0.002602 0.013397 -0.002357 0.000646 0.002997 0.007068
# 3 -0.004415 -0.002357 0.018838 0.006509 0.011452 -0.004292
# 4 -0.004935 0.000646 0.006509 0.036973 0.015394 -0.005583
# 5 -0.000748 0.002997 0.011452 0.015394 0.047075 -0.001718
# 6 0.003290 0.007068 -0.004292 -0.005583 -0.001718 0.032462
#
#
# Mechanical properties :
#
#
# Convention : Reuss Voigt Hill
#
# Bulk Modulus (GPa) = 43.09003 62.48685 52.78844
# Shear Modulus (GPa) = 27.03491 34.88725 30.96108
#
# Velocity S-wave (km/s) = 3.19206 3.62612 3.41599
# Velocity P-wave (km/s) = 5.46131 6.40956 5.95434
#
# Compressibility (1/GPa) = 0.02320722
#
# Stress axis : x y z
#
# Youngs Moduli (GPa) = 102.89026 74.64192 53.08453
#
# Poissons Ratio (x) = 0.19420 0.23435
# Poissons Ratio (y) = 0.26770 0.12512
# Poissons Ratio (z) = 0.45423 0.17593
#
# Static dielectric constant tensor:
#      x y z
#    x 2.205190 0.056750 0.019120 
#    y 0.056750 2.138520 -0.026350 
#    z 0.019120 -0.026350 2.174490 
# 
# From -- ./inp_files/458876.got.cif
#   From: 2010.05.17/outbox.cif.g08.bks.cpg/sg2_230_cif.got.tgz:458876.got - 2010.06.03 11:33:40.
