data_PCOD9052088
_publ_section_title
;
Structure prediction by ZEFSAII (Michael W. Deem and Ramdas Pophale) SiO2 
 PCOD9052088
Probable space group: P -1
;
_chemical_formula_sum "Si O2"
_cell_formula_units_Z 16
_cell_length_a 4.749405
_cell_length_b 10.064366
_cell_length_c 14.774684
_cell_angle_alpha 99.184260
_cell_angle_beta 114.066933
_cell_angle_gamma 107.385143
_cell_volume 582.389086
_symmetry_space_group_name_H-M "P -1"
_symmetry_group_IT_number 2
_symmetry_cell_setting 'triclinic'
loop_
_space_group_symop_operation_xyz
x,y,z
-x,-y,-z
loop_
_atom_site_type_symbol
_atom_site_label
_atom_site_fract_x
_atom_site_fract_y
_atom_site_fract_z
Si Si1 0.584587 0.028568 0.908561
Si Si2 0.627053 0.824790 0.253378
Si Si3 0.360018 0.282625 0.324223
Si Si4 0.635262 0.478838 0.920350
Si Si5 0.192578 0.276714 0.557273
Si Si6 0.107460 0.499824 0.403397
Si Si7 0.450000 0.966245 0.596636
Si Si8 0.188986 0.229766 0.112140
O O1 0.336819 0.066926 0.815493
O O2 0.663535 0.893211 0.870974
O O3 0.934409 0.171868 0.986487
O O4 0.500000 0.000000 0.000000
O O5 0.494400 0.671023 0.167649
O O6 0.851681 0.789054 0.354187
O O7 0.405378 0.630004 0.396224
O O8 0.289582 0.383847 0.402254
O O9 0.384156 0.141495 0.357088
O O10 0.082976 0.244583 0.203474
O O11 0.715456 0.379285 0.330565
O O12 0.596474 0.604195 0.868849
O O13 0.500000 0.500000 0.000000
O O14 0.000000 0.500000 0.000000
O O15 0.001813 0.387952 0.537085
O O16 0.953697 0.132157 0.455002
O O17 0.561082 0.105970 0.693315
O O18 0.500000 0.000000 0.500000
#
# Coordination Sequence:
#
# PCOD9052088 Si02
#       8
#     2   2   2   2   2   2   2   2
#     4  11  25  48  75 114 163 211 271 337 421 502
#     4  12  26  52  78 119 171 217 277 347 422 499
#     4  11  26  48  83 117 166 215 278 346 428 494
#     4  12  27  48  80 118 161 214 270 333 413 495
#     4  11  26  50  80 116 166 215 284 341 420 496
#     4  10  25  50  78 119 157 211 273 347 416 495
#     4  12  29  51  82 122 166 228 288 350 422 508
#     4  11  25  46  75 118 157 210 268 334 409 502
#
# _framework density 27.473046
#
# number of rings (size 3 to 8) (size 9 to 14) (size 15 to 20)
#    0.000    0.750    2.500    3.375    1.750   11.000 
#    4.500    0.000    0.000    0.000    0.000    0.000 
#    0.000    0.000    0.000    0.000    0.000    0.000 
#
# Total GULP energy -89146.268315 kJ/mol
# GULP energy per Si atom -5571.641770 kJ/mol
# Density = 2.741052 g / cm^3
# Si number density = 27.473046 Si / 1000 Ang^3
#
#
#
# Elastic Constant Matrix: (Units=GPa)
#
#
# Indices 1 2 3 4 5 6 
#
# 1 154.8721 52.0001 49.0961 16.5403 -13.4305 -0.1382
# 2 52.0001 297.6779 129.0234 -61.7184 -28.6669 -18.0401
# 3 49.0961 129.0234 212.8969 -42.5091 -27.8574 -6.6934
# 4 16.5403 -61.7184 -42.5091 109.7273 -6.4809 -13.3243
# 5 -13.4305 -28.6669 -27.8574 -6.4809 51.8307 4.0859
# 6 -0.1382 -18.0401 -6.6934 -13.3243 4.0859 45.1429
#
#
#
# Elastic Compliance Matrix: (Units=1/GPa)
#
#
# Indices 1 2 3 4 5 6 
#
# 1 0.007681 -0.001297 -0.001531 -0.002652 0.000238 -0.001526
# 2 -0.001297 0.005400 -0.002113 0.002819 0.001668 0.002522
# 3 -0.001531 -0.002113 0.007065 0.001992 0.002436 0.000566
# 4 -0.002652 0.002819 0.001992 0.012647 0.003141 0.004862
# 5 0.000238 0.001668 0.002436 0.003141 0.021983 -0.000034
# 6 -0.001526 0.002522 0.000566 0.004862 -0.000034 0.024677
#
#
# Mechanical properties :
#
#
# Convention : Reuss Voigt Hill
#
# Bulk Modulus (GPa) = 97.44296 125.07622 111.25959
# Shear Modulus (GPa) = 53.90525 70.36199 62.13362
#
# Velocity S-wave (km/s) = 4.43438 5.06625 4.76081
# Velocity P-wave (km/s) = 7.85900 8.93578 8.41463
#
# Compressibility (1/GPa) = 0.01026241
#
# Stress axis : x y z
#
# Youngs Moduli (GPa) = 130.19971 185.19672 141.54282
#
# Poissons Ratio (x) = 0.24027 0.21674
# Poissons Ratio (y) = 0.16892 0.29904
# Poissons Ratio (z) = 0.19937 0.39127
#
# Static dielectric constant tensor:
#      x y z
#    x 2.299820 0.178930 0.151210 
#    y 0.178930 2.182080 0.040420 
#    z 0.151210 0.040420 2.246060 
# 
# From -- ./inp_files/480696.got.cif
#   From: 2010.05.17/outbox.cif.g08.bks.cpg/sg2_241_cif.got.tgz:480696.got - 2010.06.03 11:33:40.
