data_PCOD9052318
_publ_section_title
;
Structure prediction by ZEFSAII (Michael W. Deem and Ramdas Pophale) SiO2 
 PCOD9052318
Probable space group: P -1
;
_chemical_formula_sum "Si O2"
_cell_formula_units_Z 15
_cell_length_a 5.568707
_cell_length_b 23.726977
_cell_length_c 9.585801
_cell_angle_alpha 143.353935
_cell_angle_beta 71.482967
_cell_angle_gamma 89.136807
_cell_volume 630.089918
_symmetry_space_group_name_H-M "P -1"
_symmetry_group_IT_number 2
_symmetry_cell_setting 'triclinic'
loop_
_space_group_symop_operation_xyz
x,y,z
-x,-y,-z
loop_
_atom_site_type_symbol
_atom_site_label
_atom_site_fract_x
_atom_site_fract_y
_atom_site_fract_z
Si Si1 0.542492 0.858897 0.502716
Si Si2 0.697538 0.281568 0.184777
Si Si3 0.602899 0.298490 0.921394
Si Si4 0.101606 0.397357 0.675426
Si Si5 0.817700 0.937608 0.382953
Si Si6 0.000000 0.000000 0.000000
Si Si7 0.123879 0.194224 0.417135
Si Si8 0.189776 0.530312 0.425914
O O1 0.582856 0.744767 0.217411
O O2 0.737644 0.897644 0.461756
O O3 0.563948 0.862056 0.674610
O O4 0.206050 0.941979 0.709276
O O5 0.439391 0.338688 0.454972
O O6 0.809737 0.366222 0.307819
O O7 0.587145 0.269898 0.028708
O O8 0.961155 0.168442 0.952994
O O9 0.915445 0.242426 0.684266
O O10 0.492796 0.423847 0.166602
O O11 0.064953 0.297569 0.542619
O O12 0.926920 0.443084 0.655836
O O13 0.000000 0.500000 0.000000
O O14 0.500000 0.000000 0.500000
O O15 0.000000 0.000000 0.500000
O O16 0.071214 0.102708 0.177766
O O17 0.000000 0.500000 0.500000
#
# Coordination Sequence:
#
# PCOD9052318 Si02
#       8
#     2   2   2   2   2   1   2   2
#     4  11  24  47  75 107 151 205 274 328 419 479
#     4  12  27  48  77 112 158 209 265 337 414 488
#     4  11  23  45  77 109 149 209 261 330 396 506
#     4  12  29  47  75 120 161 204 269 344 415 497
#     4  12  29  47  80 117 160 209 278 345 405 494
#     4  10  26  44  74 106 148 210 268 336 412 478
#     4  11  25  46  73 104 158 202 267 331 409 488
#     4  12  26  44  79 108 151 204 263 321 412 496
#
# _framework density 23.806128000000001
#
# number of rings (size 3 to 8) (size 9 to 14) (size 15 to 20)
#    0.000    0.533    2.667    4.000    7.467    5.333 
#    0.000    0.000    0.000    0.000    0.000    0.000 
#    0.000    0.000    0.000    0.000    0.000    0.000 
#
# Total GULP energy -83638.248949 kJ/mol
# GULP energy per Si atom -5575.883263 kJ/mol
# Density = 2.375194 g / cm^3
# Si number density = 23.806128 Si / 1000 Ang^3
#
#
#
# Elastic Constant Matrix: (Units=GPa)
#
#
# Indices 1 2 3 4 5 6 
#
# 1 82.2163 43.1561 24.7938 14.8132 13.7433 5.3037
# 2 43.1561 134.3359 30.1489 15.8433 11.2359 -0.5030
# 3 24.7938 30.1489 139.6441 22.5704 3.3621 4.3749
# 4 14.8132 15.8433 22.5704 44.3335 11.6294 -2.9347
# 5 13.7433 11.2359 3.3621 11.6294 43.3622 7.7980
# 6 5.3037 -0.5030 4.3749 -2.9347 7.7980 47.3829
#
#
#
# Elastic Compliance Matrix: (Units=1/GPa)
#
#
# Indices 1 2 3 4 5 6 
#
# 1 0.015818 -0.004249 -0.001394 -0.002380 -0.002923 -0.001353
# 2 -0.004249 0.009247 -0.001071 -0.001078 -0.000810 0.000739
# 3 -0.001394 -0.001071 0.008249 -0.003757 0.001278 -0.001060
# 4 -0.002380 -0.001078 -0.003757 0.027633 -0.006700 0.003416
# 5 -0.002923 -0.000810 0.001278 -0.006700 0.026725 -0.004613
# 6 -0.001353 0.000739 -0.001060 0.003416 -0.004613 0.022333
#
#
# Mechanical properties :
#
#
# Convention : Reuss Voigt Hill
#
# Bulk Modulus (GPa) = 50.28438 61.37709 55.83073
# Shear Modulus (GPa) = 38.44294 44.22221 41.33257
#
# Velocity S-wave (km/s) = 4.02286 4.31466 4.17131
# Velocity P-wave (km/s) = 6.53806 7.11757 6.83396
#
# Compressibility (1/GPa) = 0.01988689
#
# Stress axis : x y z
#
# Youngs Moduli (GPa) = 63.21784 108.14187 121.21987
#
# Poissons Ratio (x) = 0.45947 0.16895
# Poissons Ratio (y) = 0.26860 0.12988
# Poissons Ratio (z) = 0.08811 0.11587
#
# Static dielectric constant tensor:
#      x y z
#    x 2.277160 -0.213300 -0.018140 
#    y -0.213300 1.963390 0.030710 
#    z -0.018140 0.030710 1.822620 
# 
# From -- ./inp_files/141688.got.cif
#   From: 2010.05.17/outbox.cif.g08.bks.cpg/sg2_71_cif.got.tgz:141688.got - 2010.06.03 11:33:40.
