data_PCOD9052175
_publ_section_title
;
Structure prediction by ZEFSAII (Michael W. Deem and Ramdas Pophale) SiO2 
 PCOD9052175
Probable space group: P -1
;
_chemical_formula_sum "Si O2"
_cell_formula_units_Z 13
_cell_length_a 5.360299
_cell_length_b 9.884302
_cell_length_c 12.606549
_cell_angle_alpha 78.741597
_cell_angle_beta 120.253030
_cell_angle_gamma 91.739963
_cell_volume 564.035798
_symmetry_space_group_name_H-M "P -1"
_symmetry_group_IT_number 2
_symmetry_cell_setting 'triclinic'
loop_
_space_group_symop_operation_xyz
x,y,z
-x,-y,-z
loop_
_atom_site_type_symbol
_atom_site_label
_atom_site_fract_x
_atom_site_fract_y
_atom_site_fract_z
Si Si1 0.272273 0.901254 0.113241
Si Si2 0.741637 0.110054 0.525831
Si Si3 0.413234 0.727466 0.971262
Si Si4 0.034784 0.622989 0.174320
Si Si5 0.189045 0.578104 0.443824
Si Si6 0.728779 0.075755 0.281616
Si Si7 0.000000 0.500000 0.000000
O O1 0.176429 0.766410 0.172418
O O2 0.452165 0.990161 0.216150
O O3 0.443331 0.840874 0.053942
O O4 0.000000 0.000000 0.000000
O O5 0.726475 0.267987 0.534275
O O6 0.781357 0.121540 0.405470
O O7 0.500000 0.000000 0.500000
O O8 0.002910 0.035914 0.661179
O O9 0.310163 0.802516 0.830339
O O10 0.174456 0.630723 0.974038
O O11 0.729284 0.642241 0.038577
O O12 0.004823 0.585847 0.294218
O O13 0.190959 0.504100 0.154251
O O14 0.500000 0.500000 0.500000
O O15 0.000000 0.500000 0.500000
#
# Coordination Sequence:
#
# PCOD9052175 Si02
#       7
#     2   2   2   2   2   2   1
#     4  11  23  41  70 109 140 183 227 315 384 452
#     4  11  28  49  76 108 152 203 261 323 379 472
#     4  11  24  42  71 105 143 189 238 315 381 456
#     4  11  25  46  72 101 148 189 249 305 386 453
#     4  12  32  52  79 109 157 214 264 319 392 472
#     4  11  25  43  77 109 147 185 260 310 396 448
#     4  10  26  42  68 102 150 188 246 306 376 454
#
# _framework density 23.048183999999999
#
# number of rings (size 3 to 8) (size 9 to 14) (size 15 to 20)
#    0.000    0.923    1.538    2.769   17.231    1.231 
#    0.000    0.000    0.000    0.000    0.000    0.000 
#    0.000    0.000    0.000    0.000    0.000    0.000 
#
# Total GULP energy -72455.998668 kJ/mol
# GULP energy per Si atom -5573.538359 kJ/mol
# Density = 2.299573 g / cm^3
# Si number density = 23.048184 Si / 1000 Ang^3
#
#
#
# Elastic Constant Matrix: (Units=GPa)
#
#
# Indices 1 2 3 4 5 6 
#
# 1 79.8931 24.4486 38.9815 -16.1118 -2.0347 30.0395
# 2 24.4486 121.8811 33.5686 5.2003 -2.3874 20.7876
# 3 38.9815 33.5686 148.0239 -7.3370 -14.8080 14.3705
# 4 -16.1118 5.2003 -7.3370 30.0039 1.7459 -0.8745
# 5 -2.0347 -2.3874 -14.8080 1.7459 54.9326 -6.9495
# 6 30.0395 20.7876 14.3705 -0.8745 -6.9495 37.3968
#
#
#
# Elastic Compliance Matrix: (Units=1/GPa)
#
#
# Indices 1 2 3 4 5 6 
#
# 1 0.023404 -0.001285 -0.003945 0.011495 -0.002744 -0.016810
# 2 -0.001285 0.009697 -0.001674 -0.002865 -0.000476 -0.003870
# 3 -0.003945 -0.001674 0.008268 0.000106 0.002175 0.001329
# 4 0.011495 -0.002865 0.000106 0.039925 -0.001836 -0.007089
# 5 -0.002744 -0.000476 0.002175 -0.001836 0.019383 0.005192
# 6 -0.016810 -0.003870 0.001329 -0.007089 0.005192 0.042683
#
#
# Mechanical properties :
#
#
# Convention : Reuss Voigt Hill
#
# Bulk Modulus (GPa) = 36.28520 60.42174 48.35347
# Shear Modulus (GPa) = 30.05638 41.31995 35.68816
#
# Velocity S-wave (km/s) = 3.61510 4.23870 3.93926
# Velocity P-wave (km/s) = 5.76218 7.08715 6.45873
#
# Compressibility (1/GPa) = 0.02755944
#
# Stress axis : x y z
#
# Youngs Moduli (GPa) = 42.72855 103.12842 120.94856
#
# Poissons Ratio (x) = 0.13256 0.47708
# Poissons Ratio (y) = 0.05492 0.20253
# Poissons Ratio (z) = 0.16854 0.17269
#
# Static dielectric constant tensor:
#      x y z
#    x 1.814520 -0.066770 0.132060 
#    y -0.066770 2.191320 -0.307320 
#    z 0.132060 -0.307320 1.876400 
# 
# From -- ./inp_files/22474.got.cif
#   From: 2010.05.17/outbox.cif.g08.bks.cpg/sg2_12_cif.got.tgz:22474.got - 2010.06.03 11:33:40.
