data_PCOD9052197
_publ_section_title
;
Structure prediction by ZEFSAII (Michael W. Deem and Ramdas Pophale) SiO2 
 PCOD9052197
Probable space group: P -1
;
_chemical_formula_sum "Si O2"
_cell_formula_units_Z 14
_cell_length_a 9.313891
_cell_length_b 11.126837
_cell_length_c 16.341857
_cell_angle_alpha 134.989879
_cell_angle_beta 32.355607
_cell_angle_gamma 120.757107
_cell_volume 624.308145
_symmetry_space_group_name_H-M "P -1"
_symmetry_group_IT_number 2
_symmetry_cell_setting 'triclinic'
loop_
_space_group_symop_operation_xyz
x,y,z
-x,-y,-z
loop_
_atom_site_type_symbol
_atom_site_label
_atom_site_fract_x
_atom_site_fract_y
_atom_site_fract_z
Si Si1 0.628364 0.021738 0.035075
Si Si2 0.987772 0.279913 0.226618
Si Si3 0.643560 0.665437 0.421510
Si Si4 0.845433 0.432492 0.619406
Si Si5 0.956422 0.272492 0.058092
Si Si6 0.278325 0.346156 0.799451
Si Si7 0.164487 0.113892 0.422335
O O1 0.413151 0.994205 0.194362
O O2 0.706724 0.204150 0.105000
O O3 0.500000 0.000000 0.000000
O O4 0.911875 0.879510 0.837329
O O5 0.665125 0.358638 0.430770
O O6 0.153604 0.424028 0.241282
O O7 0.037005 0.199603 0.073879
O O8 0.671463 0.745645 0.357004
O O9 0.714110 0.773421 0.515172
O O10 0.849849 0.477018 0.227545
O O11 0.543255 0.420782 0.729839
O O12 0.000000 0.500000 0.500000
O O13 0.995437 0.248397 0.500504
O O14 0.206532 0.235939 0.856726
O O15 0.000000 0.500000 0.000000
O O16 0.000000 0.000000 0.500000
#
# Coordination Sequence:
#
# PCOD9052197 Si02
#       7
#     2   2   2   2   2   2   2
#     4  12  29  44  68 111 153 194 244 313 374 433
#     4  12  24  43  77 100 146 195 253 296 370 451
#     4  11  23  48  73 107 140 201 246 300 372 450
#     4  12  25  48  79 111 143 201 253 299 371 452
#     4  11  24  47  72 105 146 189 246 304 375 437
#     4  10  26  42  75 109 145 185 250 312 362 435
#     4  12  29  48  76 109 155 193 251 313 371 441
#
# _framework density 22.424821999999999
#
# number of rings (size 3 to 8) (size 9 to 14) (size 15 to 20)
#    0.000    0.571    4.286    2.571   10.000    1.714 
#    0.000    1.429    0.000    0.000    0.000    0.000 
#    0.000    0.000    0.000    0.000    0.000    0.000 
#
# Total GULP energy -78282.889831 kJ/mol
# GULP energy per Si atom -5591.634988 kJ/mol
# Density = 2.237378 g / cm^3
# Si number density = 22.424822 Si / 1000 Ang^3
#
#
#
# Elastic Constant Matrix: (Units=GPa)
#
#
# Indices 1 2 3 4 5 6 
#
# 1 175.0592 42.2519 41.4237 -17.9797 10.7470 9.4621
# 2 42.2519 80.0477 24.9652 -22.1645 3.9866 0.3066
# 3 41.4237 24.9652 59.9085 -21.5023 0.7732 -0.9191
# 4 -17.9797 -22.1645 -21.5023 45.8436 -5.1451 4.4127
# 5 10.7470 3.9866 0.7732 -5.1451 39.6856 -6.2111
# 6 9.4621 0.3066 -0.9191 4.4127 -6.2111 38.6815
#
#
#
# Elastic Compliance Matrix: (Units=1/GPa)
#
#
# Indices 1 2 3 4 5 6 
#
# 1 0.007575 -0.002648 -0.004259 -0.000327 -0.002094 -0.002232
# 2 -0.002648 0.016353 -0.003030 0.005445 -0.000193 -0.000206
# 3 -0.004259 -0.003030 0.023826 0.008187 0.002220 0.001054
# 4 -0.000327 0.005445 0.008187 0.028712 0.002696 -0.002611
# 5 -0.002094 -0.000193 0.002220 0.002696 0.026805 0.004563
# 6 -0.002232 -0.000206 0.001054 -0.002611 0.004563 0.027455
#
#
# Mechanical properties :
#
#
# Convention : Reuss Voigt Hill
#
# Bulk Modulus (GPa) = 35.86798 59.14411 47.50604
# Shear Modulus (GPa) = 31.27092 38.60045 34.93569
#
# Velocity S-wave (km/s) = 3.73832 4.15339 3.95131
# Velocity P-wave (km/s) = 5.88752 7.03082 6.48442
#
# Compressibility (1/GPa) = 0.02788002
#
# Stress axis : x y z
#
# Youngs Moduli (GPa) = 132.01757 61.14989 41.97124
#
# Poissons Ratio (x) = 0.16191 0.17875
# Poissons Ratio (y) = 0.34954 0.12719
# Poissons Ratio (z) = 0.56224 0.18531
#
# Static dielectric constant tensor:
#      x y z
#    x 1.976660 -0.120060 0.071460 
#    y -0.120060 1.899630 -0.012100 
#    z 0.071460 -0.012100 1.854490 
# 
# From -- ./inp_files/155698.got.cif
#   From: 2010.05.17/outbox.cif.g08.bks.cpg/sg2_78_cif.got.tgz:155698.got - 2010.06.03 11:33:40.
