data_PCOD9052894
_publ_section_title
;
Structure prediction by ZEFSAII (Michael W. Deem and Ramdas Pophale) SiO2 
 PCOD9052894
Probable space group: P -1
;
_chemical_formula_sum "Si O2"
_cell_formula_units_Z 16
_cell_length_a 11.027459
_cell_length_b 8.845985
_cell_length_c 8.508380
_cell_angle_alpha 54.780067
_cell_angle_beta 100.029019
_cell_angle_gamma 105.743453
_cell_volume 652.447951
_symmetry_space_group_name_H-M "P -1"
_symmetry_group_IT_number 2
_symmetry_cell_setting 'triclinic'
loop_
_space_group_symop_operation_xyz
x,y,z
-x,-y,-z
loop_
_atom_site_type_symbol
_atom_site_label
_atom_site_fract_x
_atom_site_fract_y
_atom_site_fract_z
Si Si1 0.982095 0.638678 0.050230
Si Si2 0.153359 0.044300 0.276769
Si Si3 0.623706 0.985531 0.435366
Si Si4 0.658004 0.716507 0.012884
Si Si5 0.630969 0.330128 0.049348
Si Si6 0.883811 0.374169 0.454162
Si Si7 0.372907 0.342122 0.591706
Si Si8 0.758969 0.373623 0.725854
O O1 0.113520 0.677307 0.149477
O O2 0.882848 0.513380 0.223931
O O3 0.000000 0.500000 0.000000
O O4 0.941912 0.816702 0.853385
O O5 0.270704 0.087861 0.397017
O O6 0.084999 0.832556 0.434345
O O7 0.234112 0.096810 0.102632
O O8 0.597422 0.846179 0.364437
O O9 0.500000 0.000000 0.500000
O O10 0.685988 0.192038 0.258659
O O11 0.665042 0.543690 0.996727
O O12 0.657395 0.667846 0.225368
O O13 0.518589 0.745316 0.928936
O O14 0.665774 0.308309 0.888783
O O15 0.760789 0.320657 0.572647
O O16 0.000000 0.500000 0.500000
O O17 0.500000 0.500000 0.500000
O O18 0.259917 0.411154 0.432480
#
# Coordination Sequence:
#
# PCOD9052894 Si02
#       8
#     2   2   2   2   2   2   2   2
#     4  11  25  50  77 107 148 198 259 320 383 449
#     4  12  27  47  80 110 153 205 257 316 391 452
#     4  12  27  44  69 112 155 198 258 310 377 463
#     4  11  24  44  75 107 155 202 253 310 387 456
#     4  11  24  45  70 108 153 200 253 311 377 463
#     4  10  27  51  76 110 152 198 258 328 384 451
#     4  12  25  43  72 108 153 202 251 307 384 451
#     4  11  25  45  73 104 149 192 252 311 380 451
#
# _framework density 24.523028
#
# number of rings (size 3 to 8) (size 9 to 14) (size 15 to 20)
#    0.000    0.750    2.500    3.750    8.750    3.000 
#    4.500    0.000    0.000    0.000    0.000    0.000 
#    0.000    0.000    0.000    0.000    0.000    0.000 
#
# Total GULP energy -89276.920797 kJ/mol
# GULP energy per Si atom -5579.807550 kJ/mol
# Density = 2.446721 g / cm^3
# Si number density = 24.523028 Si / 1000 Ang^3
#
#
#
# Elastic Constant Matrix: (Units=GPa)
#
#
# Indices 1 2 3 4 5 6 
#
# 1 70.5703 14.9087 7.7955 -3.8157 21.6946 -9.1535
# 2 14.9087 81.6673 22.8804 -14.3316 -0.3723 -10.8973
# 3 7.7955 22.8804 137.5982 -6.2194 19.7833 -19.8195
# 4 -3.8157 -14.3316 -6.2194 44.3426 -8.5924 -3.8226
# 5 21.6946 -0.3723 19.7833 -8.5924 51.2791 1.8124
# 6 -9.1535 -10.8973 -19.8195 -3.8226 1.8124 37.5718
#
#
#
# Elastic Compliance Matrix: (Units=1/GPa)
#
#
# Indices 1 2 3 4 5 6 
#
# 1 0.017796 -0.003156 0.001332 -0.000527 -0.008312 0.004470
# 2 -0.003156 0.014656 -0.002063 0.004990 0.002976 0.002758
# 3 0.001332 -0.002063 0.008797 0.000286 -0.004087 0.004593
# 4 -0.000527 0.004990 0.000286 0.025315 0.004255 0.003840
# 5 -0.008312 0.002976 -0.004087 0.004255 0.025474 -0.004114
# 6 0.004470 0.002758 0.004593 0.003840 -0.004114 0.031517
#
#
# Mechanical properties :
#
#
# Convention : Reuss Voigt Hill
#
# Bulk Modulus (GPa) = 29.87319 42.33389 36.10354
# Shear Modulus (GPa) = 35.09034 42.92210 39.00622
#
# Velocity S-wave (km/s) = 3.78685 4.18817 3.99255
# Velocity P-wave (km/s) = 5.59718 6.37872 6.00069
#
# Compressibility (1/GPa) = 0.03347483
#
# Stress axis : x y z
#
# Youngs Moduli (GPa) = 56.19089 68.22994 113.67194
#
# Poissons Ratio (x) = 0.21532 -0.15137
# Poissons Ratio (y) = 0.17733 0.23456
# Poissons Ratio (z) = -0.07483 0.14079
#
# Static dielectric constant tensor:
#      x y z
#    x 1.997810 -0.056320 -0.009730 
#    y -0.056320 1.931170 -0.010370 
#    z -0.009730 -0.010370 1.950810 
# 
# From -- ./inp_files/242179.got.cif
#   From: 2010.05.17/outbox.cif.g08.bks.cpg/sg2_122_cif.got.tgz:242179.got - 2010.06.03 11:33:40.
