data_PCOD9052403
_publ_section_title
;
Structure prediction by ZEFSAII (Michael W. Deem and Ramdas Pophale) SiO2 
 PCOD9052403
Probable space group: P -1
;
_chemical_formula_sum "Si O2"
_cell_formula_units_Z 13
_cell_length_a 11.686565
_cell_length_b 10.362274
_cell_length_c 8.469991
_cell_angle_alpha 87.727390
_cell_angle_beta 55.558907
_cell_angle_gamma 125.724569
_cell_volume 572.429943
_symmetry_space_group_name_H-M "P -1"
_symmetry_group_IT_number 2
_symmetry_cell_setting 'triclinic'
loop_
_space_group_symop_operation_xyz
x,y,z
-x,-y,-z
loop_
_atom_site_type_symbol
_atom_site_label
_atom_site_fract_x
_atom_site_fract_y
_atom_site_fract_z
Si Si1 0.761351 0.726484 0.636650
Si Si2 0.538330 0.934683 0.120058
Si Si3 0.864101 0.954741 0.854455
Si Si4 0.844435 0.501307 0.557248
Si Si5 0.188885 0.550494 0.782120
Si Si6 0.636421 0.585225 0.230262
Si Si7 0.500000 0.000000 0.500000
O O1 0.783170 0.838789 0.758330
O O2 0.860252 0.655279 0.608396
O O3 0.530692 0.545314 0.771073
O O4 0.894311 0.868820 0.376361
O O5 0.382634 0.709222 0.229885
O O6 0.493198 0.978415 0.313881
O O7 0.762037 0.024433 0.952136
O O8 0.500000 0.000000 0.000000
O O9 0.781139 0.805199 0.064493
O O10 0.860983 0.522934 0.354634
O O11 0.000000 0.500000 0.500000
O O12 0.229177 0.450554 0.856060
O O13 0.384456 0.778346 0.617948
O O14 0.000000 0.500000 0.000000
O O15 0.500000 0.500000 0.500000
#
# Coordination Sequence:
#
# PCOD9052403 Si02
#       7
#     2   2   2   2   2   2   1
#     4  11  25  45  70 103 138 186 238 288 354 428
#     4  11  24  44  72 105 142 191 233 297 363 422
#     4  11  26  44  70 105 137 186 242 287 361 424
#     4  11  24  45  69 102 141 178 242 293 351 437
#     4  11  27  44  70 104 135 189 230 292 369 412
#     4  12  24  47  71 100 145 181 232 297 360 429
#     4  10  26  46  66 104 146 172 244 290 350 432
#
# _framework density 22.710203
#
# number of rings (size 3 to 8) (size 9 to 14) (size 15 to 20)
#    0.000    0.923    3.077    2.308    8.615    1.846 
#    0.000    0.000    0.000    0.000    0.000    0.000 
#    0.000    0.000    0.000    0.000    0.000    0.000 
#
# Total GULP energy -72514.375696 kJ/mol
# GULP energy per Si atom -5578.028900 kJ/mol
# Density = 2.265851 g / cm^3
# Si number density = 22.710203 Si / 1000 Ang^3
#
#
#
# Elastic Constant Matrix: (Units=GPa)
#
#
# Indices 1 2 3 4 5 6 
#
# 1 114.3011 23.4769 27.3715 -3.2004 5.9562 -33.8540
# 2 23.4769 77.8874 9.5848 -15.3337 15.0400 -7.8707
# 3 27.3715 9.5848 98.6764 -18.7372 21.4553 -15.0579
# 4 -3.2004 -15.3337 -18.7372 28.4357 0.7414 -0.9476
# 5 5.9562 15.0400 21.4553 0.7414 40.4593 -1.4168
# 6 -33.8540 -7.8707 -15.0579 -0.9476 -1.4168 33.1710
#
#
#
# Elastic Compliance Matrix: (Units=1/GPa)
#
#
# Indices 1 2 3 4 5 6 
#
# 1 0.013291 -0.002829 -0.001847 -0.000858 0.000512 0.012052
# 2 -0.002829 0.017387 0.003478 0.011651 -0.008006 0.002808
# 3 -0.001847 0.003478 0.015597 0.012387 -0.009309 0.005976
# 4 -0.000858 0.011651 0.012387 0.050094 -0.011395 0.008456
# 5 0.000512 -0.008006 -0.009309 -0.011395 0.032604 -0.004536
# 6 0.012052 0.002808 0.005976 0.008456 -0.004536 0.045874
#
#
# Mechanical properties :
#
#
# Convention : Reuss Voigt Hill
#
# Bulk Modulus (GPa) = 22.79036 45.74791 34.26913
# Shear Modulus (GPa) = 26.05916 35.77529 30.91723
#
# Velocity S-wave (km/s) = 3.39110 3.97331 3.69369
# Velocity P-wave (km/s) = 5.03883 6.42164 5.77180
#
# Compressibility (1/GPa) = 0.04387821
#
# Stress axis : x y z
#
# Youngs Moduli (GPa) = 75.23759 57.51303 64.11534
#
# Poissons Ratio (x) = 0.16270 0.11844
# Poissons Ratio (y) = 0.21284 -0.22296
# Poissons Ratio (z) = 0.13898 -0.20000
#
# Static dielectric constant tensor:
#      x y z
#    x 1.832190 0.021110 0.008120 
#    y 0.021110 1.953930 0.080810 
#    z 0.008120 0.080810 1.971740 
# 
# From -- ./inp_files/174688.got.cif
#   From: 2010.05.17/outbox.cif.g08.bks.cpg/sg2_88_cif.got.tgz:174688.got - 2010.06.03 11:33:40.
