data_PCOD9052267
_publ_section_title
;
Structure prediction by ZEFSAII (Michael W. Deem and Ramdas Pophale) SiO2 
 PCOD9052267
Probable space group: P -1
;
_chemical_formula_sum "Si O2"
_cell_formula_units_Z 11
_cell_length_a 9.122374
_cell_length_b 9.429162
_cell_length_c 14.715839
_cell_angle_alpha 33.605830
_cell_angle_beta 53.419316
_cell_angle_gamma 46.511539
_cell_volume 507.470620
_symmetry_space_group_name_H-M "P -1"
_symmetry_group_IT_number 2
_symmetry_cell_setting 'triclinic'
loop_
_space_group_symop_operation_xyz
x,y,z
-x,-y,-z
loop_
_atom_site_type_symbol
_atom_site_label
_atom_site_fract_x
_atom_site_fract_y
_atom_site_fract_z
Si Si1 0.370400 0.973685 0.646242
Si Si2 0.896623 0.286414 0.326799
Si Si3 0.548948 0.554540 0.554482
Si Si4 0.500000 0.500000 0.000000
Si Si5 0.058067 0.996641 0.241787
Si Si6 0.026125 0.743435 0.060469
O O1 0.392420 0.183806 0.600955
O O2 0.500000 0.000000 0.500000
O O3 0.137184 0.072545 0.652477
O O4 0.451159 0.670330 0.826870
O O5 0.660544 0.369475 0.355539
O O6 0.011816 0.214993 0.226023
O O7 0.922909 0.538900 0.234259
O O8 0.000000 0.000000 0.500000
O O9 0.500000 0.500000 0.500000
O O10 0.735910 0.278752 0.669482
O O11 0.264174 0.555406 0.064144
O O12 0.065529 0.125983 0.072750
O O13 0.000000 0.000000 0.000000
#
# Coordination Sequence:
#
# PCOD9052267 Si02
#       6
#     2   2   2   1   2   2
#     4  11  24  47  73 103 144 191 238 295 362 426
#     4  12  25  45  71 104 141 186 235 293 359 428
#     4  12  26  42  73 104 141 186 235 296 358 428
#     4  10  26  44  70 100 144 184 232 292 362 416
#     4  11  26  45  70 105 142 185 237 293 359 431
#     4  11  28  45  72 105 142 187 239 300 358 425
#
# _framework density 21.676131000000002
#
# number of rings (size 3 to 8) (size 9 to 14) (size 15 to 20)
#    0.000    0.727    3.636    2.182    7.636    0.727 
#    0.000    0.000    0.000    0.000    0.000    0.000 
#    0.000    0.000    0.000    0.000    0.000    0.000 
#
# Total GULP energy -61271.031326 kJ/mol
# GULP energy per Si atom -5570.093757 kJ/mol
# Density = 2.162680 g / cm^3
# Si number density = 21.676131 Si / 1000 Ang^3
#
#
#
# Elastic Constant Matrix: (Units=GPa)
#
#
# Indices 1 2 3 4 5 6 
#
# 1 123.7222 22.8002 62.1610 -7.7495 14.6175 -13.0242
# 2 22.8002 60.0099 43.8138 8.3716 11.2210 8.5005
# 3 62.1610 43.8138 84.7455 2.9519 5.3369 -10.7596
# 4 -7.7495 8.3716 2.9519 14.4301 4.7089 -5.6964
# 5 14.6175 11.2210 5.3369 4.7089 56.4440 -12.2335
# 6 -13.0242 8.5005 -10.7596 -5.6964 -12.2335 59.0840
#
#
#
# Elastic Compliance Matrix: (Units=1/GPa)
#
#
# Indices 1 2 3 4 5 6 
#
# 1 0.015058 0.002252 -0.012216 0.010950 -0.003884 0.001022
# 2 0.002252 0.036666 -0.021037 -0.018155 -0.006925 -0.011794
# 3 -0.012216 -0.021037 0.032206 0.000061 0.005905 0.007427
# 4 0.010950 -0.018155 0.000061 0.092197 -0.004089 0.013079
# 5 -0.003884 -0.006925 0.005905 -0.004089 0.021003 0.005170
# 6 0.001022 -0.011794 0.007427 0.013079 0.005170 0.022531
#
#
# Mechanical properties :
#
#
# Convention : Reuss Voigt Hill
#
# Bulk Modulus (GPa) = 45.60635 58.44754 52.02694
# Shear Modulus (GPa) = 17.30268 35.30514 26.30391
#
# Velocity S-wave (km/s) = 2.82837 4.04016 3.48731
# Velocity P-wave (km/s) = 5.63488 6.98473 6.34580
#
# Compressibility (1/GPa) = 0.02192677
#
# Stress axis : x y z
#
# Youngs Moduli (GPa) = 66.41123 27.27331 31.05005
#
# Poissons Ratio (x) = -0.06142 0.37932
# Poissons Ratio (y) = -0.14957 0.65321
# Poissons Ratio (z) = 0.81130 0.57376
#
# Static dielectric constant tensor:
#      x y z
#    x 1.826090 0.075420 -0.054460 
#    y 0.075420 1.874500 -0.009000 
#    z -0.054460 -0.009000 1.806400 
# 
# From -- ./inp_files/22861.got.cif
#   From: 2010.05.17/outbox.cif.g08.bks.cpg/sg2_12_cif.got.tgz:22861.got - 2010.06.03 11:33:40.
