data_PCOD9052698
_publ_section_title
;
Structure prediction by ZEFSAII (Michael W. Deem and Ramdas Pophale) SiO2 
 PCOD9052698
Probable space group: P -1
;
_chemical_formula_sum "Si O2"
_cell_formula_units_Z 15
_cell_length_a 9.187130
_cell_length_b 22.545444
_cell_length_c 8.547517
_cell_angle_alpha 42.622915
_cell_angle_beta 50.668309
_cell_angle_gamma 30.833282
_cell_volume 614.467170
_symmetry_space_group_name_H-M "P -1"
_symmetry_group_IT_number 2
_symmetry_cell_setting 'triclinic'
loop_
_space_group_symop_operation_xyz
x,y,z
-x,-y,-z
loop_
_atom_site_type_symbol
_atom_site_label
_atom_site_fract_x
_atom_site_fract_y
_atom_site_fract_z
Si Si1 0.756178 0.317329 0.530477
Si Si2 0.042815 0.191047 0.024766
Si Si3 0.310230 0.857382 0.117843
Si Si4 0.715109 0.863842 0.708491
Si Si5 0.264310 0.936916 0.338340
Si Si6 0.000000 0.500000 0.000000
Si Si7 0.543417 0.536030 0.067419
Si Si8 0.120101 0.297560 0.541299
O O1 0.649700 0.256724 0.737182
O O2 0.516487 0.468482 0.347164
O O3 0.995093 0.242962 0.377941
O O4 0.927655 0.286840 0.623768
O O5 0.197177 0.123535 0.214399
O O6 0.186381 0.061412 0.084168
O O7 0.100972 0.272716 0.782529
O O8 0.706311 0.305363 0.055366
O O9 0.310427 0.863209 0.294767
O O10 0.550804 0.831744 0.921628
O O11 0.000000 0.000000 0.000000
O O12 0.500000 0.000000 0.500000
O O13 0.543440 0.832745 0.458211
O O14 0.000000 0.000000 0.500000
O O15 0.022965 0.417211 0.284963
O O16 0.825349 0.489494 0.022112
O O17 0.500000 0.500000 0.000000
#
# Coordination Sequence:
#
# PCOD9052698 Si02
#       8
#     2   2   2   2   2   1   2   2
#     4  11  25  47  72 108 151 195 251 323 376 465
#     4  12  25  47  75 106 149 200 254 316 386 461
#     4  12  26  44  71 113 148 195 255 305 389 467
#     4  12  24  44  73 110 155 195 253 318 385 462
#     4  12  26  43  75 108 149 197 245 319 380 458
#     4  10  26  48  76 108 152 198 256 312 392 470
#     4  11  25  49  77 105 152 200 256 319 388 460
#     4  11  25  49  73 108 151 194 252 320 384 461
#
# _framework density 24.411394000000001
#
# number of rings (size 3 to 8) (size 9 to 14) (size 15 to 20)
#    0.000    0.533    4.000    3.600    3.733    2.133 
#    9.600    1.333    0.000    0.000    0.000    0.000 
#    0.000    0.000    0.000    0.000    0.000    0.000 
#
# Total GULP energy -83586.508535 kJ/mol
# GULP energy per Si atom -5572.433902 kJ/mol
# Density = 2.435583 g / cm^3
# Si number density = 24.411394 Si / 1000 Ang^3
#
#
#
# Elastic Constant Matrix: (Units=GPa)
#
#
# Indices 1 2 3 4 5 6 
#
# 1 126.2047 19.2053 40.5795 -15.5445 -8.7127 -10.1382
# 2 19.2053 48.2321 12.6032 1.8827 -2.1436 -15.4687
# 3 40.5795 12.6032 152.1173 -13.2291 -14.8938 -9.8203
# 4 -15.5445 1.8827 -13.2291 45.9770 -4.4906 0.9135
# 5 -8.7127 -2.1436 -14.8938 -4.4906 52.0647 -4.3423
# 6 -10.1382 -15.4687 -9.8203 0.9135 -4.3423 25.1535
#
#
#
# Elastic Compliance Matrix: (Units=1/GPa)
#
#
# Indices 1 2 3 4 5 6 
#
# 1 0.009518 -0.002899 -0.001821 0.002913 0.001326 0.001466
# 2 -0.002899 0.027236 -0.000520 -0.002402 0.001593 0.015740
# 3 -0.001821 -0.000520 0.007615 0.001766 0.002191 0.002233
# 4 0.002913 -0.002402 0.001766 0.023627 0.002935 0.000035
# 5 0.001326 0.001593 0.002191 0.002935 0.020863 0.005865
# 6 0.001466 0.015740 0.002233 0.000035 0.005865 0.051909
#
#
# Mechanical properties :
#
#
# Convention : Reuss Voigt Hill
#
# Bulk Modulus (GPa) = 29.50793 52.37002 40.93897
# Shear Modulus (GPa) = 30.76049 41.58345 36.17197
#
# Velocity S-wave (km/s) = 3.55362 4.13176 3.85355
# Velocity P-wave (km/s) = 5.38067 6.65294 6.05034
#
# Compressibility (1/GPa) = 0.03388919
#
# Stress axis : x y z
#
# Youngs Moduli (GPa) = 105.05886 36.71625 131.31859
#
# Poissons Ratio (x) = 0.10644 0.23916
# Poissons Ratio (y) = 0.30456 0.06829
# Poissons Ratio (z) = 0.19133 0.01909
#
# Static dielectric constant tensor:
#      x y z
#    x 0.000000 0.000000 0.000000 
#    y 0.000000 0.000000 0.000000 
#    z 0.000000 0.000000 0.000000 
# 
# From -- ./inp_files/225935.got.cif
#   From: 2010.05.17/outbox.cif.g08.bks.cpg/sg2_113_cif.got.tgz:225935.got - 2010.06.03 11:33:40.
