data_PCOD9052347
_publ_section_title
;
Structure prediction by ZEFSAII (Michael W. Deem and Ramdas Pophale) SiO2 
 PCOD9052347
Probable space group: P -1
;
_chemical_formula_sum "Si O2"
_cell_formula_units_Z 16
_cell_length_a 4.993692
_cell_length_b 18.457579
_cell_length_c 8.880679
_cell_angle_alpha 99.578120
_cell_angle_beta 91.962560
_cell_angle_gamma 58.846659
_cell_volume 689.429888
_symmetry_space_group_name_H-M "P -1"
_symmetry_group_IT_number 2
_symmetry_cell_setting 'triclinic'
loop_
_space_group_symop_operation_xyz
x,y,z
-x,-y,-z
loop_
_atom_site_type_symbol
_atom_site_label
_atom_site_fract_x
_atom_site_fract_y
_atom_site_fract_z
Si Si1 0.457831 0.346939 0.086956
Si Si2 0.394121 0.159425 0.678557
Si Si3 0.831214 0.767074 0.973590
Si Si4 0.374955 0.409977 0.765755
Si Si5 0.979497 0.671093 0.425827
Si Si6 0.898143 0.954703 0.361696
Si Si7 0.661461 0.048174 0.088371
Si Si8 0.669688 0.435890 0.340363
O O1 0.226081 0.311233 0.077453
O O2 0.457610 0.406427 0.240924
O O3 0.813515 0.264786 0.072375
O O4 0.413757 0.391312 0.937895
O O5 0.277946 0.229609 0.569770
O O6 0.757505 0.120565 0.711607
O O7 0.301554 0.088736 0.615172
O O8 0.211702 0.207851 0.842896
O O9 0.564190 0.851473 0.913373
O O10 0.138822 0.384773 0.681267
O O11 0.268030 0.507537 0.756263
O O12 0.702361 0.350904 0.662344
O O13 0.050548 0.643911 0.591864
O O14 0.000000 0.000000 0.500000
O O15 0.714823 0.024704 0.255239
O O16 0.500000 0.000000 0.000000
O O17 0.000000 0.000000 0.000000
O O18 0.500000 0.500000 0.500000
#
# Coordination Sequence:
#
# PCOD9052347 Si02
#       8
#     2   2   2   2   2   2   2   2
#     4  12  24  42  68  99 128 169 224 272 314 389
#     4  12  22  43  68  92 133 169 213 269 325 381
#     4  12  24  41  70 100 127 167 226 273 319 374
#     4  11  21  42  66  95 124 167 219 262 311 389
#     4  11  23  40  68  93 128 170 209 262 331 378
#     4  12  26  42  66  98 130 171 216 262 323 392
#     4  12  23  41  68  95 131 174 214 265 322 383
#     4  10  26  45  65  97 137 172 211 267 336 388
#
# _framework density 23.207581000000001
#
# number of rings (size 3 to 8) (size 9 to 14) (size 15 to 20)
#    0.000    0.500    5.000    3.375    0.000    6.000 
#    0.000    4.375    0.000    0.000    0.000    0.000 
#    0.000    0.000    0.000    0.000    0.000    0.000 
#
# Total GULP energy -89607.717014 kJ/mol
# GULP energy per Si atom -5600.482313 kJ/mol
# Density = 2.315476 g / cm^3
# Si number density = 23.207581 Si / 1000 Ang^3
#
#
#
# Elastic Constant Matrix: (Units=GPa)
#
#
# Indices 1 2 3 4 5 6 
#
# 1 91.6645 7.1606 12.3314 -1.0346 17.1367 6.4126
# 2 7.1606 139.7782 52.7062 -39.3739 10.8312 14.1409
# 3 12.3314 52.7062 134.8293 -17.3365 37.4748 16.0889
# 4 -1.0346 -39.3739 -17.3365 53.3905 -5.1647 6.3815
# 5 17.1367 10.8312 37.4748 -5.1647 34.2451 10.7976
# 6 6.4126 14.1409 16.0889 6.3815 10.7976 41.4243
#
#
#
# Elastic Compliance Matrix: (Units=1/GPa)
#
#
# Indices 1 2 3 4 5 6 
#
# 1 0.012140 -0.000600 0.001033 -0.000535 -0.007046 -0.000156
# 2 -0.000600 0.010889 -0.003633 0.007671 0.003333 -0.004264
# 3 0.001033 -0.003633 0.012352 0.000172 -0.012724 -0.000427
# 4 -0.000535 0.007671 0.000172 0.025719 0.003925 -0.007588
# 5 -0.007046 0.003333 -0.012724 0.003925 0.048852 -0.008443
# 6 -0.000156 -0.004264 -0.000427 -0.007588 -0.008443 0.029156
#
#
# Mechanical properties :
#
#
# Convention : Reuss Voigt Hill
#
# Bulk Modulus (GPa) = 34.50702 56.74093 45.62397
# Shear Modulus (GPa) = 32.22330 45.41689 38.82009
#
# Velocity S-wave (km/s) = 3.73028 4.42858 4.09434
# Velocity P-wave (km/s) = 5.78398 7.11703 6.48485
#
# Compressibility (1/GPa) = 0.02897961
#
# Stress axis : x y z
#
# Youngs Moduli (GPa) = 82.37542 91.83887 80.95739
#
# Poissons Ratio (x) = 0.05512 -0.08361
# Poissons Ratio (y) = 0.04944 0.29411
# Poissons Ratio (z) = -0.08507 0.33364
#
# Static dielectric constant tensor:
#      x y z
#    x 1.838520 -0.049390 -0.057100 
#    y -0.049390 1.904090 0.024560 
#    z -0.057100 0.024560 1.857780 
# 
# From -- ./inp_files/55527.got.cif
#   From: 2010.05.17/outbox.cif.g08.bks.cpg/sg2_28_cif.got.tgz:55527.got - 2010.06.03 11:33:40.
