data_PCOD9052701
_publ_section_title
;
Structure prediction by ZEFSAII (Michael W. Deem and Ramdas Pophale) SiO2 
 PCOD9052701
Probable space group: P -1
;
_chemical_formula_sum "Si O2"
_cell_formula_units_Z 9
_cell_length_a 8.391770
_cell_length_b 7.647390
_cell_length_c 9.238516
_cell_angle_alpha 100.799722
_cell_angle_beta 85.747072
_cell_angle_gamma 146.740187
_cell_volume 315.629888
_symmetry_space_group_name_H-M "P -1"
_symmetry_group_IT_number 2
_symmetry_cell_setting 'triclinic'
loop_
_space_group_symop_operation_xyz
x,y,z
-x,-y,-z
loop_
_atom_site_type_symbol
_atom_site_label
_atom_site_fract_x
_atom_site_fract_y
_atom_site_fract_z
Si Si1 0.571810 0.285121 0.712102
Si Si2 0.000000 0.500000 0.000000
Si Si3 0.405575 0.745048 0.760265
Si Si4 0.122776 0.956198 0.894211
Si Si5 0.149245 0.957826 0.428894
O O1 0.900950 0.662250 0.744345
O O2 0.559769 0.079415 0.758683
O O3 0.389730 0.115659 0.552250
O O4 0.409588 0.265257 0.831520
O O5 0.755648 0.393938 0.096581
O O6 0.845896 0.178260 0.020668
O O7 0.115158 0.428599 0.634617
O O8 0.655941 0.842134 0.700775
O O9 0.000000 0.000000 0.000000
O O10 0.000000 0.000000 0.500000
#
# Coordination Sequence:
#
# PCOD9052701 Si02
#       5
#     2   1   2   2   2
#     4  11  24  47  71 106 141 195 247 294 375 424
#     4  10  26  48  76 110 140 200 248 290 384 420
#     4  11  24  46  76 102 151 191 245 303 357 454
#     4  11  25  46  74 104 150 190 243 310 357 445
#     4  12  26  45  72 113 147 192 243 306 367 435
#
# _framework density 28.514410000000002
#
# number of rings (size 3 to 8) (size 9 to 14) (size 15 to 20)
#    0.000    0.889    0.000    6.667    3.111    8.000 
#    4.000    0.000    0.000    0.000    0.000    0.000 
#    0.000    0.000    0.000    0.000    0.000    0.000 
#
# Total GULP energy -50254.596028 kJ/mol
# GULP energy per Si atom -5583.844003 kJ/mol
# Density = 2.844951 g / cm^3
# Si number density = 28.514410 Si / 1000 Ang^3
#
#
#
# Elastic Constant Matrix: (Units=GPa)
#
#
# Indices 1 2 3 4 5 6 
#
# 1 95.3492 19.7335 38.6771 -19.9611 -32.2436 12.9966
# 2 19.7335 143.0520 41.0155 -13.8126 -9.7368 24.6323
# 3 38.6771 41.0155 121.6916 -19.0942 -27.5790 21.2779
# 4 -19.9611 -13.8126 -19.0942 64.9958 14.4498 -15.5223
# 5 -32.2436 -9.7368 -27.5790 14.4498 54.9191 -15.3599
# 6 12.9966 24.6323 21.2779 -15.5223 -15.3599 43.5425
#
#
#
# Elastic Compliance Matrix: (Units=1/GPa)
#
#
# Indices 1 2 3 4 5 6 
#
# 1 0.014262 -0.000653 -0.002575 0.002138 0.006523 0.000434
# 2 -0.000653 0.008290 -0.002139 0.000286 -0.001109 -0.003738
# 3 -0.002575 -0.002139 0.010877 0.000842 0.002774 -0.002058
# 4 0.002138 0.000286 0.000842 0.017810 -0.001687 0.004542
# 5 0.006523 -0.001109 0.002774 -0.001687 0.025254 0.005632
# 6 0.000434 -0.003738 -0.002058 0.004542 0.005632 0.029563
#
#
# Mechanical properties :
#
#
# Convention : Reuss Voigt Hill
#
# Bulk Modulus (GPa) = 44.06320 62.10499 53.08409
# Shear Modulus (GPa) = 40.20729 50.06927 45.13828
#
# Velocity S-wave (km/s) = 3.75916 4.19493 3.98301
# Velocity P-wave (km/s) = 5.85903 6.72984 6.30947
#
# Compressibility (1/GPa) = 0.02269468
#
# Stress axis : x y z
#
# Youngs Moduli (GPa) = 70.11764 120.63006 91.93307
#
# Poissons Ratio (x) = 0.07883 0.23669
# Poissons Ratio (y) = 0.04582 0.19665
# Poissons Ratio (z) = 0.18052 0.25804
#
# Static dielectric constant tensor:
#      x y z
#    x 1.800080 -0.577580 0.517370 
#    y -0.577580 1.147430 0.758640 
#    z 0.517370 0.758640 2.310750 
# 
# From -- ./inp_files/633.got.cif
#   From: 2010.05.17/outbox.cif.g08.bks.cpg/sg2_1_cif.got.tgz:633.got - 2010.06.03 11:33:40.
