data_PCOD9052183
_publ_section_title
;
Structure prediction by ZEFSAII (Michael W. Deem and Ramdas Pophale) SiO2 
 PCOD9052183
Probable space group: P -1
;
_chemical_formula_sum "Si O2"
_cell_formula_units_Z 11
_cell_length_a 5.264171
_cell_length_b 18.410903
_cell_length_c 11.147294
_cell_angle_alpha 148.910050
_cell_angle_beta 45.748023
_cell_angle_gamma 130.013698
_cell_volume 396.581898
_symmetry_space_group_name_H-M "P -1"
_symmetry_group_IT_number 2
_symmetry_cell_setting 'triclinic'
loop_
_space_group_symop_operation_xyz
x,y,z
-x,-y,-z
loop_
_atom_site_type_symbol
_atom_site_label
_atom_site_fract_x
_atom_site_fract_y
_atom_site_fract_z
Si Si1 0.656759 0.196916 0.973458
Si Si2 0.500000 0.500000 0.500000
Si Si3 0.391445 0.825448 0.762229
Si Si4 0.342898 0.472303 0.771334
Si Si5 0.810890 0.093748 0.315707
Si Si6 0.380728 0.345920 0.884740
O O1 0.432768 0.329769 0.244331
O O2 0.751610 0.179113 0.059720
O O3 0.999782 0.253403 0.858909
O O4 0.456070 0.050589 0.781876
O O5 0.262332 0.470580 0.656376
O O6 0.473120 0.669002 0.473313
O O7 0.191736 0.880796 0.791580
O O8 0.796870 0.904846 0.755051
O O9 0.635010 0.600548 0.897044
O O10 0.000000 0.500000 0.000000
O O11 0.655993 0.232158 0.615814
O O12 0.500000 0.500000 0.000000
#
# Coordination Sequence:
#
# PCOD9052183 Si02
#       6
#     2   1   2   2   2   2
#     4  11  27  46  73 117 152 200 265 322 387 471
#     4  10  26  42  72 106 152 196 262 314 386 460
#     4  11  26  47  79 110 158 202 256 322 395 462
#     4  11  22  44  73 111 153 206 257 318 389 463
#     4  12  26  50  78 114 155 205 253 324 394 467
#     4  12  25  46  77 109 160 205 261 319 395 466
#
# _framework density 27.737022
#
# number of rings (size 3 to 8) (size 9 to 14) (size 15 to 20)
#    0.000    0.727    3.636    2.727    2.545    7.273 
#    0.000    2.727    0.000    0.000    0.000    0.000 
#    0.000    0.000    0.000    0.000    0.000    0.000 
#
# Total GULP energy -61300.222615 kJ/mol
# GULP energy per Si atom -5572.747510 kJ/mol
# Density = 2.767389 g / cm^3
# Si number density = 27.737022 Si / 1000 Ang^3
#
#
#
# Elastic Constant Matrix: (Units=GPa)
#
#
# Indices 1 2 3 4 5 6 
#
# 1 135.3396 48.7929 18.2563 -0.4860 -1.9989 -0.7292
# 2 48.7929 199.3486 53.3653 19.7960 -8.9317 13.0273
# 3 18.2563 53.3653 125.7483 29.4849 15.1955 -15.8823
# 4 -0.4860 19.7960 29.4849 61.1910 2.0531 9.8428
# 5 -1.9989 -8.9317 15.1955 2.0531 40.8415 5.1024
# 6 -0.7292 13.0273 -15.8823 9.8428 5.1024 38.2650
#
#
#
# Elastic Compliance Matrix: (Units=1/GPa)
#
#
# Indices 1 2 3 4 5 6 
#
# 1 0.008176 -0.001971 -0.000521 0.000892 0.000072 0.000372
# 2 -0.001971 0.006885 -0.003598 0.000077 0.003285 -0.004333
# 3 -0.000521 -0.003598 0.012968 -0.006334 -0.006454 0.009087
# 4 0.000892 0.000077 -0.006334 0.020625 0.002413 -0.008265
# 5 0.000072 0.003285 -0.006454 0.002413 0.028514 -0.008219
# 6 0.000372 -0.004333 0.009087 -0.008265 -0.008219 0.034609
#
#
# Mechanical properties :
#
#
# Convention : Reuss Voigt Hill
#
# Bulk Modulus (GPa) = 63.10099 77.91839 70.50969
# Shear Modulus (GPa) = 38.68784 50.72763 44.70774
#
# Velocity S-wave (km/s) = 3.73877 4.28118 4.01913
# Velocity P-wave (km/s) = 6.43715 7.25195 6.85667
#
# Compressibility (1/GPa) = 0.01584761
#
# Stress axis : x y z
#
# Youngs Moduli (GPa) = 122.30797 145.25127 77.11465
#
# Poissons Ratio (x) = 0.28633 0.04019
# Poissons Ratio (y) = 0.24110 0.27745
# Poissons Ratio (z) = 0.06375 0.52260
#
# Static dielectric constant tensor:
#      x y z
#    x 2.286650 -0.095050 0.249420 
#    y -0.095050 2.210200 0.122430 
#    z 0.249420 0.122430 1.867100 
# 
# From -- ./inp_files/94249.got.cif
#   From: 2010.05.17/outbox.cif.g08.bks.cpg/sg2_48_cif.got.tgz:94249.got - 2010.06.03 11:33:40.
