data_PCOD9052668
_publ_section_title
;
Structure prediction by ZEFSAII (Michael W. Deem and Ramdas Pophale) SiO2 
 PCOD9052668
Probable space group: P -1
;
_chemical_formula_sum "Si O2"
_cell_formula_units_Z 15
_cell_length_a 12.449773
_cell_length_b 11.819623
_cell_length_c 6.267189
_cell_angle_alpha 116.489952
_cell_angle_beta 76.158292
_cell_angle_gamma 125.889172
_cell_volume 668.389180
_symmetry_space_group_name_H-M "P -1"
_symmetry_group_IT_number 2
_symmetry_cell_setting 'triclinic'
loop_
_space_group_symop_operation_xyz
x,y,z
-x,-y,-z
loop_
_atom_site_type_symbol
_atom_site_label
_atom_site_fract_x
_atom_site_fract_y
_atom_site_fract_z
Si Si1 0.859899 0.079938 0.907824
Si Si2 0.588266 0.002658 0.768646
Si Si3 0.500000 0.500000 0.500000
Si Si4 0.102514 0.676887 0.575766
Si Si5 0.048072 0.263661 0.628468
Si Si6 0.295257 0.449804 0.928521
Si Si7 0.231289 0.239843 0.178191
Si Si8 0.379247 0.753058 0.382166
O O1 0.725634 0.037211 0.817876
O O2 0.971726 0.126180 0.715961
O O3 0.820522 0.935721 0.948247
O O4 0.907731 0.225455 0.153641
O O5 0.605310 0.130881 0.708368
O O6 0.506377 0.842279 0.548998
O O7 0.500000 0.000000 0.000000
O O8 0.403738 0.471759 0.727946
O O9 0.373068 0.346126 0.314816
O O10 0.249373 0.712696 0.539348
O O11 0.000000 0.500000 0.500000
O O12 0.063624 0.717789 0.405617
O O13 0.164093 0.408832 0.825112
O O14 0.124534 0.245510 0.381975
O O15 0.248220 0.312766 0.000363
O O16 0.354222 0.601265 0.166685
#
# Coordination Sequence:
#
# PCOD9052668 Si02
#       8
#     2   2   1   2   2   2   2   2
#     4  12  26  45  75 104 148 194 244 297 361 437
#     4  11  25  45  70 108 142 191 239 303 366 428
#     4  10  26  48  72 106 140 198 234 290 370 426
#     4  12  26  44  72 107 143 192 242 299 364 431
#     4  11  25  47  69 105 145 194 243 302 358 425
#     4  11  26  48  76 105 149 190 241 304 357 438
#     4  11  26  46  72 108 143 192 245 299 360 429
#     4  11  25  45  72 107 142 186 247 298 363 435
#
# _framework density 22.442015000000001
#
# number of rings (size 3 to 8) (size 9 to 14) (size 15 to 20)
#    0.000    0.800    2.667    3.200    5.600    6.400 
#    0.000    0.000    0.000    0.000    0.000    0.000 
#    0.000    0.000    0.000    0.000    0.000    0.000 
#
# Total GULP energy -83735.898482 kJ/mol
# GULP energy per Si atom -5582.393232 kJ/mol
# Density = 2.239094 g / cm^3
# Si number density = 22.442015 Si / 1000 Ang^3
#
#
#
# Elastic Constant Matrix: (Units=GPa)
#
#
# Indices 1 2 3 4 5 6 
#
# 1 58.9834 58.5018 45.8652 8.3624 11.7208 16.0333
# 2 58.5018 107.8736 52.7003 3.2117 -3.7239 19.1099
# 3 45.8652 52.7003 110.1776 5.9314 -4.6138 5.9559
# 4 8.3624 3.2117 5.9314 39.5791 15.2629 -7.3863
# 5 11.7208 -3.7239 -4.6138 15.2629 32.7920 -2.7993
# 6 16.0333 19.1099 5.9559 -7.3863 -2.7993 34.6338
#
#
#
# Elastic Compliance Matrix: (Units=1/GPa)
#
#
# Indices 1 2 3 4 5 6 
#
# 1 0.063795 -0.025712 -0.014568 -0.001052 -0.028595 -0.015376
# 2 -0.025712 0.023806 -0.000057 -0.001405 0.012496 -0.000512
# 3 -0.014568 -0.000057 0.015374 -0.001676 0.008525 0.004463
# 4 -0.001052 -0.001405 -0.001676 0.032900 -0.014703 0.007379
# 5 -0.028595 0.012496 0.008525 -0.014703 0.050676 0.005837
# 6 -0.015376 -0.000512 0.004463 0.007379 0.005837 0.037552
#
#
# Mechanical properties :
#
#
# Convention : Reuss Voigt Hill
#
# Bulk Modulus (GPa) = 44.84055 65.68548 55.26301
# Shear Modulus (GPa) = 16.01488 29.39881 22.70684
#
# Velocity S-wave (km/s) = 2.67425 3.62330 3.18433
# Velocity P-wave (km/s) = 5.43686 6.84375 6.18047
#
# Compressibility (1/GPa) = 0.02230124
#
# Stress axis : x y z
#
# Youngs Moduli (GPa) = 15.67522 42.00638 65.04640
#
# Poissons Ratio (x) = 1.08007 0.94758
# Poissons Ratio (y) = 0.40304 0.00369
# Poissons Ratio (z) = 0.22835 0.00238
#
# Static dielectric constant tensor:
#      x y z
#    x 1.831520 -0.028370 0.029270 
#    y -0.028370 1.826440 -0.020880 
#    z 0.029270 -0.020880 1.806330 
# 
# From -- ./inp_files/70196.got.cif
#   From: 2010.05.17/outbox.cif.g08.bks.cpg/sg2_36_cif.got.tgz:70196.got - 2010.06.03 11:33:40.
