data_PCOD9052728
_publ_section_title
;
Structure prediction by ZEFSAII (Michael W. Deem and Ramdas Pophale) SiO2 
 PCOD9052728
Probable space group: P -1
;
_chemical_formula_sum "Si O2"
_cell_formula_units_Z 15
_cell_length_a 11.859802
_cell_length_b 11.080411
_cell_length_c 9.647518
_cell_angle_alpha 115.528607
_cell_angle_beta 129.376731
_cell_angle_gamma 36.893048
_cell_volume 580.281261
_symmetry_space_group_name_H-M "P -1"
_symmetry_group_IT_number 2
_symmetry_cell_setting 'triclinic'
loop_
_space_group_symop_operation_xyz
x,y,z
-x,-y,-z
loop_
_atom_site_type_symbol
_atom_site_label
_atom_site_fract_x
_atom_site_fract_y
_atom_site_fract_z
Si Si1 0.647216 0.998909 0.704570
Si Si2 0.836560 0.096861 0.733448
Si Si3 0.500000 0.500000 0.500000
Si Si4 0.988310 0.662461 0.041868
Si Si5 0.706090 0.933658 0.199261
Si Si6 0.734924 0.217596 0.290521
Si Si7 0.780419 0.637611 0.307315
Si Si8 0.722705 0.423080 0.968761
O O1 0.794946 0.980866 0.706073
O O2 0.500000 0.000000 0.500000
O O3 0.456654 0.222094 0.735515
O O4 0.804489 0.827828 0.863160
O O5 0.619591 0.297009 0.581651
O O6 0.768778 0.449492 0.860753
O O7 0.837566 0.201494 0.918005
O O8 0.045187 0.945947 0.714540
O O9 0.697406 0.343865 0.450940
O O10 0.910323 0.778746 0.179152
O O11 0.000000 0.500000 0.000000
O O12 0.751857 0.804807 0.299260
O O13 0.675251 0.113492 0.259336
O O14 0.500000 0.000000 0.000000
O O15 0.537942 0.399197 0.122966
O O16 0.812041 0.486928 0.158113
O O17 0.000000 0.500000 0.500000
#
# Coordination Sequence:
#
# PCOD9052728 Si02
#       8
#     2   2   1   2   2   2   2   2
#     4  12  30  51  76 118 164 214 272 350 420 483
#     4  11  27  50  81 116 165 218 274 340 417 495
#     4  10  26  48  78 118 162 220 268 334 406 494
#     4  12  23  46  78 116 156 210 275 328 408 490
#     4  12  22  44  82 112 155 211 273 337 401 485
#     4  11  23  49  80 118 159 213 277 333 407 484
#     4  12  27  50  76 122 164 216 276 347 417 485
#     4  11  24  48  78 117 156 210 275 333 406 491
#
# _framework density 25.849533000000001
#
# number of rings (size 3 to 8) (size 9 to 14) (size 15 to 20)
#    0.000    0.533    5.333    1.200    1.867    3.200 
#    9.600    0.000    0.000    0.000    0.000    0.000 
#    0.000    0.000    0.000    0.000    0.000    0.000 
#
# Total GULP energy -83582.324428 kJ/mol
# GULP energy per Si atom -5572.154962 kJ/mol
# Density = 2.579070 g / cm^3
# Si number density = 25.849533 Si / 1000 Ang^3
#
#
#
# Elastic Constant Matrix: (Units=GPa)
#
#
# Indices 1 2 3 4 5 6 
#
# 1 137.9675 62.0734 40.2262 -11.1680 7.2490 9.4052
# 2 62.0734 195.5877 32.4039 1.9805 11.7464 -21.0502
# 3 40.2262 32.4039 61.9486 -9.3841 -0.9772 7.3469
# 4 -11.1680 1.9805 -9.3841 64.8953 7.2975 -9.0553
# 5 7.2490 11.7464 -0.9772 7.2975 27.8399 -7.6408
# 6 9.4052 -21.0502 7.3469 -9.0553 -7.6408 56.2492
#
#
#
# Elastic Compliance Matrix: (Units=1/GPa)
#
#
# Indices 1 2 3 4 5 6 
#
# 1 0.010188 -0.002504 -0.004920 0.001113 -0.002659 -0.002180
# 2 -0.002504 0.006695 -0.002312 -0.000404 -0.001330 0.002981
# 3 -0.004920 -0.002312 0.021109 0.001745 0.001920 -0.002258
# 4 0.001113 -0.000404 0.001745 0.016529 -0.003963 0.001557
# 5 -0.002659 -0.001330 0.001920 -0.003963 0.039493 0.004423
# 6 -0.002180 0.002981 -0.002258 0.001557 0.004423 0.020404
#
#
# Mechanical properties :
#
#
# Convention : Reuss Voigt Hill
#
# Bulk Modulus (GPa) = 53.99692 73.87898 63.93795
# Shear Modulus (GPa) = 35.69797 47.18355 41.44076
#
# Velocity S-wave (km/s) = 3.72020 4.27701 4.00828
# Velocity P-wave (km/s) = 6.27594 7.28236 6.79780
#
# Compressibility (1/GPa) = 0.01851957
#
# Stress axis : x y z
#
# Youngs Moduli (GPa) = 98.15683 149.35784 47.37315
#
# Poissons Ratio (x) = 0.37404 0.23309
# Poissons Ratio (y) = 0.24582 0.10951
# Poissons Ratio (z) = 0.48296 0.34527
#
# Static dielectric constant tensor:
#      x y z
#    x 3.177610 0.360840 0.667160 
#    y 0.360840 2.323690 0.341740 
#    z 0.667160 0.341740 2.740640 
# 
# From -- ./inp_files/472251.got.cif
#   From: 2010.05.17/outbox.cif.g08.bks.cpg/sg2_237_cif.got.tgz:472251.got - 2010.06.03 11:33:40.
