data_PCOD9052249
_publ_section_title
;
Structure prediction by ZEFSAII (Michael W. Deem and Ramdas Pophale) SiO2 
 PCOD9052249
Probable space group: P -1
;
_chemical_formula_sum "Si O2"
_cell_formula_units_Z 14
_cell_length_a 12.144236
_cell_length_b 16.175433
_cell_length_c 11.634862
_cell_angle_alpha 147.579777
_cell_angle_beta 41.754673
_cell_angle_gamma 155.266345
_cell_volume 510.492188
_symmetry_space_group_name_H-M "P -1"
_symmetry_group_IT_number 2
_symmetry_cell_setting 'triclinic'
loop_
_space_group_symop_operation_xyz
x,y,z
-x,-y,-z
loop_
_atom_site_type_symbol
_atom_site_label
_atom_site_fract_x
_atom_site_fract_y
_atom_site_fract_z
Si Si1 0.251808 0.820297 0.570479
Si Si2 0.265054 0.619651 0.691237
Si Si3 0.053183 0.356653 0.759893
Si Si4 0.869442 0.979557 0.931325
Si Si5 0.431411 0.375657 0.067717
Si Si6 0.547609 0.810421 0.476885
Si Si7 0.009372 0.259144 0.929567
O O1 0.225737 0.944018 0.825879
O O2 0.306949 0.717740 0.491631
O O3 0.982687 0.620130 0.473118
O O4 0.500000 0.000000 0.500000
O O5 0.514630 0.799700 0.627111
O O6 0.281376 0.539011 0.702343
O O7 0.186637 0.739744 0.914906
O O8 0.078657 0.278687 0.765274
O O9 0.807688 0.096676 0.582593
O O10 0.000000 0.500000 0.000000
O O11 0.164780 0.146447 0.936751
O O12 0.897921 0.053392 0.864361
O O13 0.665494 0.706483 0.820355
O O14 0.526740 0.615423 0.243188
O O15 0.694009 0.470434 0.945589
#
# Coordination Sequence:
#
# PCOD9052249 Si02
#       7
#     2   2   2   2   2   2   2
#     4  12  22  41  76 102 136 173 227 288 337 399
#     4  11  22  43  71 103 133 176 235 279 338 400
#     4  10  26  44  68 101 134 180 234 281 329 404
#     4  11  24  45  68 105 139 178 222 277 350 408
#     4  11  26  42  70 104 140 178 219 285 346 401
#     4  12  24  44  70 103 136 178 228 286 336 398
#     4  11  24  44  69  96 142 183 226 274 342 404
#
# _framework density 27.424513000000001
#
# number of rings (size 3 to 8) (size 9 to 14) (size 15 to 20)
#    0.000    0.857    4.286    2.571    2.000    7.429 
#    0.000    1.429    0.000    0.000    0.000    0.000 
#    0.000    0.000    0.000    0.000    0.000    0.000 
#
# Total GULP energy -78401.855523 kJ/mol
# GULP energy per Si atom -5600.132537 kJ/mol
# Density = 2.736209 g / cm^3
# Si number density = 27.424513 Si / 1000 Ang^3
#
#
#
# Elastic Constant Matrix: (Units=GPa)
#
#
# Indices 1 2 3 4 5 6 
#
# 1 130.5698 65.0451 18.5654 -2.9313 10.1639 -50.0070
# 2 65.0451 194.9621 10.4012 3.9956 2.5983 -28.4693
# 3 18.5654 10.4012 72.9650 12.6707 -4.7015 1.7416
# 4 -2.9313 3.9956 12.6707 42.1515 -8.3343 11.4692
# 5 10.1639 2.5983 -4.7015 -8.3343 25.9789 -4.9530
# 6 -50.0070 -28.4693 1.7416 11.4692 -4.9530 72.9270
#
#
#
# Elastic Compliance Matrix: (Units=1/GPa)
#
#
# Indices 1 2 3 4 5 6 
#
# 1 0.012732 -0.002915 -0.003136 -0.000742 -0.004064 0.007508
# 2 -0.002915 0.006199 0.000020 -0.000886 0.000351 0.000584
# 3 -0.003136 0.000020 0.015374 -0.003889 0.002429 -0.001733
# 4 -0.000742 -0.000886 -0.003889 0.027695 0.007684 -0.004596
# 5 -0.004064 0.000351 0.002429 0.007684 0.042759 -0.001012
# 6 0.007508 0.000584 -0.001733 -0.004596 -0.001012 0.019784
#
#
# Mechanical properties :
#
#
# Convention : Reuss Voigt Hill
#
# Bulk Modulus (GPa) = 44.95631 65.16892 55.06261
# Shear Modulus (GPa) = 34.71761 48.51050 41.61405
#
# Velocity S-wave (km/s) = 3.56186 4.21036 3.89961
# Velocity P-wave (km/s) = 5.77443 6.88845 6.35590
#
# Compressibility (1/GPa) = 0.02224382
#
# Stress axis : x y z
#
# Youngs Moduli (GPa) = 78.54283 161.30827 65.04659
#
# Poissons Ratio (x) = 0.47016 0.20400
# Poissons Ratio (y) = 0.22893 -0.00133
# Poissons Ratio (z) = 0.24633 -0.00330
#
# Static dielectric constant tensor:
#      x y z
#    x 2.174040 -0.010000 0.045060 
#    y -0.010000 2.100370 0.004890 
#    z 0.045060 0.004890 2.243760 
# 
# From -- ./inp_files/433306.got.cif
#   From: 2010.05.17/outbox.cif.g08.bks.cpg/sg2_217_cif.got.tgz:433306.got - 2010.06.03 11:33:40.
