data_PCOD9052621
_publ_section_title
;
Structure prediction by ZEFSAII (Michael W. Deem and Ramdas Pophale) SiO2 
 PCOD9052621
Probable space group: P -1
;
_chemical_formula_sum "Si O2"
_cell_formula_units_Z 10
_cell_length_a 16.862487
_cell_length_b 5.029758
_cell_length_c 5.074204
_cell_angle_alpha 92.111846
_cell_angle_beta 62.923952
_cell_angle_gamma 97.193740
_cell_volume 380.082803
_symmetry_space_group_name_H-M "P -1"
_symmetry_group_IT_number 2
_symmetry_cell_setting 'triclinic'
loop_
_space_group_symop_operation_xyz
x,y,z
-x,-y,-z
loop_
_atom_site_type_symbol
_atom_site_label
_atom_site_fract_x
_atom_site_fract_y
_atom_site_fract_z
Si Si1 0.489411 0.252950 0.704221
Si Si2 0.940383 0.054604 0.343253
Si Si3 0.818361 0.369088 0.799570
Si Si4 0.647631 0.069454 0.755403
Si Si5 0.207743 0.120909 0.794748
O O1 0.500000 0.500000 0.500000
O O2 0.500000 0.000000 0.500000
O O3 0.571289 0.248045 0.786023
O O4 0.398166 0.165710 0.996809
O O5 0.847580 0.872432 0.394624
O O6 0.902847 0.337882 0.477866
O O7 0.000000 0.000000 0.500000
O O8 0.000000 0.000000 0.000000
O O9 0.807019 0.634071 0.988238
O O10 0.727318 0.262251 0.779106
O O11 0.828251 0.146402 0.001696
O O12 0.692270 0.922752 0.442531
#
# Coordination Sequence:
#
# PCOD9052621 Si02
#       5
#     2   2   2   2   2
#     4  11  26  47  75 110 153 205 266 334 398 470
#     4  11  24  49  80 117 158 207 262 325 390 473
#     4  11  26  48  76 113 156 208 259 323 394 472
#     4  10  26  47  76 112 154 210 270 329 398 478
#     4  11  26  48  76 113 156 208 259 323 394 472
#
# _framework density 26.310057
#
# number of rings (size 3 to 8) (size 9 to 14) (size 15 to 20)
#    0.000    1.200    2.000    1.200    0.000   20.800 
#    0.000    3.000    0.000    0.000    0.000    0.000 
#    0.000    0.000    0.000    0.000    0.000    0.000 
#
# Total GULP energy -56035.120363 kJ/mol
# GULP energy per Si atom -5603.512036 kJ/mol
# Density = 2.625017 g / cm^3
# Si number density = 26.310057 Si / 1000 Ang^3
#
#
#
# Elastic Constant Matrix: (Units=GPa)
#
#
# Indices 1 2 3 4 5 6 
#
# 1 145.4936 8.7697 11.6965 1.5486 21.2626 8.2031
# 2 8.7697 177.1503 53.8715 15.2605 11.2484 1.6489
# 3 11.6965 53.8715 154.0959 23.5791 -0.3053 -8.2601
# 4 1.5486 15.2605 23.5791 54.9329 -6.6808 12.9403
# 5 21.2626 11.2484 -0.3053 -6.6808 53.8983 8.6620
# 6 8.2031 1.6489 -8.2601 12.9403 8.6620 29.8055
#
#
#
# Elastic Compliance Matrix: (Units=1/GPa)
#
#
# Indices 1 2 3 4 5 6 
#
# 1 0.007400 0.000011 -0.000666 0.000099 -0.002674 -0.001488
# 2 0.000011 0.006472 -0.002106 -0.001064 -0.001491 -0.000050
# 3 -0.000666 -0.002106 0.008120 -0.003975 -0.000453 0.004407
# 4 0.000099 -0.001064 -0.003975 0.023887 0.005203 -0.012953
# 5 -0.002674 -0.001491 -0.000453 0.005203 0.021833 -0.007911
# 6 -0.001488 -0.000050 0.004407 -0.012953 -0.007911 0.043107
#
#
# Mechanical properties :
#
#
# Convention : Reuss Voigt Hill
#
# Bulk Modulus (GPa) = 60.71821 69.49055 65.10438
# Shear Modulus (GPa) = 41.04106 54.55415 47.79761
#
# Velocity S-wave (km/s) = 3.95384 4.55852 4.26691
# Velocity P-wave (km/s) = 6.63113 7.36046 7.00529
#
# Compressibility (1/GPa) = 0.01646952
#
# Stress axis : x y z
#
# Youngs Moduli (GPa) = 135.14276 154.52107 123.15485
#
# Poissons Ratio (x) = -0.00174 0.08200
# Poissons Ratio (y) = -0.00152 0.25938
# Poissons Ratio (z) = 0.08998 0.32545
#
# Static dielectric constant tensor:
#      x y z
#    x 2.101660 -0.002710 -0.015910 
#    y -0.002710 2.030820 -0.041220 
#    z -0.015910 -0.041220 2.095170 
# 
# From -- ./inp_files/2432.got.cif
#   From: 2010.05.17/outbox.cif.g08.bks.cpg/sg2_2_cif.got.tgz:2432.got - 2010.06.03 11:33:40.
