data_PCOD9052364
_publ_section_title
;
Structure prediction by ZEFSAII (Michael W. Deem and Ramdas Pophale) SiO2 
 PCOD9052364
Probable space group: P -1
;
_chemical_formula_sum "Si O2"
_cell_formula_units_Z 14
_cell_length_a 8.461875
_cell_length_b 10.390855
_cell_length_c 21.838150
_cell_angle_alpha 32.450329
_cell_angle_beta 33.541080
_cell_angle_gamma 42.328834
_cell_volume 565.070190
_symmetry_space_group_name_H-M "P -1"
_symmetry_group_IT_number 2
_symmetry_cell_setting 'triclinic'
loop_
_space_group_symop_operation_xyz
x,y,z
-x,-y,-z
loop_
_atom_site_type_symbol
_atom_site_label
_atom_site_fract_x
_atom_site_fract_y
_atom_site_fract_z
Si Si1 0.639465 0.077964 0.122526
Si Si2 0.754747 0.280968 0.248428
Si Si3 0.103883 0.511822 0.390952
Si Si4 0.172123 0.028251 0.763934
Si Si5 0.243536 0.797248 0.528692
Si Si6 0.023060 0.961134 0.380699
Si Si7 0.937957 0.600288 0.170913
O O1 0.835619 0.036146 0.136646
O O2 0.308701 0.090543 0.243847
O O3 0.708076 0.841573 0.152839
O O4 0.750036 0.306971 0.962817
O O5 0.425263 0.380539 0.329857
O O6 0.908146 0.462345 0.171122
O O7 0.786268 0.219759 0.190202
O O8 0.911036 0.018571 0.325874
O O9 0.000000 0.500000 0.500000
O O10 0.070578 0.765784 0.265368
O O11 0.910872 0.311195 0.507322
O O12 0.453392 0.173993 0.609262
O O13 0.133914 0.549049 0.684808
O O14 0.000000 0.000000 0.500000
O O15 0.259063 0.910358 0.546092
#
# Coordination Sequence:
#
# PCOD9052364 Si02
#       7
#     2   2   2   2   2   2   2
#     4  11  25  47  68 102 136 188 232 277 347 411
#     4  11  24  43  68 101 136 181 230 282 340 415
#     4  12  22  38  68 102 142 181 221 287 350 406
#     4  12  25  41  72 107 136 174 234 290 344 397
#     4  11  22  40  67 104 138 172 230 289 338 404
#     4  11  21  39  69  98 139 177 227 277 350 406
#     4  10  26  45  69  96 144 185 229 277 345 423
#
# _framework density 24.775683000000001
#
# number of rings (size 3 to 8) (size 9 to 14) (size 15 to 20)
#    0.000    0.857    4.286    3.857    2.000    4.000 
#    0.000    0.714    0.000    0.000    0.000    0.000 
#    0.000    0.000    0.000    0.000    0.000    0.000 
#
# Total GULP energy -77948.763497 kJ/mol
# GULP energy per Si atom -5567.768821 kJ/mol
# Density = 2.471929 g / cm^3
# Si number density = 24.775683 Si / 1000 Ang^3
#
#
#
# Elastic Constant Matrix: (Units=GPa)
#
#
# Indices 1 2 3 4 5 6 
#
# 1 69.1410 34.2523 7.2382 -8.9421 5.1040 -1.4483
# 2 34.2523 105.8925 23.4925 -10.9125 -5.6572 6.9513
# 3 7.2382 23.4925 108.8062 -15.5046 -6.0241 -3.3681
# 4 -8.9421 -10.9125 -15.5046 30.1134 6.6602 -5.9188
# 5 5.1040 -5.6572 -6.0241 6.6602 27.8326 7.0548
# 6 -1.4483 6.9513 -3.3681 -5.9188 7.0548 38.0334
#
#
#
# Elastic Compliance Matrix: (Units=1/GPa)
#
#
# Indices 1 2 3 4 5 6 
#
# 1 0.018914 -0.006303 0.000708 0.006098 -0.007122 0.004205
# 2 -0.006303 0.012398 -0.002148 -0.000076 0.004109 -0.003470
# 3 0.000708 -0.002148 0.010416 0.005250 -0.000121 0.002182
# 4 0.006098 -0.000076 0.005250 0.042371 -0.012580 0.009638
# 5 -0.007122 0.004109 -0.000121 -0.012580 0.043875 -0.011129
# 6 0.004205 -0.003470 0.002182 0.009638 -0.011129 0.030844
#
#
# Mechanical properties :
#
#
# Convention : Reuss Voigt Hill
#
# Bulk Modulus (GPa) = 38.10801 45.97842 42.04321
# Shear Modulus (GPa) = 27.31425 33.78632 30.55028
#
# Velocity S-wave (km/s) = 3.32394 3.69682 3.51533
# Velocity P-wave (km/s) = 5.49054 6.06796 5.78646
#
# Compressibility (1/GPa) = 0.02624120
#
# Stress axis : x y z
#
# Youngs Moduli (GPa) = 52.87047 80.65510 96.00215
#
# Poissons Ratio (x) = 0.50837 -0.06792
# Poissons Ratio (y) = 0.33325 0.20625
# Poissons Ratio (z) = -0.03741 0.17328
#
# Static dielectric constant tensor:
#      x y z
#    x 2.192090 0.182850 0.064790 
#    y 0.182850 2.144270 -0.039860 
#    z 0.064790 -0.039860 2.107910 
# 
# From -- ./inp_files/607735.got.cif
#   From: 2010.05.17/outbox.cif.g08.bks.cpg/sg2_304_cif.got.tgz:607735.got - 2010.06.03 11:33:40.
