data_PCOD9052730
_publ_section_title
;
Structure prediction by ZEFSAII (Michael W. Deem and Ramdas Pophale) SiO2 
 PCOD9052730
Probable space group: P -1
;
_chemical_formula_sum "Si O2"
_cell_formula_units_Z 15
_cell_length_a 11.303388
_cell_length_b 19.711453
_cell_length_c 14.145821
_cell_angle_alpha 156.206446
_cell_angle_beta 134.684204
_cell_angle_gamma 31.992913
_cell_volume 633.379518
_symmetry_space_group_name_H-M "P -1"
_symmetry_group_IT_number 2
_symmetry_cell_setting 'triclinic'
loop_
_space_group_symop_operation_xyz
x,y,z
-x,-y,-z
loop_
_atom_site_type_symbol
_atom_site_label
_atom_site_fract_x
_atom_site_fract_y
_atom_site_fract_z
Si Si1 0.500000 0.000000 0.500000
Si Si2 0.950001 0.870963 0.583462
Si Si3 0.790789 0.536051 0.180007
Si Si4 0.916953 0.184314 0.105424
Si Si5 0.490210 0.285473 0.403125
Si Si6 0.320874 0.166967 0.321464
Si Si7 0.026985 0.952620 0.344536
Si Si8 0.711426 0.653771 0.836436
O O1 0.741256 0.913374 0.566246
O O2 0.612689 0.732683 0.251022
O O3 0.187189 0.592587 0.378196
O O4 0.892931 0.938001 0.526600
O O5 0.950593 0.051877 0.861758
O O6 0.715740 0.675237 0.414000
O O7 0.059995 0.398864 0.129729
O O8 0.800778 0.328811 0.931614
O O9 0.653629 0.441969 0.304025
O O10 0.086532 0.224055 0.251705
O O11 0.000000 0.000000 0.000000
O O12 0.386674 0.215976 0.324915
O O13 0.432354 0.283996 0.260448
O O14 0.766585 0.102806 0.347296
O O15 0.539355 0.881649 0.098995
O O16 0.000000 0.000000 0.500000
#
# Coordination Sequence:
#
# PCOD9052730 Si02
#       8
#     1   2   2   2   2   2   2   2
#     4  10  26  48  78  94 150 204 244 300 362 436
#     4  11  26  48  73 111 150 196 249 312 363 451
#     4  11  25  50  71 112 144 192 254 297 372 447
#     4  12  24  43  74 116 147 185 252 306 382 436
#     4  12  25  45  72 110 152 189 240 306 379 446
#     4  12  25  42  78 104 149 196 231 313 376 445
#     4  12  30  48  72 110 152 196 254 304 361 443
#     4  11  24  46  74 111 144 189 244 301 384 445
#
# _framework density 23.682483999999999
#
# number of rings (size 3 to 8) (size 9 to 14) (size 15 to 20)
#    0.000    0.533    4.000    3.200    7.467    2.667 
#    0.000    2.667    0.000    0.000    0.000    0.000 
#    0.000    0.000    0.000    0.000    0.000    0.000 
#
# Total GULP energy -83816.982444 kJ/mol
# GULP energy per Si atom -5587.798830 kJ/mol
# Density = 2.362858 g / cm^3
# Si number density = 23.682484 Si / 1000 Ang^3
#
#
#
# Elastic Constant Matrix: (Units=GPa)
#
#
# Indices 1 2 3 4 5 6 
#
# 1 49.1917 5.5521 19.2512 1.7734 -9.3417 8.5891
# 2 5.5521 93.6688 30.0482 29.8184 -3.0873 -1.7251
# 3 19.2512 30.0482 159.0078 33.0215 -15.0324 11.9222
# 4 1.7734 29.8184 33.0215 43.5783 5.1720 1.1706
# 5 -9.3417 -3.0873 -15.0324 5.1720 35.8310 8.3475
# 6 8.5891 -1.7251 11.9222 1.1706 8.3475 35.5921
#
#
#
# Elastic Compliance Matrix: (Units=1/GPa)
#
#
# Indices 1 2 3 4 5 6 
#
# 1 0.023548 -0.000841 -0.001547 0.000144 0.006993 -0.006850
# 2 -0.000841 0.013952 -0.000462 -0.009416 0.001941 0.000888
# 3 -0.001547 -0.000462 0.008691 -0.006704 0.004988 -0.003509
# 4 0.000144 -0.009416 -0.006704 0.035500 -0.009359 0.002782
# 5 0.006993 0.001941 0.004988 -0.009359 0.035998 -0.011399
# 6 -0.006850 0.000888 -0.003509 0.002782 -0.011399 0.033550
#
#
# Mechanical properties :
#
#
# Convention : Reuss Voigt Hill
#
# Bulk Modulus (GPa) = 24.69767 45.73015 35.21391
# Shear Modulus (GPa) = 29.33655 39.46804 34.40229
#
# Velocity S-wave (km/s) = 3.52340 4.08677 3.81550
# Velocity P-wave (km/s) = 5.19651 6.45140 5.85766
#
# Compressibility (1/GPa) = 0.04048965
#
# Stress axis : x y z
#
# Youngs Moduli (GPa) = 42.46678 71.67435 115.06750
#
# Poissons Ratio (x) = 0.06026 0.17803
# Poissons Ratio (y) = 0.03571 0.05320
# Poissons Ratio (z) = 0.06570 0.03314
#
# Static dielectric constant tensor:
#      x y z
#    x 1.939480 0.082670 0.029990 
#    y 0.082670 1.836580 0.008290 
#    z 0.029990 0.008290 1.891840 
# 
# From -- ./inp_files/383725.got.cif
#   From: 2010.05.17/outbox.cif.g08.bks.cpg/sg2_192_cif.got.tgz:383725.got - 2010.06.03 11:33:40.
