data_PCOD9052816
_publ_section_title
;
Structure prediction by ZEFSAII (Michael W. Deem and Ramdas Pophale) SiO2 
 PCOD9052816
Probable space group: P -1
;
_chemical_formula_sum "Si O2"
_cell_formula_units_Z 14
_cell_length_a 20.074982
_cell_length_b 9.806429
_cell_length_c 4.916883
_cell_angle_alpha 96.360368
_cell_angle_beta 99.030530
_cell_angle_gamma 142.184523
_cell_volume 540.267505
_symmetry_space_group_name_H-M "P -1"
_symmetry_group_IT_number 2
_symmetry_cell_setting 'triclinic'
loop_
_space_group_symop_operation_xyz
x,y,z
-x,-y,-z
loop_
_atom_site_type_symbol
_atom_site_label
_atom_site_fract_x
_atom_site_fract_y
_atom_site_fract_z
Si Si1 0.892557 0.514281 0.371537
Si Si2 0.229101 0.070381 0.336282
Si Si3 0.744536 0.303117 0.720054
Si Si4 0.437907 0.221284 0.440426
Si Si5 0.000000 0.500000 0.000000
Si Si6 0.774536 0.645691 0.896868
Si Si7 0.603140 0.514812 0.095772
Si Si8 0.000000 0.000000 0.500000
O O1 0.850323 0.410209 0.631261
O O2 0.939534 0.461178 0.234445
O O3 0.973576 0.785820 0.484679
O O4 0.779058 0.359635 0.072343
O O5 0.326897 0.132723 0.283950
O O6 0.289970 0.202056 0.698029
O O7 0.220863 0.209941 0.245239
O O8 0.104170 0.792329 0.161545
O O9 0.623037 0.020030 0.548086
O O10 0.746822 0.464267 0.666334
O O11 0.526218 0.352259 0.275565
O O12 0.513544 0.409416 0.778379
O O13 0.671116 0.497326 0.014575
O O14 0.899253 0.833392 0.163754
#
# Coordination Sequence:
#
# PCOD9052816 Si02
#       8
#     2   2   2   2   1   2   2   1
#     4  11  26  49  75 115 160 209 270 330 407 483
#     4  12  28  51  78 127 156 221 269 346 408 491
#     4  11  27  50  76 116 160 213 263 337 408 479
#     4  12  27  51  84 114 171 212 272 341 412 477
#     4  12  28  50  82 122 160 206 280 346 398 502
#     4  11  28  49  83 117 167 213 281 327 414 492
#     4  12  27  51  83 122 161 216 274 341 404 494
#     4  10  26  50  82 112 166 224 260 340 408 488
#
# _framework density 25.913088999999999
#
# number of rings (size 3 to 8) (size 9 to 14) (size 15 to 20)
#    0.000    0.571    2.857    2.571   10.000    2.857 
#    0.000    0.000    0.000    0.000    0.000    0.000 
#    0.000    0.000    0.000    0.000    0.000    0.000 
#
# Total GULP energy -77991.661907 kJ/mol
# GULP energy per Si atom -5570.832993 kJ/mol
# Density = 2.585411 g / cm^3
# Si number density = 25.913089 Si / 1000 Ang^3
#
#
#
# Elastic Constant Matrix: (Units=GPa)
#
#
# Indices 1 2 3 4 5 6 
#
# 1 82.4197 29.6115 22.4098 4.0040 -5.1839 -20.2118
# 2 29.6115 125.9544 79.4458 27.1844 -15.2803 -6.7789
# 3 22.4098 79.4458 115.6145 5.4951 -2.4795 -6.5703
# 4 4.0040 27.1844 5.4951 52.7383 -2.9901 -6.7078
# 5 -5.1839 -15.2803 -2.4795 -2.9901 57.6435 0.4482
# 6 -20.2118 -6.7789 -6.5703 -6.7078 0.4482 33.6499
#
#
#
# Elastic Compliance Matrix: (Units=1/GPa)
#
#
# Indices 1 2 3 4 5 6 
#
# 1 0.015541 -0.003269 -0.000327 0.001708 0.000536 0.008945
# 2 -0.003269 0.017847 -0.011305 -0.007850 0.003560 -0.002188
# 3 -0.000327 -0.011305 0.016325 0.004233 -0.002117 0.001586
# 4 0.001708 -0.007850 0.004233 0.023023 -0.000589 0.004868
# 5 0.000536 0.003560 -0.002117 -0.000589 0.018216 0.000266
# 6 0.008945 -0.002188 0.001586 0.004868 0.000266 0.035927
#
#
# Mechanical properties :
#
#
# Convention : Reuss Voigt Hill
#
# Bulk Modulus (GPa) = 50.22636 65.21363 57.72000
# Shear Modulus (GPa) = 30.61520 41.64110 36.12815
#
# Velocity S-wave (km/s) = 3.44096 4.01303 3.73796
# Velocity P-wave (km/s) = 5.93394 6.83326 6.39942
#
# Compressibility (1/GPa) = 0.01990986
#
# Stress axis : x y z
#
# Youngs Moduli (GPa) = 64.34588 56.03205 61.25720
#
# Poissons Ratio (x) = 0.18320 0.02003
# Poissons Ratio (y) = 0.21038 0.69250
# Poissons Ratio (z) = 0.02104 0.63344
#
# Static dielectric constant tensor:
#      x y z
#    x 1.488350 -0.144860 -0.318810 
#    y -0.144860 2.021410 -0.222030 
#    z -0.318810 -0.222030 1.974830 
# 
# From -- ./inp_files/118847.got.cif
#   From: 2010.05.17/outbox.cif.g08.bks.cpg/sg2_60_cif.got.tgz:118847.got - 2010.06.03 11:33:40.
