data_PCOD9052317
_publ_section_title
;
Structure prediction by ZEFSAII (Michael W. Deem and Ramdas Pophale) SiO2 
 PCOD9052317
Probable space group: P -1
;
_chemical_formula_sum "Si O2"
_cell_formula_units_Z 11
_cell_length_a 9.038562
_cell_length_b 12.829333
_cell_length_c 8.570721
_cell_angle_alpha 108.047753
_cell_angle_beta 52.146877
_cell_angle_gamma 139.239399
_cell_volume 488.647269
_symmetry_space_group_name_H-M "P -1"
_symmetry_group_IT_number 2
_symmetry_cell_setting 'triclinic'
loop_
_space_group_symop_operation_xyz
x,y,z
-x,-y,-z
loop_
_atom_site_type_symbol
_atom_site_label
_atom_site_fract_x
_atom_site_fract_y
_atom_site_fract_z
Si Si1 0.623707 0.564928 0.778445
Si Si2 0.000000 0.000000 0.000000
Si Si3 0.769752 0.179641 0.484167
Si Si4 0.464042 0.086750 0.947296
Si Si5 0.438256 0.699914 0.440220
Si Si6 0.340402 0.633501 0.830232
O O1 0.656317 0.460860 0.631827
O O2 0.422688 0.549458 0.795350
O O3 0.936851 0.757340 0.688252
O O4 0.500000 0.500000 0.000000
O O5 0.176165 0.984431 0.987918
O O6 0.289477 0.145963 0.770298
O O7 0.706961 0.174977 0.702001
O O8 0.792600 0.306100 0.441745
O O9 0.500000 0.000000 0.500000
O O10 0.519644 0.219994 0.072306
O O11 0.500000 0.000000 0.000000
O O12 0.469796 0.709621 0.610291
O O13 0.000000 0.500000 0.000000
#
# Coordination Sequence:
#
# PCOD9052317 Si02
#       6
#     2   1   2   2   2   2
#     4  12  26  44  75 104 148 194 243 307 375 441
#     4  10  26  44  74 106 144 194 248 300 370 442
#     4  11  25  45  72 107 145 192 243 305 372 442
#     4  11  26  46  73 104 153 189 249 302 375 437
#     4  11  25  46  72 103 150 187 253 299 376 441
#     4  12  27  46  73 108 145 193 250 305 375 448
#
# _framework density 22.511125
#
# number of rings (size 3 to 8) (size 9 to 14) (size 15 to 20)
#    0.000    0.727    0.000    6.545   15.273    0.727 
#    0.000    0.000    0.000    0.000    0.000    0.000 
#    0.000    0.000    0.000    0.000    0.000    0.000 
#
# Total GULP energy -61296.414763 kJ/mol
# GULP energy per Si atom -5572.401342 kJ/mol
# Density = 2.245989 g / cm^3
# Si number density = 22.511125 Si / 1000 Ang^3
#
#
#
# Elastic Constant Matrix: (Units=GPa)
#
#
# Indices 1 2 3 4 5 6 
#
# 1 182.5676 16.0811 42.4392 -15.1527 -5.7827 -18.2644
# 2 16.0811 67.7254 14.5133 14.9329 -6.3321 -3.2292
# 3 42.4392 14.5133 104.6521 -10.9220 18.4735 19.4539
# 4 -15.1527 14.9329 -10.9220 36.5867 9.4811 -4.0836
# 5 -5.7827 -6.3321 18.4735 9.4811 58.4289 -5.0007
# 6 -18.2644 -3.2292 19.4539 -4.0836 -5.0007 33.4901
#
#
#
# Elastic Compliance Matrix: (Units=1/GPa)
#
#
# Indices 1 2 3 4 5 6 
#
# 1 0.007591 -0.000787 -0.004496 0.002333 0.002335 0.007309
# 2 -0.000787 0.019165 -0.005215 -0.010745 0.005733 0.003994
# 3 -0.004496 -0.005215 0.016641 0.005933 -0.008359 -0.013146
# 4 0.002333 -0.010745 0.005933 0.036724 -0.008772 -0.000042
# 5 0.002335 0.005733 -0.008359 -0.008772 0.022805 0.009017
# 6 0.007309 0.003994 -0.013146 -0.000042 0.009017 0.043209
#
#
# Mechanical properties :
#
#
# Convention : Reuss Voigt Hill
#
# Bulk Modulus (GPa) = 44.64055 55.66801 50.15428
# Shear Modulus (GPa) = 28.63735 44.49524 36.56630
#
# Velocity S-wave (km/s) = 3.57058 4.45071 4.03471
# Velocity P-wave (km/s) = 6.07225 7.15504 6.63576
#
# Compressibility (1/GPa) = 0.02240116
#
# Stress axis : x y z
#
# Youngs Moduli (GPa) = 131.73964 52.17729 60.09390
#
# Poissons Ratio (x) = 0.04104 0.27021
# Poissons Ratio (y) = 0.10362 0.31338
# Poissons Ratio (z) = 0.59236 0.27210
#
# Static dielectric constant tensor:
#      x y z
#    x 1.998730 0.091890 -0.013410 
#    y 0.091890 1.946040 0.050160 
#    z -0.013410 0.050160 1.861310 
# 
# From -- ./inp_files/173571.got.cif
#   From: 2010.05.17/outbox.cif.g08.bks.cpg/sg2_87_cif.got.tgz:173571.got - 2010.06.03 11:33:40.
