data_PCOD9052797
_publ_section_title
;
Structure prediction by ZEFSAII (Michael W. Deem and Ramdas Pophale) SiO2 
 PCOD9052797
Probable space group: P -1
;
_chemical_formula_sum "Si O2"
_cell_formula_units_Z 13
_cell_length_a 7.004098
_cell_length_b 16.190934
_cell_length_c 13.483065
_cell_angle_alpha 146.095734
_cell_angle_beta 60.584054
_cell_angle_gamma 93.103899
_cell_volume 509.731130
_symmetry_space_group_name_H-M "P -1"
_symmetry_group_IT_number 2
_symmetry_cell_setting 'triclinic'
loop_
_space_group_symop_operation_xyz
x,y,z
-x,-y,-z
loop_
_atom_site_type_symbol
_atom_site_label
_atom_site_fract_x
_atom_site_fract_y
_atom_site_fract_z
Si Si1 0.000000 0.500000 0.500000
Si Si2 0.210780 0.092152 0.944808
Si Si3 0.213847 0.269076 0.926665
Si Si4 0.815408 0.159986 0.616178
Si Si5 0.201944 0.543580 0.959402
Si Si6 0.267096 0.262017 0.382506
Si Si7 0.053704 0.890699 0.686024
O O1 0.301494 0.317996 0.321252
O O2 0.036505 0.314733 0.261732
O O3 0.474175 0.896063 0.756319
O O4 0.988023 0.065067 0.943083
O O5 0.332773 0.100699 0.815877
O O6 0.005421 0.500326 0.262035
O O7 0.497682 0.217094 0.748644
O O8 0.989002 0.303430 0.936089
O O9 0.771662 0.350436 0.853473
O O10 0.004424 0.057563 0.364021
O O11 0.000000 0.000000 0.500000
O O12 0.562811 0.325592 0.620793
O O13 0.000000 0.500000 0.000000
O O14 0.118564 0.175021 0.308711
#
# Coordination Sequence:
#
# PCOD9052797 Si02
#       7
#     1   2   2   2   2   2   2
#     4  10  26  50  74  98 128 164 222 288 354 404
#     4  11  25  45  72  99 130 174 218 283 340 396
#     4  11  23  41  65  98 140 181 224 263 323 393
#     4  12  25  38  61  99 142 183 223 264 314 390
#     4  12  23  39  63  95 143 187 222 265 311 383
#     4  11  23  47  71  98 131 171 222 281 339 397
#     4  12  24  40  68 101 134 181 225 265 326 392
#
# _framework density 25.503640999999998
#
# number of rings (size 3 to 8) (size 9 to 14) (size 15 to 20)
#    0.000    0.615    4.615    3.692    2.154    1.846 
#    0.000    1.538    0.000    0.000    0.000    0.000 
#    0.000    0.000    0.000    0.000    0.000    0.000 
#
# Total GULP energy -72560.639792 kJ/mol
# GULP energy per Si atom -5581.587676 kJ/mol
# Density = 2.544559 g / cm^3
# Si number density = 25.503641 Si / 1000 Ang^3
#
#
#
# Elastic Constant Matrix: (Units=GPa)
#
#
# Indices 1 2 3 4 5 6 
#
# 1 145.8595 51.2609 28.8046 15.2798 23.7081 -18.2130
# 2 51.2609 164.9895 24.7352 30.1330 -17.1095 -30.5880
# 3 28.8046 24.7352 73.2120 22.2078 27.8815 -6.9271
# 4 15.2798 30.1330 22.2078 38.9970 -8.9766 -6.4750
# 5 23.7081 -17.1095 27.8815 -8.9766 54.0923 3.1973
# 6 -18.2130 -30.5880 -6.9271 -6.4750 3.1973 41.9139
#
#
#
# Elastic Compliance Matrix: (Units=1/GPa)
#
#
# Indices 1 2 3 4 5 6 
#
# 1 0.009159 -0.002594 0.000499 -0.002818 -0.005688 0.002168
# 2 -0.002594 0.009013 -0.002539 -0.002738 0.004590 0.004258
# 3 0.000499 -0.002539 0.026243 -0.016959 -0.017446 0.001412
# 4 -0.002818 -0.002738 -0.016959 0.042112 0.016143 -0.000752
# 5 -0.005688 0.004590 -0.017446 0.016143 0.034229 -0.002122
# 6 0.002168 0.004258 0.001412 -0.000752 -0.002122 0.028187
#
#
# Mechanical properties :
#
#
# Convention : Reuss Voigt Hill
#
# Bulk Modulus (GPa) = 28.45261 65.96248 47.20754
# Shear Modulus (GPa) = 29.42442 45.61798 37.52120
#
# Velocity S-wave (km/s) = 3.40035 4.23387 3.83980
# Velocity P-wave (km/s) = 5.15723 7.05840 6.18134
#
# Compressibility (1/GPa) = 0.03514616
#
# Stress axis : x y z
#
# Youngs Moduli (GPa) = 109.17779 110.95058 38.10585
#
# Poissons Ratio (x) = 0.28777 -0.01900
# Poissons Ratio (y) = 0.28317 0.09676
# Poissons Ratio (z) = -0.05443 0.28173
#
# Static dielectric constant tensor:
#      x y z
#    x 2.069400 0.500060 -0.068360 
#    y 0.500060 5.038830 -0.249150 
#    z -0.068360 -0.249150 2.101230 
# 
# From -- ./inp_files/44537.got.cif
#   From: 2010.05.17/outbox.cif.g08.bks.cpg/sg2_23_cif.got.tgz:44537.got - 2010.06.03 11:33:40.
