data_PCOD9052103
_publ_section_title
;
Structure prediction by ZEFSAII (Michael W. Deem and Ramdas Pophale) SiO2 
 PCOD9052103
Probable space group: P -1
;
_chemical_formula_sum "Si O2"
_cell_formula_units_Z 16
_cell_length_a 11.763759
_cell_length_b 5.253009
_cell_length_c 11.535911
_cell_angle_alpha 102.566227
_cell_angle_beta 58.592482
_cell_angle_gamma 98.362134
_cell_volume 593.401995
_symmetry_space_group_name_H-M "P -1"
_symmetry_group_IT_number 2
_symmetry_cell_setting 'triclinic'
loop_
_space_group_symop_operation_xyz
x,y,z
-x,-y,-z
loop_
_atom_site_type_symbol
_atom_site_label
_atom_site_fract_x
_atom_site_fract_y
_atom_site_fract_z
Si Si1 0.955379 0.393380 0.638246
Si Si2 0.933419 0.150160 0.222838
Si Si3 0.565835 0.843932 0.743437
Si Si4 0.390214 0.486513 0.660469
Si Si5 0.789671 0.842035 0.431122
Si Si6 0.307595 0.314293 0.925253
Si Si7 0.644544 0.392572 0.836127
Si Si8 0.860318 0.206209 0.002838
O O1 0.067682 0.189094 0.588435
O O2 0.000000 0.500000 0.500000
O O3 0.799570 0.317128 0.725366
O O4 0.979065 0.631873 0.737919
O O5 0.804032 0.087341 0.362977
O O6 0.900493 0.209570 0.115383
O O7 0.013965 0.882354 0.146059
O O8 0.432344 0.743731 0.737324
O O9 0.678698 0.876766 0.589104
O O10 0.612265 0.613806 0.780797
O O11 0.560707 0.119981 0.837654
O O12 0.500000 0.500000 0.500000
O O13 0.259541 0.398029 0.648630
O O14 0.384870 0.292837 0.757666
O O15 0.368383 0.481670 0.017427
O O16 0.243456 0.042881 0.979248
O O17 0.191947 0.513001 0.970600
#
# Coordination Sequence:
#
# PCOD9052103 Si02
#       8
#     2   2   2   2   2   2   2   2
#     4  12  24  39  69 107 150 190 229 293 364 441
#     4  11  24  39  69 105 146 195 230 299 362 441
#     4  11  27  49  70 105 146 199 250 298 349 427
#     4  10  25  51  76 105 141 193 251 308 354 423
#     4  11  23  45  72 106 148 192 243 300 365 426
#     4  12  24  47  74 104 142 192 236 309 355 428
#     4  12  26  46  73 106 150 193 243 293 367 440
#     4  11  25  42  70 107 147 184 241 291 369 431
#
# _framework density 26.963170000000002
#
# number of rings (size 3 to 8) (size 9 to 14) (size 15 to 20)
#    0.000    0.750    3.750    3.000    1.750    4.000 
#    2.250    2.500    0.000    0.000    0.000    0.000 
#    0.000    0.000    0.000    0.000    0.000    0.000 
#
# Total GULP energy -89639.700510 kJ/mol
# GULP energy per Si atom -5602.481282 kJ/mol
# Density = 2.690180 g / cm^3
# Si number density = 26.963170 Si / 1000 Ang^3
#
#
#
# Elastic Constant Matrix: (Units=GPa)
#
#
# Indices 1 2 3 4 5 6 
#
# 1 95.0327 43.3359 23.8555 13.6866 17.9593 21.3322
# 2 43.3359 125.5519 8.5881 7.8092 7.8157 23.0308
# 3 23.8555 8.5881 127.7245 -17.8833 14.8898 14.2204
# 4 13.6866 7.8092 -17.8833 53.6320 7.7320 3.5226
# 5 17.9593 7.8157 14.8898 7.7320 49.0257 8.4123
# 6 21.3322 23.0308 14.2204 3.5226 8.4123 55.5668
#
#
#
# Elastic Compliance Matrix: (Units=1/GPa)
#
#
# Indices 1 2 3 4 5 6 
#
# 1 0.014554 -0.003983 -0.002255 -0.003272 -0.003034 -0.002693
# 2 -0.003983 0.009796 0.000324 -0.000169 0.000280 -0.002645
# 3 -0.002255 0.000324 0.009249 0.004060 -0.002413 -0.001527
# 4 -0.003272 -0.000169 0.004060 0.021369 -0.003280 -0.000571
# 5 -0.003034 0.000280 -0.002413 -0.003280 0.022990 -0.001606
# 6 -0.002693 -0.002645 -0.001527 -0.000571 -0.001606 0.020797
#
#
# Mechanical properties :
#
#
# Convention : Reuss Voigt Hill
#
# Bulk Modulus (GPa) = 45.93609 55.54091 50.73850
# Shear Modulus (GPa) = 42.43038 49.81356 46.12197
#
# Velocity S-wave (km/s) = 3.97122 4.30288 4.14037
# Velocity P-wave (km/s) = 6.17260 6.73275 6.45875
#
# Compressibility (1/GPa) = 0.02176937
#
# Stress axis : x y z
#
# Youngs Moduli (GPa) = 68.70967 102.08443 108.12391
#
# Poissons Ratio (x) = 0.40660 0.24384
# Poissons Ratio (y) = 0.27367 -0.03499
# Poissons Ratio (z) = 0.15495 -0.03303
#
# Static dielectric constant tensor:
#      x y z
#    x 2.204260 -0.046730 -0.060000 
#    y -0.046730 2.109330 0.008330 
#    z -0.060000 0.008330 2.056100 
# 
# From -- ./inp_files/410754.got.cif
#   From: 2010.05.17/outbox.cif.g08.bks.cpg/sg2_206_cif.got.tgz:410754.got - 2010.06.03 11:33:40.
