data_PCOD9052939
_publ_section_title
;
Structure prediction by ZEFSAII (Michael W. Deem and Ramdas Pophale) SiO2 
 PCOD9052939
Probable space group: P -1
;
_chemical_formula_sum "Si O2"
_cell_formula_units_Z 13
_cell_length_a 5.545467
_cell_length_b 12.364584
_cell_length_c 8.284986
_cell_angle_alpha 111.656460
_cell_angle_beta 68.675320
_cell_angle_gamma 108.565402
_cell_volume 480.574203
_symmetry_space_group_name_H-M "P -1"
_symmetry_group_IT_number 2
_symmetry_cell_setting 'triclinic'
loop_
_space_group_symop_operation_xyz
x,y,z
-x,-y,-z
loop_
_atom_site_type_symbol
_atom_site_label
_atom_site_fract_x
_atom_site_fract_y
_atom_site_fract_z
Si Si1 0.089924 0.930997 0.591763
Si Si2 0.000000 0.500000 0.000000
Si Si3 0.442565 0.393504 0.696185
Si Si4 0.074712 0.719020 0.857210
Si Si5 0.002982 0.663983 0.491875
Si Si6 0.683679 0.836920 0.183274
Si Si7 0.563227 0.872212 0.891510
O O1 0.852293 0.899830 0.760772
O O2 0.126147 0.798620 0.468448
O O3 0.000000 0.000000 0.500000
O O4 0.310209 0.031118 0.681214
O O5 0.689016 0.519558 0.114825
O O6 0.945921 0.389174 0.077426
O O7 0.760720 0.409216 0.615184
O O8 0.367767 0.262790 0.723980
O O9 0.257409 0.387309 0.577902
O O10 0.931553 0.675600 0.701707
O O11 0.371570 0.783032 0.770974
O O12 0.964725 0.822300 0.032048
O O13 0.514830 0.812844 0.047993
O O14 0.500000 0.000000 0.000000
#
# Coordination Sequence:
#
# PCOD9052939 Si02
#       7
#     2   1   2   2   2   2   2
#     4  12  24  43  69 113 159 203 245 305 380 452
#     4  10  28  56  78 110 140 208 248 332 378 456
#     4  11  28  49  77 109 149 196 261 314 383 448
#     4  11  25  49  75 105 151 195 260 307 381 445
#     4  12  26  48  75 114 154 199 251 322 376 454
#     4  11  24  43  67 108 153 201 248 301 370 463
#     4  12  24  42  74 106 150 206 247 306 372 463
#
# _framework density 27.050972999999999
#
# number of rings (size 3 to 8) (size 9 to 14) (size 15 to 20)
#    0.000    0.615    4.615    2.308    6.462    2.462 
#    2.769    0.000    0.000    0.000    0.000    0.000 
#    0.000    0.000    0.000    0.000    0.000    0.000 
#
# Total GULP energy -72530.993312 kJ/mol
# GULP energy per Si atom -5579.307178 kJ/mol
# Density = 2.698940 g / cm^3
# Si number density = 27.050973 Si / 1000 Ang^3
#
#
#
# Elastic Constant Matrix: (Units=GPa)
#
#
# Indices 1 2 3 4 5 6 
#
# 1 124.3087 33.8786 51.1190 7.7375 -1.1852 -28.5273
# 2 33.8786 126.7052 35.7172 -8.2439 13.7683 -29.4903
# 3 51.1190 35.7172 89.6573 3.4375 -15.0991 -11.2621
# 4 7.7375 -8.2439 3.4375 35.7725 -15.4551 -8.4108
# 5 -1.1852 13.7683 -15.0991 -15.4551 59.6724 9.9465
# 6 -28.5273 -29.4903 -11.2621 -8.4108 9.9465 37.7304
#
#
#
# Elastic Compliance Matrix: (Units=1/GPa)
#
#
# Indices 1 2 3 4 5 6 
#
# 1 0.012819 0.000983 -0.007129 -0.001308 -0.003614 0.008994
# 2 0.000983 0.012425 -0.005110 0.003554 -0.005063 0.011056
# 3 -0.007129 -0.005110 0.017613 0.000110 0.006492 -0.005814
# 4 -0.001308 0.003554 0.000110 0.033700 0.006646 0.007582
# 5 -0.003614 -0.005063 0.006492 0.006646 0.022764 -0.009271
# 6 0.008994 0.011056 -0.005814 0.007582 -0.009271 0.044344
#
#
# Mechanical properties :
#
#
# Convention : Reuss Voigt Hill
#
# Bulk Modulus (GPa) = 49.15533 64.67789 56.91661
# Shear Modulus (GPa) = 28.90858 41.29883 35.10371
#
# Velocity S-wave (km/s) = 3.27260 3.91154 3.60625
# Velocity P-wave (km/s) = 5.70006 6.66046 6.19889
#
# Compressibility (1/GPa) = 0.02034367
#
# Stress axis : x y z
#
# Youngs Moduli (GPa) = 78.00725 80.48547 56.77641
#
# Poissons Ratio (x) = -0.07912 0.40478
# Poissons Ratio (y) = -0.07668 0.29014
# Poissons Ratio (z) = 0.55614 0.41130
#
# Static dielectric constant tensor:
#      x y z
#    x 2.201400 -0.036320 0.047800 
#    y -0.036320 2.065140 0.049590 
#    z 0.047800 0.049590 2.191120 
# 
# From -- ./inp_files/23857.got.cif
#   From: 2010.05.17/outbox.cif.g08.bks.cpg/sg2_12_cif.got.tgz:23857.got - 2010.06.03 11:33:40.
