data_PCOD9052479
_publ_section_title
;
Structure prediction by ZEFSAII (Michael W. Deem and Ramdas Pophale) SiO2 
 PCOD9052479
Probable space group: P -1
;
_chemical_formula_sum "Si O2"
_cell_formula_units_Z 16
_cell_length_a 5.642516
_cell_length_b 20.906927
_cell_length_c 17.421691
_cell_angle_alpha 19.858222
_cell_angle_beta 68.011770
_cell_angle_gamma 64.921187
_cell_volume 630.354876
_symmetry_space_group_name_H-M "P -1"
_symmetry_group_IT_number 2
_symmetry_cell_setting 'triclinic'
loop_
_space_group_symop_operation_xyz
x,y,z
-x,-y,-z
loop_
_atom_site_type_symbol
_atom_site_label
_atom_site_fract_x
_atom_site_fract_y
_atom_site_fract_z
Si Si1 0.440332 0.509559 0.310717
Si Si2 0.698173 0.848908 0.197867
Si Si3 0.113435 0.310353 0.111828
Si Si4 0.925497 0.012812 0.721124
Si Si5 0.996998 0.418268 0.844576
Si Si6 0.465967 0.047086 0.540692
Si Si7 0.300224 0.671229 0.727073
Si Si8 0.142577 0.908900 0.968544
O O1 0.381482 0.351998 0.554614
O O2 0.753284 0.484382 0.294067
O O3 0.256051 0.496107 0.273584
O O4 0.326282 0.726078 0.111641
O O5 0.710660 0.949709 0.164697
O O6 0.975035 0.826755 0.145922
O O7 0.500000 0.000000 0.000000
O O8 0.280439 0.110471 0.283432
O O9 0.957600 0.280469 0.240558
O O10 0.927461 0.401757 0.961148
O O11 0.302739 0.453747 0.947328
O O12 0.208367 0.006446 0.655138
O O13 0.958515 0.030607 0.788029
O O14 0.737323 0.186791 0.502269
O O15 0.886616 0.797576 0.957667
O O16 0.500000 0.000000 0.500000
O O17 0.489788 0.259227 0.323229
#
# Coordination Sequence:
#
# PCOD9052479 Si02
#       8
#     2   2   2   2   2   2   2   2
#     4  11  27  48  76 107 147 191 237 299 365 429
#     4  11  27  47  77 108 143 190 236 298 370 439
#     4  11  23  44  65 103 140 185 246 293 360 421
#     4  11  24  45  70  99 141 187 240 292 361 419
#     4  11  25  46  75 107 145 195 244 297 361 432
#     4  12  23  43  69  97 140 193 237 300 353 423
#     4  11  25  41  67 100 138 190 239 302 354 422
#     4  10  26  46  72 109 142 189 241 297 358 446
#
# _framework density 25.382525999999999
#
# number of rings (size 3 to 8) (size 9 to 14) (size 15 to 20)
#    0.000    1.000    2.500    3.000    8.750    2.000 
#    2.250    0.000    0.000    0.000    0.000    0.000 
#    0.000    0.000    0.000    0.000    0.000    0.000 
#
# Total GULP energy -89640.927018 kJ/mol
# GULP energy per Si atom -5602.557939 kJ/mol
# Density = 2.532475 g / cm^3
# Si number density = 25.382526 Si / 1000 Ang^3
#
#
#
# Elastic Constant Matrix: (Units=GPa)
#
#
# Indices 1 2 3 4 5 6 
#
# 1 109.9900 40.0881 42.8934 4.1939 -15.5158 14.4762
# 2 40.0881 91.9639 32.2577 -1.2173 6.0999 23.9128
# 3 42.8934 32.2577 119.2753 3.5557 -8.4974 7.6500
# 4 4.1939 -1.2173 3.5557 45.7013 3.8024 3.3787
# 5 -15.5158 6.0999 -8.4974 3.8024 39.8735 1.1909
# 6 14.4762 23.9128 7.6500 3.3787 1.1909 51.1129
#
#
#
# Elastic Compliance Matrix: (Units=1/GPa)
#
#
# Indices 1 2 3 4 5 6 
#
# 1 0.012860 -0.004698 -0.002868 -0.001444 0.005280 -0.001043
# 2 -0.004698 0.015623 -0.002572 0.001859 -0.004776 -0.005605
# 3 -0.002868 -0.002572 0.010209 -0.000762 0.001511 0.000503
# 4 -0.001444 0.001859 -0.000762 0.022511 -0.003103 -0.001762
# 5 0.005280 -0.004776 0.001511 -0.003103 0.028481 0.000054
# 6 -0.001043 -0.005605 0.000503 -0.001762 0.000054 0.022522
#
#
# Mechanical properties :
#
#
# Convention : Reuss Voigt Hill
#
# Bulk Modulus (GPa) = 54.30087 61.30085 57.80086
# Shear Modulus (GPa) = 36.07002 41.07020 38.57011
#
# Velocity S-wave (km/s) = 3.77378 4.02686 3.90237
# Velocity P-wave (km/s) = 6.35830 6.76935 6.56704
#
# Compressibility (1/GPa) = 0.01841591
#
# Stress axis : x y z
#
# Youngs Moduli (GPa) = 77.76314 64.00940 97.95315
#
# Poissons Ratio (x) = 0.30071 0.28092
# Poissons Ratio (y) = 0.36533 0.25192
# Poissons Ratio (z) = 0.22301 0.16462
#
# Static dielectric constant tensor:
#      x y z
#    x 2.066950 0.008750 0.041670 
#    y 0.008750 1.976930 0.019150 
#    z 0.041670 0.019150 1.950760 
# 
# From -- ./inp_files/53393.got.cif
#   From: 2010.05.17/outbox.cif.g08.bks.cpg/sg2_27_cif.got.tgz:53393.got - 2010.06.03 11:33:40.
