data_PCOD9052291
_publ_section_title
;
Structure prediction by ZEFSAII (Michael W. Deem and Ramdas Pophale) SiO2 
 PCOD9052291
Probable space group: P -1
;
_chemical_formula_sum "Si O2"
_cell_formula_units_Z 13
_cell_length_a 12.393755
_cell_length_b 5.466673
_cell_length_c 14.658484
_cell_angle_alpha 106.356291
_cell_angle_beta 140.450759
_cell_angle_gamma 96.018442
_cell_volume 515.681265
_symmetry_space_group_name_H-M "P -1"
_symmetry_group_IT_number 2
_symmetry_cell_setting 'triclinic'
loop_
_space_group_symop_operation_xyz
x,y,z
-x,-y,-z
loop_
_atom_site_type_symbol
_atom_site_label
_atom_site_fract_x
_atom_site_fract_y
_atom_site_fract_z
Si Si1 0.381330 0.372956 0.576511
Si Si2 0.718327 0.324234 0.123984
Si Si3 0.967128 0.126260 0.187002
Si Si4 0.093472 0.879786 0.478010
Si Si5 0.594430 0.183527 0.229865
Si Si6 0.500000 0.000000 0.500000
Si Si7 0.974990 0.398176 0.869582
O O1 0.197260 0.334373 0.392105
O O2 0.486054 0.688510 0.732108
O O3 0.269158 0.129675 0.557599
O O4 0.515766 0.292846 0.596298
O O5 0.629650 0.317038 0.164696
O O6 0.816144 0.117305 0.163640
O O7 0.912111 0.649208 0.272015
O O8 0.547465 0.170697 0.920717
O O9 0.944072 0.307169 0.108363
O O10 0.928983 0.804751 0.102945
O O11 0.191867 0.731550 0.584006
O O12 0.000000 0.000000 0.500000
O O13 0.257972 0.828648 0.329084
O O14 0.000000 0.500000 0.000000
#
# Coordination Sequence:
#
# PCOD9052291 Si02
#       7
#     2   2   2   2   2   1   2
#     4  11  24  46  69 101 141 189 238 290 368 418
#     4  11  23  44  67 105 141 182 238 300 354 437
#     4  11  24  46  74 103 143 187 241 298 361 438
#     4  12  23  44  71  98 142 191 232 298 360 430
#     4  11  25  42  67 105 140 184 239 290 368 424
#     4  10  26  44  72 100 140 184 240 300 340 440
#     4  11  26  48  71 105 139 189 244 295 366 420
#
# _framework density 25.209368999999999
#
# number of rings (size 3 to 8) (size 9 to 14) (size 15 to 20)
#    0.000    0.923    3.077    3.692    2.154    4.308 
#    2.769    0.000    0.000    0.000    0.000    0.000 
#    0.000    0.000    0.000    0.000    0.000    0.000 
#
# Total GULP energy -72517.217214 kJ/mol
# GULP energy per Si atom -5578.247478 kJ/mol
# Density = 2.515199 g / cm^3
# Si number density = 25.209369 Si / 1000 Ang^3
#
#
#
# Elastic Constant Matrix: (Units=GPa)
#
#
# Indices 1 2 3 4 5 6 
#
# 1 112.2249 46.6039 23.7927 -13.7215 -19.4531 -49.2908
# 2 46.6039 101.7398 37.6598 -0.2560 -22.0387 -19.7729
# 3 23.7927 37.6598 87.1523 19.8278 -18.0308 4.8015
# 4 -13.7215 -0.2560 19.8278 29.4699 -6.3034 -3.2946
# 5 -19.4531 -22.0387 -18.0308 -6.3034 53.6101 7.7081
# 6 -49.2908 -19.7729 4.8015 -3.2946 7.7081 52.9758
#
#
#
# Elastic Compliance Matrix: (Units=1/GPa)
#
#
# Indices 1 2 3 4 5 6 
#
# 1 0.029737 -0.001496 -0.014541 0.027840 0.004312 0.029532
# 2 -0.001496 0.014531 -0.006616 0.005058 0.003155 0.004487
# 3 -0.014541 -0.006616 0.025410 -0.026081 0.000356 -0.019975
# 4 0.027840 0.005058 -0.026081 0.069684 0.006786 0.033501
# 5 0.004312 0.003155 0.000356 0.006786 0.022093 0.002365
# 6 0.029532 0.004487 -0.019975 0.033501 0.002365 0.051579
#
#
# Mechanical properties :
#
#
# Convention : Reuss Voigt Hill
#
# Bulk Modulus (GPa) = 41.02672 57.46996 49.24834
# Shear Modulus (GPa) = 18.76434 40.08184 29.42309
#
# Velocity S-wave (km/s) = 2.73122 3.99175 3.42006
# Velocity P-wave (km/s) = 5.12404 6.64018 5.93076
#
# Compressibility (1/GPa) = 0.02437436
#
# Stress axis : x y z
#
# Youngs Moduli (GPa) = 33.62847 68.81653 39.35388
#
# Poissons Ratio (x) = 0.10292 0.57223
# Poissons Ratio (y) = 0.05029 0.26037
# Poissons Ratio (z) = 0.48897 0.45529
#
# Static dielectric constant tensor:
#      x y z
#    x 1.998930 0.054570 0.006120 
#    y 0.054570 2.088360 0.053170 
#    z 0.006120 0.053170 2.021620 
# 
# From -- ./inp_files/73481.got.cif
#   From: 2010.05.17/outbox.cif.g08.bks.cpg/sg2_37_cif.got.tgz:73481.got - 2010.06.03 11:33:40.
