data_PCOD9052993
_publ_section_title
;
Structure prediction by ZEFSAII (Michael W. Deem and Ramdas Pophale) SiO2 
 PCOD9052993
Probable space group: P -1
;
_chemical_formula_sum "Si O2"
_cell_formula_units_Z 16
_cell_length_a 5.141463
_cell_length_b 12.787827
_cell_length_c 9.857729
_cell_angle_alpha 73.673533
_cell_angle_beta 106.087919
_cell_angle_gamma 96.723119
_cell_volume 597.093732
_symmetry_space_group_name_H-M "P -1"
_symmetry_group_IT_number 2
_symmetry_cell_setting 'triclinic'
loop_
_space_group_symop_operation_xyz
x,y,z
-x,-y,-z
loop_
_atom_site_type_symbol
_atom_site_label
_atom_site_fract_x
_atom_site_fract_y
_atom_site_fract_z
Si Si1 0.411631 0.070459 0.334606
Si Si2 0.684894 0.235516 0.488784
Si Si3 0.965610 0.815286 0.092701
Si Si4 0.815307 0.105805 0.157258
Si Si5 0.733370 0.798000 0.340647
Si Si6 0.323120 0.624457 0.335345
Si Si7 0.271218 0.495484 0.133789
Si Si8 0.513407 0.310082 0.078799
O O1 0.516076 0.192803 0.351869
O O2 0.093293 0.065663 0.272211
O O3 0.500000 0.000000 0.500000
O O4 0.480376 0.825422 0.388056
O O5 0.706992 0.356849 0.513525
O O6 0.991231 0.199063 0.534516
O O7 0.812944 0.855328 0.189958
O O8 0.133831 0.714272 0.206211
O O9 0.735621 0.769777 0.973689
O O10 0.158262 0.895308 0.001579
O O11 0.773386 0.235149 0.136409
O O12 0.573305 0.048292 0.228220
O O13 0.631001 0.672621 0.337556
O O14 0.241744 0.515054 0.283183
O O15 0.431269 0.389439 0.158818
O O16 0.443266 0.601008 0.067325
O O17 0.000000 0.500000 0.000000
#
# Coordination Sequence:
#
# PCOD9052993 Si02
#       8
#     2   2   2   2   2   2   2   2
#     4  12  27  46  69  92 115 160 224 278 311 368
#     4   9  20  38  62  87 115 164 217 247 314 364
#     4  11  17  36  56  98 121 169 202 236 333 365
#     4  12  24  40  67  91 134 161 199 271 324 378
#     4   9  18  32  62  87 124 160 205 246 296 395
#     4   9  18  32  59  88 128 167 199 252 287 385
#     4  11  19  29  55  98 140 161 210 242 296 382
#     4  11  20  32  55  94 136 170 196 248 312 373
#
# _framework density 26.796467
#
# number of rings (size 3 to 8) (size 9 to 14) (size 15 to 20)
#    0.750    0.750    5.000    1.125    0.000    0.000 
#    0.000    0.000    0.000   12.000    0.000    0.000 
#    0.000    0.000    0.000    0.000    0.000    0.000 
#
# Total GULP energy -89336.499678 kJ/mol
# GULP energy per Si atom -5583.531230 kJ/mol
# Density = 2.673548 g / cm^3
# Si number density = 26.796467 Si / 1000 Ang^3
#
#
#
# Elastic Constant Matrix: (Units=GPa)
#
#
# Indices 1 2 3 4 5 6 
#
# 1 156.6153 19.3201 33.9511 0.0318 15.1094 -7.8590
# 2 19.3201 82.0130 16.6040 24.4900 8.2799 -12.6357
# 3 33.9511 16.6040 59.2969 3.3264 4.6724 -16.8942
# 4 0.0318 24.4900 3.3264 66.0887 -3.2287 -0.1072
# 5 15.1094 8.2799 4.6724 -3.2287 49.8947 3.9702
# 6 -7.8590 -12.6357 -16.8942 -0.1072 3.9702 30.8345
#
#
#
# Elastic Compliance Matrix: (Units=1/GPa)
#
#
# Indices 1 2 3 4 5 6 
#
# 1 0.007526 -0.001007 -0.004069 0.000493 -0.001658 -0.000509
# 2 -0.001007 0.015682 -0.001648 -0.005864 -0.002971 0.005629
# 3 -0.004069 -0.001648 0.022966 -0.000602 -0.001565 0.011070
# 4 0.000493 -0.005864 -0.000602 0.017439 0.002234 -0.002834
# 5 -0.001658 -0.002971 -0.001565 0.002234 0.021749 -0.005290
# 6 -0.000509 0.005629 0.011070 -0.002834 -0.005290 0.041345
#
#
# Mechanical properties :
#
#
# Convention : Reuss Voigt Hill
#
# Bulk Modulus (GPa) = 30.55592 48.63063 39.59327
# Shear Modulus (GPa) = 33.09854 44.56691 38.83272
#
# Velocity S-wave (km/s) = 3.51833 4.08261 3.81093
# Velocity P-wave (km/s) = 5.28513 6.35698 5.84567
#
# Compressibility (1/GPa) = 0.03272689
#
# Stress axis : x y z
#
# Youngs Moduli (GPa) = 132.87772 63.76651 43.54179
#
# Poissons Ratio (x) = 0.06422 0.17716
# Poissons Ratio (y) = 0.13382 0.07175
# Poissons Ratio (z) = 0.54065 0.10508
#
# Static dielectric constant tensor:
#      x y z
#    x 2.083340 -0.042440 -0.065430 
#    y -0.042440 2.242840 0.031180 
#    z -0.065430 0.031180 2.153460 
# 
# From -- ./inp_files/364131.got.cif
#   From: 2010.05.17/outbox.cif.g08.bks.cpg/sg2_183_cif.got.tgz:364131.got - 2010.06.03 11:33:40.
