data_PCOD9052633
_publ_section_title
;
Structure prediction by ZEFSAII (Michael W. Deem and Ramdas Pophale) SiO2 
 PCOD9052633
Probable space group: P -1
;
_chemical_formula_sum "Si O2"
_cell_formula_units_Z 16
_cell_length_a 13.348338
_cell_length_b 8.273536
_cell_length_c 8.998944
_cell_angle_alpha 113.715195
_cell_angle_beta 74.632693
_cell_angle_gamma 67.596534
_cell_volume 731.332430
_symmetry_space_group_name_H-M "P -1"
_symmetry_group_IT_number 2
_symmetry_cell_setting 'triclinic'
loop_
_space_group_symop_operation_xyz
x,y,z
-x,-y,-z
loop_
_atom_site_type_symbol
_atom_site_label
_atom_site_fract_x
_atom_site_fract_y
_atom_site_fract_z
Si Si1 0.054535 0.909879 0.111912
Si Si2 0.394093 0.453511 0.525676
Si Si3 0.396188 0.213878 0.704558
Si Si4 0.810237 0.218537 0.489657
Si Si5 0.797439 0.991016 0.678023
Si Si6 0.559730 0.968993 0.805874
Si Si7 0.868802 0.551613 0.017385
Si Si8 0.045269 0.580692 0.379890
O O1 0.126259 0.658502 0.013219
O O2 0.140549 0.976443 0.187215
O O3 0.930880 0.010386 0.297772
O O4 0.000000 0.000000 0.000000
O O5 0.500000 0.500000 0.500000
O O6 0.377042 0.404068 0.682576
O O7 0.280353 0.654598 0.563152
O O8 0.421812 0.244529 0.349502
O O9 0.500000 0.000000 0.500000
O O10 0.460068 0.173957 0.823758
O O11 0.260428 0.252983 0.794440
O O12 0.864492 0.353186 0.572760
O O13 0.753191 0.174721 0.639689
O O14 0.689706 0.953737 0.745731
O O15 0.911873 0.791042 0.471766
O O16 0.500000 0.000000 0.000000
O O17 0.881321 0.568845 0.842303
O O18 0.000000 0.500000 0.000000
O O19 0.000000 0.500000 0.500000
#
# Coordination Sequence:
#
# PCOD9052633 Si02
#       8
#     2   2   2   2   2   2   2   2
#     4  11  24  42  67 106 143 180 231 292 359 426
#     4  11  25  46  71 101 141 194 237 297 368 427
#     4  10  26  48  68 101 148 189 239 294 357 426
#     4  11  22  45  72  98 142 185 229 293 361 425
#     4  11  23  46  71  97 143 189 230 299 353 421
#     4  11  27  45  73 102 139 191 250 295 350 431
#     4  12  27  42  71 108 141 186 239 294 356 427
#     4  11  24  41  71 105 143 180 234 288 359 424
#
# _framework density 21.877877000000002
#
# number of rings (size 3 to 8) (size 9 to 14) (size 15 to 20)
#    0.000    1.000    2.500    3.000   12.250    4.000 
#    0.000    1.875    0.000    0.000    0.000    0.000 
#    0.000    0.000    0.000    0.000    0.000    0.000 
#
# Total GULP energy -89303.483936 kJ/mol
# GULP energy per Si atom -5581.467746 kJ/mol
# Density = 2.182808 g / cm^3
# Si number density = 21.877877 Si / 1000 Ang^3
#
#
#
# Elastic Constant Matrix: (Units=GPa)
#
#
# Indices 1 2 3 4 5 6 
#
# 1 160.7465 55.2888 69.3644 -11.1195 -37.2795 0.1758
# 2 55.2888 117.6455 47.9626 -35.3125 -5.9124 -4.8121
# 3 69.3644 47.9626 112.9875 -26.3497 -17.5653 1.0645
# 4 -11.1195 -35.3125 -26.3497 48.5019 -4.4330 -2.6599
# 5 -37.2795 -5.9124 -17.5653 -4.4330 29.0818 -1.7807
# 6 0.1758 -4.8121 1.0645 -2.6599 -1.7807 41.3532
#
#
#
# Elastic Compliance Matrix: (Units=1/GPa)
#
#
# Indices 1 2 3 4 5 6 
#
# 1 0.011975 -0.003639 -0.004214 -0.001102 0.011902 0.000076
# 2 -0.003639 0.013312 -0.001903 0.007771 -0.001799 0.002036
# 3 -0.004214 -0.001903 0.014122 0.005647 0.003599 -0.000049
# 4 -0.001102 0.007771 0.005647 0.030020 0.008341 0.003054
# 5 0.011902 -0.001799 0.003599 0.008341 0.052873 0.002461
# 6 0.000076 0.002036 -0.000049 0.003054 0.002461 0.024722
#
#
# Mechanical properties :
#
#
# Convention : Reuss Voigt Hill
#
# Bulk Modulus (GPa) = 50.26153 81.84566 66.05359
# Shear Modulus (GPa) = 28.87341 38.37163 33.62252
#
# Velocity S-wave (km/s) = 3.63678 4.19250 3.92449
# Velocity P-wave (km/s) = 6.37640 7.80561 7.12692
#
# Compressibility (1/GPa) = 0.01989593
#
# Stress axis : x y z
#
# Youngs Moduli (GPa) = 83.50611 75.12237 70.80981
#
# Poissons Ratio (x) = 0.27338 0.29840
# Poissons Ratio (y) = 0.30389 0.13477
# Poissons Ratio (z) = 0.35191 0.14298
#
# Static dielectric constant tensor:
#      x y z
#    x 1.659690 -0.019020 0.027570 
#    y -0.019020 1.937140 -0.023750 
#    z 0.027570 -0.023750 1.759270 
# 
# From -- ./inp_files/244980.got.cif
#   From: 2010.05.17/outbox.cif.g08.bks.cpg/sg2_123_cif.got.tgz:244980.got - 2010.06.03 11:33:40.
