data_PCOD9052526
_publ_section_title
;
Structure prediction by ZEFSAII (Michael W. Deem and Ramdas Pophale) SiO2 
 PCOD9052526
Probable space group: P -1
;
_chemical_formula_sum "Si O2"
_cell_formula_units_Z 10
_cell_length_a 8.887864
_cell_length_b 14.184489
_cell_length_c 9.371340
_cell_angle_alpha 45.011570
_cell_angle_beta 100.924343
_cell_angle_gamma 137.877977
_cell_volume 396.954094
_symmetry_space_group_name_H-M "P -1"
_symmetry_group_IT_number 2
_symmetry_cell_setting 'triclinic'
loop_
_space_group_symop_operation_xyz
x,y,z
-x,-y,-z
loop_
_atom_site_type_symbol
_atom_site_label
_atom_site_fract_x
_atom_site_fract_y
_atom_site_fract_z
Si Si1 0.323089 0.228299 0.231109
Si Si2 0.226896 0.743500 0.083916
Si Si3 0.298116 0.547110 0.483731
Si Si4 0.081312 0.131075 0.725649
Si Si5 0.376114 0.809105 0.560371
O O1 0.514205 0.252862 0.306280
O O2 0.500000 0.500000 0.000000
O O3 0.000000 0.000000 0.500000
O O4 0.208043 0.106773 0.180082
O O5 0.388139 0.754063 0.200408
O O6 0.975132 0.630083 0.260410
O O7 0.998810 0.486598 0.211496
O O8 0.458780 0.011808 0.746645
O O9 0.167805 0.347460 0.552416
O O10 0.597957 0.701429 0.443486
O O11 0.000000 0.000000 0.000000
O O12 0.500000 0.000000 0.500000
#
# Coordination Sequence:
#
# PCOD9052526 Si02
#       5
#     2   2   2   2   2
#     4  12  29  49  77 110 152 201 252 312 382 452
#     4  11  26  47  76 110 148 199 252 315 376 454
#     4  10  26  46  76 111 151 197 257 315 381 447
#     4  11  27  46  78 107 155 197 260 311 379 448
#     4  12  27  47  75 107 156 196 257 306 387 452
#
# _framework density 25.191828000000001
#
# number of rings (size 3 to 8) (size 9 to 14) (size 15 to 20)
#    0.000    0.800    0.000    4.200   19.600    1.600 
#    0.000    0.000    0.000    0.000    0.000    0.000 
#    0.000    0.000    0.000    0.000    0.000    0.000 
#
# Total GULP energy -56133.789843 kJ/mol
# GULP energy per Si atom -5613.378984 kJ/mol
# Density = 2.513449 g / cm^3
# Si number density = 25.191828 Si / 1000 Ang^3
#
#
#
# Elastic Constant Matrix: (Units=GPa)
#
#
# Indices 1 2 3 4 5 6 
#
# 1 109.0882 16.9487 29.0935 6.5493 36.3845 -7.2317
# 2 16.9487 173.6625 41.8667 -3.9755 26.4865 -17.7050
# 3 29.0935 41.8667 151.3500 -1.8336 30.0459 -2.0031
# 4 6.5493 -3.9755 -1.8336 47.9472 1.2982 -0.2839
# 5 36.3845 26.4865 30.0459 1.2982 41.2467 3.1559
# 6 -7.2317 -17.7050 -2.0031 -0.2839 3.1559 36.7801
#
#
#
# Elastic Compliance Matrix: (Units=1/GPa)
#
#
# Indices 1 2 3 4 5 6 
#
# 1 0.013755 0.001114 -0.000357 -0.001426 -0.012874 0.004315
# 2 0.001114 0.007114 -0.001117 0.000556 -0.005063 0.004021
# 3 -0.000357 -0.001117 0.007942 0.000391 -0.004784 0.000238
# 4 -0.001426 0.000556 0.000391 0.021115 -0.000062 0.000177
# 5 -0.012874 -0.005063 -0.004784 -0.000062 0.043021 -0.008921
# 6 0.004315 0.004021 0.000238 0.000177 -0.008921 0.030753
#
#
# Mechanical properties :
#
#
# Convention : Reuss Voigt Hill
#
# Bulk Modulus (GPa) = 35.59730 67.76872 51.68301
# Shear Modulus (GPa) = 37.37430 48.27426 42.82428
#
# Velocity S-wave (km/s) = 3.85592 4.38227 4.12749
# Velocity P-wave (km/s) = 5.82969 7.25018 6.57839
#
# Compressibility (1/GPa) = 0.02809202
#
# Stress axis : x y z
#
# Youngs Moduli (GPa) = 72.70343 140.57490 125.90648
#
# Poissons Ratio (x) = -0.15666 0.04490
# Poissons Ratio (y) = -0.08102 0.14064
# Poissons Ratio (z) = 0.02593 0.15703
#
# Static dielectric constant tensor:
#      x y z
#    x 1.986970 -0.050660 -0.016100 
#    y -0.050660 2.100020 -0.003480 
#    z -0.016100 -0.003480 1.960940 
# 
# From -- ./inp_files/16455.got.cif
#   From: 2010.05.17/outbox.cif.g08.bks.cpg/sg2_9_cif.got.tgz:16455.got - 2010.06.03 11:33:40.
