data_PCOD9052465
_publ_section_title
;
Structure prediction by ZEFSAII (Michael W. Deem and Ramdas Pophale) SiO2 
 PCOD9052465
Probable space group: P -1
;
_chemical_formula_sum "Si O2"
_cell_formula_units_Z 16
_cell_length_a 11.642667
_cell_length_b 15.038670
_cell_length_c 9.461702
_cell_angle_alpha 100.799507
_cell_angle_beta 111.081919
_cell_angle_gamma 29.690979
_cell_volume 737.068029
_symmetry_space_group_name_H-M "P -1"
_symmetry_group_IT_number 2
_symmetry_cell_setting 'triclinic'
loop_
_space_group_symop_operation_xyz
x,y,z
-x,-y,-z
loop_
_atom_site_type_symbol
_atom_site_label
_atom_site_fract_x
_atom_site_fract_y
_atom_site_fract_z
Si Si1 0.989117 0.142356 0.794332
Si Si2 0.240110 0.636923 0.499676
Si Si3 0.171252 0.371807 0.177280
Si Si4 0.660072 0.310073 0.965606
Si Si5 0.268534 0.394136 0.793986
Si Si6 0.511592 0.098468 0.012915
Si Si7 0.013292 0.056079 0.311094
Si Si8 0.623874 0.652272 0.478921
O O1 0.938596 0.247741 0.681927
O O2 0.767761 0.261070 0.842405
O O3 0.053187 0.006151 0.705753
O O4 0.217780 0.036856 0.950423
O O5 0.500000 0.500000 0.500000
O O6 0.294984 0.504365 0.547850
O O7 0.131268 0.779077 0.605118
O O8 0.434663 0.181648 0.159825
O O9 0.246033 0.397179 0.335032
O O10 0.006326 0.404128 0.201722
O O11 0.000000 0.500000 0.000000
O O12 0.477388 0.338844 0.896826
O O13 0.500000 0.500000 0.000000
O O14 0.897110 0.144343 0.128304
O O15 0.270566 0.371202 0.623477
O O16 0.334516 0.259297 0.865996
O O17 0.500000 0.000000 0.000000
O O18 0.318663 0.864763 0.405799
#
# Coordination Sequence:
#
# PCOD9052465 Si02
#       8
#     2   2   2   2   2   2   2   2
#     4  12  24  44  70 104 152 186 244 309 362 438
#     4  12  26  40  68 107 146 189 240 295 370 448
#     4  10  26  46  71  97 138 195 239 300 362 435
#     4  12  25  44  77 113 142 197 243 302 377 437
#     4  11  23  48  71 103 146 187 245 304 362 440
#     4  11  26  45  70 104 141 196 247 295 369 436
#     4  12  24  45  71 108 149 187 242 307 371 429
#     4  12  25  48  72 106 147 192 245 306 377 430
#
# _framework density 21.707630000000002
#
# number of rings (size 3 to 8) (size 9 to 14) (size 15 to 20)
#    0.000    0.500    3.750    4.125    7.000    1.000 
#    2.250    0.625    0.000    0.000    0.000    0.000 
#    0.000    0.000    0.000    0.000    0.000    0.000 
#
# Total GULP energy -89267.862519 kJ/mol
# GULP energy per Si atom -5579.241407 kJ/mol
# Density = 2.165822 g / cm^3
# Si number density = 21.707630 Si / 1000 Ang^3
#
#
#
# Elastic Constant Matrix: (Units=GPa)
#
#
# Indices 1 2 3 4 5 6 
#
# 1 115.1035 52.5636 33.0335 9.0396 -2.9369 -0.8167
# 2 52.5636 110.1199 46.1970 12.3596 -2.6649 9.6780
# 3 33.0335 46.1970 123.5964 1.9764 -1.5323 7.8549
# 4 9.0396 12.3596 1.9764 42.2081 -5.7899 0.1742
# 5 -2.9369 -2.6649 -1.5323 -5.7899 37.7433 -5.1860
# 6 -0.8167 9.6780 7.8549 0.1742 -5.1860 31.8666
#
#
#
# Elastic Compliance Matrix: (Units=1/GPa)
#
#
# Indices 1 2 3 4 5 6 
#
# 1 0.011447 -0.005001 -0.001311 -0.000844 0.000664 0.002248
# 2 -0.005001 0.013523 -0.003460 -0.002778 -0.000474 -0.003444
# 3 -0.001311 -0.003460 0.009811 0.000839 -0.000013 -0.001408
# 4 -0.000844 -0.002778 0.000839 0.025161 0.003782 0.001093
# 5 0.000664 -0.000474 -0.000013 0.003782 0.027732 0.004657
# 6 0.002248 -0.003444 -0.001408 0.001093 0.004657 0.033583
#
#
# Mechanical properties :
#
#
# Convention : Reuss Voigt Hill
#
# Bulk Modulus (GPa) = 65.63739 68.04533 66.84136
# Shear Modulus (GPa) = 34.27458 36.83199 35.55329
#
# Velocity S-wave (km/s) = 3.97787 4.12361 4.05139
# Velocity P-wave (km/s) = 7.16942 7.35435 7.26248
#
# Compressibility (1/GPa) = 0.01523522
#
# Stress axis : x y z
#
# Youngs Moduli (GPa) = 87.35942 73.95025 101.92968
#
# Poissons Ratio (x) = 0.36979 0.13368
# Poissons Ratio (y) = 0.43685 0.35272
# Poissons Ratio (z) = 0.11457 0.25590
#
# Static dielectric constant tensor:
#      x y z
#    x 1.776130 -0.009490 0.005580 
#    y -0.009490 1.926480 -0.119960 
#    z 0.005580 -0.119960 1.930690 
# 
# From -- ./inp_files/273447.got.cif
#   From: 2010.05.17/outbox.cif.g08.bks.cpg/sg2_137_cif.got.tgz:273447.got - 2010.06.03 11:33:40.
