data_PCOD9052855
_publ_section_title
;
Structure prediction by ZEFSAII (Michael W. Deem and Ramdas Pophale) SiO2 
 PCOD9052855
Probable space group: P -1
;
_chemical_formula_sum "Si O2"
_cell_formula_units_Z 16
_cell_length_a 32.496654
_cell_length_b 9.386924
_cell_length_c 5.311117
_cell_angle_alpha 89.610658
_cell_angle_beta 83.772055
_cell_angle_gamma 26.054269
_cell_volume 691.975717
_symmetry_space_group_name_H-M "P -1"
_symmetry_group_IT_number 2
_symmetry_cell_setting 'triclinic'
loop_
_space_group_symop_operation_xyz
x,y,z
-x,-y,-z
loop_
_atom_site_type_symbol
_atom_site_label
_atom_site_fract_x
_atom_site_fract_y
_atom_site_fract_z
Si Si1 0.236011 0.432317 0.563538
Si Si2 0.635758 0.822399 0.918769
Si Si3 0.556150 0.501553 0.740724
Si Si4 0.841440 0.736472 0.060663
Si Si5 0.340279 0.895308 0.823453
Si Si6 0.221071 0.763215 0.795171
Si Si7 0.099244 0.609417 0.476753
Si Si8 0.591885 0.708271 0.623005
O O1 0.325229 0.205103 0.336153
O O2 0.181021 0.749623 0.670829
O O3 0.178231 0.490134 0.453471
O O4 0.272405 0.239963 0.794696
O O5 0.577221 0.872017 0.841669
O O6 0.727283 0.467825 0.996590
O O7 0.558338 0.132671 0.152367
O O8 0.396154 0.722422 0.049503
O O9 0.586398 0.347255 0.453912
O O10 0.600112 0.523744 0.717622
O O11 0.894477 0.498907 0.266469
O O12 0.731740 0.016821 0.137956
O O13 0.842358 0.904319 0.089676
O O14 0.880909 0.554179 0.772156
O O15 0.309702 0.551873 0.576838
O O16 0.000000 0.000000 0.500000
O O17 0.500000 0.000000 0.500000
#
# Coordination Sequence:
#
# PCOD9052855 Si02
#       8
#     2   2   2   2   2   2   2   2
#     4  10  27  45  67 101 143 187 226 297 368 412
#     4  11  25  37  63  93 146 195 236 296 347 390
#     4  12  23  38  62  94 135 192 252 285 319 387
#     4  11  24  45  77 107 135 181 232 281 349 424
#     4  11  24  41  65  95 138 188 242 285 328 402
#     4  11  24  42  68 101 144 187 236 288 351 409
#     4  11  26  52  81 106 134 174 226 285 361 448
#     4  11  21  39  58  95 137 192 249 294 333 388
#
# _framework density 23.122198999999998
#
# number of rings (size 3 to 8) (size 9 to 14) (size 15 to 20)
#    0.000    1.000    2.500    3.750   10.500    1.000 
#    0.000    1.250    0.000    0.000    0.000    0.000 
#    0.000    0.000    0.000    0.000    0.000    0.000 
#
# Total GULP energy -89597.215946 kJ/mol
# GULP energy per Si atom -5599.825997 kJ/mol
# Density = 2.306957 g / cm^3
# Si number density = 23.122199 Si / 1000 Ang^3
#
#
#
# Elastic Constant Matrix: (Units=GPa)
#
#
# Indices 1 2 3 4 5 6 
#
# 1 100.7939 23.2924 29.4174 1.9900 17.8723 48.2851
# 2 23.2924 92.3738 43.4738 -7.7669 16.5384 24.2489
# 3 29.4174 43.4738 121.7592 -12.9024 27.6565 19.5837
# 4 1.9900 -7.7669 -12.9024 32.5630 15.0147 1.6109
# 5 17.8723 16.5384 27.6565 15.0147 39.9952 5.5890
# 6 48.2851 24.2489 19.5837 1.6109 5.5890 34.5099
#
#
#
# Elastic Compliance Matrix: (Units=1/GPa)
#
#
# Indices 1 2 3 4 5 6 
#
# 1 0.038884 0.009199 0.002760 0.012893 -0.019562 -0.059870
# 2 0.009199 0.018054 -0.001472 0.009286 -0.010773 -0.023410
# 3 0.002760 -0.001472 0.013715 0.011417 -0.013135 -0.009016
# 4 0.012893 0.009286 0.011417 0.053582 -0.033686 -0.028089
# 5 -0.019562 -0.010773 -0.013135 -0.033686 0.055029 0.035055
# 6 -0.059870 -0.023410 -0.009016 -0.028089 0.035055 0.129944
#
#
# Mechanical properties :
#
#
# Convention : Reuss Voigt Hill
#
# Bulk Modulus (GPa) = 10.91387 56.36601 33.63994
# Shear Modulus (GPa) = 15.68486 35.99650 25.84068
#
# Velocity S-wave (km/s) = 2.60733 3.94990 3.34663
# Velocity P-wave (km/s) = 3.71411 6.72552 5.43265
#
# Compressibility (1/GPa) = 0.09162654
#
# Stress axis : x y z
#
# Youngs Moduli (GPa) = 25.71719 55.39021 72.91218
#
# Poissons Ratio (x) = -0.50953 -0.20124
# Poissons Ratio (y) = -0.23657 0.10736
# Poissons Ratio (z) = -0.07098 0.08156
#
# Static dielectric constant tensor:
#      x y z
#    x 1.939110 0.043470 0.022130 
#    y 0.043470 1.868340 -0.003390 
#    z 0.022130 -0.003390 1.900500 
# 
# From -- ./inp_files/44599.got.cif
#   From: 2010.05.17/outbox.cif.g08.bks.cpg/sg2_23_cif.got.tgz:44599.got - 2010.06.03 11:33:40.
