data_PCOD9052587
_publ_section_title
;
Structure prediction by ZEFSAII (Michael W. Deem and Ramdas Pophale) SiO2 
 PCOD9052587
Probable space group: P -1
;
_chemical_formula_sum "Si O2"
_cell_formula_units_Z 14
_cell_length_a 21.327084
_cell_length_b 9.370835
_cell_length_c 5.184639
_cell_angle_alpha 66.284171
_cell_angle_beta 109.539981
_cell_angle_gamma 143.985556
_cell_volume 557.722097
_symmetry_space_group_name_H-M "P -1"
_symmetry_group_IT_number 2
_symmetry_cell_setting 'triclinic'
loop_
_space_group_symop_operation_xyz
x,y,z
-x,-y,-z
loop_
_atom_site_type_symbol
_atom_site_label
_atom_site_fract_x
_atom_site_fract_y
_atom_site_fract_z
Si Si1 0.660176 0.880963 0.616089
Si Si2 0.269245 0.543892 0.535309
Si Si3 0.541607 0.956355 0.373412
Si Si4 0.754066 0.199105 0.001192
Si Si5 0.990223 0.587809 0.170349
Si Si6 0.663295 0.529209 0.736183
Si Si7 0.892788 0.881105 0.050188
O O1 0.646274 0.672386 0.710741
O O2 0.561440 0.813838 0.601462
O O3 0.690696 0.999114 0.287044
O O4 0.745057 0.077564 0.816032
O O5 0.338946 0.755074 0.700059
O O6 0.316955 0.469768 0.544378
O O7 0.147766 0.289536 0.632768
O O8 0.280919 0.695656 0.221090
O O9 0.500000 0.000000 0.500000
O O10 0.548899 0.233143 0.829208
O O11 0.871379 0.437023 0.102364
O O12 0.000000 0.500000 0.500000
O O13 0.000000 0.500000 0.000000
O O14 0.073483 0.878896 0.047318
O O15 0.778914 0.686026 0.887651
O O16 0.000000 0.000000 0.000000
#
# Coordination Sequence:
#
# PCOD9052587 Si02
#       7
#     2   2   2   2   2   2   2
#     4  11  25  47  79 114 150 196 250 315 381 448
#     4  10  26  47  72 107 148 199 252 309 378 453
#     4   9  22  49  77 111 149 199 248 312 381 456
#     4  11  25  48  74 105 154 199 248 307 382 451
#     4  12  28  47  73 108 148 199 252 313 377 445
#     4  11  24  46  74 111 150 197 253 318 375 446
#     4  12  29  46  75 109 151 203 257 312 372 453
#
# _framework density 25.102107
#
# number of rings (size 3 to 8) (size 9 to 14) (size 15 to 20)
#    0.000    1.143    0.000    3.857   16.000    1.714 
#   10.286    3.571    0.000    0.000    0.000    0.000 
#    0.000    0.000    0.000    0.000    0.000    0.000 
#
# Total GULP energy -78152.405284 kJ/mol
# GULP energy per Si atom -5582.314663 kJ/mol
# Density = 2.504497 g / cm^3
# Si number density = 25.102107 Si / 1000 Ang^3
#
#
#
# Elastic Constant Matrix: (Units=GPa)
#
#
# Indices 1 2 3 4 5 6 
#
# 1 138.7101 73.3569 30.9451 -9.0005 9.4272 -16.9158
# 2 73.3569 216.4814 65.8968 -9.4620 14.2371 -21.0609
# 3 30.9451 65.8968 130.4142 5.3746 -5.4396 -7.4614
# 4 -9.0005 -9.4620 5.3746 41.9066 15.7911 5.0501
# 5 9.4272 14.2371 -5.4396 15.7911 35.2603 7.0774
# 6 -16.9158 -21.0609 -7.4614 5.0501 7.0774 58.0259
#
#
#
# Elastic Compliance Matrix: (Units=1/GPa)
#
#
# Indices 1 2 3 4 5 6 
#
# 1 0.009310 -0.002266 -0.001204 0.002670 -0.003339 0.001912
# 2 -0.002266 0.006930 -0.003166 0.002908 -0.004329 0.001723
# 3 -0.001204 -0.003166 0.009905 -0.004091 0.005058 -0.000487
# 4 0.002670 0.002908 -0.004091 0.031928 -0.016937 0.000595
# 5 -0.003339 -0.004329 0.005058 -0.016937 0.040441 -0.005353
# 6 0.001912 0.001723 -0.000487 0.000595 -0.005353 0.018955
#
#
# Mechanical properties :
#
#
# Convention : Reuss Voigt Hill
#
# Bulk Modulus (GPa) = 77.68146 91.77814 84.72980
# Shear Modulus (GPa) = 37.02854 48.06567 42.54711
#
# Velocity S-wave (km/s) = 3.84489 4.38060 4.12146
# Velocity P-wave (km/s) = 7.12210 7.88844 7.51504
#
# Compressibility (1/GPa) = 0.01287308
#
# Stress axis : x y z
#
# Youngs Moduli (GPa) = 107.41695 144.29577 100.95905
#
# Poissons Ratio (x) = 0.32694 0.12156
# Poissons Ratio (y) = 0.24338 0.31963
# Poissons Ratio (z) = 0.12934 0.45683
#
# Static dielectric constant tensor:
#      x y z
#    x 2.087170 0.069350 0.027440 
#    y 0.069350 2.009440 0.030780 
#    z 0.027440 0.030780 2.195380 
# 
# From -- ./inp_files/46864.got.cif
#   From: 2010.05.17/outbox.cif.g08.bks.cpg/sg2_24_cif.got.tgz:46864.got - 2010.06.03 11:33:40.
