data_PCOD9052955
_publ_section_title
;
Structure prediction by ZEFSAII (Michael W. Deem and Ramdas Pophale) SiO2 
 PCOD9052955
Probable space group: P -1
;
_chemical_formula_sum "Si O2"
_cell_formula_units_Z 16
_cell_length_a 9.421768
_cell_length_b 16.097672
_cell_length_c 9.311737
_cell_angle_alpha 30.939204
_cell_angle_beta 84.631891
_cell_angle_gamma 100.338078
_cell_volume 622.967191
_symmetry_space_group_name_H-M "P -1"
_symmetry_group_IT_number 2
_symmetry_cell_setting 'triclinic'
loop_
_space_group_symop_operation_xyz
x,y,z
-x,-y,-z
loop_
_atom_site_type_symbol
_atom_site_label
_atom_site_fract_x
_atom_site_fract_y
_atom_site_fract_z
Si Si1 0.297709 0.660502 0.440989
Si Si2 0.559546 0.858325 0.631762
Si Si3 0.079373 0.914666 0.826486
Si Si4 0.277697 0.271408 0.953389
Si Si5 0.360656 0.217897 0.715349
Si Si6 0.277657 0.474081 0.180596
Si Si7 0.935275 0.198918 0.672508
Si Si8 0.165946 0.638009 0.197153
O O1 0.474321 0.790030 0.300569
O O2 0.153960 0.678727 0.502805
O O3 0.298842 0.729146 0.175892
O O4 0.270062 0.452028 0.741659
O O5 0.613050 0.776767 0.882361
O O6 0.500000 0.000000 0.500000
O O7 0.727955 0.925507 0.422375
O O8 0.410205 0.687463 0.808494
O O9 0.914419 0.895745 0.802473
O O10 0.030522 0.835099 0.112821
O O11 0.119211 0.780157 0.922112
O O12 0.358798 0.308161 0.734663
O O13 0.365788 0.361197 0.385000
O O14 0.201220 0.012388 0.039584
O O15 0.213880 0.528950 0.247537
O O16 0.096616 0.304441 0.397973
O O17 0.000000 0.500000 0.500000
#
# Coordination Sequence:
#
# PCOD9052955 Si02
#       8
#     2   2   2   2   2   2   2   2
#     4  11  20  36  62  99 125 159 207 267 318 357
#     4  12  27  39  63  97 130 168 213 267 316 370
#     4  11  22  40  62  94 129 168 207 250 321 381
#     4  12  22  40  67  93 128 163 216 268 310 371
#     4  12  23  38  67 103 123 160 217 267 314 368
#     4  12  20  39  63  93 123 166 209 260 314 370
#     4  11  24  41  68  93 133 167 203 260 323 384
#     4  11  16  33  64  93 119 157 201 264 308 358
#
# _framework density 25.683533000000001
#
# number of rings (size 3 to 8) (size 9 to 14) (size 15 to 20)
#    0.000    0.500    8.750    2.250    1.750    0.000 
#    0.000    0.625    0.000    0.750    0.000    0.000 
#    0.000    0.000    0.000    0.000    0.000    0.000 
#
# Total GULP energy -89198.693473 kJ/mol
# GULP energy per Si atom -5574.918342 kJ/mol
# Density = 2.562508 g / cm^3
# Si number density = 25.683533 Si / 1000 Ang^3
#
#
#
# Elastic Constant Matrix: (Units=GPa)
#
#
# Indices 1 2 3 4 5 6 
#
# 1 165.8166 14.7936 32.8318 -4.6607 -8.1231 1.9736
# 2 14.7936 37.1041 17.8627 -15.1111 6.7623 -10.0783
# 3 32.8318 17.8627 101.0331 -22.8573 -22.1724 2.8469
# 4 -4.6607 -15.1111 -22.8573 30.7353 -0.5730 -11.9802
# 5 -8.1231 6.7623 -22.1724 -0.5730 66.2856 -4.5754
# 6 1.9736 -10.0783 2.8469 -11.9802 -4.5754 28.0222
#
#
#
# Elastic Compliance Matrix: (Units=1/GPa)
#
#
# Indices 1 2 3 4 5 6 
#
# 1 0.006794 -0.004317 -0.002220 -0.004112 0.000252 -0.003522
# 2 -0.004317 0.057037 -0.001274 0.041149 -0.003801 0.037919
# 3 -0.002220 -0.001274 0.014417 0.011382 0.005050 0.003924
# 4 -0.004112 0.041149 0.011382 0.079554 0.003138 0.048456
# 5 0.000252 -0.003801 0.005050 0.003138 0.017379 0.002281
# 6 -0.003522 0.037919 0.003924 0.048456 0.002281 0.070262
#
#
# Mechanical properties :
#
#
# Convention : Reuss Voigt Hill
#
# Bulk Modulus (GPa) = 15.96821 48.32557 32.14689
# Shear Modulus (GPa) = 17.73416 40.90635 29.32026
#
# Velocity S-wave (km/s) = 2.63056 3.99520 3.38242
# Velocity P-wave (km/s) = 3.93157 6.33552 5.27239
#
# Compressibility (1/GPa) = 0.06262442
#
# Stress axis : x y z
#
# Youngs Moduli (GPa) = 147.18370 17.53253 69.36120
#
# Poissons Ratio (x) = 0.07569 0.15400
# Poissons Ratio (y) = 0.63542 0.08840
# Poissons Ratio (z) = 0.32680 0.02234
#
# Static dielectric constant tensor:
#      x y z
#    x 2.072780 0.027740 -0.141040 
#    y 0.027740 2.068890 -0.065370 
#    z -0.141040 -0.065370 2.307720 
# 
# From -- ./inp_files/508370.got.cif
#   From: 2010.05.17/outbox.cif.g08.bks.cpg/sg2_255_cif.got.tgz:508370.got - 2010.06.03 11:33:40.
