data_PCOD9052931
_publ_section_title
;
Structure prediction by ZEFSAII (Michael W. Deem and Ramdas Pophale) SiO2 
 PCOD9052931
Probable space group: P -1
;
_chemical_formula_sum "Si O2"
_cell_formula_units_Z 12
_cell_length_a 9.597793
_cell_length_b 5.159992
_cell_length_c 20.937647
_cell_angle_alpha 113.347056
_cell_angle_beta 148.462568
_cell_angle_gamma 79.895705
_cell_volume 468.651894
_symmetry_space_group_name_H-M "P -1"
_symmetry_group_IT_number 2
_symmetry_cell_setting 'triclinic'
loop_
_space_group_symop_operation_xyz
x,y,z
-x,-y,-z
loop_
_atom_site_type_symbol
_atom_site_label
_atom_site_fract_x
_atom_site_fract_y
_atom_site_fract_z
Si Si1 0.480394 0.656426 0.913228
Si Si2 0.669931 0.693289 0.758771
Si Si3 0.520453 0.811956 0.570850
Si Si4 0.540207 0.998454 0.187345
Si Si5 0.886350 0.889378 0.514724
Si Si6 0.965813 0.634600 0.185850
O O1 0.489608 0.887597 0.883820
O O2 0.202989 0.557303 0.839635
O O3 0.492901 0.349255 0.857056
O O4 0.746361 0.756295 0.074954
O O5 0.639962 0.824195 0.690774
O O6 0.664062 0.915074 0.834703
O O7 0.386778 0.405037 0.627027
O O8 0.928449 0.570331 0.841181
O O9 0.500000 0.500000 0.500000
O O10 0.226227 0.867765 0.471762
O O11 0.754576 0.096000 0.657386
O O12 0.863575 0.164064 0.353028
O O13 0.000000 0.000000 0.500000
#
# Coordination Sequence:
#
# PCOD9052931 Si02
#       6
#     2   2   2   2   2   2
#     4  11  29  50  80 109 151 208 254 312 370 461
#     4  11  26  44  74 110 152 193 252 321 375 447
#     4  11  27  46  78 110 151 201 249 319 383 449
#     4  12  27  46  78 115 149 203 253 306 386 448
#     4  11  24  46  70 110 156 195 246 315 378 449
#     4  10  28  51  73 110 153 198 260 313 376 448
#
# _framework density 25.605356
#
# number of rings (size 3 to 8) (size 9 to 14) (size 15 to 20)
#    0.000    1.000    1.667    1.500   14.000    4.000 
#    0.000    2.500    0.000    0.000    0.000    0.000 
#    0.000    0.000    0.000    0.000    0.000    0.000 
#
# Total GULP energy -67397.912320 kJ/mol
# GULP energy per Si atom -5616.492693 kJ/mol
# Density = 2.554708 g / cm^3
# Si number density = 25.605356 Si / 1000 Ang^3
#
#
#
# Elastic Constant Matrix: (Units=GPa)
#
#
# Indices 1 2 3 4 5 6 
#
# 1 179.6460 65.2278 49.8573 0.4042 4.8388 -31.4274
# 2 65.2278 110.2226 21.5783 -0.2741 5.9245 -28.3385
# 3 49.8573 21.5783 93.4500 -8.1223 16.8621 -5.3590
# 4 0.4042 -0.2741 -8.1223 41.2484 3.2479 -10.5845
# 5 4.8388 5.9245 16.8621 3.2479 39.2126 -7.4791
# 6 -31.4274 -28.3385 -5.3590 -10.5845 -7.4791 66.5037
#
#
#
# Elastic Compliance Matrix: (Units=1/GPa)
#
#
# Indices 1 2 3 4 5 6 
#
# 1 0.008292 -0.003703 -0.003771 -0.000423 0.001603 0.002149
# 2 -0.003703 0.012301 -0.000467 0.000983 -0.000607 0.003542
# 3 -0.003771 -0.000467 0.014102 0.003015 -0.005976 -0.001037
# 4 -0.000423 0.000983 0.003015 0.026172 -0.002737 0.004319
# 5 0.001603 -0.000607 -0.005976 -0.002737 0.028729 0.002813
# 6 0.002149 0.003542 -0.001037 0.004319 0.002813 0.018482
#
#
# Mechanical properties :
#
#
# Convention : Reuss Voigt Hill
#
# Bulk Modulus (GPa) = 53.15792 72.96061 63.05927
# Shear Modulus (GPa) = 38.39371 45.83662 42.11516
#
# Velocity S-wave (km/s) = 3.87646 4.23557 4.05999
# Velocity P-wave (km/s) = 6.39073 7.24405 6.83073
#
# Compressibility (1/GPa) = 0.01881187
#
# Stress axis : x y z
#
# Youngs Moduli (GPa) = 120.60527 81.29326 70.91390
#
# Poissons Ratio (x) = 0.30103 0.26744
# Poissons Ratio (y) = 0.44661 0.03310
# Poissons Ratio (z) = 0.45485 0.03794
#
# Static dielectric constant tensor:
#      x y z
#    x 1.989190 0.011930 -0.018970 
#    y 0.011930 2.057950 0.007490 
#    z -0.018970 0.007490 2.025360 
# 
# From -- ./inp_files/339821.got.cif
#   From: 2010.05.17/outbox.cif.g08.bks.cpg/sg2_170_cif.got.tgz:339821.got - 2010.06.03 11:33:40.
