data_PCOD9052841
_publ_section_title
;
Structure prediction by ZEFSAII (Michael W. Deem and Ramdas Pophale) SiO2 
 PCOD9052841
Probable space group: P -1
;
_chemical_formula_sum "Si O2"
_cell_formula_units_Z 11
_cell_length_a 12.412223
_cell_length_b 8.833824
_cell_length_c 8.334098
_cell_angle_alpha 53.220394
_cell_angle_beta 121.625327
_cell_angle_gamma 144.327000
_cell_volume 425.408344
_symmetry_space_group_name_H-M "P -1"
_symmetry_group_IT_number 2
_symmetry_cell_setting 'triclinic'
loop_
_space_group_symop_operation_xyz
x,y,z
-x,-y,-z
loop_
_atom_site_type_symbol
_atom_site_label
_atom_site_fract_x
_atom_site_fract_y
_atom_site_fract_z
Si Si1 0.080281 0.814008 0.555701
Si Si2 0.000000 0.500000 0.000000
Si Si3 0.160321 0.240348 0.856465
Si Si4 0.363135 0.685405 0.005627
Si Si5 0.456749 0.068178 0.582929
Si Si6 0.355536 0.317673 0.683521
O O1 0.935723 0.742540 0.367054
O O2 0.237020 0.872489 0.543756
O O3 0.201938 0.100728 0.568656
O O4 0.981304 0.583271 0.759554
O O5 0.818500 0.426573 0.980461
O O6 0.297796 0.501269 0.911543
O O7 0.437790 0.616550 0.547839
O O8 0.259003 0.183889 0.867236
O O9 0.000000 0.000000 0.000000
O O10 0.487565 0.983880 0.826139
O O11 0.480943 0.656230 0.209752
O O12 0.500000 0.000000 0.500000
#
# Coordination Sequence:
#
# PCOD9052841 Si02
#       6
#     2   1   2   2   2   2
#     4  11  27  48  76 114 159 207 257 324 392 467
#     4  10  26  52  78 116 162 206 262 322 400 464
#     4  12  26  46  79 113 157 203 259 322 395 461
#     4  11  26  51  79 116 153 209 262 325 387 473
#     4  11  25  47  77 113 152 206 262 324 384 464
#     4  12  26  50  80 114 157 207 265 319 394 471
#
# _framework density 25.857506999999998
#
# number of rings (size 3 to 8) (size 9 to 14) (size 15 to 20)
#    0.000    0.727    1.818    3.818    2.545   10.182 
#    3.273    2.727    0.000    0.000    0.000    0.000 
#    0.000    0.000    0.000    0.000    0.000    0.000 
#
# Total GULP energy -61455.954656 kJ/mol
# GULP energy per Si atom -5586.904969 kJ/mol
# Density = 2.579865 g / cm^3
# Si number density = 25.857507 Si / 1000 Ang^3
#
#
#
# Elastic Constant Matrix: (Units=GPa)
#
#
# Indices 1 2 3 4 5 6 
#
# 1 136.9296 16.4547 35.9892 3.2653 -45.8523 -14.0727
# 2 16.4547 92.9748 15.8584 13.4163 10.5349 -8.2012
# 3 35.9892 15.8584 154.4514 -3.4802 -23.8320 4.9633
# 4 3.2653 13.4163 -3.4802 32.3270 0.4282 7.5486
# 5 -45.8523 10.5349 -23.8320 0.4282 66.5243 6.8657
# 6 -14.0727 -8.2012 4.9633 7.5486 6.8657 39.3964
#
#
#
# Elastic Compliance Matrix: (Units=1/GPa)
#
#
# Indices 1 2 3 4 5 6 
#
# 1 0.010444 -0.002039 -0.001275 -0.001014 0.006816 0.002473
# 2 -0.002039 0.013265 -0.001877 -0.006446 -0.004581 0.004303
# 3 -0.001275 -0.001877 0.007463 0.002296 0.002350 -0.002636
# 4 -0.001014 -0.006446 0.002296 0.036090 0.001865 -0.009233
# 5 0.006816 -0.004581 0.002350 0.001865 0.021588 -0.002935
# 6 0.002473 0.004303 -0.002636 -0.009233 -0.002935 0.029775
#
#
# Mechanical properties :
#
#
# Convention : Reuss Voigt Hill
#
# Bulk Modulus (GPa) = 48.09861 57.88449 52.99155
# Shear Modulus (GPa) = 36.78163 48.71979 42.75071
#
# Velocity S-wave (km/s) = 3.77566 4.34541 4.07051
# Velocity P-wave (km/s) = 6.13590 6.90009 6.52919
#
# Compressibility (1/GPa) = 0.02079062
#
# Stress axis : x y z
#
# Youngs Moduli (GPa) = 95.75049 75.38402 133.98871
#
# Poissons Ratio (x) = 0.15369 0.17081
# Poissons Ratio (y) = 0.19521 0.25155
# Poissons Ratio (z) = 0.12207 0.14152
#
# Static dielectric constant tensor:
#      x y z
#    x 4.524740 -1.813900 -1.121960 
#    y -1.813900 3.421190 0.748900 
#    z -1.121960 0.748900 2.541610 
# 
# From -- ./inp_files/232358.got.cif
#   From: 2010.05.17/outbox.cif.g08.bks.cpg/sg2_117_cif.got.tgz:232358.got - 2010.06.03 11:33:40.
