data_PCOD9052416
_publ_section_title
;
Structure prediction by ZEFSAII (Michael W. Deem and Ramdas Pophale) SiO2 
 PCOD9052416
Probable space group: P -1
;
_chemical_formula_sum "Si O2"
_cell_formula_units_Z 14
_cell_length_a 11.204152
_cell_length_b 6.812173
_cell_length_c 11.865895
_cell_angle_alpha 46.003149
_cell_angle_beta 106.124133
_cell_angle_gamma 100.350833
_cell_volume 625.768051
_symmetry_space_group_name_H-M "P -1"
_symmetry_group_IT_number 2
_symmetry_cell_setting 'triclinic'
loop_
_space_group_symop_operation_xyz
x,y,z
-x,-y,-z
loop_
_atom_site_type_symbol
_atom_site_label
_atom_site_fract_x
_atom_site_fract_y
_atom_site_fract_z
Si Si1 0.559277 0.300144 0.389057
Si Si2 0.479673 0.120881 0.821756
Si Si3 0.216823 0.901612 0.336275
Si Si4 0.887823 0.228338 0.882180
Si Si5 0.753390 0.161247 0.114706
Si Si6 0.407489 0.309813 0.145090
Si Si7 0.997059 0.837981 0.681030
O O1 0.487951 0.563857 0.317444
O O2 0.694336 0.280822 0.487195
O O3 0.533430 0.363506 0.226254
O O4 0.500000 0.000000 0.500000
O O5 0.330838 0.098332 0.778683
O O6 0.557280 0.923479 0.840377
O O7 0.500000 0.000000 0.000000
O O8 0.187741 0.797905 0.244354
O O9 0.296586 0.176056 0.239909
O O10 0.089176 0.982041 0.330370
O O11 0.943483 0.532399 0.780476
O O12 0.804383 0.176406 0.993167
O O13 0.000000 0.000000 0.000000
O O14 0.868284 0.182362 0.219385
O O15 0.655918 0.406918 0.016470
O O16 0.000000 0.000000 0.500000
#
# Coordination Sequence:
#
# PCOD9052416 Si02
#       7
#     2   2   2   2   2   2   2
#     4  10  26  46  68 108 147 187 241 300 375 429
#     4  12  26  44  75 112 144 196 252 299 366 440
#     4  11  25  45  76 102 148 192 246 299 374 433
#     4  12  25  49  77 103 146 200 253 294 365 447
#     4  12  25  48  76 109 153 193 250 305 368 443
#     4  11  24  47  74 106 149 195 246 304 361 446
#     4  12  29  47  72 110 149 191 243 312 373 430
#
# _framework density 22.372506999999999
#
# number of rings (size 3 to 8) (size 9 to 14) (size 15 to 20)
#    0.000    0.571    4.286    2.571    4.000    4.000 
#    0.000    0.000    0.000    0.000    0.000    0.000 
#    0.000    0.000    0.000    0.000    0.000    0.000 
#
# Total GULP energy -78164.458506 kJ/mol
# GULP energy per Si atom -5583.175608 kJ/mol
# Density = 2.232159 g / cm^3
# Si number density = 22.372507 Si / 1000 Ang^3
#
#
#
# Elastic Constant Matrix: (Units=GPa)
#
#
# Indices 1 2 3 4 5 6 
#
# 1 94.3945 50.8926 59.6128 6.1706 6.5702 0.3916
# 2 50.8926 132.1910 75.0089 2.7213 22.8805 -7.2503
# 3 59.6128 75.0089 125.3109 -1.4027 29.9551 -4.1150
# 4 6.1706 2.7213 -1.4027 55.8899 10.3202 9.3150
# 5 6.5702 22.8805 29.9551 10.3202 48.7108 6.2653
# 6 0.3916 -7.2503 -4.1150 9.3150 6.2653 45.3705
#
#
#
# Elastic Compliance Matrix: (Units=1/GPa)
#
#
# Indices 1 2 3 4 5 6 
#
# 1 0.016667 -0.003126 -0.007163 -0.002434 0.004320 -0.001390
# 2 -0.003126 0.012245 -0.005235 -0.000272 -0.002295 0.001882
# 3 -0.007163 -0.005235 0.016342 0.002612 -0.007330 0.001183
# 4 -0.002434 -0.000272 0.002612 0.019671 -0.004913 -0.003146
# 5 0.004320 -0.002295 -0.007330 -0.004913 0.027062 -0.003797
# 6 -0.001390 0.001882 0.001183 -0.003146 -0.003797 0.023631
#
#
# Mechanical properties :
#
#
# Convention : Reuss Voigt Hill
#
# Bulk Modulus (GPa) = 70.39691 80.32499 75.36095
# Shear Modulus (GPa) = 33.02474 41.08638 37.05556
#
# Velocity S-wave (km/s) = 3.84621 4.29005 4.07418
# Velocity P-wave (km/s) = 7.15951 7.77951 7.47594
#
# Compressibility (1/GPa) = 0.01420517
#
# Stress axis : x y z
#
# Youngs Moduli (GPa) = 59.99819 81.66670 61.19271
#
# Poissons Ratio (x) = 0.25528 0.43834
# Poissons Ratio (y) = 0.18755 0.32035
# Poissons Ratio (z) = 0.42978 0.42754
#
# Static dielectric constant tensor:
#      x y z
#    x 1.833080 0.022550 0.004870 
#    y 0.022550 1.907980 -0.007020 
#    z 0.004870 -0.007020 1.919830 
# 
# From -- ./inp_files/70216.got.cif
#   From: 2010.05.17/outbox.cif.g08.bks.cpg/sg2_36_cif.got.tgz:70216.got - 2010.06.03 11:33:40.
