data_PCOD9052968
_publ_section_title
;
Structure prediction by ZEFSAII (Michael W. Deem and Ramdas Pophale) SiO2 
 PCOD9052968
Probable space group: P -1
;
_chemical_formula_sum "Si O2"
_cell_formula_units_Z 16
_cell_length_a 11.520452
_cell_length_b 16.638092
_cell_length_c 14.408063
_cell_angle_alpha 59.795997
_cell_angle_beta 146.930428
_cell_angle_gamma 146.418091
_cell_volume 636.067016
_symmetry_space_group_name_H-M "P -1"
_symmetry_group_IT_number 2
_symmetry_cell_setting 'triclinic'
loop_
_space_group_symop_operation_xyz
x,y,z
-x,-y,-z
loop_
_atom_site_type_symbol
_atom_site_label
_atom_site_fract_x
_atom_site_fract_y
_atom_site_fract_z
Si Si1 0.714248 0.826461 0.134529
Si Si2 0.655177 0.580755 0.728230
Si Si3 0.805034 0.284473 0.675236
Si Si4 0.177729 0.630274 0.165320
Si Si5 0.049909 0.186350 0.522484
Si Si6 0.494215 0.698392 0.680364
Si Si7 0.678614 0.121694 0.138086
Si Si8 0.764541 0.746791 0.025112
O O1 0.000538 0.891483 0.372088
O O2 0.595114 0.889324 0.024595
O O3 0.850734 0.843915 0.114339
O O4 0.240105 0.594525 0.967017
O O5 0.213544 0.352507 0.561990
O O6 0.597141 0.650636 0.710030
O O7 0.834379 0.669931 0.693929
O O8 0.003417 0.646295 0.973721
O O9 0.659253 0.264973 0.689497
O O10 0.510598 0.211983 0.437595
O O11 0.280507 0.517045 0.845938
O O12 0.915557 0.218688 0.782933
O O13 0.553674 0.715856 0.319011
O O14 0.696022 0.067747 0.274292
O O15 0.774739 0.801969 0.901285
O O16 0.000000 0.500000 0.500000
O O17 0.500000 0.000000 0.000000
#
# Coordination Sequence:
#
# PCOD9052968 Si02
#       8
#     2   2   2   2   2   2   2   2
#     4  10  21  36  56  86 121 152 194 243 293 349
#     4  11  20  38  60  90 122 150 197 245 295 347
#     4   9  17  27  46  78 116 152 176 225 296 345
#     4  10  17  35  58  87 119 150 189 247 297 339
#     4  11  22  36  63  86 114 154 193 250 301 343
#     4  10  20  29  52  89 122 148 183 238 296 344
#     4  12  26  40  59  87 119 160 199 239 295 356
#     4   9  18  30  47  78 121 147 182 234 284 346
#
# _framework density 25.154582999999999
#
# number of rings (size 3 to 8) (size 9 to 14) (size 15 to 20)
#    0.000    1.750    3.750    1.875   10.500    0.500 
#    0.000    0.000    0.000    0.750    0.000    2.625 
#    0.000    0.000    0.000    0.000    0.000    0.000 
#
# Total GULP energy -89714.316744 kJ/mol
# GULP energy per Si atom -5607.144797 kJ/mol
# Density = 2.509733 g / cm^3
# Si number density = 25.154583 Si / 1000 Ang^3
#
#
#
# Elastic Constant Matrix: (Units=GPa)
#
#
# Indices 1 2 3 4 5 6 
#
# 1 179.6869 61.3988 88.4517 -25.7474 -35.6726 -20.9135
# 2 61.3988 116.8180 62.3936 -29.5947 -24.2571 -11.2036
# 3 88.4517 62.3936 165.9042 -35.7924 -39.3183 -18.1480
# 4 -25.7474 -29.5947 -35.7924 42.5348 10.6552 -2.6943
# 5 -35.6726 -24.2571 -39.3183 10.6552 47.4029 5.5465
# 6 -20.9135 -11.2036 -18.1480 -2.6943 5.5465 47.2941
#
#
#
# Elastic Compliance Matrix: (Units=1/GPa)
#
#
# Indices 1 2 3 4 5 6 
#
# 1 0.008485 -0.002043 -0.002721 0.000885 0.002655 0.001963
# 2 -0.002043 0.012562 -0.001803 0.005586 0.001968 0.001468
# 3 -0.002721 -0.001803 0.010504 0.004980 0.004369 0.002172
# 4 0.000885 0.005586 0.004980 0.032550 -0.000306 0.005516
# 5 0.002655 0.001968 0.004369 -0.000306 0.027788 0.000040
# 6 0.001963 0.001468 0.002172 0.005516 0.000040 0.023503
#
#
# Mechanical properties :
#
#
# Convention : Reuss Voigt Hill
#
# Bulk Modulus (GPa) = 54.29697 98.54413 76.42055
# Shear Modulus (GPa) = 37.12983 44.12404 40.62693
#
# Velocity S-wave (km/s) = 3.84613 4.19276 4.02318
# Velocity P-wave (km/s) = 6.43085 7.91830 7.21302
#
# Compressibility (1/GPa) = 0.01841723
#
# Stress axis : x y z
#
# Youngs Moduli (GPa) = 117.85820 79.60740 95.20634
#
# Poissons Ratio (x) = 0.16262 0.25902
# Poissons Ratio (y) = 0.24076 0.17165
# Poissons Ratio (z) = 0.32065 0.14352
#
# Static dielectric constant tensor:
#      x y z
#    x 1.898700 0.078690 0.003350 
#    y 0.078690 2.066300 0.103590 
#    z 0.003350 0.103590 1.994080 
# 
# From -- ./inp_files/270102.got.cif
#   From: 2010.05.17/outbox.cif.g08.bks.cpg/sg2_136_cif.got.tgz:270102.got - 2010.06.03 11:33:40.
