data_PCOD9052276
_publ_section_title
;
Structure prediction by ZEFSAII (Michael W. Deem and Ramdas Pophale) SiO2 
 PCOD9052276
Probable space group: P -1
;
_chemical_formula_sum "Si O2"
_cell_formula_units_Z 13
_cell_length_a 11.234061
_cell_length_b 21.001815
_cell_length_c 9.597131
_cell_angle_alpha 37.244799
_cell_angle_beta 56.196107
_cell_angle_gamma 28.741235
_cell_volume 575.665856
_symmetry_space_group_name_H-M "P -1"
_symmetry_group_IT_number 2
_symmetry_cell_setting 'triclinic'
loop_
_space_group_symop_operation_xyz
x,y,z
-x,-y,-z
loop_
_atom_site_type_symbol
_atom_site_label
_atom_site_fract_x
_atom_site_fract_y
_atom_site_fract_z
Si Si1 0.758403 0.774186 0.293041
Si Si2 0.137348 0.523483 0.214641
Si Si3 0.212136 0.155810 0.334433
Si Si4 0.760843 0.198566 0.909329
Si Si5 0.135412 0.628962 0.534421
Si Si6 0.035970 0.051067 0.523829
Si Si7 0.500000 0.500000 0.000000
O O1 0.700425 0.688797 0.510163
O O2 0.003845 0.625793 0.275186
O O3 0.886738 0.739167 0.411032
O O4 0.500000 0.000000 0.000000
O O5 0.327384 0.500724 0.089046
O O6 0.885364 0.688745 0.976478
O O7 0.221105 0.041841 0.435580
O O8 0.980300 0.288553 0.377129
O O9 0.500000 0.000000 0.500000
O O10 0.435178 0.377783 0.773543
O O11 0.796074 0.300952 0.697357
O O12 0.837967 0.106596 0.170066
O O13 0.000000 0.000000 0.000000
O O14 0.000000 0.000000 0.500000
O O15 0.720504 0.297216 0.317218
#
# Coordination Sequence:
#
# PCOD9052276 Si02
#       7
#     2   2   2   2   2   2   1
#     4  11  26  47  72 105 144 198 245 301 369 444
#     4  10  26  45  72 103 148 188 246 306 362 443
#     4  11  25  49  72 107 150 192 243 306 374 446
#     4  11  26  47  73 105 146 192 240 313 372 439
#     4  11  27  44  74 108 145 191 251 299 377 442
#     4  11  27  44  76 105 145 192 246 306 370 433
#     4  10  26  44  70 108 144 180 248 304 364 430
#
# _framework density 22.582545
#
# number of rings (size 3 to 8) (size 9 to 14) (size 15 to 20)
#    0.000    1.231    1.538    0.923   15.077    3.077 
#    0.000    0.000    0.000    0.000    0.000    0.000 
#    0.000    0.000    0.000    0.000    0.000    0.000 
#
# Total GULP energy -72373.385161 kJ/mol
# GULP energy per Si atom -5567.183474 kJ/mol
# Density = 2.253115 g / cm^3
# Si number density = 22.582545 Si / 1000 Ang^3
#
#
#
# Elastic Constant Matrix: (Units=GPa)
#
#
# Indices 1 2 3 4 5 6 
#
# 1 131.3467 37.2900 49.6558 -8.6220 10.0139 10.4073
# 2 37.2900 66.0240 45.5903 -15.6979 4.2834 11.3538
# 3 49.6558 45.5903 173.2805 2.7536 2.5104 10.7683
# 4 -8.6220 -15.6979 2.7536 30.5598 -5.7993 7.3718
# 5 10.0139 4.2834 2.5104 -5.7993 43.8044 2.0985
# 6 10.4073 11.3538 10.7683 7.3718 2.0985 25.8426
#
#
#
# Elastic Compliance Matrix: (Units=1/GPa)
#
#
# Indices 1 2 3 4 5 6 
#
# 1 0.009603 -0.003559 -0.001700 0.001186 -0.001506 -0.001811
# 2 -0.003559 0.027221 -0.005615 0.016903 0.001340 -0.013117
# 3 -0.001700 -0.005615 0.007733 -0.004374 -0.000142 0.001188
# 4 0.001186 0.016903 -0.004374 0.048096 0.005665 -0.020261
# 5 -0.001506 0.001340 -0.000142 0.005665 0.023967 -0.003485
# 6 -0.001811 -0.013117 0.001188 -0.020261 -0.003485 0.050755
#
#
# Mechanical properties :
#
#
# Convention : Reuss Voigt Hill
#
# Bulk Modulus (GPa) = 43.84153 70.63594 57.23874
# Shear Modulus (GPa) = 25.41615 35.91570 30.66593
#
# Velocity S-wave (km/s) = 3.35845 3.99233 3.68903
# Velocity P-wave (km/s) = 5.87324 7.25248 6.59900
#
# Compressibility (1/GPa) = 0.02280942
#
# Stress axis : x y z
#
# Youngs Moduli (GPa) = 104.13880 36.73690 129.31398
#
# Poissons Ratio (x) = 0.13073 0.21982
# Poissons Ratio (y) = 0.37059 0.72608
# Poissons Ratio (z) = 0.17703 0.20627
#
# Static dielectric constant tensor:
#      x y z
#    x 1.828660 -0.022060 0.001140 
#    y -0.022060 1.868680 -0.034510 
#    z 0.001140 -0.034510 1.789600 
# 
# From -- ./inp_files/282715.got.cif
#   From: 2010.05.17/outbox.cif.g08.bks.cpg/sg2_142_cif.got.tgz:282715.got - 2010.06.03 11:33:40.
