data_PCOD9052871
_publ_section_title
;
Structure prediction by ZEFSAII (Michael W. Deem and Ramdas Pophale) SiO2 
 PCOD9052871
Probable space group: P -1
;
_chemical_formula_sum "Si O2"
_cell_formula_units_Z 14
_cell_length_a 14.026839
_cell_length_b 5.448517
_cell_length_c 8.661722
_cell_angle_alpha 87.913157
_cell_angle_beta 120.509904
_cell_angle_gamma 104.064090
_cell_volume 550.221337
_symmetry_space_group_name_H-M "P -1"
_symmetry_group_IT_number 2
_symmetry_cell_setting 'triclinic'
loop_
_space_group_symop_operation_xyz
x,y,z
-x,-y,-z
loop_
_atom_site_type_symbol
_atom_site_label
_atom_site_fract_x
_atom_site_fract_y
_atom_site_fract_z
Si Si1 0.831201 0.179978 0.561284
Si Si2 0.645045 0.993402 0.969199
Si Si3 0.857647 0.846868 0.053295
Si Si4 0.070944 0.274886 0.219089
Si Si5 0.402691 0.372884 0.800482
Si Si6 0.794442 0.433043 0.238615
Si Si7 0.437623 0.031450 0.605657
O O1 0.892931 0.440145 0.695095
O O2 0.850712 0.258820 0.394937
O O3 0.696581 0.107338 0.501501
O O4 0.873399 0.931103 0.644969
O O5 0.519631 0.941167 0.798351
O O6 0.713938 0.285531 0.037492
O O7 0.725890 0.856491 0.945427
O O8 0.641206 0.899343 0.144212
O O9 0.873197 0.681888 0.218489
O O10 0.892350 0.730947 0.928736
O O11 0.936261 0.134691 0.122320
O O12 0.295187 0.487553 0.720888
O O13 0.442519 0.316561 0.665716
O O14 0.500000 0.500000 0.000000
O O15 0.500000 0.000000 0.500000
#
# Coordination Sequence:
#
# PCOD9052871 Si02
#       7
#     2   2   2   2   2   2   2
#     4  12  27  48  73 112 153 195 243 318 381 439
#     4  11  23  43  69 105 139 195 253 301 367 460
#     4  10  27  47  77 105 140 204 250 309 374 454
#     4  11  28  51  75 107 155 194 251 316 382 452
#     4  11  21  41  67  99 145 202 247 301 364 458
#     4  11  24  43  74 103 149 192 257 298 378 447
#     4  12  25  42  73 110 151 193 247 315 383 447
#
# _framework density 25.444306000000001
#
# number of rings (size 3 to 8) (size 9 to 14) (size 15 to 20)
#    0.000    0.857    2.857    3.000    8.000    2.286 
#    0.000    4.286    0.000    0.000    0.000    0.000 
#    0.000    0.000    0.000    0.000    0.000    0.000 
#
# Total GULP energy -78358.082392 kJ/mol
# GULP energy per Si atom -5597.005885 kJ/mol
# Density = 2.538639 g / cm^3
# Si number density = 25.444306 Si / 1000 Ang^3
#
#
#
# Elastic Constant Matrix: (Units=GPa)
#
#
# Indices 1 2 3 4 5 6 
#
# 1 115.1858 23.0908 13.1220 -7.7041 0.6256 -7.8404
# 2 23.0908 93.7964 26.2990 14.0515 -0.8037 -10.6544
# 3 13.1220 26.2990 59.2824 7.9026 -3.9562 -10.6178
# 4 -7.7041 14.0515 7.9026 59.9030 -4.3107 5.6456
# 5 0.6256 -0.8037 -3.9562 -4.3107 48.4181 0.0404
# 6 -7.8404 -10.6544 -10.6178 5.6456 0.0404 29.0027
#
#
#
# Elastic Compliance Matrix: (Units=1/GPa)
#
#
# Indices 1 2 3 4 5 6 
#
# 1 0.009434 -0.002140 -0.001207 0.001775 -0.000099 0.000977
# 2 -0.002140 0.013272 -0.004433 -0.003142 -0.000397 0.003286
# 3 -0.001207 -0.004433 0.020582 -0.002297 0.001414 0.006025
# 4 0.001775 -0.003142 -0.002297 0.018545 0.001393 -0.005127
# 5 -0.000099 -0.000397 0.001414 0.001393 0.020888 0.000045
# 6 0.000977 0.003286 0.006025 -0.005127 0.000045 0.039155
#
#
# Mechanical properties :
#
#
# Convention : Reuss Voigt Hill
#
# Bulk Modulus (GPa) = 36.06548 43.69869 39.88208
# Shear Modulus (GPa) = 34.08839 41.18162 37.63500
#
# Velocity S-wave (km/s) = 3.66420 4.02742 3.85010
# Velocity P-wave (km/s) = 5.66629 6.23205 5.95589
#
# Compressibility (1/GPa) = 0.02772735
#
# Stress axis : x y z
#
# Youngs Moduli (GPa) = 106.00096 75.34853 48.58641
#
# Poissons Ratio (x) = 0.16123 0.05865
# Poissons Ratio (y) = 0.22682 0.21539
# Poissons Ratio (z) = 0.12796 0.33402
#
# Static dielectric constant tensor:
#      x y z
#    x 1.987660 -0.016390 0.013820 
#    y -0.016390 2.161410 0.008190 
#    z 0.013820 0.008190 2.034370 
# 
# From -- ./inp_files/27674.got.cif
#   From: 2010.05.17/outbox.cif.g08.bks.cpg/sg2_14_cif.got.tgz:27674.got - 2010.06.03 11:33:40.
