data_PCOD9052371
_publ_section_title
;
Structure prediction by ZEFSAII (Michael W. Deem and Ramdas Pophale) SiO2 
 PCOD9052371
Probable space group: P -1
;
_chemical_formula_sum "Si O2"
_cell_formula_units_Z 16
_cell_length_a 27.701720
_cell_length_b 9.539719
_cell_length_c 8.801224
_cell_angle_alpha 71.405832
_cell_angle_beta 40.890200
_cell_angle_gamma 40.022405
_cell_volume 769.970039
_symmetry_space_group_name_H-M "P -1"
_symmetry_group_IT_number 2
_symmetry_cell_setting 'triclinic'
loop_
_space_group_symop_operation_xyz
x,y,z
-x,-y,-z
loop_
_atom_site_type_symbol
_atom_site_label
_atom_site_fract_x
_atom_site_fract_y
_atom_site_fract_z
Si Si1 0.779457 0.282961 0.276264
Si Si2 0.925175 0.640719 0.787582
Si Si3 0.623649 0.223291 0.198084
Si Si4 0.836850 0.491435 0.196162
Si Si5 0.576457 0.485269 0.931533
Si Si6 0.994687 0.340032 0.129367
Si Si7 0.471021 0.920590 0.216537
Si Si8 0.441747 0.253944 0.605942
O O1 0.862118 0.287567 0.136232
O O2 0.677444 0.410499 0.612403
O O3 0.690749 0.476459 0.271619
O O4 0.873350 0.982151 0.119721
O O5 0.003329 0.629415 0.707982
O O6 0.000000 0.500000 0.500000
O O7 0.920485 0.482739 0.922294
O O8 0.765950 0.961898 0.039184
O O9 0.500000 0.500000 0.500000
O O10 0.559453 0.175726 0.319556
O O11 0.649809 0.273990 0.967194
O O12 0.871117 0.458799 0.303940
O O13 0.675013 0.797393 0.456730
O O14 0.500000 0.500000 0.000000
O O15 0.470051 0.772738 0.172517
O O16 0.000000 0.500000 0.000000
O O17 0.576083 0.723992 0.176104
O O18 0.500000 0.000000 0.000000
O O19 0.500000 0.000000 0.500000
#
# Coordination Sequence:
#
# PCOD9052371 Si02
#       8
#     2   2   2   2   2   2   2   2
#     4  12  24  46  70 104 141 186 236 289 359 424
#     4  11  25  46  69 100 134 188 241 291 355 424
#     4  12  23  42  68  99 144 179 228 300 355 413
#     4  11  23  47  70  96 144 187 232 292 351 421
#     4  12  26  37  68 107 137 180 236 283 352 433
#     4  10  26  45  70  93 135 190 237 291 347 408
#     4  12  24  45  68 106 145 179 231 293 365 423
#     4  12  22  42  69 103 138 184 221 295 365 419
#
# _framework density 20.78003
#
# number of rings (size 3 to 8) (size 9 to 14) (size 15 to 20)
#    0.000    0.500    6.250    1.125    7.000    0.000 
#    2.250    0.625    0.000    0.000    0.000    0.000 
#    0.000    0.000    0.000    0.000    0.000    0.000 
#
# Total GULP energy -89362.903956 kJ/mol
# GULP energy per Si atom -5585.181497 kJ/mol
# Density = 2.073273 g / cm^3
# Si number density = 20.780030 Si / 1000 Ang^3
#
#
#
# Elastic Constant Matrix: (Units=GPa)
#
#
# Indices 1 2 3 4 5 6 
#
# 1 165.0895 56.2229 23.6233 -0.0252 7.7388 1.9674
# 2 56.2229 119.1505 19.1487 2.1684 4.8046 3.9014
# 3 23.6233 19.1487 48.7234 -6.9594 15.8381 -0.8154
# 4 -0.0252 2.1684 -6.9594 38.0557 1.8143 5.5476
# 5 7.7388 4.8046 15.8381 1.8143 34.4370 4.8166
# 6 1.9674 3.9014 -0.8154 5.5476 4.8166 46.8459
#
#
#
# Elastic Compliance Matrix: (Units=1/GPa)
#
#
# Indices 1 2 3 4 5 6 
#
# 1 0.007472 -0.003131 -0.002387 -0.000239 -0.000124 -0.000053
# 2 -0.003131 0.010360 -0.002973 -0.001066 0.000785 -0.000738
# 3 -0.002387 -0.002973 0.027661 0.005603 -0.012265 0.001427
# 4 -0.000239 -0.001066 0.005603 0.027929 -0.003460 -0.002755
# 5 -0.000124 0.000785 -0.012265 -0.003460 0.035268 -0.003490
# 6 -0.000053 -0.000738 0.001427 -0.002755 -0.003490 0.022120
#
#
# Mechanical properties :
#
#
# Convention : Reuss Voigt Hill
#
# Bulk Modulus (GPa) = 35.07477 58.99480 47.03479
# Shear Modulus (GPa) = 31.78735 39.46561 35.62648
#
# Velocity S-wave (km/s) = 3.91539 4.36272 4.14509
# Velocity P-wave (km/s) = 6.11196 7.33686 6.75224
#
# Compressibility (1/GPa) = 0.02851052
#
# Stress axis : x y z
#
# Youngs Moduli (GPa) = 133.84152 96.52675 36.15213
#
# Poissons Ratio (x) = 0.30221 0.08628
# Poissons Ratio (y) = 0.41904 0.10749
# Poissons Ratio (z) = 0.31944 0.28700
#
# Static dielectric constant tensor:
#      x y z
#    x 1.795600 -0.016320 -0.021660 
#    y -0.016320 1.818020 -0.008210 
#    z -0.021660 -0.008210 1.706980 
# 
# From -- ./inp_files/299382.got.cif
#   From: 2010.05.17/outbox.cif.g08.bks.cpg/sg2_150_cif.got.tgz:299382.got - 2010.06.03 11:33:40.
