data_PCOD9052242
_publ_section_title
;
Structure prediction by ZEFSAII (Michael W. Deem and Ramdas Pophale) SiO2 
 PCOD9052242
Probable space group: P -1
;
_chemical_formula_sum "Si O2"
_cell_formula_units_Z 15
_cell_length_a 24.973208
_cell_length_b 16.953618
_cell_length_c 13.984223
_cell_angle_alpha 21.713409
_cell_angle_beta 22.363585
_cell_angle_gamma 22.481664
_cell_volume 739.775376
_symmetry_space_group_name_H-M "P -1"
_symmetry_group_IT_number 2
_symmetry_cell_setting 'triclinic'
loop_
_space_group_symop_operation_xyz
x,y,z
-x,-y,-z
loop_
_atom_site_type_symbol
_atom_site_label
_atom_site_fract_x
_atom_site_fract_y
_atom_site_fract_z
Si Si1 0.505996 0.059406 0.749279
Si Si2 0.192354 0.427028 0.151346
Si Si3 0.000000 0.500000 0.000000
Si Si4 0.250788 0.969798 0.154250
Si Si5 0.394783 0.859772 0.841030
Si Si6 0.222880 0.511260 0.791449
Si Si7 0.085589 0.715909 0.191537
Si Si8 0.645096 0.317753 0.089126
O O1 0.382048 0.257635 0.801871
O O2 0.588106 0.191257 0.405345
O O3 0.643307 0.817844 0.838166
O O4 0.400073 0.993046 0.926195
O O5 0.177964 0.591218 0.082006
O O6 0.046602 0.366346 0.474314
O O7 0.177853 0.544898 0.939249
O O8 0.906457 0.498956 0.054835
O O9 0.093878 0.205356 0.176501
O O10 0.254483 0.727103 0.458252
O O11 0.270571 0.969249 0.007906
O O12 0.320948 0.842800 0.881113
O O13 0.500000 0.000000 0.500000
O O14 0.507778 0.583543 0.994722
O O15 0.207051 0.655377 0.145941
O O16 0.000000 0.000000 0.000000
#
# Coordination Sequence:
#
# PCOD9052242 Si02
#       8
#     2   2   1   2   2   2   2   2
#     4  11  22  43  70  99 134 171 227 275 327 402
#     4  11  26  44  68 101 133 179 225 271 336 398
#     4  10  26  44  66  94 136 174 226 268 324 406
#     4  11  23  43  68  97 137 175 219 275 333 395
#     4  11  23  39  69 102 129 174 221 274 340 390
#     4  11  25  45  70  99 134 177 218 278 335 398
#     4  11  25  44  68  93 138 179 221 276 327 393
#     4  11  23  41  68 103 134 171 224 280 333 394
#
# _framework density 20.276426000000001
#
# number of rings (size 3 to 8) (size 9 to 14) (size 15 to 20)
#    0.000    1.067    4.000    1.600    0.000    5.867 
#    0.000    0.000    0.000    0.000    0.000    0.000 
#    0.000    0.000    0.000    0.000    0.000    0.000 
#
# Total GULP energy -83583.575734 kJ/mol
# GULP energy per Si atom -5572.238382 kJ/mol
# Density = 2.023028 g / cm^3
# Si number density = 20.276426 Si / 1000 Ang^3
#
#
#
# Elastic Constant Matrix: (Units=GPa)
#
#
# Indices 1 2 3 4 5 6 
#
# 1 109.0327 38.0340 29.6580 4.5742 -11.4486 8.6141
# 2 38.0340 87.5194 18.4562 -10.5484 -3.1421 8.7050
# 3 29.6580 18.4562 54.6891 -10.9948 9.5168 17.9472
# 4 4.5742 -10.5484 -10.9948 21.5029 2.4085 -5.6572
# 5 -11.4486 -3.1421 9.5168 2.4085 30.6080 -1.1334
# 6 8.6141 8.7050 17.9472 -5.6572 -1.1334 36.0332
#
#
#
# Elastic Compliance Matrix: (Units=1/GPa)
#
#
# Indices 1 2 3 4 5 6 
#
# 1 0.015719 -0.005765 -0.011378 -0.012669 0.009882 0.001624
# 2 -0.005765 0.014938 0.000461 0.008655 -0.001490 -0.001148
# 3 -0.011378 0.000461 0.035257 0.019318 -0.017152 -0.012459
# 4 -0.012669 0.008655 0.019318 0.065287 -0.014953 0.001096
# 5 0.009882 -0.001490 -0.017152 -0.014953 0.042930 0.005543
# 6 0.001624 -0.001148 -0.012459 0.001096 0.005543 0.034193
#
#
# Mechanical properties :
#
#
# Convention : Reuss Voigt Hill
#
# Bulk Modulus (GPa) = 30.72268 47.05975 38.89121
# Shear Modulus (GPa) = 19.79907 28.63502 24.21704
#
# Velocity S-wave (km/s) = 3.12822 3.76204 3.45968
# Velocity P-wave (km/s) = 5.31343 6.49077 5.93138
#
# Compressibility (1/GPa) = 0.03254924
#
# Stress axis : x y z
#
# Youngs Moduli (GPa) = 63.61918 66.94315 28.36325
#
# Poissons Ratio (x) = 0.38594 0.32273
# Poissons Ratio (y) = 0.36678 -0.01309
# Poissons Ratio (z) = 0.72388 -0.03089
#
# Static dielectric constant tensor:
#      x y z
#    x 1.743840 -0.016190 -0.007250 
#    y -0.016190 1.744980 0.011390 
#    z -0.007250 0.011390 1.692540 
# 
# From -- ./inp_files/70425.got.cif
#   From: 2010.05.17/outbox.cif.g08.bks.cpg/sg2_36_cif.got.tgz:70425.got - 2010.06.03 11:33:40.
