data_PCOD9052610
_publ_section_title
;
Structure prediction by ZEFSAII (Michael W. Deem and Ramdas Pophale) SiO2 
 PCOD9052610
Probable space group: P -1
;
_chemical_formula_sum "Si O2"
_cell_formula_units_Z 10
_cell_length_a 9.490036
_cell_length_b 5.486614
_cell_length_c 16.428842
_cell_angle_alpha 69.660639
_cell_angle_beta 30.013231
_cell_angle_gamma 79.170207
_cell_volume 389.366913
_symmetry_space_group_name_H-M "P -1"
_symmetry_group_IT_number 2
_symmetry_cell_setting 'triclinic'
loop_
_space_group_symop_operation_xyz
x,y,z
-x,-y,-z
loop_
_atom_site_type_symbol
_atom_site_label
_atom_site_fract_x
_atom_site_fract_y
_atom_site_fract_z
Si Si1 0.104910 0.994347 0.126989
Si Si2 0.371178 0.376361 0.492524
Si Si3 0.587231 0.407626 0.066454
Si Si4 0.664935 0.197430 0.232443
Si Si5 0.934149 0.197939 0.441021
O O1 0.935828 0.073021 0.124269
O O2 0.318827 0.270701 0.016211
O O3 0.860843 0.888120 0.329552
O O4 0.248314 0.757140 0.055223
O O5 0.500000 0.500000 0.500000
O O6 0.649426 0.385421 0.295525
O O7 0.176261 0.533933 0.518447
O O8 0.644491 0.322226 0.140638
O O9 0.244783 0.301156 0.232303
O O10 0.363305 0.980403 0.425969
O O11 0.000000 0.000000 0.500000
#
# Coordination Sequence:
#
# PCOD9052610 Si02
#       5
#     2   2   2   2   2
#     4  12  26  46  73 115 151 190 244 316 369 427
#     4  12  26  46  79 109 147 195 255 302 367 444
#     4  11  28  46  74 111 154 192 244 310 375 431
#     4  11  25  47  78 102 150 203 252 291 367 460
#     4  10  26  47  75 106 149 198 249 297 371 447
#
# _framework density 25.682717
#
# number of rings (size 3 to 8) (size 9 to 14) (size 15 to 20)
#    0.000    0.800    2.000    3.000   11.200    3.200 
#    0.000    0.000    0.000    0.000    0.000    0.000 
#    0.000    0.000    0.000    0.000    0.000    0.000 
#
# Total GULP energy -55910.465198 kJ/mol
# GULP energy per Si atom -5591.046520 kJ/mol
# Density = 2.562426 g / cm^3
# Si number density = 25.682717 Si / 1000 Ang^3
#
#
#
# Elastic Constant Matrix: (Units=GPa)
#
#
# Indices 1 2 3 4 5 6 
#
# 1 108.3747 44.8507 30.7062 -7.1690 4.3022 -7.5149
# 2 44.8507 99.9490 46.4405 -11.8217 11.2507 -6.8725
# 3 30.7062 46.4405 111.5557 -21.0358 -4.5165 20.2034
# 4 -7.1690 -11.8217 -21.0358 53.3465 3.6804 -7.8302
# 5 4.3022 11.2507 -4.5165 3.6804 58.7855 -6.6804
# 6 -7.5149 -6.8725 20.2034 -7.8302 -6.6804 39.5867
#
#
#
# Elastic Compliance Matrix: (Units=1/GPa)
#
#
# Indices 1 2 3 4 5 6 
#
# 1 0.011675 -0.004168 -0.001881 0.000268 0.000068 0.002517
# 2 -0.004168 0.015454 -0.005998 0.001384 -0.002657 0.004778
# 3 -0.001881 -0.005998 0.013944 0.002687 0.001307 -0.007763
# 4 0.000268 0.001384 0.002687 0.020635 -0.001049 0.002824
# 5 0.000068 -0.002657 0.001307 -0.001049 0.017873 0.001693
# 6 0.002517 0.004778 -0.007763 0.002824 0.001693 0.031375
#
#
# Mechanical properties :
#
#
# Convention : Reuss Voigt Hill
#
# Bulk Modulus (GPa) = 58.89614 62.65268 60.77441
# Shear Modulus (GPa) = 35.53453 43.53589 39.53521
#
# Velocity S-wave (km/s) = 3.72371 4.12168 3.92774
# Velocity P-wave (km/s) = 6.43972 6.86286 6.65465
#
# Compressibility (1/GPa) = 0.01697904
#
# Stress axis : x y z
#
# Youngs Moduli (GPa) = 85.65628 64.70996 71.71316
#
# Poissons Ratio (x) = 0.26969 0.13489
# Poissons Ratio (y) = 0.35698 0.43015
# Poissons Ratio (z) = 0.16112 0.38814
#
# Static dielectric constant tensor:
#      x y z
#    x 2.050150 0.082040 -0.027480 
#    y 0.082040 2.260260 -0.020360 
#    z -0.027480 -0.020360 1.971880 
# 
# From -- ./inp_files/15777.got.cif
#   From: 2010.05.17/outbox.cif.g08.bks.cpg/sg2_8_cif.got.tgz:15777.got - 2010.06.03 11:33:40.
