data_PCOD9052617
_publ_section_title
;
Structure prediction by ZEFSAII (Michael W. Deem and Ramdas Pophale) SiO2 
 PCOD9052617
Probable space group: P -1
;
_chemical_formula_sum "Si O2"
_cell_formula_units_Z 8
_cell_length_a 4.708382
_cell_length_b 8.941791
_cell_length_c 11.473687
_cell_angle_alpha 42.300483
_cell_angle_beta 64.667354
_cell_angle_gamma 55.185739
_cell_volume 266.901449
_symmetry_space_group_name_H-M "P -1"
_symmetry_group_IT_number 2
_symmetry_cell_setting 'triclinic'
loop_
_space_group_symop_operation_xyz
x,y,z
-x,-y,-z
loop_
_atom_site_type_symbol
_atom_site_label
_atom_site_fract_x
_atom_site_fract_y
_atom_site_fract_z
Si Si1 0.412383 0.974403 0.177464
Si Si2 0.204179 0.511939 0.574704
Si Si3 0.835241 0.274426 0.931141
Si Si4 0.296214 0.198538 0.325693
O O1 0.385271 0.696202 0.373417
O O2 0.855183 0.737325 0.207872
O O3 0.351840 0.076724 0.262389
O O4 0.037907 0.115024 0.096537
O O5 0.581032 0.167356 0.984877
O O6 0.000000 0.500000 0.500000
O O7 0.079280 0.675499 0.619853
O O8 0.627203 0.560729 0.826930
O O9 0.500000 0.000000 0.500000
#
# Coordination Sequence:
#
# PCOD9052617 Si02
#       4
#     2   2   2   2
#     4  12  24  52  76 108 148 192 252 306 358 440
#     4  10  26  47  76 109 150 193 246 300 375 433
#     4  10  26  48  78 108 146 196 246 304 366 434
#     4  10  26  47  76 109 150 193 246 300 375 433
#
# _framework density 29.973607000000001
#
# number of rings (size 3 to 8) (size 9 to 14) (size 15 to 20)
#    1.500    0.000    0.000    3.000    3.500    4.000 
#    0.000    0.000    0.000    0.000    0.000    0.000 
#    0.000    0.000    0.000    0.000    0.000    0.000 
#
# Total GULP energy -44745.233911 kJ/mol
# GULP energy per Si atom -5593.154239 kJ/mol
# Density = 2.990539 g / cm^3
# Si number density = 29.973607 Si / 1000 Ang^3
#
#
#
# Elastic Constant Matrix: (Units=GPa)
#
#
# Indices 1 2 3 4 5 6 
#
# 1 180.7356 41.8562 43.7585 -12.8259 -18.7635 18.7597
# 2 41.8562 233.6789 69.5103 -26.6367 4.5558 -0.4272
# 3 43.7585 69.5103 264.8267 -43.3566 29.5234 -1.3302
# 4 -12.8259 -26.6367 -43.3566 98.0790 2.5328 -22.0243
# 5 -18.7635 4.5558 29.5234 2.5328 90.6845 10.8102
# 6 18.7597 -0.4272 -1.3302 -22.0243 10.8102 41.6524
#
#
#
# Elastic Compliance Matrix: (Units=1/GPa)
#
#
# Indices 1 2 3 4 5 6 
#
# 1 0.006686 -0.000977 -0.001293 -0.000965 0.002380 -0.004190
# 2 -0.000977 0.004849 -0.000900 0.001045 -0.000313 0.001095
# 3 -0.001293 -0.000900 0.004869 0.002366 -0.002177 0.002545
# 4 -0.000965 0.001045 0.002366 0.013294 -0.002367 0.008165
# 5 0.002380 -0.000313 -0.002177 -0.002367 0.012998 -0.005770
# 6 -0.004190 0.001095 0.002545 0.008165 -0.005770 0.031803
#
#
# Mechanical properties :
#
#
# Convention : Reuss Voigt Hill
#
# Bulk Modulus (GPa) = 99.35746 109.94348 104.65047
# Shear Modulus (GPa) = 59.38780 81.02425 70.20603
#
# Velocity S-wave (km/s) = 4.45605 5.20486 4.84494
# Velocity P-wave (km/s) = 7.72628 8.53701 8.14174
#
# Compressibility (1/GPa) = 0.01006467
#
# Stress axis : x y z
#
# Youngs Moduli (GPa) = 149.57341 206.21415 205.39354
#
# Poissons Ratio (x) = 0.20149 0.26548
# Poissons Ratio (y) = 0.14615 0.18483
# Poissons Ratio (z) = 0.19333 0.18557
#
# Static dielectric constant tensor:
#      x y z
#    x 2.324420 -0.280980 -0.188450 
#    y -0.280980 2.389330 -0.086460 
#    z -0.188450 -0.086460 2.498420 
# 
# From -- ./inp_files/15686.got.cif
#   From: 2010.05.17/outbox.cif.g08.bks.cpg/sg2_8_cif.got.tgz:15686.got - 2010.06.03 11:33:40.
