data_PCOD9052795
_publ_section_title
;
Structure prediction by ZEFSAII (Michael W. Deem and Ramdas Pophale) SiO2 
 PCOD9052795
Probable space group: P -1
;
_chemical_formula_sum "Si O2"
_cell_formula_units_Z 15
_cell_length_a 7.057656
_cell_length_b 12.051325
_cell_length_c 8.963084
_cell_angle_alpha 69.029152
_cell_angle_beta 86.706422
_cell_angle_gamma 129.839232
_cell_volume 500.980275
_symmetry_space_group_name_H-M "P -1"
_symmetry_group_IT_number 2
_symmetry_cell_setting 'triclinic'
loop_
_space_group_symop_operation_xyz
x,y,z
-x,-y,-z
loop_
_atom_site_type_symbol
_atom_site_label
_atom_site_fract_x
_atom_site_fract_y
_atom_site_fract_z
Si Si1 0.282426 0.912472 0.207409
Si Si2 0.158091 0.018307 0.626660
Si Si3 0.286163 0.320885 0.006177
Si Si4 0.351776 0.813846 0.697708
Si Si5 0.689737 0.449394 0.253041
Si Si6 0.000000 0.500000 0.500000
Si Si7 0.424929 0.175378 0.845106
Si Si8 0.864877 0.668819 0.583148
O O1 0.304560 0.779004 0.238475
O O2 0.038870 0.813905 0.380002
O O3 0.539929 0.069464 0.218185
O O4 0.279060 0.001278 0.026946
O O5 0.920379 0.840809 0.805397
O O6 0.420040 0.082981 0.493443
O O7 0.285528 0.135380 0.712312
O O8 0.000000 0.000000 0.500000
O O9 0.665456 0.333832 0.188014
O O10 0.401523 0.376141 0.347528
O O11 0.144975 0.362409 0.896076
O O12 0.411297 0.278915 0.908863
O O13 0.070598 0.733266 0.679270
O O14 0.824482 0.439296 0.384724
O O15 0.500000 0.500000 0.000000
O O16 0.810283 0.519356 0.580954
#
# Coordination Sequence:
#
# PCOD9052795 Si02
#       8
#     2   2   2   2   2   1   2   2
#     4  11  25  48  82 123 175 224 300 372 437 526
#     4  12  27  50  85 122 176 240 300 371 441 536
#     4  12  29  52  83 133 179 235 302 373 462 534
#     4  11  26  50  84 131 168 234 303 363 444 537
#     4  11  27  50  87 122 176 232 290 364 447 540
#     4  10  26  50  74 124 176 220 290 350 440 536
#     4  11  27  50  81 127 178 236 304 377 447 534
#     4  11  25  45  85 124 170 233 292 360 445 533
#
# _framework density 29.941299999999998
#
# number of rings (size 3 to 8) (size 9 to 14) (size 15 to 20)
#    0.000    0.800    1.333    3.600    9.333    1.067 
#    0.000    2.000    0.000    8.800    0.000    0.000 
#    0.000    0.000    0.000    0.000    0.000    0.000 
#
# Total GULP energy -83961.350813 kJ/mol
# GULP energy per Si atom -5597.423388 kJ/mol
# Density = 2.987315 g / cm^3
# Si number density = 29.941300 Si / 1000 Ang^3
#
#
#
# Elastic Constant Matrix: (Units=GPa)
#
#
# Indices 1 2 3 4 5 6 
#
# 1 180.6061 57.8451 71.7096 11.4201 10.8123 -11.9184
# 2 57.8451 186.8745 53.2876 40.4540 3.7622 -25.0529
# 3 71.7096 53.2876 203.3854 5.3481 7.1747 -4.4233
# 4 11.4201 40.4540 5.3481 65.8178 -1.8732 -13.1280
# 5 10.8123 3.7622 7.1747 -1.8732 59.0890 -7.2849
# 6 -11.9184 -25.0529 -4.4233 -13.1280 -7.2849 62.6959
#
#
#
# Elastic Compliance Matrix: (Units=1/GPa)
#
#
# Indices 1 2 3 4 5 6 
#
# 1 0.006889 -0.001468 -0.002002 -0.000062 -0.000868 0.000468
# 2 -0.001468 0.007194 -0.001234 -0.003719 0.000057 0.001736
# 3 -0.002002 -0.001234 0.005934 0.000539 -0.000305 -0.000377
# 4 -0.000062 -0.003719 0.000539 0.017959 0.001051 0.002423
# 5 -0.000868 0.000057 -0.000305 0.001051 0.017405 0.002078
# 6 0.000468 0.001736 -0.000377 0.002423 0.002078 0.017455
#
#
# Mechanical properties :
#
#
# Convention : Reuss Voigt Hill
#
# Bulk Modulus (GPa) = 94.25076 104.06117 99.15597
# Shear Modulus (GPa) = 58.28856 63.38881 60.83868
#
# Velocity S-wave (km/s) = 4.41700 4.60619 4.51259
# Velocity P-wave (km/s) = 7.58683 7.94480 7.76788
#
# Compressibility (1/GPa) = 0.01060999
#
# Stress axis : x y z
#
# Youngs Moduli (GPa) = 145.16688 139.00352 168.51561
#
# Poissons Ratio (x) = 0.20405 0.33733
# Poissons Ratio (y) = 0.21309 0.20791
# Poissons Ratio (z) = 0.29059 0.17149
#
# Static dielectric constant tensor:
#      x y z
#    x 2.313970 -0.132760 0.074830 
#    y -0.132760 2.542120 -0.131200 
#    z 0.074830 -0.131200 2.417250 
# 
# From -- ./inp_files/178081.got.cif
#   From: 2010.05.17/outbox.cif.g08.bks.cpg/sg2_90_cif.got.tgz:178081.got - 2010.06.03 11:33:40.
