data_PCOD9052349
_publ_section_title
;
Structure prediction by ZEFSAII (Michael W. Deem and Ramdas Pophale) SiO2 
 PCOD9052349
Probable space group: P -1
;
_chemical_formula_sum "Si O2"
_cell_formula_units_Z 12
_cell_length_a 14.174613
_cell_length_b 4.758717
_cell_length_c 8.026277
_cell_angle_alpha 91.625390
_cell_angle_beta 63.866939
_cell_angle_gamma 106.309937
_cell_volume 463.626995
_symmetry_space_group_name_H-M "P -1"
_symmetry_group_IT_number 2
_symmetry_cell_setting 'triclinic'
loop_
_space_group_symop_operation_xyz
x,y,z
-x,-y,-z
loop_
_atom_site_type_symbol
_atom_site_label
_atom_site_fract_x
_atom_site_fract_y
_atom_site_fract_z
Si Si1 0.196904 0.695091 0.983730
Si Si2 0.915668 0.164824 0.250568
Si Si3 0.799192 0.553738 0.501309
Si Si4 0.099866 0.061480 0.289534
Si Si5 0.643132 0.680700 0.194887
Si Si6 0.566555 0.286826 0.563504
O O1 0.298448 0.978080 0.859552
O O2 0.115830 0.700030 0.891941
O O3 0.264408 0.460504 0.943505
O O4 0.140776 0.794724 0.188718
O O5 0.888016 0.377787 0.412780
O O6 0.041660 0.167397 0.176968
O O7 0.839815 0.829565 0.342510
O O8 0.804863 0.712761 0.675728
O O9 0.682798 0.305417 0.557538
O O10 0.000000 0.000000 0.500000
O O11 0.612720 0.551172 0.400923
O O12 0.517072 0.641166 0.236223
O O13 0.500000 0.000000 0.500000
#
# Coordination Sequence:
#
# PCOD9052349 Si02
#       6
#     2   2   2   2   2   2
#     4  12  22  42  65 100 132 166 221 270 313 383
#     4  11  21  41  66  97 126 172 222 262 317 385
#     4  11  23  41  65  98 130 171 215 266 325 385
#     4  10  26  45  66  93 137 177 213 266 333 385
#     4  11  23  37  66 101 126 166 215 274 314 378
#     4  11  21  40  70  99 131 166 219 264 329 384
#
# _framework density 25.882874000000001
#
# number of rings (size 3 to 8) (size 9 to 14) (size 15 to 20)
#    0.000    1.000    5.000    1.000    2.333    5.333 
#    0.000    7.500    0.000    0.000    0.000    0.000 
#    0.000    0.000    0.000    0.000    0.000    0.000 
#
# Total GULP energy -66994.870192 kJ/mol
# GULP energy per Si atom -5582.905849 kJ/mol
# Density = 2.582396 g / cm^3
# Si number density = 25.882874 Si / 1000 Ang^3
#
#
#
# Elastic Constant Matrix: (Units=GPa)
#
#
# Indices 1 2 3 4 5 6 
#
# 1 113.5680 47.3498 53.8261 15.3319 -44.1266 16.5417
# 2 47.3498 102.9434 13.1933 14.8216 -8.0105 13.1448
# 3 53.8261 13.1933 136.3378 15.0101 -22.6630 6.4234
# 4 15.3319 14.8216 15.0101 47.8652 -7.0924 -7.5619
# 5 -44.1266 -8.0105 -22.6630 -7.0924 54.9806 -2.8865
# 6 16.5417 13.1448 6.4234 -7.5619 -2.8865 50.6557
#
#
#
# Elastic Compliance Matrix: (Units=1/GPa)
#
#
# Indices 1 2 3 4 5 6 
#
# 1 0.019165 -0.006638 -0.004586 -0.001391 0.012163 -0.003469
# 2 -0.006638 0.013054 0.001228 -0.003131 -0.003430 -0.002039
# 3 -0.004586 0.001228 0.009252 -0.001846 0.000060 -0.000267
# 4 -0.001391 -0.003131 -0.001846 0.023845 0.001011 0.005118
# 5 0.012163 -0.003430 0.000060 0.001011 0.027533 -0.001369
# 6 -0.003469 -0.002039 -0.000267 0.005118 -0.001369 0.022123
#
#
# Mechanical properties :
#
#
# Convention : Reuss Voigt Hill
#
# Bulk Modulus (GPa) = 46.55432 64.62086 55.58759
# Shear Modulus (GPa) = 35.18088 46.59895 40.88991
#
# Velocity S-wave (km/s) = 3.69078 4.24769 3.97899
# Velocity P-wave (km/s) = 6.01565 7.00557 6.52940
#
# Compressibility (1/GPa) = 0.02148028
#
# Stress axis : x y z
#
# Youngs Moduli (GPa) = 52.17839 76.60476 108.08363
#
# Poissons Ratio (x) = 0.50848 0.49563
# Poissons Ratio (y) = 0.34635 -0.13272
# Poissons Ratio (z) = 0.23927 -0.09407
#
# Static dielectric constant tensor:
#      x y z
#    x 2.222950 -0.011020 0.008220 
#    y -0.011020 2.147420 -0.062170 
#    z 0.008220 -0.062170 2.101030 
# 
# From -- ./inp_files/33960.got.cif
#   From: 2010.05.17/outbox.cif.g08.bks.cpg/sg2_17_cif.got.tgz:33960.got - 2010.06.03 11:33:40.
