data_PCOD9052210
_publ_section_title
;
Structure prediction by ZEFSAII (Michael W. Deem and Ramdas Pophale) SiO2 
 PCOD9052210
Probable space group: P -1
;
_chemical_formula_sum "Si O2"
_cell_formula_units_Z 16
_cell_length_a 14.145610
_cell_length_b 16.528995
_cell_length_c 8.664615
_cell_angle_alpha 40.330337
_cell_angle_beta 34.934062
_cell_angle_gamma 39.841791
_cell_volume 692.788108
_symmetry_space_group_name_H-M "P -1"
_symmetry_group_IT_number 2
_symmetry_cell_setting 'triclinic'
loop_
_space_group_symop_operation_xyz
x,y,z
-x,-y,-z
loop_
_atom_site_type_symbol
_atom_site_label
_atom_site_fract_x
_atom_site_fract_y
_atom_site_fract_z
Si Si1 0.022672 0.943101 0.879154
Si Si2 0.210009 0.417008 0.310733
Si Si3 0.760042 0.567810 0.420509
Si Si4 0.948167 0.724660 0.470235
Si Si5 0.934692 0.760782 0.789187
Si Si6 0.333182 0.961446 0.227615
Si Si7 0.724832 0.194771 0.739593
Si Si8 0.499617 0.479136 0.712056
O O1 0.211785 0.922628 0.574330
O O2 0.858733 0.055863 0.842115
O O3 0.995440 0.804927 0.152024
O O4 0.000000 0.000000 0.000000
O O5 0.293494 0.359920 0.447572
O O6 0.212304 0.313416 0.324311
O O7 0.000000 0.500000 0.500000
O O8 0.303237 0.514853 0.986742
O O9 0.599410 0.561506 0.544521
O O10 0.883175 0.412293 0.517513
O O11 0.877956 0.636776 0.077249
O O12 0.906735 0.792513 0.596259
O O13 0.134394 0.739379 0.599027
O O14 0.807106 0.893591 0.855431
O O15 0.372686 0.849435 0.203880
O O16 0.500000 0.000000 0.000000
O O17 0.596197 0.314887 0.845161
O O18 0.500000 0.500000 0.500000
#
# Coordination Sequence:
#
# PCOD9052210 Si02
#       8
#     2   2   2   2   2   2   2   2
#     4  11  21  46  73  96 136 183 234 285 343 414
#     4  10  26  43  67 103 140 182 229 282 356 415
#     4  11  24  44  70 104 145 177 234 291 351 412
#     4  11  22  42  73 102 134 182 234 279 356 412
#     4  11  22  45  71 101 141 187 232 287 348 420
#     4  11  27  46  69 102 141 185 238 286 347 413
#     4  11  26  44  72 101 137 186 239 278 354 410
#     4  12  26  45  72 103 143 184 235 290 347 417
#
# _framework density 23.095085000000001
#
# number of rings (size 3 to 8) (size 9 to 14) (size 15 to 20)
#    0.000    1.000    3.750    3.000   10.500    1.000 
#    4.500    1.250    0.000    0.000    0.000    0.000 
#    0.000    0.000    0.000    0.000    0.000    0.000 
#
# Total GULP energy -89331.633714 kJ/mol
# GULP energy per Si atom -5583.227107 kJ/mol
# Density = 2.304252 g / cm^3
# Si number density = 23.095085 Si / 1000 Ang^3
#
#
#
# Elastic Constant Matrix: (Units=GPa)
#
#
# Indices 1 2 3 4 5 6 
#
# 1 151.6711 3.0231 49.2987 -7.3153 -18.5153 24.5689
# 2 3.0231 60.6331 16.7957 -7.0649 -0.7200 1.1874
# 3 49.2987 16.7957 147.4504 -24.7346 -10.5453 -15.8970
# 4 -7.3153 -7.0649 -24.7346 35.3407 2.6930 2.8689
# 5 -18.5153 -0.7200 -10.5453 2.6930 42.2756 -5.7995
# 6 24.5689 1.1874 -15.8970 2.8689 -5.7995 36.2848
#
#
#
# Elastic Compliance Matrix: (Units=1/GPa)
#
#
# Indices 1 2 3 4 5 6 
#
# 1 0.009354 0.000777 -0.003933 -0.000192 0.002080 -0.007734
# 2 0.000777 0.017354 -0.002109 0.002364 -0.000351 -0.002261
# 3 -0.003933 -0.002109 0.010044 0.005125 0.001373 0.006947
# 4 -0.000192 0.002364 0.005125 0.032417 -0.000886 -0.000407
# 5 0.002080 -0.000351 0.001373 -0.000886 0.025416 0.003337
# 6 -0.007734 -0.002261 0.006947 -0.000407 0.003337 0.036480
#
#
# Mechanical properties :
#
#
# Convention : Reuss Voigt Hill
#
# Bulk Modulus (GPa) = 38.13640 55.33218 46.73429
# Shear Modulus (GPa) = 33.25914 42.15603 37.70759
#
# Velocity S-wave (km/s) = 3.79898 4.27702 4.04506
# Velocity P-wave (km/s) = 5.98261 6.95708 6.48816
#
# Compressibility (1/GPa) = 0.02622167
#
# Stress axis : x y z
#
# Youngs Moduli (GPa) = 106.90968 57.62487 99.56057
#
# Poissons Ratio (x) = -0.04477 0.39159
# Poissons Ratio (y) = -0.08306 0.20994
# Poissons Ratio (z) = 0.42049 0.12151
#
# Static dielectric constant tensor:
#      x y z
#    x 1.931430 0.025670 -0.005410 
#    y 0.025670 1.990570 -0.016620 
#    z -0.005410 -0.016620 1.908830 
# 
# From -- ./inp_files/317937.got.cif
#   From: 2010.05.17/outbox.cif.g08.bks.cpg/sg2_159_cif.got.tgz:317937.got - 2010.06.03 11:33:40.
