data_PCOD9052550
_publ_section_title
;
Structure prediction by ZEFSAII (Michael W. Deem and Ramdas Pophale) SiO2 
 PCOD9052550
Probable space group: P -1
;
_chemical_formula_sum "Si O2"
_cell_formula_units_Z 16
_cell_length_a 9.695859
_cell_length_b 16.769310
_cell_length_c 10.863445
_cell_angle_alpha 32.846813
_cell_angle_beta 115.392276
_cell_angle_gamma 106.627509
_cell_volume 855.532710
_symmetry_space_group_name_H-M "P -1"
_symmetry_group_IT_number 2
_symmetry_cell_setting 'triclinic'
loop_
_space_group_symop_operation_xyz
x,y,z
-x,-y,-z
loop_
_atom_site_type_symbol
_atom_site_label
_atom_site_fract_x
_atom_site_fract_y
_atom_site_fract_z
Si Si1 0.712780 0.664215 0.966130
Si Si2 0.822179 0.549305 0.898428
Si Si3 0.647962 0.296673 0.253008
Si Si4 0.625579 0.959943 0.953397
Si Si5 0.267170 0.634443 0.524168
Si Si6 0.561616 0.748784 0.398479
Si Si7 0.077530 0.929029 0.996885
Si Si8 0.243007 0.036333 0.276686
O O1 0.806026 0.627438 0.924311
O O2 0.534663 0.651522 0.884834
O O3 0.722841 0.827104 0.806687
O O4 0.763843 0.533185 0.254327
O O5 0.722797 0.659502 0.621667
O O6 0.735900 0.405511 0.066494
O O7 0.000000 0.500000 0.000000
O O8 0.708755 0.306549 0.403705
O O9 0.681735 0.127243 0.441147
O O10 0.572104 0.815377 0.179906
O O11 0.765288 0.000041 0.042237
O O12 0.688905 0.942983 0.861499
O O13 0.494070 0.103924 0.729954
O O14 0.425731 0.649491 0.494386
O O15 0.132355 0.752843 0.261362
O O16 0.941622 0.961267 0.805253
O O17 0.000000 0.000000 0.000000
#
# Coordination Sequence:
#
# PCOD9052550 Si02
#       8
#     2   2   2   2   2   2   2   2
#     4  11  22  37  59  84 120 151 185 240 279 345
#     4  11  23  36  61  86 110 150 194 236 280 332
#     4  11  19  38  62  83 112 156 191 229 274 349
#     4   9  19  32  60  84 109 149 189 241 272 340
#     4  10  17  35  59  80 109 149 199 224 275 337
#     4  10  17  35  57  84 109 141 203 229 276 329
#     4   9  17  32  54  80 108 144 188 233 273 330
#     4  11  21  35  57  91 113 145 192 232 295 329
#
# _framework density 18.701798
#
# number of rings (size 3 to 8) (size 9 to 14) (size 15 to 20)
#    0.000    1.750    6.250    1.125    1.750    1.500 
#    0.000    1.250    8.250    0.000    0.000    0.000 
#    0.000    0.000    0.000    0.000    0.000    0.000 
#
# Total GULP energy -89252.836447 kJ/mol
# GULP energy per Si atom -5578.302278 kJ/mol
# Density = 1.865923 g / cm^3
# Si number density = 18.701798 Si / 1000 Ang^3
#
#
#
# Elastic Constant Matrix: (Units=GPa)
#
#
# Indices 1 2 3 4 5 6 
#
# 1 95.5999 23.6259 41.1426 -4.5082 22.6329 -1.3688
# 2 23.6259 56.3918 11.0302 -26.2188 -1.2097 -3.0143
# 3 41.1426 11.0302 93.7406 -14.8654 8.5993 -8.4205
# 4 -4.5082 -26.2188 -14.8654 25.9649 6.1568 3.0304
# 5 22.6329 -1.2097 8.5993 6.1568 36.9244 1.3355
# 6 -1.3688 -3.0143 -8.4205 3.0304 1.3355 12.8156
#
#
#
# Elastic Compliance Matrix: (Units=1/GPa)
#
#
# Indices 1 2 3 4 5 6 
#
# 1 0.017786 -0.011075 -0.007671 -0.010380 -0.007658 -0.002493
# 2 -0.011075 0.041634 0.007346 0.044210 -0.001042 0.003091
# 3 -0.007671 0.007346 0.016441 0.014920 -0.001677 0.008357
# 4 -0.010380 0.044210 0.014920 0.092714 -0.011063 -0.001677
# 5 -0.007658 -0.001042 -0.001677 -0.011063 0.034089 -0.003101
# 6 -0.002493 0.003091 0.008357 -0.001677 -0.003101 0.084702
#
#
# Mechanical properties :
#
#
# Convention : Reuss Voigt Hill
#
# Bulk Modulus (GPa) = 18.84611 44.14774 31.49692
# Shear Modulus (GPa) = 15.25076 26.46989 20.86033
#
# Velocity S-wave (km/s) = 2.85874 3.76622 3.34341
# Velocity P-wave (km/s) = 4.58209 6.52456 5.63762
#
# Compressibility (1/GPa) = 0.05306135
#
# Stress axis : x y z
#
# Youngs Moduli (GPa) = 56.22373 24.01886 60.82501
#
# Poissons Ratio (x) = 0.26600 0.46657
# Poissons Ratio (y) = 0.62267 -0.44681
# Poissons Ratio (z) = 0.43127 -0.17644
#
# Static dielectric constant tensor:
#      x y z
#    x 1.649930 0.012080 -0.005410 
#    y 0.012080 1.645600 -0.004710 
#    z -0.005410 -0.004710 1.675130 
# 
# From -- ./inp_files/181555.got.cif
#   From: 2010.05.17/outbox.cif.g08.bks.cpg/sg2_91_cif.got.tgz:181555.got - 2010.06.03 11:33:40.
