data_PCOD9052369
_publ_section_title
;
Structure prediction by ZEFSAII (Michael W. Deem and Ramdas Pophale) SiO2 
 PCOD9052369
Probable space group: P -1
;
_chemical_formula_sum "Si O2"
_cell_formula_units_Z 16
_cell_length_a 14.720172
_cell_length_b 5.412960
_cell_length_c 14.109388
_cell_angle_alpha 122.645413
_cell_angle_beta 135.954854
_cell_angle_gamma 70.936153
_cell_volume 654.524574
_symmetry_space_group_name_H-M "P -1"
_symmetry_group_IT_number 2
_symmetry_cell_setting 'triclinic'
loop_
_space_group_symop_operation_xyz
x,y,z
-x,-y,-z
loop_
_atom_site_type_symbol
_atom_site_label
_atom_site_fract_x
_atom_site_fract_y
_atom_site_fract_z
Si Si1 0.902710 0.584622 0.155809
Si Si2 0.558825 0.344158 0.602420
Si Si3 0.629106 0.540969 0.361327
Si Si4 0.879854 0.782124 0.714582
Si Si5 0.057987 0.794970 0.659002
Si Si6 0.693863 0.322196 0.075190
Si Si7 0.848978 0.401914 0.886657
Si Si8 0.401827 0.123208 0.790440
O O1 0.794325 0.345171 0.069025
O O2 0.041852 0.455772 0.223036
O O3 0.932198 0.871080 0.303806
O O4 0.835561 0.616360 0.010893
O O5 0.500000 0.500000 0.500000
O O6 0.508115 0.475576 0.689065
O O7 0.716687 0.402914 0.726625
O O8 0.500000 0.000000 0.500000
O O9 0.739166 0.678125 0.544560
O O10 0.625316 0.740186 0.305506
O O11 0.659920 0.205019 0.303214
O O12 0.970425 0.834565 0.697173
O O13 0.859742 0.048470 0.825567
O O14 0.208628 0.753012 0.784968
O O15 0.000000 0.500000 0.500000
O O16 0.648518 0.645544 0.126378
O O17 0.558323 0.125240 0.920813
O O18 0.000000 0.500000 0.000000
#
# Coordination Sequence:
#
# PCOD9052369 Si02
#       8
#     2   2   2   2   2   2   2   2
#     4  11  26  45  75 104 150 195 251 317 381 448
#     4  12  28  49  75 112 156 199 252 316 380 449
#     4  12  27  47  77 109 152 197 248 308 387 445
#     4  11  26  44  73 109 144 200 251 310 376 456
#     4  11  25  44  70 105 148 188 251 308 383 445
#     4  10  26  45  70 108 141 195 248 310 377 446
#     4  12  26  48  78 110 151 202 261 316 381 462
#     4  11  27  46  77 106 148 196 250 309 371 465
#
# _framework density 24.445224
#
# number of rings (size 3 to 8) (size 9 to 14) (size 15 to 20)
#    0.000    0.750    2.500    2.625   12.250    3.000 
#    0.000    0.000    0.000    0.000    0.000    0.000 
#    0.000    0.000    0.000    0.000    0.000    0.000 
#
# Total GULP energy -89263.990998 kJ/mol
# GULP energy per Si atom -5578.999437 kJ/mol
# Density = 2.438959 g / cm^3
# Si number density = 24.445224 Si / 1000 Ang^3
#
#
#
# Elastic Constant Matrix: (Units=GPa)
#
#
# Indices 1 2 3 4 5 6 
#
# 1 64.9047 0.8951 13.1451 -7.6429 10.8190 6.3687
# 2 0.8951 113.0182 66.8313 1.9818 2.1358 -6.5789
# 3 13.1451 66.8313 163.5068 -5.3584 15.3554 -1.6802
# 4 -7.6429 1.9818 -5.3584 51.6263 -17.1660 -4.2079
# 5 10.8190 2.1358 15.3554 -17.1660 39.0585 -3.6453
# 6 6.3687 -6.5789 -1.6802 -4.2079 -3.6453 35.5518
#
#
#
# Elastic Compliance Matrix: (Units=1/GPa)
#
#
# Indices 1 2 3 4 5 6 
#
# 1 0.016741 0.000409 -0.001128 0.000666 -0.004234 -0.003332
# 2 0.000409 0.011902 -0.005005 -0.000343 0.001238 0.001979
# 3 -0.001128 -0.005005 0.008511 -0.000093 -0.002860 -0.000626
# 4 0.000666 -0.000343 -0.000093 0.023233 0.010421 0.003631
# 5 -0.004234 0.001238 -0.002860 0.010421 0.032922 0.005461
# 6 -0.003332 0.001979 -0.000626 0.003631 0.005461 0.030051
#
#
# Mechanical properties :
#
#
# Convention : Reuss Voigt Hill
#
# Bulk Modulus (GPa) = 38.89996 55.90808 47.40402
# Shear Modulus (GPa) = 34.87300 42.61786 38.74543
#
# Velocity S-wave (km/s) = 3.78110 4.17994 3.98551
# Velocity P-wave (km/s) = 5.91692 6.79825 6.37284
#
# Compressibility (1/GPa) = 0.02570697
#
# Stress axis : x y z
#
# Youngs Moduli (GPa) = 59.73289 84.01757 117.49021
#
# Poissons Ratio (x) = -0.03433 0.13249
# Poissons Ratio (y) = -0.02441 0.58802
# Poissons Ratio (z) = 0.06736 0.42050
#
# Static dielectric constant tensor:
#      x y z
#    x 2.832600 -0.457150 -0.874370 
#    y -0.457150 2.393640 0.602560 
#    z -0.874370 0.602560 2.939960 
# 
# From -- ./inp_files/574954.got.cif
#   From: 2010.05.17/outbox.cif.g08.bks.cpg/sg2_288_cif.got.tgz:574954.got - 2010.06.03 11:33:40.
