data_PCOD9052783
_publ_section_title
;
Structure prediction by ZEFSAII (Michael W. Deem and Ramdas Pophale) SiO2 
 PCOD9052783
Probable space group: P -1
;
_chemical_formula_sum "Si O2"
_cell_formula_units_Z 16
_cell_length_a 6.837567
_cell_length_b 24.688020
_cell_length_c 11.939273
_cell_angle_alpha 150.287894
_cell_angle_beta 44.093758
_cell_angle_gamma 135.029480
_cell_volume 674.311633
_symmetry_space_group_name_H-M "P -1"
_symmetry_group_IT_number 2
_symmetry_cell_setting 'triclinic'
loop_
_space_group_symop_operation_xyz
x,y,z
-x,-y,-z
loop_
_atom_site_type_symbol
_atom_site_label
_atom_site_fract_x
_atom_site_fract_y
_atom_site_fract_z
Si Si1 0.296171 0.458371 0.301432
Si Si2 0.467542 0.290638 0.092048
Si Si3 0.772318 0.685160 0.521293
Si Si4 0.342001 0.033550 0.296373
Si Si5 0.502630 0.172450 0.252573
Si Si6 0.863050 0.627759 0.014314
Si Si7 0.329479 0.066319 0.610193
Si Si8 0.260809 0.635742 0.367653
O O1 0.389815 0.400890 0.268972
O O2 0.561693 0.565444 0.356779
O O3 0.236288 0.367190 0.063481
O O4 0.000000 0.500000 0.500000
O O5 0.362428 0.282780 0.249192
O O6 0.814029 0.304086 0.972871
O O7 0.331077 0.182823 0.879982
O O8 0.754381 0.780741 0.611654
O O9 0.085498 0.669040 0.395793
O O10 0.450052 0.112716 0.287685
O O11 0.448738 0.079038 0.456785
O O12 0.996717 0.008743 0.395998
O O13 0.421241 0.915835 0.023553
O O14 0.757394 0.283759 0.374831
O O15 0.858464 0.496354 0.799933
O O16 0.602506 0.654168 0.238780
O O17 0.500000 0.000000 0.500000
#
# Coordination Sequence:
#
# PCOD9052783 Si02
#       8
#     2   2   2   2   2   2   2   2
#     4  12  24  41  70 105 150 189 240 296 353 434
#     4  12  26  43  76 108 146 192 244 300 364 429
#     4  12  24  43  73 108 143 194 242 289 363 441
#     4  10  26  50  72 107 138 189 246 305 360 423
#     4  11  25  47  76  99 148 190 236 302 367 428
#     4  11  25  44  66 106 152 188 234 294 363 435
#     4  11  26  47  78 106 142 183 252 302 359 425
#     4  11  25  43  68 105 148 192 233 289 366 444
#
# _framework density 23.727902
#
# number of rings (size 3 to 8) (size 9 to 14) (size 15 to 20)
#    0.000    0.750    3.750    2.625    5.250    3.500 
#    0.000    3.125    0.000    0.000    0.000    0.000 
#    0.000    0.000    0.000    0.000    0.000    0.000 
#
# Total GULP energy -89592.772535 kJ/mol
# GULP energy per Si atom -5599.548283 kJ/mol
# Density = 2.367390 g / cm^3
# Si number density = 23.727902 Si / 1000 Ang^3
#
#
#
# Elastic Constant Matrix: (Units=GPa)
#
#
# Indices 1 2 3 4 5 6 
#
# 1 147.8490 28.4505 28.0824 -1.1445 -12.2107 -11.3397
# 2 28.4505 42.4130 10.8180 -11.3205 -9.7651 1.1294
# 3 28.0824 10.8180 56.1572 5.3909 -6.5604 -6.0434
# 4 -1.1445 -11.3205 5.3909 33.3093 -6.2500 0.0798
# 5 -12.2107 -9.7651 -6.5604 -6.2500 42.0989 1.6347
# 6 -11.3397 1.1294 -6.0434 0.0798 1.6347 40.2349
#
#
#
# Elastic Compliance Matrix: (Units=1/GPa)
#
#
# Indices 1 2 3 4 5 6 
#
# 1 0.008499 -0.005108 -0.002886 -0.000865 0.000621 0.002082
# 2 -0.005108 0.033673 -0.004693 0.013487 0.007733 -0.003431
# 3 -0.002886 -0.004693 0.020957 -0.004997 0.000503 0.002456
# 4 -0.000865 0.013487 -0.004997 0.036821 0.007633 -0.001756
# 5 0.000621 0.007733 0.000503 0.007633 0.026981 -0.001078
# 6 0.002082 -0.003431 0.002456 -0.001756 -0.001078 0.025953
#
#
# Mechanical properties :
#
#
# Convention : Reuss Voigt Hill
#
# Bulk Modulus (GPa) = 26.48693 42.34679 34.41686
# Shear Modulus (GPa) = 26.19934 35.06650 30.63292
#
# Velocity S-wave (km/s) = 3.32649 3.84846 3.59696
# Velocity P-wave (km/s) = 5.09324 6.13459 5.63801
#
# Compressibility (1/GPa) = 0.03775448
#
# Stress axis : x y z
#
# Youngs Moduli (GPa) = 117.65853 29.69736 47.71610
#
# Poissons Ratio (x) = 0.15171 0.13773
# Poissons Ratio (y) = 0.60105 0.22392
# Poissons Ratio (z) = 0.33961 0.13936
#
# Static dielectric constant tensor:
#      x y z
#    x 1.884430 -0.026640 0.024470 
#    y -0.026640 1.922520 -0.023050 
#    z 0.024470 -0.023050 1.941420 
# 
# From -- ./inp_files/371446.got.cif
#   From: 2010.05.17/outbox.cif.g08.bks.cpg/sg2_186_cif.got.tgz:371446.got - 2010.06.03 11:33:40.
