data_PCOD9052247
_publ_section_title
;
Structure prediction by ZEFSAII (Michael W. Deem and Ramdas Pophale) SiO2 
 PCOD9052247
Probable space group: P -1
;
_chemical_formula_sum "Si O2"
_cell_formula_units_Z 14
_cell_length_a 15.660727
_cell_length_b 11.893823
_cell_length_c 10.286096
_cell_angle_alpha 67.226146
_cell_angle_beta 136.001041
_cell_angle_gamma 145.271517
_cell_volume 649.563692
_symmetry_space_group_name_H-M "P -1"
_symmetry_group_IT_number 2
_symmetry_cell_setting 'triclinic'
loop_
_space_group_symop_operation_xyz
x,y,z
-x,-y,-z
loop_
_atom_site_type_symbol
_atom_site_label
_atom_site_fract_x
_atom_site_fract_y
_atom_site_fract_z
Si Si1 0.679711 0.053628 0.534388
Si Si2 0.251964 0.302863 0.889444
Si Si3 0.158445 0.915379 0.575226
Si Si4 0.290108 0.071082 0.114705
Si Si5 0.914702 0.404970 0.273445
Si Si6 0.799816 0.244297 0.940049
Si Si7 0.573511 0.299670 0.062852
O O1 0.667481 0.948497 0.687880
O O2 0.437738 0.921498 0.316712
O O3 0.725247 0.017970 0.466463
O O4 0.881141 0.325978 0.649192
O O5 0.214515 0.148000 0.998373
O O6 0.282685 0.457822 0.926918
O O7 0.500000 0.500000 0.000000
O O8 0.033341 0.141129 0.628137
O O9 0.023733 0.677067 0.571329
O O10 0.350929 0.105845 0.809989
O O11 0.124592 0.830145 0.974862
O O12 0.492946 0.237830 0.152302
O O13 0.773004 0.253250 0.056689
O O14 0.733208 0.316868 0.209306
O O15 0.000000 0.500000 0.000000
#
# Coordination Sequence:
#
# PCOD9052247 Si02
#       7
#     2   2   2   2   2   2   2
#     4  12  26  43  71 104 133 180 223 281 356 388
#     4  10  26  44  67  99 140 184 224 276 333 406
#     4  12  24  42  73 103 135 180 233 275 338 403
#     4  11  25  46  66  99 146 172 224 277 341 404
#     4  12  24  42  75 103 135 172 231 290 335 396
#     4  12  25  43  68 107 139 170 224 290 345 397
#     4  11  23  47  70 102 135 177 230 284 332 402
#
# _framework density 21.552928000000001
#
# number of rings (size 3 to 8) (size 9 to 14) (size 15 to 20)
#    0.000    0.571    5.714    2.143    4.000    2.857 
#    2.571    0.714    0.000    0.000    0.000    0.000 
#    0.000    0.000    0.000    0.000    0.000    0.000 
#
# Total GULP energy -78200.503599 kJ/mol
# GULP energy per Si atom -5585.750257 kJ/mol
# Density = 2.150387 g / cm^3
# Si number density = 21.552928 Si / 1000 Ang^3
#
#
#
# Elastic Constant Matrix: (Units=GPa)
#
#
# Indices 1 2 3 4 5 6 
#
# 1 50.2425 16.4143 18.1680 -12.9657 -10.8407 10.9433
# 2 16.4143 153.2994 60.7935 -25.6814 -0.7055 -4.3100
# 3 18.1680 60.7935 126.6263 -9.5664 -1.1730 10.8142
# 4 -12.9657 -25.6814 -9.5664 48.6716 0.1935 0.0202
# 5 -10.8407 -0.7055 -1.1730 0.1935 33.7978 -3.8388
# 6 10.9433 -4.3100 10.8142 0.0202 -3.8388 27.5997
#
#
#
# Elastic Compliance Matrix: (Units=1/GPa)
#
#
# Indices 1 2 3 4 5 6 
#
# 1 0.025968 -0.001278 -0.001854 0.005854 0.007208 -0.008771
# 2 -0.001278 0.009019 -0.004178 0.003596 0.000016 0.003552
# 3 -0.001854 -0.004178 0.010466 -0.000637 -0.000784 -0.004127
# 4 0.005854 0.003596 -0.000637 0.023871 0.001646 -0.001299
# 5 0.007208 0.000016 -0.000784 0.001646 0.032081 0.001912
# 6 -0.008771 0.003552 -0.004127 -0.001299 0.001912 0.042149
#
#
# Mechanical properties :
#
#
# Convention : Reuss Voigt Hill
#
# Bulk Modulus (GPa) = 32.43310 57.87998 45.15654
# Shear Modulus (GPa) = 29.68183 37.66663 33.67423
#
# Velocity S-wave (km/s) = 3.71504 4.18501 3.95700
# Velocity P-wave (km/s) = 5.78643 7.08982 6.47102
#
# Compressibility (1/GPa) = 0.03083270
#
# Stress axis : x y z
#
# Youngs Moduli (GPa) = 38.50909 110.87275 95.54360
#
# Poissons Ratio (x) = 0.14169 0.17715
# Poissons Ratio (y) = 0.04921 0.39922
# Poissons Ratio (z) = 0.07140 0.46327
#
# Static dielectric constant tensor:
#      x y z
#    x 1.838060 -0.002780 -0.023630 
#    y -0.002780 1.824570 -0.013390 
#    z -0.023630 -0.013390 1.808060 
# 
# From -- ./inp_files/464486.got.cif
#   From: 2010.05.17/outbox.cif.g08.bks.cpg/sg2_233_cif.got.tgz:464486.got - 2010.06.03 11:33:40.
