data_PCOD9052324
_publ_section_title
;
Structure prediction by ZEFSAII (Michael W. Deem and Ramdas Pophale) SiO2 
 PCOD9052324
Probable space group: P -1
;
_chemical_formula_sum "Si O2"
_cell_formula_units_Z 13
_cell_length_a 11.209699
_cell_length_b 8.605418
_cell_length_c 11.968395
_cell_angle_alpha 88.772410
_cell_angle_beta 43.204678
_cell_angle_gamma 118.016277
_cell_volume 557.189649
_symmetry_space_group_name_H-M "P -1"
_symmetry_group_IT_number 2
_symmetry_cell_setting 'triclinic'
loop_
_space_group_symop_operation_xyz
x,y,z
-x,-y,-z
loop_
_atom_site_type_symbol
_atom_site_label
_atom_site_fract_x
_atom_site_fract_y
_atom_site_fract_z
Si Si1 0.045939 0.882151 0.048867
Si Si2 0.031978 0.507894 0.612218
Si Si3 0.409845 0.591038 0.989704
Si Si4 0.156395 0.958125 0.217778
Si Si5 0.662208 0.799150 0.593304
Si Si6 0.500000 0.500000 0.500000
Si Si7 0.512337 0.036744 0.623353
O O1 0.172918 0.014504 0.076026
O O2 0.783340 0.641944 0.259274
O O3 0.237832 0.891676 0.856706
O O4 0.000000 0.000000 0.000000
O O5 0.311320 0.708055 0.463824
O O6 0.000000 0.500000 0.500000
O O7 0.864638 0.531158 0.788510
O O8 0.931528 0.274588 0.714318
O O9 0.500000 0.500000 0.000000
O O10 0.475524 0.610164 0.815024
O O11 0.586071 0.845328 0.902567
O O12 0.942981 0.925280 0.421765
O O13 0.611968 0.696767 0.508016
O O14 0.626098 0.959596 0.608318
O O15 0.500000 0.000000 0.500000
#
# Coordination Sequence:
#
# PCOD9052324 Si02
#       7
#     2   2   2   2   2   1   2
#     4  11  26  45  74 103 151 189 250 297 378 440
#     4  12  26  46  73 105 148 196 246 301 379 445
#     4  12  25  43  73 106 144 192 248 306 367 441
#     4  11  24  45  72 104 144 196 245 300 375 445
#     4  11  25  45  69 103 146 184 251 301 375 430
#     4  10  26  44  74  98 142 198 238 302 376 430
#     4  12  27  45  73 110 147 194 250 310 369 443
#
# _framework density 23.331372999999999
#
# number of rings (size 3 to 8) (size 9 to 14) (size 15 to 20)
#    0.000    0.615    0.000    7.385   12.923    0.615 
#    0.000    0.000    0.000    0.000    0.000    0.000 
#    0.000    0.000    0.000    0.000    0.000    0.000 
#
# Total GULP energy -72577.395184 kJ/mol
# GULP energy per Si atom -5582.876553 kJ/mol
# Density = 2.327827 g / cm^3
# Si number density = 23.331373 Si / 1000 Ang^3
#
#
#
# Elastic Constant Matrix: (Units=GPa)
#
#
# Indices 1 2 3 4 5 6 
#
# 1 70.3334 17.4084 22.2677 6.9817 14.2653 -10.7781
# 2 17.4084 72.7369 18.0731 -7.1852 6.7732 4.0986
# 3 22.2677 18.0731 166.5965 24.6496 -25.5283 -2.2786
# 4 6.9817 -7.1852 24.6496 47.7510 4.8844 -6.7684
# 5 14.2653 6.7732 -25.5283 4.8844 46.3658 -1.1444
# 6 -10.7781 4.0986 -2.2786 -6.7684 -1.1444 52.7602
#
#
#
# Elastic Compliance Matrix: (Units=1/GPa)
#
#
# Indices 1 2 3 4 5 6 
#
# 1 0.017838 -0.003177 -0.002928 -0.000403 -0.006506 0.003572
# 2 -0.003177 0.015911 -0.002433 0.004223 -0.003168 -0.001517
# 3 -0.002928 -0.002433 0.008365 -0.004986 0.006373 -0.000549
# 4 -0.000403 0.004223 -0.004986 0.025157 -0.005827 0.002475
# 5 -0.006506 -0.003168 0.006373 -0.005827 0.028132 -0.000945
# 6 0.003572 -0.001517 -0.000549 0.002475 -0.000945 0.020074
#
#
# Mechanical properties :
#
#
# Convention : Reuss Voigt Hill
#
# Bulk Modulus (GPa) = 39.93903 47.24057 43.58980
# Shear Modulus (GPa) = 35.48672 46.16989 40.82831
#
# Velocity S-wave (km/s) = 3.90421 4.45328 4.18776
# Velocity P-wave (km/s) = 6.12202 6.83622 6.48896
#
# Compressibility (1/GPa) = 0.02503816
#
# Stress axis : x y z
#
# Youngs Moduli (GPa) = 56.05940 62.85075 119.55229
#
# Poissons Ratio (x) = 0.19968 0.35006
# Poissons Ratio (y) = 0.17810 0.29082
# Poissons Ratio (z) = 0.16415 0.15289
#
# Static dielectric constant tensor:
#      x y z
#    x 1.889180 -0.013620 0.033900 
#    y -0.013620 1.857030 -0.003990 
#    z 0.033900 -0.003990 1.864300 
# 
# From -- ./inp_files/393274.got.cif
#   From: 2010.05.17/outbox.cif.g08.bks.cpg/sg2_197_cif.got.tgz:393274.got - 2010.06.03 11:33:40.
