data_PCOD9052844
_publ_section_title
;
Structure prediction by ZEFSAII (Michael W. Deem and Ramdas Pophale) SiO2 
 PCOD9052844
Probable space group: P -1
;
_chemical_formula_sum "Si O2"
_cell_formula_units_Z 12
_cell_length_a 9.349967
_cell_length_b 9.647891
_cell_length_c 12.886998
_cell_angle_alpha 33.811872
_cell_angle_beta 125.644393
_cell_angle_gamma 135.598500
_cell_volume 452.445023
_symmetry_space_group_name_H-M "P -1"
_symmetry_group_IT_number 2
_symmetry_cell_setting 'triclinic'
loop_
_space_group_symop_operation_xyz
x,y,z
-x,-y,-z
loop_
_atom_site_type_symbol
_atom_site_label
_atom_site_fract_x
_atom_site_fract_y
_atom_site_fract_z
Si Si1 0.162736 0.833841 0.838483
Si Si2 0.040519 0.636957 0.698788
Si Si3 0.264762 0.270064 0.022129
Si Si4 0.726049 0.715440 0.224108
Si Si5 0.735452 0.155705 0.545352
Si Si6 0.565476 0.336447 0.711358
O O1 0.148677 0.027966 0.801483
O O2 0.411258 0.990639 0.846618
O O3 0.202043 0.561370 0.271134
O O4 0.000000 0.500000 0.000000
O O5 0.144189 0.440986 0.882526
O O6 0.114434 0.868374 0.678909
O O7 0.774512 0.987003 0.757648
O O8 0.125946 0.788529 0.531361
O O9 0.239117 0.190690 0.938838
O O10 0.500000 0.500000 0.000000
O O11 0.500000 0.500000 0.500000
O O12 0.494658 0.592213 0.246273
O O13 0.775001 0.461277 0.413644
O O14 0.500000 0.000000 0.500000
#
# Coordination Sequence:
#
# PCOD9052844 Si02
#       6
#     2   2   2   2   2   2
#     4  10  26  54  87 127 178 232 298 369 447 535
#     4  11  26  51  88 134 169 239 294 374 456 529
#     4  11  23  49  90 126 177 237 302 364 446 540
#     4   9  24  52  86 128 171 235 299 368 444 538
#     4  11  23  50  90 124 181 235 299 366 451 539
#     4  10  26  52  88 130 182 225 300 375 451 523
#
# _framework density 26.522556999999999
#
# number of rings (size 3 to 8) (size 9 to 14) (size 15 to 20)
#    1.000    0.667    3.333    0.000    2.333    4.000 
#    6.000   10.000   14.667    0.000    0.000    1.167 
#    0.000    0.000    0.000    0.000    0.000    0.000 
#
# Total GULP energy -67282.875637 kJ/mol
# GULP energy per Si atom -5606.906303 kJ/mol
# Density = 2.646219 g / cm^3
# Si number density = 26.522557 Si / 1000 Ang^3
#
#
#
# Elastic Constant Matrix: (Units=GPa)
#
#
# Indices 1 2 3 4 5 6 
#
# 1 206.0453 93.2088 99.3294 19.7110 -19.5830 23.5581
# 2 93.2088 206.1533 81.6367 1.9813 -10.2516 -16.0139
# 3 99.3294 81.6367 254.6668 29.2125 -0.2740 -21.9734
# 4 19.7110 1.9813 29.2125 47.7083 5.4697 -13.2166
# 5 -19.5830 -10.2516 -0.2740 5.4697 55.2670 5.1298
# 6 23.5581 -16.0139 -21.9734 -13.2166 5.1298 55.8751
#
#
#
# Elastic Compliance Matrix: (Units=1/GPa)
#
#
# Indices 1 2 3 4 5 6 
#
# 1 0.009378 -0.003543 -0.002631 -0.004615 0.003801 -0.007445
# 2 -0.003543 0.007042 -0.000866 0.002851 -0.000598 0.003901
# 3 -0.002631 -0.000866 0.005636 -0.001401 -0.001191 0.002856
# 4 -0.004615 0.002851 -0.001401 0.026603 -0.004575 0.008925
# 5 0.003801 -0.000598 -0.001191 -0.004575 0.020258 -0.005184
# 6 -0.007445 0.003901 0.002856 0.008925 -0.005184 0.025864
#
#
# Mechanical properties :
#
#
# Convention : Reuss Voigt Hill
#
# Bulk Modulus (GPa) = 125.39105 135.02391 130.20748
# Shear Modulus (GPa) = 44.83429 57.94943 51.39186
#
# Velocity S-wave (km/s) = 4.11593 4.67937 4.40667
# Velocity P-wave (km/s) = 8.36467 8.95628 8.66552
#
# Compressibility (1/GPa) = 0.00797505
#
# Stress axis : x y z
#
# Youngs Moduli (GPa) = 106.62740 142.00843 177.41868
#
# Poissons Ratio (x) = 0.50319 0.46678
# Poissons Ratio (y) = 0.37783 0.15372
# Poissons Ratio (z) = 0.28053 0.12304
#
# Static dielectric constant tensor:
#      x y z
#    x 2.113510 0.052760 -0.032080 
#    y 0.052760 2.073200 -0.024700 
#    z -0.032080 -0.024700 2.115730 
# 
# From -- ./inp_files/381093.got.cif
#   From: 2010.05.17/outbox.cif.g08.bks.cpg/sg2_191_cif.got.tgz:381093.got - 2010.06.03 11:33:40.
