data_PCOD9052765
_publ_section_title
;
Structure prediction by ZEFSAII (Michael W. Deem and Ramdas Pophale) SiO2 
 PCOD9052765
Probable space group: P -1
;
_chemical_formula_sum "Si O2"
_cell_formula_units_Z 15
_cell_length_a 9.883830
_cell_length_b 4.955028
_cell_length_c 16.014417
_cell_angle_alpha 108.350980
_cell_angle_beta 51.997705
_cell_angle_gamma 105.102355
_cell_volume 584.251654
_symmetry_space_group_name_H-M "P -1"
_symmetry_group_IT_number 2
_symmetry_cell_setting 'triclinic'
loop_
_space_group_symop_operation_xyz
x,y,z
-x,-y,-z
loop_
_atom_site_type_symbol
_atom_site_label
_atom_site_fract_x
_atom_site_fract_y
_atom_site_fract_z
Si Si1 0.129666 0.635536 0.272151
Si Si2 0.786954 0.654388 0.953963
Si Si3 0.511150 0.778384 0.718697
Si Si4 0.721591 0.799760 0.230894
Si Si5 0.201321 0.613328 0.429471
Si Si6 0.893313 0.092746 0.354938
Si Si7 0.415041 0.842690 0.937476
Si Si8 0.000000 0.000000 0.000000
O O1 0.224801 0.488834 0.145907
O O2 0.963685 0.407351 0.327699
O O3 0.226766 0.674933 0.327252
O O4 0.060137 0.928697 0.298258
O O5 0.755997 0.992504 0.000976
O O6 0.972952 0.685992 0.927232
O O7 0.644178 0.477011 0.045474
O O8 0.500000 0.000000 0.000000
O O9 0.439965 0.021538 0.714402
O O10 0.677780 0.628537 0.613724
O O11 0.534024 0.879123 0.815960
O O12 0.357329 0.524467 0.761076
O O13 0.796903 0.919333 0.301191
O O14 0.861891 0.866316 0.111462
O O15 0.215292 0.866820 0.516065
O O16 0.000000 0.500000 0.500000
#
# Coordination Sequence:
#
# PCOD9052765 Si02
#       8
#     2   2   2   2   2   2   2   1
#     4  11  23  43  71 105 136 181 237 294 347 422
#     4  12  25  41  72 104 140 193 230 283 357 428
#     4  12  26  47  70 107 144 187 239 295 357 416
#     4  12  27  44  74 105 149 187 233 291 352 432
#     4  10  26  49  75 100 138 185 243 302 355 416
#     4  11  24  44  70 104 137 182 237 292 355 411
#     4  12  25  44  65 103 146 186 233 288 356 423
#     4  12  24  46  72 106 150 188 240 278 354 436
#
# _framework density 25.673870999999998
#
# number of rings (size 3 to 8) (size 9 to 14) (size 15 to 20)
#    0.000    0.533    4.000    3.200    0.000    8.533 
#    0.000    0.000    0.000    0.000    0.000    0.000 
#    0.000    0.000    0.000    0.000    0.000    0.000 
#
# Total GULP energy -83881.353696 kJ/mol
# GULP energy per Si atom -5592.090246 kJ/mol
# Density = 2.561544 g / cm^3
# Si number density = 25.673871 Si / 1000 Ang^3
#
#
#
# Elastic Constant Matrix: (Units=GPa)
#
#
# Indices 1 2 3 4 5 6 
#
# 1 100.8901 37.4992 33.0698 6.1193 24.5113 -1.1426
# 2 37.4992 61.1133 22.2020 0.0680 -0.1249 8.3845
# 3 33.0698 22.2020 130.5074 13.8458 13.6756 -9.3966
# 4 6.1193 0.0680 13.8458 39.3091 3.9807 -7.0531
# 5 24.5113 -0.1249 13.6756 3.9807 61.4405 6.0536
# 6 -1.1426 8.3845 -9.3966 -7.0531 6.0536 40.5647
#
#
#
# Elastic Compliance Matrix: (Units=1/GPa)
#
#
# Indices 1 2 3 4 5 6 
#
# 1 0.015394 -0.009338 -0.001391 -0.000770 -0.006078 0.002815
# 2 -0.009338 0.024004 -0.002784 0.000724 0.004986 -0.006488
# 3 -0.001391 -0.002784 0.009081 -0.002378 -0.001560 0.002459
# 4 -0.000770 0.000724 -0.002378 0.027290 -0.001346 0.004224
# 5 -0.006078 0.004986 -0.001560 -0.001346 0.019611 -0.004724
# 6 0.002815 -0.006488 0.002459 0.004224 -0.004724 0.028081
#
#
# Mechanical properties :
#
#
# Convention : Reuss Voigt Hill
#
# Bulk Modulus (GPa) = 46.61249 53.11696 49.86473
# Shear Modulus (GPa) = 31.71849 41.57886 36.64868
#
# Velocity S-wave (km/s) = 3.51869 4.02867 3.78229
# Velocity P-wave (km/s) = 5.89095 6.50955 6.20796
#
# Compressibility (1/GPa) = 0.02145348
#
# Stress axis : x y z
#
# Youngs Moduli (GPa) = 64.96163 41.66032 110.11700
#
# Poissons Ratio (x) = 0.38903 0.15315
# Poissons Ratio (y) = 0.60662 0.30653
# Poissons Ratio (z) = 0.09035 0.11597
#
# Static dielectric constant tensor:
#      x y z
#    x 1.644910 0.121500 0.172370 
#    y 0.121500 1.952170 -0.058160 
#    z 0.172370 -0.058160 1.965850 
# 
# From -- ./inp_files/552750.got.cif
#   From: 2010.05.17/outbox.cif.g08.bks.cpg/sg2_277_cif.got.tgz:552750.got - 2010.06.03 11:33:40.
