data_PCOD9052221
_publ_section_title
;
Structure prediction by ZEFSAII (Michael W. Deem and Ramdas Pophale) SiO2 
 PCOD9052221
Probable space group: P -1
;
_chemical_formula_sum "Si O2"
_cell_formula_units_Z 12
_cell_length_a 7.556765
_cell_length_b 12.152259
_cell_length_c 14.273797
_cell_angle_alpha 151.637270
_cell_angle_beta 118.202878
_cell_angle_gamma 80.541862
_cell_volume 438.673808
_symmetry_space_group_name_H-M "P -1"
_symmetry_group_IT_number 2
_symmetry_cell_setting 'triclinic'
loop_
_space_group_symop_operation_xyz
x,y,z
-x,-y,-z
loop_
_atom_site_type_symbol
_atom_site_label
_atom_site_fract_x
_atom_site_fract_y
_atom_site_fract_z
Si Si1 0.975011 0.718893 0.246874
Si Si2 0.196982 0.692938 0.774009
Si Si3 0.383957 0.795252 0.537425
Si Si4 0.148224 0.018445 0.325003
Si Si5 0.344150 0.593630 0.907006
Si Si6 0.301979 0.218516 0.107384
O O1 0.181486 0.707670 0.341852
O O2 0.715681 0.465829 0.042455
O O3 0.026739 0.773436 0.191146
O O4 0.000000 0.000000 0.500000
O O5 0.130340 0.565597 0.766412
O O6 0.442372 0.714599 0.820895
O O7 0.000000 0.500000 0.500000
O O8 0.242450 0.999252 0.011896
O O9 0.655016 0.955159 0.676601
O O10 0.338518 0.513959 0.362396
O O11 0.421382 0.073408 0.803319
O O12 0.321205 0.323028 0.654130
O O13 0.922477 0.951191 0.152187
#
# Coordination Sequence:
#
# PCOD9052221 Si02
#       6
#     2   2   2   2   2   2
#     4  10  26  43  72 105 144 184 233 285 348 415
#     4  11  23  46  75 100 139 187 232 289 354 411
#     4  12  25  44  70 109 141 185 232 287 347 420
#     4  11  24  48  69 103 145 189 231 284 347 415
#     4  11  25  44  71 103 141 181 238 284 346 412
#     4  11  24  43  76 102 137 189 233 285 352 412
#
# _framework density 27.355179
#
# number of rings (size 3 to 8) (size 9 to 14) (size 15 to 20)
#    0.000    1.000    3.333    1.500    4.667    7.333 
#    0.000    5.833    0.000    0.000    0.000    0.000 
#    0.000    0.000    0.000    0.000    0.000    0.000 
#
# Total GULP energy -67133.068509 kJ/mol
# GULP energy per Si atom -5594.422376 kJ/mol
# Density = 2.729292 g / cm^3
# Si number density = 27.355179 Si / 1000 Ang^3
#
#
#
# Elastic Constant Matrix: (Units=GPa)
#
#
# Indices 1 2 3 4 5 6 
#
# 1 90.2864 3.2706 3.3393 -15.7006 16.7729 -19.2998
# 2 3.2706 127.2990 5.5956 20.0176 6.8122 -7.5544
# 3 3.3393 5.5956 145.3374 16.8902 -25.7732 -21.5732
# 4 -15.7006 20.0176 16.8902 70.1196 -16.4331 -1.0415
# 5 16.7729 6.8122 -25.7732 -16.4331 31.6397 -11.6995
# 6 -19.2998 -7.5544 -21.5732 -1.0415 -11.6995 48.1143
#
#
#
# Elastic Compliance Matrix: (Units=1/GPa)
#
#
# Indices 1 2 3 4 5 6 
#
# 1 0.013237 -0.000113 -0.000958 0.002015 -0.005397 0.003594
# 2 -0.000113 0.008618 -0.000679 -0.003277 -0.004072 -0.000058
# 3 -0.000958 -0.000679 0.009908 0.000365 0.011404 0.006733
# 4 0.002015 -0.003277 0.000365 0.018095 0.010601 0.003427
# 5 -0.005397 -0.004072 0.011404 0.010601 0.056124 0.016185
# 6 0.003594 -0.000058 0.006733 0.003427 0.016185 0.029245
#
#
# Mechanical properties :
#
#
# Convention : Reuss Voigt Hill
#
# Bulk Modulus (GPa) = 35.38129 43.03708 39.20918
# Shear Modulus (GPa) = 33.75016 53.35587 43.55302
#
# Velocity S-wave (km/s) = 3.51633 4.42122 3.99448
# Velocity P-wave (km/s) = 5.42662 6.46759 5.96984
#
# Compressibility (1/GPa) = 0.02826353
#
# Stress axis : x y z
#
# Youngs Moduli (GPa) = 75.54755 116.03477 100.92968
#
# Poissons Ratio (x) = 0.01309 0.09666
# Poissons Ratio (y) = 0.00852 0.06854
# Poissons Ratio (z) = 0.07235 0.07880
#
# Static dielectric constant tensor:
#      x y z
#    x 2.135310 0.005000 -0.011980 
#    y 0.005000 2.129830 0.054760 
#    z -0.011980 0.054760 2.193190 
# 
# From -- ./inp_files/44503.got.cif
#   From: 2010.05.17/outbox.cif.g08.bks.cpg/sg2_23_cif.got.tgz:44503.got - 2010.06.03 11:33:40.
