data_PCOD9052921
_publ_section_title
;
Structure prediction by ZEFSAII (Michael W. Deem and Ramdas Pophale) SiO2 
 PCOD9052921
Probable space group: P -1
;
_chemical_formula_sum "Si O2"
_cell_formula_units_Z 15
_cell_length_a 11.493479
_cell_length_b 4.974278
_cell_length_c 14.328579
_cell_angle_alpha 69.250214
_cell_angle_beta 51.780369
_cell_angle_gamma 73.847534
_cell_volume 599.902779
_symmetry_space_group_name_H-M "P -1"
_symmetry_group_IT_number 2
_symmetry_cell_setting 'triclinic'
loop_
_space_group_symop_operation_xyz
x,y,z
-x,-y,-z
loop_
_atom_site_type_symbol
_atom_site_label
_atom_site_fract_x
_atom_site_fract_y
_atom_site_fract_z
Si Si1 0.645187 0.357716 0.268805
Si Si2 0.500000 0.000000 0.500000
Si Si3 0.815287 0.662494 0.386704
Si Si4 0.721708 0.701019 0.816628
Si Si5 0.267694 0.955437 0.062999
Si Si6 0.950788 0.054372 0.123740
Si Si7 0.527657 0.994409 0.215936
Si Si8 0.965961 0.063423 0.402273
O O1 0.609806 0.274578 0.400563
O O2 0.562433 0.652780 0.239962
O O3 0.820024 0.312771 0.164290
O O4 0.566553 0.098472 0.287094
O O5 0.352135 0.219419 0.531000
O O6 0.875496 0.788522 0.243515
O O7 0.841324 0.323508 0.423709
O O8 0.916871 0.798237 0.399361
O O9 0.729800 0.356599 0.850388
O O10 0.884254 0.810980 0.723929
O O11 0.658132 0.820642 0.933333
O O12 0.628256 0.862936 0.760612
O O13 0.103020 0.083265 0.099979
O O14 0.355653 0.898674 0.929886
O O15 0.000000 0.000000 0.000000
O O16 0.000000 0.000000 0.500000
#
# Coordination Sequence:
#
# PCOD9052921 Si02
#       8
#     2   1   2   2   2   2   2   2
#     4  11  27  44  70 103 135 185 227 286 343 415
#     4  10  28  48  72  98 144 182 228 286 344 402
#     4  11  26  48  72 105 138 181 236 286 350 413
#     4  12  25  45  70 100 141 183 224 288 345 415
#     4  12  24  45  71 101 140 179 228 288 347 416
#     4  11  23  46  71 102 139 182 227 289 343 420
#     4  12  26  44  70 104 136 179 234 279 351 407
#     4  12  26  45  73 104 137 183 234 288 347 411
#
# _framework density 25.004054
#
# number of rings (size 3 to 8) (size 9 to 14) (size 15 to 20)
#    0.000    0.533    4.000    2.800    3.733    6.933 
#    0.000    0.000    0.000    0.000    0.000    0.000 
#    0.000    0.000    0.000    0.000    0.000    0.000 
#
# Total GULP energy -83837.394390 kJ/mol
# GULP energy per Si atom -5589.159626 kJ/mol
# Density = 2.494714 g / cm^3
# Si number density = 25.004054 Si / 1000 Ang^3
#
#
#
# Elastic Constant Matrix: (Units=GPa)
#
#
# Indices 1 2 3 4 5 6 
#
# 1 120.8267 43.3112 10.2282 6.7343 7.5061 -27.9626
# 2 43.3112 74.8362 14.4033 -14.4383 5.0440 -20.9042
# 3 10.2282 14.4033 81.6935 3.8760 3.5042 -8.6705
# 4 6.7343 -14.4383 3.8760 31.1916 -13.3783 -0.4105
# 5 7.5061 5.0440 3.5042 -13.3783 37.0345 8.8647
# 6 -27.9626 -20.9042 -8.6705 -0.4105 8.8647 50.7602
#
#
#
# Elastic Compliance Matrix: (Units=1/GPa)
#
#
# Indices 1 2 3 4 5 6 
#
# 1 0.013008 -0.007578 0.000956 -0.009028 -0.006205 0.005219
# 2 -0.007578 0.021860 -0.003246 0.013399 0.002773 0.003897
# 3 0.000956 -0.003246 0.013262 -0.004692 -0.003173 0.001971
# 4 -0.009028 0.013399 -0.004692 0.048836 0.018845 -0.003153
# 5 -0.006205 0.002773 -0.003173 0.018845 0.037182 -0.009159
# 6 0.005219 0.003897 0.001971 -0.003153 -0.009159 0.026091
#
#
# Mechanical properties :
#
#
# Convention : Reuss Voigt Hill
#
# Bulk Modulus (GPa) = 35.22058 45.91577 40.56818
# Shear Modulus (GPa) = 26.39354 37.75816 32.07585
#
# Velocity S-wave (km/s) = 3.25248 3.89019 3.58554
# Velocity P-wave (km/s) = 5.31238 6.21139 5.77939
#
# Compressibility (1/GPa) = 0.02839249
#
# Stress axis : x y z
#
# Youngs Moduli (GPa) = 76.87355 45.74557 75.40625
#
# Poissons Ratio (x) = 0.34667 -0.07208
# Poissons Ratio (y) = 0.58256 0.24480
# Poissons Ratio (z) = -0.07348 0.14851
#
# Static dielectric constant tensor:
#      x y z
#    x 1.942740 0.139010 0.022440 
#    y 0.139010 2.144150 0.258650 
#    z 0.022440 0.258650 2.160230 
# 
# From -- ./inp_files/510158.got.cif
#   From: 2010.05.17/outbox.cif.g08.bks.cpg/sg2_256_cif.got.tgz:510158.got - 2010.06.03 11:33:40.
