data_PCOD9052490
_publ_section_title
;
Structure prediction by ZEFSAII (Michael W. Deem and Ramdas Pophale) SiO2 
 PCOD9052490
Probable space group: P -1
;
_chemical_formula_sum "Si O2"
_cell_formula_units_Z 12
_cell_length_a 12.921618
_cell_length_b 11.892556
_cell_length_c 4.974308
_cell_angle_alpha 82.894310
_cell_angle_beta 119.871339
_cell_angle_gamma 134.693121
_cell_volume 438.224208
_symmetry_space_group_name_H-M "P -1"
_symmetry_group_IT_number 2
_symmetry_cell_setting 'triclinic'
loop_
_space_group_symop_operation_xyz
x,y,z
-x,-y,-z
loop_
_atom_site_type_symbol
_atom_site_label
_atom_site_fract_x
_atom_site_fract_y
_atom_site_fract_z
Si Si1 0.381011 0.238716 0.631891
Si Si2 0.949605 0.120401 0.935985
Si Si3 0.185233 0.283940 0.677955
Si Si4 0.606515 0.188666 0.171055
Si Si5 0.031343 0.618500 0.224668
Si Si6 0.672955 0.418232 0.598122
O O1 0.329364 0.292546 0.773738
O O2 0.513365 0.375689 0.533343
O O3 0.491077 0.207373 0.884163
O O4 0.203119 0.067152 0.315256
O O5 0.114465 0.228266 0.905490
O O6 0.881848 0.202493 0.820646
O O7 0.010827 0.135657 0.309597
O O8 0.245815 0.448006 0.578249
O O9 0.614831 0.252218 0.463864
O O10 0.823559 0.317931 0.383480
O O11 0.500000 0.000000 0.000000
O O12 0.824147 0.510093 0.995386
O O13 0.000000 0.500000 0.000000
#
# Coordination Sequence:
#
# PCOD9052490 Si02
#       6
#     2   2   2   2   2   2
#     4  12  26  44  76 112 146 195 252 314 372 447
#     4  11  25  48  76 110 151 201 246 315 375 448
#     4  11  27  49  76 110 154 198 250 309 384 446
#     4  11  24  45  72 111 148 195 248 317 368 452
#     4   9  21  49  68 106 149 198 242 302 379 443
#     4  10  26  46  73 109 148 197 246 315 375 448
#
# _framework density 27.383246
#
# number of rings (size 3 to 8) (size 9 to 14) (size 15 to 20)
#    0.000    1.333    1.667    1.500    9.333    2.000 
#   12.000    0.000    0.000    0.000    0.000    0.000 
#    0.000    0.000    0.000    0.000    0.000    0.000 
#
# Total GULP energy -67050.574513 kJ/mol
# GULP energy per Si atom -5587.547876 kJ/mol
# Density = 2.732092 g / cm^3
# Si number density = 27.383246 Si / 1000 Ang^3
#
#
#
# Elastic Constant Matrix: (Units=GPa)
#
#
# Indices 1 2 3 4 5 6 
#
# 1 137.2623 56.4396 41.0015 14.5848 9.0689 -14.9319
# 2 56.4396 99.4419 68.0364 13.1001 11.0055 -25.6851
# 3 41.0015 68.0364 143.8136 15.5258 4.0019 -22.3031
# 4 14.5848 13.1001 15.5258 61.6101 -4.1010 2.8638
# 5 9.0689 11.0055 4.0019 -4.1010 31.8694 -0.9201
# 6 -14.9319 -25.6851 -22.3031 2.8638 -0.9201 56.0582
#
#
#
# Elastic Compliance Matrix: (Units=1/GPa)
#
#
# Indices 1 2 3 4 5 6 
#
# 1 0.009625 -0.004979 -0.000180 -0.001263 -0.001152 0.000256
# 2 -0.004979 0.019499 -0.006715 -0.001809 -0.004563 0.004954
# 3 -0.000180 -0.006715 0.010451 -0.001152 0.000941 0.001108
# 4 -0.001263 -0.001809 -0.001152 0.017540 0.003315 -0.002465
# 5 -0.001152 -0.004563 0.000941 0.003315 0.033543 -0.001642
# 6 0.000256 0.004954 0.001108 -0.002465 -0.001642 0.020716
#
#
# Mechanical properties :
#
#
# Convention : Reuss Voigt Hill
#
# Bulk Modulus (GPa) = 63.18325 79.05252 71.11788
# Shear Modulus (GPa) = 35.61281 44.24355 39.92818
#
# Velocity S-wave (km/s) = 3.61020 4.02396 3.82268
# Velocity P-wave (km/s) = 6.36411 7.10783 6.74623
#
# Compressibility (1/GPa) = 0.01582698
#
# Stress axis : x y z
#
# Youngs Moduli (GPa) = 103.89920 51.28419 95.68047
#
# Poissons Ratio (x) = 0.25536 0.01725
# Poissons Ratio (y) = 0.51735 0.64246
# Poissons Ratio (z) = 0.01873 0.34435
#
# Static dielectric constant tensor:
#      x y z
#    x 2.218060 0.014570 0.051820 
#    y 0.014570 2.234700 -0.034440 
#    z 0.051820 -0.034440 2.150510 
# 
# From -- ./inp_files/59132.got.cif
#   From: 2010.05.17/outbox.cif.g08.bks.cpg/sg2_30_cif.got.tgz:59132.got - 2010.06.03 11:33:40.
