data_PCOD9052043
_publ_section_title
;
Structure prediction by ZEFSAII (Michael W. Deem and Ramdas Pophale) SiO2 
 PCOD9052043
Probable space group: P -1
;
_chemical_formula_sum "Si O2"
_cell_formula_units_Z 16
_cell_length_a 16.428514
_cell_length_b 5.714193
_cell_length_c 7.732882
_cell_angle_alpha 84.942721
_cell_angle_beta 57.602383
_cell_angle_gamma 99.971866
_cell_volume 589.217591
_symmetry_space_group_name_H-M "P -1"
_symmetry_group_IT_number 2
_symmetry_cell_setting 'triclinic'
loop_
_space_group_symop_operation_xyz
x,y,z
-x,-y,-z
loop_
_atom_site_type_symbol
_atom_site_label
_atom_site_fract_x
_atom_site_fract_y
_atom_site_fract_z
Si Si1 0.020290 0.276252 0.385560
Si Si2 0.889845 0.277587 0.195367
Si Si3 0.635964 0.632585 0.354803
Si Si4 0.645492 0.121556 0.501660
Si Si5 0.786530 0.720476 0.685307
Si Si6 0.861609 0.775716 0.198540
Si Si7 0.588102 0.289113 0.914062
Si Si8 0.621378 0.860348 0.999875
O O1 0.141334 0.344474 0.249106
O O2 0.000000 0.500000 0.500000
O O3 0.945424 0.258657 0.312457
O O4 0.000000 0.000000 0.500000
O O5 0.767542 0.197649 0.350347
O O6 0.912681 0.562767 0.105720
O O7 0.908975 0.056413 0.073284
O O8 0.605798 0.346556 0.456350
O O9 0.754701 0.702535 0.237148
O O10 0.608635 0.846965 0.486953
O O11 0.612260 0.680214 0.183701
O O12 0.617986 0.134316 0.731424
O O13 0.839230 0.755467 0.434359
O O14 0.680604 0.522781 0.794087
O O15 0.737690 0.926883 0.801102
O O16 0.599090 0.113301 0.070199
O O17 0.474962 0.275173 0.996301
#
# Coordination Sequence:
#
# PCOD9052043 Si02
#       8
#     2   2   2   2   2   2   2   2
#     4  12  22  34  63 101 129 160 218 275 322 383
#     4  10  17  35  55  98 117 160 199 274 311 368
#     4  10  22  41  65  98 123 178 213 279 318 391
#     4  10  21  41  71  90 131 167 229 268 319 379
#     4  12  23  40  65  94 135 169 215 275 331 389
#     4  10  19  36  66  85 128 159 216 254 318 371
#     4  11  24  45  65  94 130 185 218 278 324 395
#     4  11  27  42  64  94 140 174 223 264 347 391
#
# _framework density 27.154655999999999
#
# number of rings (size 3 to 8) (size 9 to 14) (size 15 to 20)
#    0.000    1.250    5.000    1.875    3.500    1.000 
#    0.000    0.000    0.000    6.000    0.000    0.000 
#    0.000    0.000    0.000    0.000    0.000    0.000 
#
# Total GULP energy -89322.195684 kJ/mol
# GULP energy per Si atom -5582.637230 kJ/mol
# Density = 2.709285 g / cm^3
# Si number density = 27.154656 Si / 1000 Ang^3
#
#
#
# Elastic Constant Matrix: (Units=GPa)
#
#
# Indices 1 2 3 4 5 6 
#
# 1 115.7251 51.9034 15.1296 -3.6685 -10.9087 -9.9303
# 2 51.9034 190.8431 23.2714 -1.4679 -8.3539 -14.8510
# 3 15.1296 23.2714 48.6134 12.1892 -13.6327 -10.3437
# 4 -3.6685 -1.4679 12.1892 35.7194 -14.0618 -3.3604
# 5 -10.9087 -8.3539 -13.6327 -14.0618 33.3116 -4.0232
# 6 -9.9303 -14.8510 -10.3437 -3.3604 -4.0232 38.0615
#
#
#
# Elastic Compliance Matrix: (Units=1/GPa)
#
#
# Indices 1 2 3 4 5 6 
#
# 1 0.010523 -0.002327 -0.001415 0.003203 0.003895 0.002147
# 2 -0.002327 0.006273 -0.002082 0.001099 0.000596 0.001435
# 3 -0.001415 -0.002082 0.027221 -0.005494 0.008638 0.006644
# 4 0.003203 0.001099 -0.005494 0.036618 0.015089 0.004599
# 5 0.003895 0.000596 0.008638 0.015089 0.042487 0.009419
# 6 0.002147 0.001435 0.006644 0.004599 0.009419 0.030601
#
#
# Mechanical properties :
#
#
# Convention : Reuss Voigt Hill
#
# Bulk Modulus (GPa) = 30.89350 59.53229 45.21289
# Shear Modulus (GPa) = 28.38344 39.07698 33.73021
#
# Velocity S-wave (km/s) = 3.23654 3.79760 3.52824
# Velocity P-wave (km/s) = 5.03672 6.41873 5.76925
#
# Compressibility (1/GPa) = 0.03236927
#
# Stress axis : x y z
#
# Youngs Moduli (GPa) = 95.03147 159.41736 36.73638
#
# Poissons Ratio (x) = 0.37098 0.05198
# Poissons Ratio (y) = 0.22115 0.07647
# Poissons Ratio (z) = 0.13447 0.33185
#
# Static dielectric constant tensor:
#      x y z
#    x 2.119660 -0.065580 0.017500 
#    y -0.065580 2.438630 -0.037210 
#    z 0.017500 -0.037210 2.172490 
# 
# From -- ./inp_files/288600.got.cif
#   From: 2010.05.17/outbox.cif.g08.bks.cpg/sg2_145_cif.got.tgz:288600.got - 2010.06.03 11:33:40.
