data_PCOD9052407
_publ_section_title
;
Structure prediction by ZEFSAII (Michael W. Deem and Ramdas Pophale) SiO2 
 PCOD9052407
Probable space group: P -1
;
_chemical_formula_sum "Si O2"
_cell_formula_units_Z 15
_cell_length_a 27.288184
_cell_length_b 11.686165
_cell_length_c 12.106206
_cell_angle_alpha 155.679768
_cell_angle_beta 30.440847
_cell_angle_gamma 151.861818
_cell_volume 714.876899
_symmetry_space_group_name_H-M "P -1"
_symmetry_group_IT_number 2
_symmetry_cell_setting 'triclinic'
loop_
_space_group_symop_operation_xyz
x,y,z
-x,-y,-z
loop_
_atom_site_type_symbol
_atom_site_label
_atom_site_fract_x
_atom_site_fract_y
_atom_site_fract_z
Si Si1 0.534655 0.360074 0.411847
Si Si2 0.171202 0.171651 0.115916
Si Si3 0.009140 0.155373 0.999809
Si Si4 0.885790 0.120799 0.609114
Si Si5 0.000000 0.000000 0.500000
Si Si6 0.312130 0.842719 0.496523
Si Si7 0.358906 0.034588 0.107363
Si Si8 0.519894 0.223266 0.758684
O O1 0.500000 0.500000 0.500000
O O2 0.591435 0.636930 0.634950
O O3 0.418719 0.090376 0.443850
O O4 0.617474 0.219599 0.094943
O O5 0.091690 0.059611 0.278012
O O6 0.228483 0.547570 0.329904
O O7 0.101684 0.030853 0.016966
O O8 0.255662 0.028433 0.827778
O O9 0.096458 0.107848 0.712217
O O10 0.040347 0.521011 0.259132
O O11 0.000000 0.000000 0.000000
O O12 0.924975 0.070713 0.610470
O O13 0.762026 0.060203 0.782016
O O14 0.359873 0.682592 0.348990
O O15 0.432389 0.066215 0.886216
O O16 0.500000 0.000000 0.500000
O O17 0.500000 0.500000 0.000000
#
# Coordination Sequence:
#
# PCOD9052407 Si02
#       8
#     2   2   2   2   1   2   2   2
#     4  11  24  45  68  99 143 176 221 285 335 414
#     4  11  24  44  67  98 134 180 227 281 340 407
#     4  11  25  46  68  99 136 173 234 297 342 402
#     4  11  25  44  71 100 136 182 230 283 351 413
#     4  10  26  46  66  98 138 180 232 292 338 402
#     4  11  24  41  66  99 131 171 227 262 336 405
#     4  11  24  43  65 102 134 172 230 269 336 414
#     4  11  23  40  62  94 131 171 210 269 321 392
#
# _framework density 20.982633
#
# number of rings (size 3 to 8) (size 9 to 14) (size 15 to 20)
#    0.000    1.067    0.000    7.200    3.733    8.000 
#    0.000    0.000    0.000    0.000    0.000    0.000 
#    0.000    0.000    0.000    0.000    0.000    0.000 
#
# Total GULP energy -83518.175420 kJ/mol
# GULP energy per Si atom -5567.878361 kJ/mol
# Density = 2.093488 g / cm^3
# Si number density = 20.982633 Si / 1000 Ang^3
#
#
#
# Elastic Constant Matrix: (Units=GPa)
#
#
# Indices 1 2 3 4 5 6 
#
# 1 131.5245 57.6966 21.4081 -8.0001 -19.0900 -10.5520
# 2 57.6966 77.4766 36.5859 -0.3698 -7.2250 14.3088
# 3 21.4081 36.5859 116.6786 1.8119 -23.1520 9.5722
# 4 -8.0001 -0.3698 1.8119 35.8807 13.6262 -6.9594
# 5 -19.0900 -7.2250 -23.1520 13.6262 44.1454 -0.4573
# 6 -10.5520 14.3088 9.5722 -6.9594 -0.4573 30.7315
#
#
#
# Elastic Compliance Matrix: (Units=1/GPa)
#
#
# Indices 1 2 3 4 5 6 
#
# 1 0.015273 -0.013848 0.001227 0.004131 0.003834 0.012302
# 2 -0.013848 0.028790 -0.005540 -0.004827 -0.002874 -0.017570
# 3 0.001227 -0.005540 0.011545 -0.003117 0.006628 -0.001202
# 4 0.004131 -0.004827 -0.003117 0.035713 -0.011532 0.012553
# 5 0.003834 -0.002874 0.006628 -0.011532 0.030860 -0.001562
# 6 0.012302 -0.017570 -0.001202 0.012553 -0.001562 0.048138
#
#
# Mechanical properties :
#
#
# Convention : Reuss Voigt Hill
#
# Bulk Modulus (GPa) = 51.85278 61.89565 56.87421
# Shear Modulus (GPa) = 23.46658 36.15079 29.80869
#
# Velocity S-wave (km/s) = 3.34785 4.15528 3.77322
# Velocity P-wave (km/s) = 6.30159 7.25150 6.79317
#
# Compressibility (1/GPa) = 0.01928537
#
# Stress axis : x y z
#
# Youngs Moduli (GPa) = 65.47556 34.73447 86.61865
#
# Poissons Ratio (x) = 0.48100 -0.10631
# Poissons Ratio (y) = 0.90670 0.47991
# Poissons Ratio (z) = -0.08036 0.19245
#
# Static dielectric constant tensor:
#      x y z
#    x 1.797310 -0.019470 -0.060960 
#    y -0.019470 1.774580 0.040780 
#    z -0.060960 0.040780 1.773930 
# 
# From -- ./inp_files/476672.got.cif
#   From: 2010.05.17/outbox.cif.g08.bks.cpg/sg2_239_cif.got.tgz:476672.got - 2010.06.03 11:33:40.
