data_PCOD9053786
_publ_section_title
;
Structure prediction by ZEFSAII (Michael W. Deem and Ramdas Pophale) SiO2 
 PCOD9053786
Probable space group: P -1
;
_chemical_formula_sum "Si O2"
_cell_formula_units_Z 16
_cell_length_a 5.816063
_cell_length_b 11.815373
_cell_length_c 22.994336
_cell_angle_alpha 28.356660
_cell_angle_beta 118.542201
_cell_angle_gamma 119.664373
_cell_volume 648.712774
_symmetry_space_group_name_H-M "P -1"
_symmetry_group_IT_number 2
_symmetry_cell_setting 'triclinic'
loop_
_space_group_symop_operation_xyz
x,y,z
-x,-y,-z
loop_
_atom_site_type_symbol
_atom_site_label
_atom_site_fract_x
_atom_site_fract_y
_atom_site_fract_z
Si Si1 0.055499 0.091680 0.808953
Si Si2 0.777873 0.903550 0.565025
Si Si3 0.467976 0.431717 0.765012
Si Si4 0.106651 0.058241 0.649594
Si Si5 0.651895 0.106667 0.655512
Si Si6 0.242647 0.726196 0.916920
Si Si7 0.081202 0.804530 0.055429
Si Si8 0.590237 0.438513 0.165785
O O1 0.789544 0.097287 0.739000
O O2 0.239465 0.974004 0.839958
O O3 0.186464 0.342553 0.741274
O O4 0.026827 0.896502 0.944218
O O5 0.648917 0.629762 0.658544
O O6 0.934226 0.951294 0.622439
O O7 0.500000 0.000000 0.500000
O O8 0.000000 0.000000 0.500000
O O9 0.618855 0.207584 0.887575
O O10 0.473242 0.516467 0.794366
O O11 0.382682 0.211778 0.587936
O O12 0.195144 0.834259 0.798498
O O13 0.906549 0.187843 0.606482
O O14 0.533288 0.837134 0.738593
O O15 0.476129 0.605310 0.028222
O O16 0.000000 0.500000 0.000000
O O17 0.903920 0.538920 0.158340
O O18 0.000000 0.000000 0.000000
#
# Coordination Sequence:
#
# PCOD9053786 Si02
#       8
#     2   2   2   2   2   2   2   2
#     4  11  23  40  61 105 148 193 227 278 354 442
#     4  12  28  49  79 107 132 183 257 315 368 417
#     4  12  25  45  67 100 153 186 239 304 362 414
#     4  11  23  44  67 101 135 178 234 305 354 411
#     4  11  24  39  68  97 141 189 234 278 348 423
#     4  11  20  37  62  98 141 188 230 274 340 438
#     4  12  24  36  64 101 150 198 230 278 351 441
#     4  12  22  37  64  99 142 196 236 278 343 434
#
# _framework density 24.66423
#
# number of rings (size 3 to 8) (size 9 to 14) (size 15 to 20)
#    0.000    0.500    6.250    3.375    3.500    2.000 
#    0.000    0.000    0.000   10.500    0.000    0.000 
#    0.000    0.000    0.000    0.000    0.000    0.000 
#
# Total GULP energy -89287.138036 kJ/mol
# GULP energy per Si atom -5580.446127 kJ/mol
# Density = 2.460809 g / cm^3
# Si number density = 24.664230 Si / 1000 Ang^3
#
#
#
# Elastic Constant Matrix: (Units=GPa)
#
#
# Indices 1 2 3 4 5 6 
#
# 1 146.9666 37.8956 33.3127 5.7487 -5.1745 7.9454
# 2 37.8956 147.3012 28.8803 18.9581 5.4591 7.7575
# 3 33.3127 28.8803 34.0399 1.9716 -11.2255 1.2535
# 4 5.7487 18.9581 1.9716 27.3273 6.9350 -9.8532
# 5 -5.1745 5.4591 -11.2255 6.9350 30.0781 11.1107
# 6 7.9454 7.7575 1.2535 -9.8532 11.1107 44.9768
#
#
#
# Elastic Compliance Matrix: (Units=1/GPa)
#
#
# Indices 1 2 3 4 5 6 
#
# 1 0.008938 -0.000344 -0.008591 -0.001314 -0.000797 -0.001371
# 2 -0.000344 0.009441 -0.008162 -0.005900 -0.002736 -0.001957
# 3 -0.008591 -0.008162 0.052423 -0.003688 0.022202 -0.004828
# 4 -0.001314 -0.005900 -0.003688 0.052403 -0.019097 0.017550
# 5 -0.000797 -0.002736 0.022202 -0.019097 0.052647 -0.017195
# 6 -0.001371 -0.001957 -0.004828 0.017550 -0.017195 0.031040
#
#
# Mechanical properties :
#
#
# Convention : Reuss Voigt Hill
#
# Bulk Modulus (GPa) = 27.31673 58.72056 43.01864
# Shear Modulus (GPa) = 19.74028 35.69104 27.71566
#
# Velocity S-wave (km/s) = 2.83213 3.80817 3.35583
# Velocity P-wave (km/s) = 4.66842 6.57236 5.70044
#
# Compressibility (1/GPa) = 0.03660760
#
# Stress axis : x y z
#
# Youngs Moduli (GPa) = 111.88452 105.91671 19.07574
#
# Poissons Ratio (x) = 0.03646 0.16388
# Poissons Ratio (y) = 0.03851 0.15569
# Poissons Ratio (z) = 0.96120 0.86448
#
# Static dielectric constant tensor:
#      x y z
#    x 2.218600 -0.228950 0.055650 
#    y -0.228950 2.185470 -0.069960 
#    z 0.055650 -0.069960 2.024620 
# 
# From -- ./inp_files/604437.got.cif
#   From: 2010.05.17/outbox.cif.g08.bks.cpg/sg2_303_cif.got.tgz:604437.got - 2010.06.03 11:33:40.
