data_PCOD9053231
_publ_section_title
;
Structure prediction by ZEFSAII (Michael W. Deem and Ramdas Pophale) SiO2 
 PCOD9053231
Probable space group: P -1
;
_chemical_formula_sum "Si O2"
_cell_formula_units_Z 16
_cell_length_a 19.356581
_cell_length_b 4.949779
_cell_length_c 9.902457
_cell_angle_alpha 104.226258
_cell_angle_beta 37.380485
_cell_angle_gamma 102.093997
_cell_volume 558.170903
_symmetry_space_group_name_H-M "P -1"
_symmetry_group_IT_number 2
_symmetry_cell_setting 'triclinic'
loop_
_space_group_symop_operation_xyz
x,y,z
-x,-y,-z
loop_
_atom_site_type_symbol
_atom_site_label
_atom_site_fract_x
_atom_site_fract_y
_atom_site_fract_z
Si Si1 0.859279 0.446275 0.225320
Si Si2 0.766817 0.895124 0.259464
Si Si3 0.320646 0.478843 0.948507
Si Si4 0.318292 0.065433 0.145773
Si Si5 0.060529 0.499041 0.262812
Si Si6 0.406290 0.766823 0.584923
Si Si7 0.057118 0.069378 0.665969
Si Si8 0.377996 0.377982 0.336610
O O1 0.821910 0.592101 0.159344
O O2 0.739781 0.467816 0.497140
O O3 0.865060 0.117630 0.172164
O O4 0.991941 0.238764 0.265039
O O5 0.809204 0.532684 0.903120
O O6 0.667224 0.867356 0.522814
O O7 0.704888 0.046235 0.251399
O O8 0.384687 0.555056 0.716917
O O9 0.327454 0.218823 0.006856
O O10 0.347665 0.746840 0.034497
O O11 0.186455 0.057497 0.404612
O O12 0.403573 0.227333 0.138058
O O13 0.938473 0.677453 0.200079
O O14 0.000000 0.500000 0.500000
O O15 0.031909 0.797602 0.282060
O O16 0.435399 0.590696 0.381809
O O17 0.500000 0.000000 0.500000
#
# Coordination Sequence:
#
# PCOD9053231 Si02
#       8
#     2   2   2   2   2   2   2   2
#     4   8  17  31  60  94 117 165 223 254 303 393
#     4   9  18  37  65  92 119 170 226 257 322 396
#     4  12  27  41  65 104 139 173 226 288 332 386
#     4  11  22  40  69 101 134 175 227 274 329 395
#     4  12  21  34  57  97 137 179 214 271 327 398
#     4  11  26  49  72  96 134 180 223 277 349 410
#     4  11  19  34  62  95 134 179 216 258 335 393
#     4   8  21  39  71  94 125 179 218 269 333 409
#
# _framework density 28.665054999999999
#
# number of rings (size 3 to 8) (size 9 to 14) (size 15 to 20)
#    0.750    1.000    2.500    1.875    7.000    0.500 
#    0.000    1.250    0.000   19.500    0.000    0.000 
#    0.000    0.000    0.000    0.000    0.000    0.000 
#
# Total GULP energy -89454.128466 kJ/mol
# GULP energy per Si atom -5590.883029 kJ/mol
# Density = 2.859981 g / cm^3
# Si number density = 28.665055 Si / 1000 Ang^3
#
#
#
# Elastic Constant Matrix: (Units=GPa)
#
#
# Indices 1 2 3 4 5 6 
#
# 1 112.6746 38.0833 19.6004 -5.2984 19.3474 22.8350
# 2 38.0833 189.9886 26.3171 -10.0449 0.9786 5.1203
# 3 19.6004 26.3171 108.2707 -8.4910 3.6412 8.7962
# 4 -5.2984 -10.0449 -8.4910 42.9533 9.6923 2.3440
# 5 19.3474 0.9786 3.6412 9.6923 39.1958 0.9967
# 6 22.8350 5.1203 8.7962 2.3440 0.9967 75.8025
#
#
#
# Elastic Compliance Matrix: (Units=1/GPa)
#
#
# Indices 1 2 3 4 5 6 
#
# 1 0.011489 -0.001929 -0.000966 0.002309 -0.006022 -0.003211
# 2 -0.001929 0.005824 -0.001055 0.000739 0.000715 0.000278
# 3 -0.000966 -0.001055 0.009907 0.001829 -0.000848 -0.000833
# 4 0.002309 0.000739 0.001829 0.025928 -0.007697 -0.001658
# 5 -0.006022 0.000715 -0.000848 -0.007697 0.030407 0.001703
# 6 -0.003211 0.000278 -0.000833 -0.001658 0.001703 0.014266
#
#
# Mechanical properties :
#
#
# Convention : Reuss Voigt Hill
#
# Bulk Modulus (GPa) = 51.76425 64.32615 58.04520
# Shear Modulus (GPa) = 44.57844 53.38587 48.98215
#
# Velocity S-wave (km/s) = 3.94782 4.32024 4.13822
# Velocity P-wave (km/s) = 6.23521 6.88297 6.56708
#
# Compressibility (1/GPa) = 0.01931835
#
# Stress axis : x y z
#
# Youngs Moduli (GPa) = 87.04198 171.69534 100.93725
#
# Poissons Ratio (x) = 0.33127 0.09754
# Poissons Ratio (y) = 0.16794 0.10650
# Poissons Ratio (z) = 0.08411 0.18115
#
# Static dielectric constant tensor:
#      x y z
#    x 2.393410 0.161970 -0.036150 
#    y 0.161970 2.209410 0.161100 
#    z -0.036150 0.161100 2.478880 
# 
# From -- ./inp_files/458885.got.cif
#   From: 2010.05.17/outbox.cif.g08.bks.cpg/sg2_230_cif.got.tgz:458885.got - 2010.06.03 11:33:40.
