data_PCOD9053968
_publ_section_title
;
Structure prediction by ZEFSAII (Michael W. Deem and Ramdas Pophale) SiO2 
 PCOD9053968
Probable space group: P -1
;
_chemical_formula_sum "Si O2"
_cell_formula_units_Z 16
_cell_length_a 8.668953
_cell_length_b 13.435723
_cell_length_c 17.089559
_cell_angle_alpha 143.962288
_cell_angle_beta 144.295321
_cell_angle_gamma 47.186566
_cell_volume 681.893655
_symmetry_space_group_name_H-M "P -1"
_symmetry_group_IT_number 2
_symmetry_cell_setting 'triclinic'
loop_
_space_group_symop_operation_xyz
x,y,z
-x,-y,-z
loop_
_atom_site_type_symbol
_atom_site_label
_atom_site_fract_x
_atom_site_fract_y
_atom_site_fract_z
Si Si1 0.805005 0.776541 0.964131
Si Si2 0.279715 0.891542 0.066422
Si Si3 0.395370 0.740734 0.346735
Si Si4 0.389963 0.551815 0.642193
Si Si5 0.800465 0.805813 0.159039
Si Si6 0.043602 0.633662 0.705853
Si Si7 0.192603 0.050301 0.280008
Si Si8 0.310298 0.536247 0.019084
O O1 0.746518 0.746430 0.011473
O O2 0.046038 0.647973 0.956657
O O3 0.546062 0.708810 0.775561
O O4 0.916287 0.963404 0.126342
O O5 0.548980 0.932935 0.159057
O O6 0.343213 0.914380 0.198268
O O7 0.212010 0.705361 0.890303
O O8 0.000000 0.000000 0.000000
O O9 0.426292 0.607797 0.348353
O O10 0.629651 0.870020 0.530412
O O11 0.402131 0.639488 0.201561
O O12 0.109368 0.843121 0.305237
O O13 0.166553 0.505817 0.458393
O O14 0.226251 0.591329 0.679571
O O15 0.779004 0.644010 0.102414
O O16 0.864195 0.791601 0.699345
O O17 0.500000 0.500000 0.000000
#
# Coordination Sequence:
#
# PCOD9053968 Si02
#       8
#     2   2   2   2   2   2   2   2
#     4  11  20  36  60  89 117 153 195 234 293 347
#     4  10  20  39  56  84 119 157 189 236 296 341
#     4  10  20  39  60  87 117 152 202 230 289 351
#     4  10  17  35  63  86 107 155 202 236 278 348
#     4  11  20  37  63  83 114 157 194 237 288 350
#     4   9  19  35  61  83 114 154 198 240 287 333
#     4  10  23  36  57  88 122 155 190 243 287 345
#     4  11  21  35  61  89 117 147 188 247 293 339
#
# _framework density 23.464068999999999
#
# number of rings (size 3 to 8) (size 9 to 14) (size 15 to 20)
#    0.000    1.750    3.750    1.500    0.000    3.000 
#    0.000    1.875    0.000    0.000    0.000    0.000 
#    0.000    0.000    0.000    0.000    0.000    0.000 
#
# Total GULP energy -89070.836344 kJ/mol
# GULP energy per Si atom -5566.927271 kJ/mol
# Density = 2.341066 g / cm^3
# Si number density = 23.464069 Si / 1000 Ang^3
#
#
#
# Elastic Constant Matrix: (Units=GPa)
#
#
# Indices 1 2 3 4 5 6 
#
# 1 75.2145 37.7508 10.7960 -10.1236 30.0522 -6.5071
# 2 37.7508 -65.8104 44.9087 58.6406 -63.9244 -61.5593
# 3 10.7960 44.9087 176.7449 -19.5994 49.9240 6.0218
# 4 -10.1236 58.6406 -19.5994 -16.5621 41.7922 27.5862
# 5 30.0522 -63.9244 49.9240 41.7922 -6.0019 -25.2747
# 6 -6.5071 -61.5593 6.0218 27.5862 -25.2747 21.2268
#
#
#
# Elastic Compliance Matrix: (Units=1/GPa)
#
#
# Indices 1 2 3 4 5 6 
#
# 1 0.014881 0.000324 -0.000631 -0.005468 -0.004341 0.007617
# 2 0.000324 0.014890 0.002052 0.019232 -0.013392 0.001760
# 3 -0.000631 0.002052 0.005726 -0.001895 -0.003053 0.002962
# 4 -0.005468 0.019232 -0.001895 0.041261 0.005830 0.007955
# 5 -0.004341 -0.013392 -0.003053 0.005830 0.027751 -0.013836
# 6 0.007617 0.001760 0.002962 0.007955 -0.013836 0.026896
#
#
# Mechanical properties :
#
#
# Convention : Reuss Voigt Hill
#
# Bulk Modulus (GPa) = 25.64965 41.45111 33.55038
# Shear Modulus (GPa) = 35.48339 5.91210 20.69775
#
# Velocity S-wave (km/s) = 3.89298 1.58906 2.97325
# Velocity P-wave (km/s) = 5.58231 4.59031 5.11044
#
# Compressibility (1/GPa) = 0.03898689
#
# Stress axis : x y z
#
# Youngs Moduli (GPa) = 67.20088 67.15838 174.63432
#
# Poissons Ratio (x) = -0.02173 0.11020
# Poissons Ratio (y) = -0.02174 -0.35841
# Poissons Ratio (z) = 0.04241 -0.13783
#
# Static dielectric constant tensor:
#      x y z
#    x 1.906340 0.026370 -0.004300 
#    y 0.026370 2.238330 0.018120 
#    z -0.004300 0.018120 2.008230 
# 
# From -- ./inp_files/512762.got.cif
#   From: 2010.05.17/outbox.cif.g08.bks.cpg/sg2_257_cif.got.tgz:512762.got - 2010.06.03 11:33:40.
