data_PCOD9053622
_publ_section_title
;
Structure prediction by ZEFSAII (Michael W. Deem and Ramdas Pophale) SiO2 
 PCOD9053622
Probable space group: P -1
;
_chemical_formula_sum "Si O2"
_cell_formula_units_Z 16
_cell_length_a 9.490145
_cell_length_b 20.873962
_cell_length_c 7.858111
_cell_angle_alpha 93.488176
_cell_angle_beta 83.804095
_cell_angle_gamma 146.429252
_cell_volume 854.558085
_symmetry_space_group_name_H-M "P -1"
_symmetry_group_IT_number 2
_symmetry_cell_setting 'triclinic'
loop_
_space_group_symop_operation_xyz
x,y,z
-x,-y,-z
loop_
_atom_site_type_symbol
_atom_site_label
_atom_site_fract_x
_atom_site_fract_y
_atom_site_fract_z
Si Si1 0.006039 0.038470 0.326427
Si Si2 0.654821 0.427892 0.087731
Si Si3 0.893779 0.055066 0.846385
Si Si4 0.473599 0.099945 0.840868
Si Si5 0.249276 0.898016 0.403283
Si Si6 0.270766 0.272392 0.404661
Si Si7 0.462242 0.317153 0.759915
Si Si8 0.236774 0.664606 0.087439
O O1 0.108316 0.022590 0.182848
O O2 0.177575 0.166297 0.341539
O O3 0.000000 0.000000 0.500000
O O4 0.722778 0.950972 0.287963
O O5 0.449544 0.366710 0.248168
O O6 0.934129 0.561453 0.107785
O O7 0.558492 0.404131 0.903309
O O8 0.697935 0.365981 0.065415
O O9 0.798078 0.054946 0.689982
O O10 0.712095 0.004995 0.017346
O O11 0.188931 0.187976 0.844481
O O12 0.688158 0.134790 0.741652
O O13 0.608516 0.211826 0.926507
O O14 0.994276 0.790912 0.529903
O O15 0.500000 0.000000 0.500000
O O16 0.418284 0.322558 0.574322
O O17 0.663740 0.334654 0.755082
#
# Coordination Sequence:
#
# PCOD9053622 Si02
#       8
#     2   2   2   2   2   2   2   2
#     4  12  18  33  55  85 115 136 187 233 280 338
#     4   9  19  37  56  83 108 146 192 237 280 320
#     4  11  21  34  56  86 110 150 182 229 293 335
#     4  12  21  35  57  81 119 148 186 230 282 339
#     4  11  23  37  51  82 121 149 183 223 283 352
#     4  11  20  34  58  80 111 155 182 228 287 332
#     4   9  18  33  53  85 109 137 185 229 275 336
#     4   9  19  36  55  84 111 142 188 243 273 323
#
# _framework density 18.723129
#
# number of rings (size 3 to 8) (size 9 to 14) (size 15 to 20)
#    0.750    0.750    5.000    2.250    0.000    0.500 
#    0.000    0.625    0.000    3.000    0.000    0.000 
#    0.000    0.000    0.000    0.000    0.000    0.000 
#
# Total GULP energy -89169.153254 kJ/mol
# GULP energy per Si atom -5573.072078 kJ/mol
# Density = 1.868051 g / cm^3
# Si number density = 18.723129 Si / 1000 Ang^3
#
#
#
# Elastic Constant Matrix: (Units=GPa)
#
#
# Indices 1 2 3 4 5 6 
#
# 1 53.2558 16.5446 13.9065 1.1485 -7.2583 19.3557
# 2 16.5446 77.8171 35.7012 15.6343 11.7094 24.2081
# 3 13.9065 35.7012 58.4554 -2.2670 -2.5652 17.2343
# 4 1.1485 15.6343 -2.2670 22.1493 14.3669 1.2094
# 5 -7.2583 11.7094 -2.5652 14.3669 25.7149 0.5283
# 6 19.3557 24.2081 17.2343 1.2094 0.5283 25.4842
#
#
#
# Elastic Compliance Matrix: (Units=1/GPa)
#
#
# Indices 1 2 3 4 5 6 
#
# 1 0.028753 0.001082 -0.000756 -0.009901 0.013535 -0.022165
# 2 0.001082 0.028460 -0.013192 -0.018335 -0.003356 -0.017995
# 3 -0.000756 -0.013192 0.027707 0.010809 0.002646 -0.006200
# 4 -0.009901 -0.018335 0.010809 0.085967 -0.041693 0.014412
# 5 0.013535 -0.003356 0.002646 -0.041693 0.067965 -0.008312
# 6 -0.022165 -0.017995 -0.006200 0.014412 -0.008312 0.076850
#
#
# Mechanical properties :
#
#
# Convention : Reuss Voigt Hill
#
# Bulk Modulus (GPa) = 16.89555 35.75922 26.32739
# Shear Modulus (GPa) = 13.84416 22.89474 18.36945
#
# Velocity S-wave (km/s) = 2.72217 3.50066 3.13567
# Velocity P-wave (km/s) = 4.35014 5.95650 5.21554
#
# Compressibility (1/GPa) = 0.05918717
#
# Stress axis : x y z
#
# Youngs Moduli (GPa) = 34.77927 35.13739 36.09210
#
# Poissons Ratio (x) = -0.03800 0.02728
# Poissons Ratio (y) = -0.03762 0.47612
# Poissons Ratio (z) = 0.02629 0.46352
#
# Static dielectric constant tensor:
#      x y z
#    x 1.665060 0.010600 -0.020870 
#    y 0.010600 1.626720 0.017280 
#    z -0.020870 0.017280 1.694220 
# 
# From -- ./inp_files/222206.got.cif
#   From: 2010.05.17/outbox.cif.g08.bks.cpg/sg2_112_cif.got.tgz:222206.got - 2010.06.03 11:33:40.
