data_PCOD9053470
_publ_section_title
;
Structure prediction by ZEFSAII (Michael W. Deem and Ramdas Pophale) SiO2 
 PCOD9053470
Probable space group: P -1
;
_chemical_formula_sum "Si O2"
_cell_formula_units_Z 16
_cell_length_a 9.333946
_cell_length_b 30.432952
_cell_length_c 16.066913
_cell_angle_alpha 161.896449
_cell_angle_beta 46.121777
_cell_angle_gamma 143.614465
_cell_volume 774.335711
_symmetry_space_group_name_H-M "P -1"
_symmetry_group_IT_number 2
_symmetry_cell_setting 'triclinic'
loop_
_space_group_symop_operation_xyz
x,y,z
-x,-y,-z
loop_
_atom_site_type_symbol
_atom_site_label
_atom_site_fract_x
_atom_site_fract_y
_atom_site_fract_z
Si Si1 0.870815 0.327997 0.146013
Si Si2 0.721457 0.041602 0.545729
Si Si3 0.323654 0.171856 0.676117
Si Si4 0.466839 0.553070 0.340031
Si Si5 0.438638 0.004029 0.191548
Si Si6 0.385585 0.487378 0.434348
Si Si7 0.001991 0.935854 0.147558
Si Si8 0.862382 0.977114 0.928522
O O1 0.753038 0.425299 0.347607
O O2 0.173877 0.481082 0.324717
O O3 0.834258 0.211532 0.869572
O O4 0.720293 0.181722 0.020012
O O5 0.500000 0.000000 0.500000
O O6 0.588945 0.863738 0.338752
O O7 0.941758 0.057905 0.434589
O O8 0.450171 0.143357 0.499002
O O9 0.419193 0.376516 0.003156
O O10 0.000000 0.000000 0.500000
O O11 0.556367 0.575441 0.440385
O O12 0.665438 0.756756 0.587451
O O13 0.283023 0.996881 0.163151
O O14 0.696697 0.042189 0.128359
O O15 0.500000 0.500000 0.500000
O O16 0.185797 0.266829 0.099437
O O17 0.952459 0.921004 0.042489
O O18 0.000000 0.000000 0.000000
#
# Coordination Sequence:
#
# PCOD9053470 Si02
#       8
#     2   2   2   2   2   2   2   2
#     4  11  21  38  68 101 122 161 222 271 323 376
#     4  11  22  37  66 102 133 156 206 280 329 368
#     4  11  19  40  71 100 122 157 218 276 323 376
#     4  12  21  43  67  93 127 174 215 265 323 389
#     4  11  21  43  68  93 129 169 215 268 323 388
#     4  12  22  35  62  96 125 159 220 274 309 371
#     4  12  23  43  63  93 129 170 219 259 322 391
#     4  12  29  44  60  93 140 179 209 261 337 389
#
# _framework density 20.662870999999999
#
# number of rings (size 3 to 8) (size 9 to 14) (size 15 to 20)
#    0.000    0.500    7.500    3.000    3.500    0.000 
#    0.000    4.375    0.000    0.000    0.000    0.000 
#    0.000    0.000    0.000    0.000    0.000    0.000 
#
# Total GULP energy -89340.052218 kJ/mol
# GULP energy per Si atom -5583.753264 kJ/mol
# Density = 2.061584 g / cm^3
# Si number density = 20.662871 Si / 1000 Ang^3
#
#
#
# Elastic Constant Matrix: (Units=GPa)
#
#
# Indices 1 2 3 4 5 6 
#
# 1 114.3796 0.8452 15.2752 -16.7807 -12.0340 -13.8278
# 2 0.8452 53.4269 26.1484 -14.0200 -2.5130 -12.3724
# 3 15.2752 26.1484 126.2666 -27.9533 -19.1910 9.2828
# 4 -16.7807 -14.0200 -27.9533 36.9045 -0.4216 -0.8892
# 5 -12.0340 -2.5130 -19.1910 -0.4216 29.7841 -3.9505
# 6 -13.8278 -12.3724 9.2828 -0.8892 -3.9505 27.7199
#
#
#
# Elastic Compliance Matrix: (Units=1/GPa)
#
#
# Indices 1 2 3 4 5 6 
#
# 1 0.011439 0.004127 -0.000513 0.006660 0.005898 0.008774
# 2 0.004127 0.027447 -0.004941 0.008999 0.003142 0.016700
# 3 -0.000513 -0.004941 0.011886 0.006838 0.006427 -0.005306
# 4 0.006660 0.008999 0.006838 0.039015 0.009422 0.007643
# 5 0.005898 0.003142 0.006427 0.009422 0.041615 0.008425
# 6 0.008774 0.016700 -0.005306 0.007643 0.008425 0.051129
#
#
# Mechanical properties :
#
#
# Convention : Reuss Voigt Hill
#
# Bulk Modulus (GPa) = 20.78247 42.06786 31.42516
# Shear Modulus (GPa) = 24.84786 35.66864 30.25825
#
# Velocity S-wave (km/s) = 3.47152 4.15929 3.83087
# Velocity P-wave (km/s) = 5.11354 6.59315 5.89991
#
# Compressibility (1/GPa) = 0.04811749
#
# Stress axis : x y z
#
# Youngs Moduli (GPa) = 87.41964 36.43403 84.13328
#
# Poissons Ratio (x) = -0.15036 0.04315
# Poissons Ratio (y) = -0.36077 0.41572
# Poissons Ratio (z) = 0.04483 0.18003
#
# Static dielectric constant tensor:
#      x y z
#    x 1.768490 0.007210 0.033890 
#    y 0.007210 1.732490 -0.026660 
#    z 0.033890 -0.026660 1.758460 
# 
# From -- ./inp_files/206265.got.cif
#   From: 2010.05.17/outbox.cif.g08.bks.cpg/sg2_104_cif.got.tgz:206265.got - 2010.06.03 11:33:40.
