data_PCOD9053785
_publ_section_title
;
Structure prediction by ZEFSAII (Michael W. Deem and Ramdas Pophale) SiO2 
 PCOD9053785
Probable space group: P -1
;
_chemical_formula_sum "Si O2"
_cell_formula_units_Z 16
_cell_length_a 10.316236
_cell_length_b 8.302739
_cell_length_c 11.465760
_cell_angle_alpha 96.872734
_cell_angle_beta 42.808241
_cell_angle_gamma 96.199555
_cell_volume 662.274713
_symmetry_space_group_name_H-M "P -1"
_symmetry_group_IT_number 2
_symmetry_cell_setting 'triclinic'
loop_
_space_group_symop_operation_xyz
x,y,z
-x,-y,-z
loop_
_atom_site_type_symbol
_atom_site_label
_atom_site_fract_x
_atom_site_fract_y
_atom_site_fract_z
Si Si1 0.703553 0.953908 0.907722
Si Si2 0.868733 0.649627 0.825426
Si Si3 0.257478 0.569322 0.906977
Si Si4 0.034501 0.870011 0.065695
Si Si5 0.351581 0.365917 0.412098
Si Si6 0.943871 0.773807 0.558338
Si Si7 0.255203 0.742675 0.503811
Si Si8 0.633968 0.737411 0.352028
O O1 0.703429 0.779276 0.959849
O O2 0.842223 0.921129 0.703244
O O3 0.812013 0.073717 0.934419
O O4 0.500000 0.000000 0.000000
O O5 0.878090 0.622025 0.676815
O O6 0.835643 0.500859 0.918850
O O7 0.117481 0.698002 0.954963
O O8 0.468408 0.650808 0.793915
O O9 0.071980 0.750099 0.712098
O O10 0.299903 0.415427 0.783012
O O11 0.824218 0.843219 0.253388
O O12 0.000000 0.000000 0.000000
O O13 0.162608 0.262524 0.493079
O O14 0.295133 0.552015 0.464143
O O15 0.427384 0.321721 0.485203
O O16 0.167036 0.789258 0.441069
O O17 0.455385 0.822036 0.416485
#
# Coordination Sequence:
#
# PCOD9053785 Si02
#       8
#     2   2   2   2   2   2   2   2
#     4   9  20  43  63  93 130 165 205 262 314 373
#     4   8  20  39  70  91 129 162 218 259 312 358
#     4  11  22  40  65 100 126 165 214 272 312 371
#     4  12  26  43  66  93 125 168 215 264 323 375
#     4  11  20  37  62  97 129 163 206 262 322 375
#     4   8  20  37  65  89 132 163 211 254 310 369
#     4   8  18  37  58  93 126 165 204 260 311 370
#     4  11  24  39  64  93 125 165 209 262 321 378
#
# _framework density 24.15916
#
# number of rings (size 3 to 8) (size 9 to 14) (size 15 to 20)
#    1.500    0.500    0.000    4.500    0.000    5.500 
#    0.000    8.750    0.000    1.500    0.000    0.000 
#    0.000    0.000    0.000    0.000    0.000    0.000 
#
# Total GULP energy -89226.975101 kJ/mol
# GULP energy per Si atom -5576.685944 kJ/mol
# Density = 2.410417 g / cm^3
# Si number density = 24.159160 Si / 1000 Ang^3
#
#
#
# Elastic Constant Matrix: (Units=GPa)
#
#
# Indices 1 2 3 4 5 6 
#
# 1 174.1858 36.0806 48.6650 -1.9746 -44.3922 3.1597
# 2 36.0806 43.9257 17.4645 -2.9051 -4.5470 -18.9408
# 3 48.6650 17.4645 62.6345 -3.7028 -19.0061 -15.8686
# 4 -1.9746 -2.9051 -3.7028 25.4953 -4.4442 -0.4413
# 5 -44.3922 -4.5470 -19.0061 -4.4442 50.8728 6.8136
# 6 3.1597 -18.9408 -15.8686 -0.4413 6.8136 38.9044
#
#
#
# Elastic Compliance Matrix: (Units=1/GPa)
#
#
# Indices 1 2 3 4 5 6 
#
# 1 0.012279 -0.011182 -0.006455 0.000078 0.008731 -0.010602
# 2 -0.011182 0.040715 0.000566 0.002731 -0.008684 0.022513
# 3 -0.006455 0.000566 0.024422 0.003723 0.002479 0.010369
# 4 0.000078 0.002731 0.003723 0.040987 0.004957 0.002439
# 5 0.008731 -0.008684 0.002479 0.004957 0.029058 -0.008959
# 6 -0.010602 0.022513 0.010369 0.002439 -0.008959 0.043352
#
#
# Mechanical properties :
#
#
# Convention : Reuss Voigt Hill
#
# Bulk Modulus (GPa) = 23.10849 53.90735 38.50792
# Shear Modulus (GPa) = 20.88720 34.95690 27.92205
#
# Velocity S-wave (km/s) = 2.94354 3.80800 3.40333
# Velocity P-wave (km/s) = 4.59766 6.45727 5.60512
#
# Compressibility (1/GPa) = 0.04327413
#
# Stress axis : x y z
#
# Youngs Moduli (GPa) = 81.44075 24.56070 40.94622
#
# Poissons Ratio (x) = 0.27465 0.26429
# Poissons Ratio (y) = 0.91071 -0.02317
# Poissons Ratio (z) = 0.52567 -0.01390
#
# Static dielectric constant tensor:
#      x y z
#    x 1.980350 0.024040 -0.018120 
#    y 0.024040 1.983870 -0.006450 
#    z -0.018120 -0.006450 1.990620 
# 
# From -- ./inp_files/390174.got.cif
#   From: 2010.05.17/outbox.cif.g08.bks.cpg/sg2_196_cif.got.tgz:390174.got - 2010.06.03 11:33:40.
