data_PCOD9053525
_publ_section_title
;
Structure prediction by ZEFSAII (Michael W. Deem and Ramdas Pophale) SiO2 
 PCOD9053525
Probable space group: P -1
;
_chemical_formula_sum "Si O2"
_cell_formula_units_Z 14
_cell_length_a 21.397898
_cell_length_b 9.074278
_cell_length_c 15.107784
_cell_angle_alpha 32.429779
_cell_angle_beta 153.446326
_cell_angle_gamma 147.298230
_cell_volume 655.894467
_symmetry_space_group_name_H-M "P -1"
_symmetry_group_IT_number 2
_symmetry_cell_setting 'triclinic'
loop_
_space_group_symop_operation_xyz
x,y,z
-x,-y,-z
loop_
_atom_site_type_symbol
_atom_site_label
_atom_site_fract_x
_atom_site_fract_y
_atom_site_fract_z
Si Si1 0.547675 0.713846 0.214649
Si Si2 0.757945 0.696837 0.006914
Si Si3 0.954176 0.383223 0.901799
Si Si4 0.178337 0.621944 0.914969
Si Si5 0.521879 0.784028 0.327973
Si Si6 0.183334 0.245259 0.583195
Si Si7 0.654924 0.447055 0.200264
O O1 0.618905 0.763678 0.375884
O O2 0.653310 0.708857 0.272804
O O3 0.408188 0.408813 0.191859
O O4 0.500000 0.000000 0.000000
O O5 0.836036 0.543026 0.113878
O O6 0.721011 0.562055 0.127747
O O7 0.845682 0.043646 0.942951
O O8 0.878169 0.586300 0.652326
O O9 0.090855 0.419824 0.988151
O O10 0.000000 0.500000 0.000000
O O11 0.117254 0.890215 0.689066
O O12 0.353723 0.752663 0.099621
O O13 0.500000 0.500000 0.500000
O O14 0.604902 0.095521 0.319638
O O15 0.218168 0.394997 0.647261
O O16 0.500000 0.500000 0.000000
#
# Coordination Sequence:
#
# PCOD9053525 Si02
#       7
#     2   2   2   2   2   2   2
#     4  11  19  43  69 102 131 172 215 280 344 402
#     4  11  23  45  70  97 139 173 221 278 337 402
#     4  12  30  46  65  98 138 184 231 279 325 394
#     4  11  23  49  66  95 141 184 224 266 332 418
#     4  11  24  38  70 101 136 171 221 280 343 398
#     4  12  24  42  73  97 136 176 225 281 340 394
#     4  12  21  41  70 106 135 167 217 287 349 394
#
# _framework density 21.344899000000002
#
# number of rings (size 3 to 8) (size 9 to 14) (size 15 to 20)
#    0.000    0.571    7.143    1.714    6.000    0.571 
#    0.000    1.429    0.000    0.000    0.000    0.000 
#    0.000    0.000    0.000    0.000    0.000    0.000 
#
# Total GULP energy -78119.406526 kJ/mol
# GULP energy per Si atom -5579.957609 kJ/mol
# Density = 2.129632 g / cm^3
# Si number density = 21.344899 Si / 1000 Ang^3
#
#
#
# Elastic Constant Matrix: (Units=GPa)
#
#
# Indices 1 2 3 4 5 6 
#
# 1 149.3000 54.4044 36.5841 -16.6085 -23.1686 -9.3571
# 2 54.4044 166.8862 47.1984 -36.1079 -11.5917 -11.4175
# 3 36.5841 47.1984 99.2214 -19.6525 -23.1035 -15.6675
# 4 -16.6085 -36.1079 -19.6525 35.2632 4.3786 -5.6123
# 5 -23.1686 -11.5917 -23.1035 4.3786 25.7400 4.1063
# 6 -9.3571 -11.4175 -15.6675 -5.6123 4.1063 47.2881
#
#
#
# Elastic Compliance Matrix: (Units=1/GPa)
#
#
# Indices 1 2 3 4 5 6 
#
# 1 0.008660 -0.001964 -0.000491 0.001136 0.006169 0.000676
# 2 -0.001964 0.008883 -0.001930 0.007571 -0.001125 0.002113
# 3 -0.000491 -0.001930 0.015566 0.005793 0.010985 0.004328
# 4 0.001136 0.007571 0.005793 0.041111 0.001243 0.008743
# 5 0.006169 -0.001125 0.010985 0.001243 0.053530 0.000088
# 6 0.000676 0.002113 0.004328 0.008743 0.000088 0.024255
#
#
# Mechanical properties :
#
#
# Convention : Reuss Voigt Hill
#
# Bulk Modulus (GPa) = 41.08561 76.86460 58.97510
# Shear Modulus (GPa) = 29.60571 40.13965 34.87268
#
# Velocity S-wave (km/s) = 3.72831 4.34121 4.04638
# Velocity P-wave (km/s) = 6.15012 7.82413 7.03708
#
# Compressibility (1/GPa) = 0.02433942
#
# Stress axis : x y z
#
# Youngs Moduli (GPa) = 115.47643 112.57970 64.24260
#
# Poissons Ratio (x) = 0.22108 0.03152
# Poissons Ratio (y) = 0.22677 0.12399
# Poissons Ratio (z) = 0.05666 0.21728
#
# Static dielectric constant tensor:
#      x y z
#    x 1.820920 0.029960 0.125710 
#    y 0.029960 1.779170 0.087200 
#    z 0.125710 0.087200 1.733840 
# 
# From -- ./inp_files/184546.got.cif
#   From: 2010.05.17/outbox.cif.g08.bks.cpg/sg2_93_cif.got.tgz:184546.got - 2010.06.03 11:33:40.
