data_PCOD9053170
_publ_section_title
;
Structure prediction by ZEFSAII (Michael W. Deem and Ramdas Pophale) SiO2 
 PCOD9053170
Probable space group: P -1
;
_chemical_formula_sum "Si O2"
_cell_formula_units_Z 16
_cell_length_a 16.891764
_cell_length_b 7.540938
_cell_length_c 11.417965
_cell_angle_alpha 63.860925
_cell_angle_beta 101.770362
_cell_angle_gamma 49.641422
_cell_volume 695.335223
_symmetry_space_group_name_H-M "P -1"
_symmetry_group_IT_number 2
_symmetry_cell_setting 'triclinic'
loop_
_space_group_symop_operation_xyz
x,y,z
-x,-y,-z
loop_
_atom_site_type_symbol
_atom_site_label
_atom_site_fract_x
_atom_site_fract_y
_atom_site_fract_z
Si Si1 0.230522 0.705119 0.141108
Si Si2 0.520672 0.043945 0.253599
Si Si3 0.844378 0.951134 0.547441
Si Si4 0.025117 0.924195 0.668904
Si Si5 0.933263 0.788317 0.264786
Si Si6 0.309691 0.551871 0.854641
Si Si7 0.436334 0.423907 0.466619
Si Si8 0.714259 0.796694 0.575504
O O1 0.366098 0.392955 0.178850
O O2 0.289539 0.725475 0.256214
O O3 0.194465 0.573621 0.234868
O O4 0.104940 0.061680 0.921309
O O5 0.571342 0.716290 0.390031
O O6 0.651856 0.902621 0.393224
O O7 0.471121 0.191011 0.063256
O O8 0.930236 0.924307 0.667480
O O9 0.777730 0.883255 0.593714
O O10 0.974457 0.599858 0.602672
O O11 0.722598 0.313558 0.325918
O O12 0.204902 0.571934 0.840257
O O13 0.000000 0.000000 0.500000
O O14 0.979281 0.209736 0.647385
O O15 0.778354 0.099879 0.197579
O O16 0.500000 0.500000 0.500000
O O17 0.561501 0.085026 0.516335
#
# Coordination Sequence:
#
# PCOD9053170 Si02
#       8
#     2   2   2   2   2   2   2   2
#     4   8  16  34  51  71  97 132 171 206 244 299
#     4   8  15  33  54  68  96 131 165 206 243 297
#     4  11  19  32  51  77 104 135 164 207 255 305
#     4   8  18  32  49  73  99 133 172 207 239 286
#     4   9  18  33  54  71 100 137 177 197 244 300
#     4   8  17  32  53  73  95 133 173 204 242 289
#     4   9  17  32  55  76  96 129 174 209 248 301
#     4   9  19  32  50  74 103 129 161 207 264 300
#
# _framework density 23.010486
#
# number of rings (size 3 to 8) (size 9 to 14) (size 15 to 20)
#    0.750    2.500    0.000    1.875    0.000    2.000 
#    4.500    0.625    0.000    0.750    0.000    0.000 
#    0.000    0.000    0.000    0.000    0.000    0.000 
#
# Total GULP energy -89068.548263 kJ/mol
# GULP energy per Si atom -5566.784266 kJ/mol
# Density = 2.295811 g / cm^3
# Si number density = 23.010486 Si / 1000 Ang^3
#
#
#
# Elastic Constant Matrix: (Units=GPa)
#
#
# Indices 1 2 3 4 5 6 
#
# 1 92.4512 22.8505 23.8839 4.1075 -2.6458 25.5503
# 2 22.8505 53.9926 36.3973 12.9865 6.7443 21.1203
# 3 23.8839 36.3973 146.5373 15.2909 -7.0975 16.6567
# 4 4.1075 12.9865 15.2909 15.5505 0.4018 4.5258
# 5 -2.6458 6.7443 -7.0975 0.4018 15.2825 -1.7567
# 6 25.5503 21.1203 16.6567 4.5258 -1.7567 43.1529
#
#
#
# Elastic Compliance Matrix: (Units=1/GPa)
#
#
# Indices 1 2 3 4 5 6 
#
# 1 0.013583 -0.003788 -0.000641 0.001880 0.002985 -0.006017
# 2 -0.003788 0.035861 -0.005918 -0.019166 -0.020086 -0.011832
# 3 -0.000641 -0.005918 0.009113 -0.004166 0.006897 0.000476
# 4 0.001880 -0.019166 -0.004166 0.083403 0.004808 0.001324
# 5 0.002985 -0.020086 0.006897 0.004808 0.078824 0.008106
# 6 -0.006017 -0.011832 0.000476 0.001324 0.008106 0.032534
#
#
# Mechanical properties :
#
#
# Convention : Reuss Voigt Hill
#
# Bulk Modulus (GPa) = 26.41031 51.02718 38.71874
# Shear Modulus (GPa) = 17.44397 28.78713 23.11555
#
# Velocity S-wave (km/s) = 2.75633 3.54085 3.17293
# Velocity P-wave (km/s) = 4.65104 6.24024 5.50331
#
# Compressibility (1/GPa) = 0.03786400
#
# Stress axis : x y z
#
# Youngs Moduli (GPa) = 73.62145 27.88578 109.73041
#
# Poissons Ratio (x) = 0.10563 0.07030
# Poissons Ratio (y) = 0.27888 0.64936
# Poissons Ratio (z) = 0.04717 0.16502
#
# Static dielectric constant tensor:
#      x y z
#    x 1.905270 -0.067640 0.001460 
#    y -0.067640 1.952810 0.017370 
#    z 0.001460 0.017370 1.857130 
# 
# From -- ./inp_files/536927.got.cif
#   From: 2010.05.17/outbox.cif.g08.bks.cpg/sg2_269_cif.got.tgz:536927.got - 2010.06.03 11:33:40.
