data_PCOD9053751
_publ_section_title
;
Structure prediction by ZEFSAII (Michael W. Deem and Ramdas Pophale) SiO2 
 PCOD9053751
Probable space group: P -1
;
_chemical_formula_sum "Si O2"
_cell_formula_units_Z 12
_cell_length_a 13.826459
_cell_length_b 5.032134
_cell_length_c 20.390973
_cell_angle_alpha 92.058841
_cell_angle_beta 19.887638
_cell_angle_gamma 94.784879
_cell_volume 477.141121
_symmetry_space_group_name_H-M "P -1"
_symmetry_group_IT_number 2
_symmetry_cell_setting 'triclinic'
loop_
_space_group_symop_operation_xyz
x,y,z
-x,-y,-z
loop_
_atom_site_type_symbol
_atom_site_label
_atom_site_fract_x
_atom_site_fract_y
_atom_site_fract_z
Si Si1 0.311056 0.427147 0.313348
Si Si2 0.684869 0.410859 0.441879
Si Si3 0.341543 0.490779 0.032208
Si Si4 0.586395 0.999408 0.194561
Si Si5 0.003660 0.069708 0.168312
Si Si6 0.771423 0.344496 0.193697
O O1 0.331833 0.168233 0.341465
O O2 0.000000 0.500000 0.500000
O O3 0.490472 0.689616 0.235646
O O4 0.448866 0.368790 0.155087
O O5 0.500000 0.500000 0.500000
O O6 0.491041 0.489311 0.624904
O O7 0.014380 0.564943 0.239901
O O8 0.745583 0.104127 0.385384
O O9 0.268638 0.188265 0.046956
O O10 0.500000 0.500000 0.000000
O O11 0.668518 0.070227 0.217083
O O12 0.854048 0.116344 0.975364
O O13 0.909455 0.269677 0.173568
O O14 0.000000 0.500000 0.000000
#
# Coordination Sequence:
#
# PCOD9053751 Si02
#       6
#     2   2   2   2   2   2
#     4  11  25  45  70 101 138 184 232 288 341 414
#     4   8  18  37  64  91 142 177 226 280 347 400
#     4   9  19  39  66  91 138 177 232 272 346 403
#     4  11  23  42  72 100 139 177 234 286 348 405
#     4   8  19  39  59  94 136 176 218 280 338 406
#     4  11  20  36  71 103 139 176 230 284 350 410
#
# _framework density 25.149792000000001
#
# number of rings (size 3 to 8) (size 9 to 14) (size 15 to 20)
#    1.000    1.333    0.000    3.000    2.333    0.000 
#    0.000    4.167    7.333    0.000    0.000    0.000 
#    0.000    0.000    0.000    0.000    0.000    0.000 
#
# Total GULP energy -66825.494144 kJ/mol
# GULP energy per Si atom -5568.791179 kJ/mol
# Density = 2.509255 g / cm^3
# Si number density = 25.149792 Si / 1000 Ang^3
#
#
#
# Elastic Constant Matrix: (Units=GPa)
#
#
# Indices 1 2 3 4 5 6 
#
# 1 138.0837 37.6645 43.4178 -0.7857 -13.6375 39.2025
# 2 37.6645 67.8301 15.8275 18.8194 3.3606 26.4905
# 3 43.4178 15.8275 191.0100 32.8966 -6.7913 15.1739
# 4 -0.7857 18.8194 32.8966 40.9726 4.3241 -4.4115
# 5 -13.6375 3.3606 -6.7913 4.3241 46.3923 7.2204
# 6 39.2025 26.4905 15.1739 -4.4115 7.2204 42.1522
#
#
#
# Elastic Compliance Matrix: (Units=1/GPa)
#
#
# Indices 1 2 3 4 5 6 
#
# 1 0.011666 -0.003424 -0.001841 0.001863 0.004576 -0.008624
# 2 -0.003424 0.027201 0.002830 -0.016833 0.001648 -0.016973
# 3 -0.001841 0.002830 0.007071 -0.007573 0.001566 -0.003673
# 4 0.001863 -0.016833 -0.007573 0.040672 -0.005749 0.016814
# 5 0.004576 0.001648 0.001566 -0.005749 0.025224 -0.010778
# 6 -0.008624 -0.016973 -0.003673 0.016814 -0.010778 0.047339
#
#
# Mechanical properties :
#
#
# Convention : Reuss Voigt Hill
#
# Bulk Modulus (GPa) = 24.34932 65.63817 44.99375
# Shear Modulus (GPa) = 28.13250 45.90437 37.01843
#
# Velocity S-wave (km/s) = 3.34817 4.27692 3.84072
# Velocity P-wave (km/s) = 4.96485 7.10949 6.13167
#
# Compressibility (1/GPa) = 0.04106890
#
# Stress axis : x y z
#
# Youngs Moduli (GPa) = 85.72183 36.76356 141.42131
#
# Poissons Ratio (x) = 0.12587 0.26036
# Poissons Ratio (y) = 0.29348 -0.40027
# Poissons Ratio (z) = 0.15782 -0.10405
#
# Static dielectric constant tensor:
#      x y z
#    x 2.010490 -0.065480 0.095410 
#    y -0.065480 2.147180 -0.023950 
#    z 0.095410 -0.023950 2.122720 
# 
# From -- ./inp_files/62346.got.cif
#   From: 2010.05.17/outbox.cif.g08.bks.cpg/sg2_32_cif.got.tgz:62346.got - 2010.06.03 11:33:40.
