data_PCOD9053557
_publ_section_title
;
Structure prediction by ZEFSAII (Michael W. Deem and Ramdas Pophale) SiO2 
 PCOD9053557
Probable space group: P -1
;
_chemical_formula_sum "Si O2"
_cell_formula_units_Z 16
_cell_length_a 7.140087
_cell_length_b 20.450444
_cell_length_c 14.374369
_cell_angle_alpha 140.336187
_cell_angle_beta 138.862646
_cell_angle_gamma 31.494188
_cell_volume 669.780432
_symmetry_space_group_name_H-M "P -1"
_symmetry_group_IT_number 2
_symmetry_cell_setting 'triclinic'
loop_
_space_group_symop_operation_xyz
x,y,z
-x,-y,-z
loop_
_atom_site_type_symbol
_atom_site_label
_atom_site_fract_x
_atom_site_fract_y
_atom_site_fract_z
Si Si1 0.695961 0.436070 0.880475
Si Si2 0.161966 0.901291 0.124830
Si Si3 0.251810 0.346903 0.816132
Si Si4 0.353456 0.586116 0.449153
Si Si5 0.076147 0.591954 0.673907
Si Si6 0.247876 0.169435 0.892146
Si Si7 0.724672 0.874135 0.783236
Si Si8 0.298681 0.807817 0.762752
O O1 0.276940 0.533177 0.785615
O O2 0.990521 0.378307 0.841838
O O3 0.849904 0.303854 0.852696
O O4 0.746324 0.531114 0.057924
O O5 0.351147 0.791391 0.155565
O O6 0.464763 0.866417 0.122793
O O7 0.932792 0.055572 0.233992
O O8 0.888072 0.894561 0.956082
O O9 0.079636 0.328423 0.643705
O O10 0.500000 0.500000 0.500000
O O11 0.554172 0.470293 0.318732
O O12 0.438715 0.685007 0.613075
O O13 0.000000 0.500000 0.500000
O O14 0.778692 0.745233 0.695357
O O15 0.344640 0.026343 0.786094
O O16 0.393832 0.202047 0.071559
O O17 0.007676 0.828204 0.751870
#
# Coordination Sequence:
#
# PCOD9053557 Si02
#       8
#     2   2   2   2   2   2   2   2
#     4   9  16  29  47  72  97 122 172 204 234 283
#     4   8  14  26  46  75  99 125 159 203 246 282
#     4   9  16  25  47  73 100 126 156 208 246 279
#     4  11  20  30  48  74 103 128 158 203 254 287
#     4  11  22  34  51  72  99 134 165 199 244 293
#     4   8  15  26  50  74  97 126 163 205 238 281
#     4   9  15  30  49  73  98 127 164 200 239 287
#     4   9  16  27  47  76 104 123 154 202 254 291
#
# _framework density 23.888427
#
# number of rings (size 3 to 8) (size 9 to 14) (size 15 to 20)
#    0.000    2.750    2.500    2.250    3.500    0.500 
#    0.000    0.625    0.000    6.000    0.000    0.000 
#    0.000    0.000    0.000    0.000    0.000    0.000 
#
# Total GULP energy -89216.910537 kJ/mol
# GULP energy per Si atom -5576.056909 kJ/mol
# Density = 2.383406 g / cm^3
# Si number density = 23.888427 Si / 1000 Ang^3
#
#
#
# Elastic Constant Matrix: (Units=GPa)
#
#
# Indices 1 2 3 4 5 6 
#
# 1 52.3435 43.9700 5.4545 9.5083 -7.4294 -0.5399
# 2 43.9700 213.0328 47.6535 26.8637 -5.2352 43.7306
# 3 5.4545 47.6535 70.6646 16.6828 -1.9628 17.8196
# 4 9.5083 26.8637 16.6828 43.7615 5.0453 1.4490
# 5 -7.4294 -5.2352 -1.9628 5.0453 26.8080 14.4284
# 6 -0.5399 43.7306 17.8196 1.4490 14.4284 38.0142
#
#
#
# Elastic Compliance Matrix: (Units=1/GPa)
#
#
# Indices 1 2 3 4 5 6 
#
# 1 0.025286 -0.006314 0.001629 -0.002815 0.003361 0.005691
# 2 -0.006314 0.009983 -0.001355 -0.004759 0.008528 -0.013994
# 3 0.001629 -0.001355 0.019707 -0.007700 0.008849 -0.010720
# 4 -0.002815 -0.004759 -0.007700 0.030644 -0.015432 0.013734
# 5 0.003361 0.008528 0.008849 -0.015432 0.063617 -0.037468
# 6 0.005691 -0.013994 -0.010720 0.013734 -0.037468 0.061207
#
#
# Mechanical properties :
#
#
# Convention : Reuss Voigt Hill
#
# Bulk Modulus (GPa) = 23.31303 58.91077 41.11190
# Shear Modulus (GPa) = 21.11284 37.64758 29.38021
#
# Velocity S-wave (km/s) = 2.97612 3.97416 3.51079
# Velocity P-wave (km/s) = 4.64651 6.76557 5.80358
#
# Compressibility (1/GPa) = 0.04289447
#
# Stress axis : x y z
#
# Youngs Moduli (GPa) = 39.54785 100.17244 50.74452
#
# Poissons Ratio (x) = 0.63249 -0.08266
# Poissons Ratio (y) = 0.24971 0.06878
# Poissons Ratio (z) = -0.06442 0.13577
#
# Static dielectric constant tensor:
#      x y z
#    x 1.976750 -0.002520 0.001340 
#    y -0.002520 1.908670 -0.002410 
#    z 0.001340 -0.002410 1.895420 
# 
# From -- ./inp_files/245107.got.cif
#   From: 2010.05.17/outbox.cif.g08.bks.cpg/sg2_123_cif.got.tgz:245107.got - 2010.06.03 11:33:40.
