data_PCOD9053934
_publ_section_title
;
Structure prediction by ZEFSAII (Michael W. Deem and Ramdas Pophale) SiO2 
 PCOD9053934
Probable space group: P -1
;
_chemical_formula_sum "Si O2"
_cell_formula_units_Z 16
_cell_length_a 9.360629
_cell_length_b 16.248365
_cell_length_c 7.950819
_cell_angle_alpha 103.413303
_cell_angle_beta 148.991451
_cell_angle_gamma 78.357935
_cell_volume 605.975180
_symmetry_space_group_name_H-M "P -1"
_symmetry_group_IT_number 2
_symmetry_cell_setting 'triclinic'
loop_
_space_group_symop_operation_xyz
x,y,z
-x,-y,-z
loop_
_atom_site_type_symbol
_atom_site_label
_atom_site_fract_x
_atom_site_fract_y
_atom_site_fract_z
Si Si1 0.252951 0.570741 0.245189
Si Si2 0.564645 0.118188 0.712872
Si Si3 0.534715 0.293682 0.978693
Si Si4 0.977600 0.595683 0.582702
Si Si5 0.690379 0.831588 0.077988
Si Si6 0.832759 0.659623 0.798761
Si Si7 0.069640 0.151557 0.040169
Si Si8 0.831667 0.073675 0.275669
O O1 0.500000 0.500000 0.500000
O O2 0.514918 0.637239 0.479344
O O3 0.000000 0.500000 0.000000
O O4 0.051222 0.647222 0.163491
O O5 0.560718 0.207853 0.853593
O O6 0.703808 0.055224 0.956368
O O7 0.755896 0.129504 0.748834
O O8 0.262427 0.097264 0.332947
O O9 0.427883 0.259561 0.033777
O O10 0.817246 0.344173 0.279597
O O11 0.321554 0.363178 0.723013
O O12 0.034087 0.598556 0.844933
O O13 0.000000 0.500000 0.500000
O O14 0.829081 0.846281 0.046562
O O15 0.430647 0.894576 0.867546
O O16 0.935909 0.853352 0.467255
O O17 0.875641 0.751180 0.807131
O O18 0.000000 0.000000 0.500000
#
# Coordination Sequence:
#
# PCOD9053934 Si02
#       8
#     2   2   2   2   2   2   2   2
#     4   9  20  38  55  79 117 162 210 264 346 416
#     4  11  21  41  73  97 131 185 226 269 331 417
#     4  11  21  44  64  92 126 180 232 274 339 411
#     4  12  24  40  64  90 125 170 238 297 334 393
#     4  11  25  44  70 103 140 175 226 285 333 405
#     4  11  20  39  63  86 123 169 225 288 340 392
#     4  12  23  41  69 102 134 174 233 280 336 395
#     4  11  24  47  74 105 141 183 221 266 334 412
#
# _framework density 26.403721000000001
#
# number of rings (size 3 to 8) (size 9 to 14) (size 15 to 20)
#    0.000    1.000    2.500    6.000    0.000    0.000 
#   13.500    3.750    0.000    0.000    0.000    0.000 
#    0.000    0.000    0.000    0.000    0.000    0.000 
#
# Total GULP energy -89198.305171 kJ/mol
# GULP energy per Si atom -5574.894073 kJ/mol
# Density = 2.634362 g / cm^3
# Si number density = 26.403721 Si / 1000 Ang^3
#
#
#
# Elastic Constant Matrix: (Units=GPa)
#
#
# Indices 1 2 3 4 5 6 
#
# 1 132.6878 28.8668 27.9501 -4.3287 17.1928 -1.2405
# 2 28.8668 92.7672 18.9598 -13.0424 -4.7999 1.6581
# 3 27.9501 18.9598 151.7419 -23.2529 34.3492 -13.3990
# 4 -4.3287 -13.0424 -23.2529 49.8672 6.9604 -1.5833
# 5 17.1928 -4.7999 34.3492 6.9604 51.5039 -0.5570
# 6 -1.2405 1.6581 -13.3990 -1.5833 -0.5570 32.5252
#
#
#
# Elastic Compliance Matrix: (Units=1/GPa)
#
#
# Indices 1 2 3 4 5 6 
#
# 1 0.008607 -0.002681 -0.000586 0.000162 -0.002752 0.000184
# 2 -0.002681 0.012349 -0.001498 0.001872 0.002779 -0.001210
# 3 -0.000586 -0.001498 0.009632 0.005160 -0.007020 0.004153
# 4 0.000162 0.001872 0.005160 0.023973 -0.006528 0.003092
# 5 -0.002752 0.002779 -0.007020 -0.006528 0.026125 -0.003009
# 6 0.000184 -0.001210 0.004153 0.003092 -0.003009 0.032624
#
#
# Mechanical properties :
#
#
# Convention : Reuss Voigt Hill
#
# Bulk Modulus (GPa) = 47.49136 58.75002 53.12069
# Shear Modulus (GPa) = 38.50320 46.87394 42.68857
#
# Velocity S-wave (km/s) = 3.82285 4.21798 4.02526
# Velocity P-wave (km/s) = 6.12464 6.78386 6.46266
#
# Compressibility (1/GPa) = 0.02105646
#
# Stress axis : x y z
#
# Youngs Moduli (GPa) = 116.18578 80.97935 103.82155
#
# Poissons Ratio (x) = 0.21713 0.06086
# Poissons Ratio (y) = 0.31153 0.15554
# Poissons Ratio (z) = 0.06811 0.12132
#
# Static dielectric constant tensor:
#      x y z
#    x 0.000000 0.000000 0.000000 
#    y 0.000000 0.000000 0.000000 
#    z 0.000000 0.000000 0.000000 
# 
# From -- ./inp_files/217765.got.cif
#   From: 2010.05.17/outbox.cif.g08.bks.cpg/sg2_109_cif.got.tgz:217765.got - 2010.06.03 11:33:40.
