data_PCOD9053598
_publ_section_title
;
Structure prediction by ZEFSAII (Michael W. Deem and Ramdas Pophale) SiO2 
 PCOD9053598
Probable space group: P -1
;
_chemical_formula_sum "Si O2"
_cell_formula_units_Z 16
_cell_length_a 11.924066
_cell_length_b 20.905529
_cell_length_c 9.028873
_cell_angle_alpha 109.112141
_cell_angle_beta 94.091927
_cell_angle_gamma 147.166393
_cell_volume 849.400702
_symmetry_space_group_name_H-M "P -1"
_symmetry_group_IT_number 2
_symmetry_cell_setting 'triclinic'
loop_
_space_group_symop_operation_xyz
x,y,z
-x,-y,-z
loop_
_atom_site_type_symbol
_atom_site_label
_atom_site_fract_x
_atom_site_fract_y
_atom_site_fract_z
Si Si1 0.228618 0.394650 0.095283
Si Si2 0.702739 0.702417 0.168285
Si Si3 0.251299 0.055722 0.015603
Si Si4 0.079586 0.874204 0.603903
Si Si5 0.699862 0.765774 0.921886
Si Si6 0.424415 0.948683 0.285257
Si Si7 0.371657 0.860797 0.805537
Si Si8 0.226180 0.413716 0.456778
O O1 0.437690 0.557372 0.144484
O O2 0.283763 0.423037 0.299019
O O3 0.286519 0.355158 0.988994
O O4 0.905614 0.237617 0.919997
O O5 0.957625 0.828935 0.400412
O O6 0.691896 0.757451 0.092969
O O7 0.355936 0.189504 0.108590
O O8 0.487676 0.130016 0.120690
O O9 0.094791 0.946004 0.768206
O O10 0.015151 0.921384 0.018254
O O11 0.889655 0.711614 0.545051
O O12 0.386266 0.009980 0.718086
O O13 0.479341 0.593341 0.693156
O O14 0.500000 0.000000 0.500000
O O15 0.539340 0.077618 0.307841
O O16 0.040268 0.683036 0.655482
O O17 0.500000 0.000000 0.000000
#
# Coordination Sequence:
#
# PCOD9053598 Si02
#       8
#     2   2   2   2   2   2   2   2
#     4  11  20  34  58  87 127 146 200 246 297 347
#     4  11  23  34  54  90 119 160 192 246 296 350
#     4  11  23  44  62  86 120 162 203 241 298 357
#     4  11  21  37  64  89 117 156 201 248 293 344
#     4  11  26  40  59  87 127 163 196 242 296 363
#     4  11  20  33  58  94 117 145 187 256 302 342
#     4  11  20  38  65  92 111 151 206 252 290 347
#     4  11  21  39  63  92 117 157 200 251 295 345
#
# _framework density 18.836811999999998
#
# number of rings (size 3 to 8) (size 9 to 14) (size 15 to 20)
#    0.000    1.000    5.000    3.750    1.750    2.500 
#    0.000    0.000    0.000    1.500    0.000    0.000 
#    0.000    0.000    0.000    0.000    0.000    0.000 
#
# Total GULP energy -89298.211165 kJ/mol
# GULP energy per Si atom -5581.138198 kJ/mol
# Density = 1.879394 g / cm^3
# Si number density = 18.836812 Si / 1000 Ang^3
#
#
#
# Elastic Constant Matrix: (Units=GPa)
#
#
# Indices 1 2 3 4 5 6 
#
# 1 74.1323 31.0597 30.9972 12.2245 14.4494 9.4960
# 2 31.0597 92.5540 41.1098 -10.6291 10.7728 6.5862
# 3 30.9972 41.1098 87.9097 -14.6543 8.5363 -9.7304
# 4 12.2245 -10.6291 -14.6543 40.9719 4.0149 6.2816
# 5 14.4494 10.7728 8.5363 4.0149 31.0309 5.5884
# 6 9.4960 6.5862 -9.7304 6.2816 5.5884 21.2307
#
#
#
# Elastic Compliance Matrix: (Units=1/GPa)
#
#
# Indices 1 2 3 4 5 6 
#
# 1 0.021592 -0.003645 -0.007891 -0.008505 -0.003972 -0.008581
# 2 -0.003645 0.015867 -0.006056 0.004244 -0.001444 -0.006943
# 3 -0.007891 -0.006056 0.019766 0.006076 -0.002864 0.013423
# 4 -0.008505 0.004244 0.006076 0.030966 -0.002614 -0.003202
# 5 -0.003972 -0.001444 -0.002864 -0.002614 0.037161 -0.008096
# 6 -0.008581 -0.006943 0.013423 -0.003202 -0.008096 0.062324
#
#
# Mechanical properties :
#
#
# Convention : Reuss Voigt Hill
#
# Bulk Modulus (GPa) = 45.36677 51.21440 48.29058
# Shear Modulus (GPa) = 21.71966 28.74197 25.23082
#
# Velocity S-wave (km/s) = 3.39933 3.91044 3.66381
# Velocity P-wave (km/s) = 6.28838 6.90190 6.60227
#
# Compressibility (1/GPa) = 0.02204256
#
# Stress axis : x y z
#
# Youngs Moduli (GPa) = 46.31371 63.02443 50.59135
#
# Poissons Ratio (x) = 0.22971 0.39921
# Poissons Ratio (y) = 0.16880 0.30636
# Poissons Ratio (z) = 0.36545 0.38165
#
# Static dielectric constant tensor:
#      x y z
#    x 1.668390 0.000670 0.021140 
#    y 0.000670 1.713690 -0.028340 
#    z 0.021140 -0.028340 1.687140 
# 
# From -- ./inp_files/282113.got.cif
#   From: 2010.05.17/outbox.cif.g08.bks.cpg/sg2_142_cif.got.tgz:282113.got - 2010.06.03 11:33:40.
