data_PCOD9053720
_publ_section_title
;
Structure prediction by ZEFSAII (Michael W. Deem and Ramdas Pophale) SiO2 
 PCOD9053720
Probable space group: P -1
;
_chemical_formula_sum "Si O2"
_cell_formula_units_Z 16
_cell_length_a 19.076272
_cell_length_b 10.395541
_cell_length_c 8.266170
_cell_angle_alpha 58.447604
_cell_angle_beta 42.964648
_cell_angle_gamma 38.333701
_cell_volume 687.939547
_symmetry_space_group_name_H-M "P -1"
_symmetry_group_IT_number 2
_symmetry_cell_setting 'triclinic'
loop_
_space_group_symop_operation_xyz
x,y,z
-x,-y,-z
loop_
_atom_site_type_symbol
_atom_site_label
_atom_site_fract_x
_atom_site_fract_y
_atom_site_fract_z
Si Si1 0.249702 0.176634 0.390412
Si Si2 0.378796 0.988902 0.952089
Si Si3 0.900744 0.768870 0.883734
Si Si4 0.028569 0.632341 0.090049
Si Si5 0.511174 0.788411 0.390483
Si Si6 0.420305 0.435322 0.246120
Si Si7 0.746813 0.485665 0.964531
Si Si8 0.118995 0.760953 0.402018
O O1 0.090983 0.290337 0.628392
O O2 0.253622 0.351367 0.233022
O O3 0.355121 0.005569 0.462405
O O4 0.312332 0.046973 0.203672
O O5 0.526461 0.754623 0.833367
O O6 0.405683 0.137065 0.768617
O O7 0.261142 0.026580 0.015207
O O8 0.903999 0.586469 0.961363
O O9 0.022669 0.708618 0.600942
O O10 0.946991 0.778775 0.975395
O O11 0.146442 0.607637 0.001145
O O12 0.529484 0.664279 0.595412
O O13 0.590612 0.627987 0.211140
O O14 0.250479 0.622688 0.395400
O O15 0.500000 0.500000 0.000000
O O16 0.805898 0.304952 0.856217
O O17 0.000000 0.000000 0.500000
#
# Coordination Sequence:
#
# PCOD9053720 Si02
#       8
#     2   2   2   2   2   2   2   2
#     4  11  20  36  63 103 136 172 215 278 341 387
#     4  11  22  40  69 102 137 174 221 282 338 398
#     4  11  22  38  64 100 138 171 225 267 338 394
#     4  11  21  35  63 101 137 174 208 283 334 393
#     4  11  23  41  69 100 131 174 227 283 340 393
#     4  12  27  47  65  94 136 184 229 274 338 406
#     4  11  21  42  65 101 138 171 223 281 344 394
#     4  12  26  44  67  93 133 184 225 270 332 411
#
# _framework density 23.257859
#
# number of rings (size 3 to 8) (size 9 to 14) (size 15 to 20)
#    0.000    0.750    3.750    6.750    1.750    0.000 
#    0.000    6.250    0.000    0.000    0.000    0.000 
#    0.000    0.000    0.000    0.000    0.000    0.000 
#
# Total GULP energy -89439.194185 kJ/mol
# GULP energy per Si atom -5589.949637 kJ/mol
# Density = 2.320492 g / cm^3
# Si number density = 23.257859 Si / 1000 Ang^3
#
#
#
# Elastic Constant Matrix: (Units=GPa)
#
#
# Indices 1 2 3 4 5 6 
#
# 1 69.6025 40.8745 0.3869 -7.6716 16.3624 -22.2596
# 2 40.8745 119.4852 29.9211 19.4312 14.0725 -12.8478
# 3 0.3869 29.9211 71.2528 3.4780 17.2219 0.5641
# 4 -7.6716 19.4312 3.4780 37.5010 -0.4544 3.0390
# 5 16.3624 14.0725 17.2219 -0.4544 38.3641 15.3610
# 6 -22.2596 -12.8478 0.5641 3.0390 15.3610 43.3229
#
#
#
# Elastic Compliance Matrix: (Units=1/GPa)
#
#
# Indices 1 2 3 4 5 6 
#
# 1 0.033942 -0.010312 0.009193 0.009372 -0.023492 0.021934
# 2 -0.010312 0.014522 -0.006110 -0.008958 0.002123 -0.001037
# 3 0.009193 -0.006110 0.019595 0.002483 -0.013333 0.007210
# 4 0.009372 -0.008958 0.002483 0.032945 -0.001588 0.000379
# 5 -0.023492 0.002123 -0.013333 -0.001588 0.053308 -0.030057
# 6 0.021934 -0.001037 0.007210 0.000379 -0.030057 0.044582
#
#
# Mechanical properties :
#
#
# Convention : Reuss Voigt Hill
#
# Bulk Modulus (GPa) = 18.65638 44.74503 31.70070
# Shear Modulus (GPa) = 21.62451 36.44815 29.03633
#
# Velocity S-wave (km/s) = 3.05252 3.96300 3.53718
# Velocity P-wave (km/s) = 4.52359 6.34200 5.50834
#
# Compressibility (1/GPa) = 0.05360098
#
# Stress axis : x y z
#
# Youngs Moduli (GPa) = 29.46167 68.85989 51.03420
#
# Poissons Ratio (x) = 0.71010 -0.46916
# Poissons Ratio (y) = 0.30382 0.31182
# Poissons Ratio (z) = -0.27084 0.42073
#
# Static dielectric constant tensor:
#      x y z
#    x 1.920950 -0.003020 0.021780 
#    y -0.003020 1.956640 -0.034570 
#    z 0.021780 -0.034570 1.862320 
# 
# From -- ./inp_files/244393.got.cif
#   From: 2010.05.17/outbox.cif.g08.bks.cpg/sg2_123_cif.got.tgz:244393.got - 2010.06.03 11:33:40.
