data_PCOD9053343
_publ_section_title
;
Structure prediction by ZEFSAII (Michael W. Deem and Ramdas Pophale) SiO2 
 PCOD9053343
Probable space group: P -1
;
_chemical_formula_sum "Si O2"
_cell_formula_units_Z 14
_cell_length_a 17.074220
_cell_length_b 8.674276
_cell_length_c 25.860857
_cell_angle_alpha 29.438186
_cell_angle_beta 160.133483
_cell_angle_gamma 142.127750
_cell_volume 629.539096
_symmetry_space_group_name_H-M "P -1"
_symmetry_group_IT_number 2
_symmetry_cell_setting 'triclinic'
loop_
_space_group_symop_operation_xyz
x,y,z
-x,-y,-z
loop_
_atom_site_type_symbol
_atom_site_label
_atom_site_fract_x
_atom_site_fract_y
_atom_site_fract_z
Si Si1 0.356847 0.017430 0.509420
Si Si2 0.144220 0.715617 0.558694
Si Si3 0.341375 0.669920 0.257573
Si Si4 0.482638 0.315502 0.126514
Si Si5 0.782012 0.320528 0.578141
Si Si6 0.878198 0.779845 0.880383
Si Si7 0.149742 0.737606 0.720129
O O1 0.368643 0.390589 0.398966
O O2 0.232451 0.951502 0.503702
O O3 0.220462 0.888002 0.414180
O O4 0.616548 0.801643 0.732722
O O5 0.362485 0.527533 0.782125
O O6 0.000000 0.500000 0.500000
O O7 0.980592 0.932951 0.434096
O O8 0.513372 0.492022 0.371167
O O9 0.424447 0.009626 0.210341
O O10 0.068089 0.760467 0.048767
O O11 0.647381 0.217594 0.207158
O O12 0.262205 0.533209 0.899307
O O13 0.965385 0.557368 0.628973
O O14 0.851127 0.087635 0.737400
O O15 0.000000 0.500000 0.000000
#
# Coordination Sequence:
#
# PCOD9053343 Si02
#       7
#     2   2   2   2   2   2   2
#     4  11  25  39  66 106 136 171 218 267 335 402
#     4  12  28  48  67  95 139 177 213 278 345 389
#     4  11  21  39  70  98 132 170 220 273 324 384
#     4  11  25  46  72  98 128 177 227 274 327 389
#     4  11  20  39  68  99 129 171 230 264 317 395
#     4  11  19  37  63 101 136 174 219 268 319 387
#     4  11  25  45  72  98 127 175 235 272 316 402
#
# _framework density 22.238492000000001
#
# number of rings (size 3 to 8) (size 9 to 14) (size 15 to 20)
#    0.000    0.857    5.714    2.143    2.000    2.286 
#    0.000    1.429    0.000    0.000    0.000    0.000 
#    0.000    0.000    0.000    0.000    0.000    0.000 
#
# Total GULP energy -78178.602564 kJ/mol
# GULP energy per Si atom -5584.185897 kJ/mol
# Density = 2.218788 g / cm^3
# Si number density = 22.238492 Si / 1000 Ang^3
#
#
#
# Elastic Constant Matrix: (Units=GPa)
#
#
# Indices 1 2 3 4 5 6 
#
# 1 70.9763 30.8694 27.5173 8.1264 -18.6997 11.7218
# 2 30.8694 109.4983 46.0591 12.5399 -14.3240 1.2779
# 3 27.5173 46.0591 133.2378 16.1104 -16.1791 0.4684
# 4 8.1264 12.5399 16.1104 28.7567 -0.5518 -5.3869
# 5 -18.6997 -14.3240 -16.1791 -0.5518 30.6962 5.6933
# 6 11.7218 1.2779 0.4684 -5.3869 5.6933 24.9393
#
#
#
# Elastic Compliance Matrix: (Units=1/GPa)
#
#
# Indices 1 2 3 4 5 6 
#
# 1 0.023201 -0.003170 -0.000943 -0.007302 0.014940 -0.015712
# 2 -0.003170 0.011797 -0.002858 -0.002626 0.002037 -0.000093
# 3 -0.000943 -0.002858 0.009578 -0.004016 0.003292 -0.001209
# 4 -0.007302 -0.002626 -0.004016 0.042882 -0.009829 0.015148
# 5 0.014940 0.002037 0.003292 -0.009829 0.047945 -0.020256
# 6 -0.015712 -0.000093 -0.001209 0.015148 -0.020256 0.055406
#
#
# Mechanical properties :
#
#
# Convention : Reuss Voigt Hill
#
# Bulk Modulus (GPa) = 32.64512 58.06711 45.35611
# Shear Modulus (GPa) = 23.25994 30.82956 27.04475
#
# Velocity S-wave (km/s) = 3.23759 3.72736 3.49108
# Velocity P-wave (km/s) = 5.35607 6.68521 6.05721
#
# Compressibility (1/GPa) = 0.03063245
#
# Stress axis : x y z
#
# Youngs Moduli (GPa) = 43.10200 84.76916 104.40752
#
# Poissons Ratio (x) = 0.26870 0.09850
# Poissons Ratio (y) = 0.13663 0.29841
# Poissons Ratio (z) = 0.04066 0.24228
#
# Static dielectric constant tensor:
#      x y z
#    x 1.818070 -0.000460 -0.018290 
#    y -0.000460 1.861690 0.022230 
#    z -0.018290 0.022230 1.840270 
# 
# From -- ./inp_files/499780.got.cif
#   From: 2010.05.17/outbox.cif.g08.bks.cpg/sg2_250_cif.got.tgz:499780.got - 2010.06.03 11:33:40.
