data_PCOD9053834
_publ_section_title
;
Structure prediction by ZEFSAII (Michael W. Deem and Ramdas Pophale) SiO2 
 PCOD9053834
Probable space group: P -1
;
_chemical_formula_sum "Si O2"
_cell_formula_units_Z 16
_cell_length_a 22.121883
_cell_length_b 5.402350
_cell_length_c 10.495850
_cell_angle_alpha 80.901941
_cell_angle_beta 54.008938
_cell_angle_gamma 48.016832
_cell_volume 694.473008
_symmetry_space_group_name_H-M "P -1"
_symmetry_group_IT_number 2
_symmetry_cell_setting 'triclinic'
loop_
_space_group_symop_operation_xyz
x,y,z
-x,-y,-z
loop_
_atom_site_type_symbol
_atom_site_label
_atom_site_fract_x
_atom_site_fract_y
_atom_site_fract_z
Si Si1 0.803778 0.710319 0.619621
Si Si2 0.714511 0.770261 0.194489
Si Si3 0.245333 0.722377 0.184830
Si Si4 0.425669 0.552470 0.823735
Si Si5 0.040366 0.775403 0.098888
Si Si6 0.662123 0.039033 0.531959
Si Si7 0.608337 0.581743 0.389889
Si Si8 0.021570 0.288256 0.273021
O O1 0.767249 0.539959 0.744480
O O2 0.931688 0.442606 0.477750
O O3 0.755298 0.078831 0.712717
O O4 0.762486 0.778036 0.520462
O O5 0.711592 0.477614 0.219398
O O6 0.640097 0.026728 0.142748
O O7 0.682882 0.882983 0.376188
O O8 0.832506 0.588776 0.044671
O O9 0.138355 0.043891 0.210490
O O10 0.353115 0.534021 0.990487
O O11 0.551818 0.220133 0.723029
O O12 0.420564 0.529721 0.679630
O O13 0.990481 0.626506 0.213355
O O14 0.026065 0.030489 0.199616
O O15 0.000000 0.000000 0.000000
O O16 0.634782 0.392877 0.504796
O O17 0.500000 0.000000 0.500000
#
# Coordination Sequence:
#
# PCOD9053834 Si02
#       8
#     2   2   2   2   2   2   2   2
#     4  12  29  47  72  99 136 185 239 288 341 390
#     4  11  22  41  66 102 138 179 220 275 352 428
#     4  12  27  48  73  98 134 188 241 284 329 404
#     4  11  23  42  66 103 136 178 233 275 347 412
#     4  12  26  41  73 110 144 174 216 289 357 409
#     4  11  25  41  65 103 140 180 221 287 344 413
#     4  11  20  37  70  97 135 179 223 271 344 421
#     4  12  25  50  71 100 139 181 235 283 338 416
#
# _framework density 23.039052000000002
#
# number of rings (size 3 to 8) (size 9 to 14) (size 15 to 20)
#    0.000    0.500    3.750    4.875    7.000    1.000 
#    0.000    0.000    0.000    0.000    0.000    0.000 
#    0.000    0.000    0.000    0.000    0.000    0.000 
#
# Total GULP energy -89223.398622 kJ/mol
# GULP energy per Si atom -5576.462414 kJ/mol
# Density = 2.298661 g / cm^3
# Si number density = 23.039052 Si / 1000 Ang^3
#
#
#
# Elastic Constant Matrix: (Units=GPa)
#
#
# Indices 1 2 3 4 5 6 
#
# 1 59.7629 9.5460 19.8598 2.8305 -9.3510 15.1600
# 2 9.5460 48.4964 10.0499 -15.3811 -7.9064 12.5267
# 3 19.8598 10.0499 95.7479 8.7116 -32.5453 21.9657
# 4 2.8305 -15.3811 8.7116 28.4371 1.4110 -6.9483
# 5 -9.3510 -7.9064 -32.5453 1.4110 50.3420 -2.3989
# 6 15.1600 12.5267 21.9657 -6.9483 -2.3989 34.9622
#
#
#
# Elastic Compliance Matrix: (Units=1/GPa)
#
#
# Indices 1 2 3 4 5 6 
#
# 1 0.020186 -0.003089 -0.000547 -0.005660 0.002677 -0.008244
# 2 -0.003089 0.027742 -0.001999 0.014787 0.001873 -0.004277
# 3 -0.000547 -0.001999 0.018078 -0.009952 0.010997 -0.011628
# 4 -0.005660 0.014787 -0.009952 0.050244 -0.005952 0.012985
# 5 0.002677 0.001873 0.010997 -0.005952 0.027549 -0.008033
# 6 -0.008244 -0.004277 -0.011628 0.012985 -0.008033 0.043045
#
#
# Mechanical properties :
#
#
# Convention : Reuss Voigt Hill
#
# Bulk Modulus (GPa) = 18.26917 31.43540 24.85229
# Shear Modulus (GPa) = 23.10979 33.71835 28.41407
#
# Velocity S-wave (km/s) = 3.17056 3.82976 3.51565
# Velocity P-wave (km/s) = 4.62062 5.76456 5.22400
#
# Compressibility (1/GPa) = 0.05473701
#
# Stress axis : x y z
#
# Youngs Moduli (GPa) = 49.53937 36.04592 55.31529
#
# Poissons Ratio (x) = 0.11136 0.03024
# Poissons Ratio (y) = 0.15305 0.11056
# Poissons Ratio (z) = 0.02708 0.07204
#
# Static dielectric constant tensor:
#      x y z
#    x 1.913770 0.106410 -0.011340 
#    y 0.106410 1.574920 -0.148420 
#    z -0.011340 -0.148420 1.802200 
# 
# From -- ./inp_files/340333.got.cif
#   From: 2010.05.17/outbox.cif.g08.bks.cpg/sg2_171_cif.got.tgz:340333.got - 2010.06.03 11:33:40.
