data_PCOD9053300
_publ_section_title
;
Structure prediction by ZEFSAII (Michael W. Deem and Ramdas Pophale) SiO2 
 PCOD9053300
Probable space group: P -1
;
_chemical_formula_sum "Si O2"
_cell_formula_units_Z 12
_cell_length_a 20.806186
_cell_length_b 19.438569
_cell_length_c 7.474058
_cell_angle_alpha 152.331375
_cell_angle_beta 142.452035
_cell_angle_gamma 20.378104
_cell_volume 475.540315
_symmetry_space_group_name_H-M "P -1"
_symmetry_group_IT_number 2
_symmetry_cell_setting 'triclinic'
loop_
_space_group_symop_operation_xyz
x,y,z
-x,-y,-z
loop_
_atom_site_type_symbol
_atom_site_label
_atom_site_fract_x
_atom_site_fract_y
_atom_site_fract_z
Si Si1 0.603390 0.799205 0.594437
Si Si2 0.594386 0.496267 0.555001
Si Si3 0.807230 0.341720 0.201469
Si Si4 0.734817 0.931694 0.037519
Si Si5 0.949326 0.226700 0.650849
Si Si6 0.377736 0.825049 0.286364
O O1 0.790330 0.503856 0.409549
O O2 0.441660 0.860544 0.347399
O O3 0.500000 0.000000 0.000000
O O4 0.659781 0.851390 0.689874
O O5 0.500000 0.500000 0.500000
O O6 0.430399 0.775047 0.734909
O O7 0.763045 0.410036 0.778327
O O8 0.700918 0.242713 0.091525
O O9 0.875861 0.312435 0.480192
O O10 0.585224 0.555616 0.210427
O O11 0.912487 0.077567 0.742819
O O12 0.746942 0.954562 0.329821
O O13 0.932853 0.764711 0.017657
#
# Coordination Sequence:
#
# PCOD9053300 Si02
#       6
#     2   2   2   2   2   2
#     4   8  16  31  57  84 114 140 170 218 283 317
#     4  12  24  38  55  79 109 147 189 227 270 317
#     4   9  17  32  57  88 107 138 180 218 273 322
#     4  11  19  36  60  82 113 139 178 230 267 324
#     4  11  20  32  58  84 107 142 184 223 273 318
#     4   9  17  37  57  79 112 140 173 222 269 319
#
# _framework density 25.234452999999998
#
# number of rings (size 3 to 8) (size 9 to 14) (size 15 to 20)
#    1.000    1.000    3.333    2.500    0.000    1.333 
#    0.000    2.500    0.000    2.000    0.000    0.000 
#    0.000    0.000    0.000    0.000    0.000    0.000 
#
# Total GULP energy -66974.644643 kJ/mol
# GULP energy per Si atom -5581.220387 kJ/mol
# Density = 2.517702 g / cm^3
# Si number density = 25.234453 Si / 1000 Ang^3
#
#
#
# Elastic Constant Matrix: (Units=GPa)
#
#
# Indices 1 2 3 4 5 6 
#
# 1 144.3032 43.4248 35.2090 -1.7724 40.4034 -28.9892
# 2 43.4248 81.2601 13.3964 -15.8218 18.3620 -44.1750
# 3 35.2090 13.3964 64.1336 -19.9810 31.5246 4.9252
# 4 -1.7724 -15.8218 -19.9810 20.9451 -7.1002 5.0607
# 5 40.4034 18.3620 31.5246 -7.1002 51.7322 -3.9780
# 6 -28.9892 -44.1750 4.9252 5.0607 -3.9780 47.8610
#
#
#
# Elastic Compliance Matrix: (Units=1/GPa)
#
#
# Indices 1 2 3 4 5 6 
#
# 1 0.012252 -0.003091 -0.007947 -0.012018 -0.004797 0.006257
# 2 -0.003091 0.032148 0.000877 0.016924 -0.005249 0.025484
# 3 -0.007947 0.000877 0.038413 0.035092 -0.013681 -0.012804
# 4 -0.012018 0.016924 0.035092 0.092370 -0.005751 -0.005515
# 5 -0.004797 -0.005249 -0.013681 -0.005751 0.032253 -0.003053
# 6 0.006257 0.025484 -0.012804 -0.005515 -0.003053 0.049852
#
#
# Mechanical properties :
#
#
# Convention : Reuss Voigt Hill
#
# Bulk Modulus (GPa) = 16.00236 52.63970 34.32103
# Shear Modulus (GPa) = 16.75367 37.28542 27.01955
#
# Velocity S-wave (km/s) = 2.57946 3.84807 3.27577
# Velocity P-wave (km/s) = 3.90214 6.37567 5.28563
#
# Compressibility (1/GPa) = 0.06249078
#
# Stress axis : x y z
#
# Youngs Moduli (GPa) = 81.62096 31.10567 26.03260
#
# Poissons Ratio (x) = 0.09616 0.20689
# Poissons Ratio (y) = 0.25233 -0.02284
# Poissons Ratio (z) = 0.64867 -0.02729
#
# Static dielectric constant tensor:
#      x y z
#    x 2.123190 -0.041000 -0.060760 
#    y -0.041000 1.939690 -0.035120 
#    z -0.060760 -0.035120 2.123920 
# 
# From -- ./inp_files/349360.got.cif
#   From: 2010.05.17/outbox.cif.g08.bks.cpg/sg2_175_cif.got.tgz:349360.got - 2010.06.03 11:33:40.
