data_PCOD9053024
_publ_section_title
;
Structure prediction by ZEFSAII (Michael W. Deem and Ramdas Pophale) SiO2 
 PCOD9053024
Probable space group: P -1
;
_chemical_formula_sum "Si O2"
_cell_formula_units_Z 14
_cell_length_a 10.323647
_cell_length_b 14.751507
_cell_length_c 21.454048
_cell_angle_alpha 147.641286
_cell_angle_beta 19.124989
_cell_angle_gamma 145.970097
_cell_volume 564.096726
_symmetry_space_group_name_H-M "P -1"
_symmetry_group_IT_number 2
_symmetry_cell_setting 'triclinic'
loop_
_space_group_symop_operation_xyz
x,y,z
-x,-y,-z
loop_
_atom_site_type_symbol
_atom_site_label
_atom_site_fract_x
_atom_site_fract_y
_atom_site_fract_z
Si Si1 0.960860 0.755725 0.300307
Si Si2 0.496673 0.935933 0.783239
Si Si3 0.653583 0.439960 0.196084
Si Si4 0.267443 0.623878 0.636588
Si Si5 0.617993 0.879128 0.929770
Si Si6 0.010807 0.707065 0.484770
Si Si7 0.425824 0.779141 0.453876
O O1 0.011085 0.566267 0.142702
O O2 0.583084 0.711255 0.491885
O O3 0.815323 0.845891 0.356518
O O4 0.313476 0.898904 0.248506
O O5 0.171819 0.786415 0.812719
O O6 0.843489 0.823846 0.577784
O O7 0.359131 0.023399 0.958625
O O8 0.700176 0.298016 0.041251
O O9 0.364043 0.343672 0.325726
O O10 0.950037 0.167482 0.309055
O O11 0.500000 0.500000 0.500000
O O12 0.927242 0.478808 0.676940
O O13 0.576699 0.424173 0.654321
O O14 0.500000 0.000000 0.000000
O O15 0.370677 0.806284 0.421287
#
# Coordination Sequence:
#
# PCOD9053024 Si02
#       7
#     2   2   2   2   2   2   2
#     4   9  20  34  54  76 109 134 176 216 265 309
#     4  11  20  30  51  86 106 132 174 225 261 295
#     4   8  17  32  53  71 102 142 169 204 255 315
#     4   9  19  33  54  75 100 144 181 211 249 321
#     4  11  18  31  53  81 109 134 177 219 252 309
#     4   9  15  31  52  76  98 136 181 203 251 306
#     4   9  18  34  57  74 105 143 174 210 262 317
#
# _framework density 24.818439000000001
#
# number of rings (size 3 to 8) (size 9 to 14) (size 15 to 20)
#    0.857    1.714    2.857    2.143    0.000    1.143 
#    0.000    0.714    0.000    0.000    0.000    6.000 
#    0.000    0.000    0.000    0.000    0.000    0.000 
#
# Total GULP energy -77985.790743 kJ/mol
# GULP energy per Si atom -5570.413625 kJ/mol
# Density = 2.476195 g / cm^3
# Si number density = 24.818439 Si / 1000 Ang^3
#
#
#
# Elastic Constant Matrix: (Units=GPa)
#
#
# Indices 1 2 3 4 5 6 
#
# 1 55.5145 11.3605 26.5896 6.6425 6.2923 9.8175
# 2 11.3605 147.2405 49.0669 46.9083 17.8068 34.8464
# 3 26.5896 49.0669 83.4977 29.9274 7.9316 9.7885
# 4 6.6425 46.9083 29.9274 35.5257 15.9143 18.0370
# 5 6.2923 17.8068 7.9316 15.9143 35.6695 15.5840
# 6 9.8175 34.8464 9.7885 18.0370 15.5840 40.1060
#
#
#
# Elastic Compliance Matrix: (Units=1/GPa)
#
#
# Indices 1 2 3 4 5 6 
#
# 1 0.022824 0.001021 -0.009205 0.006433 -0.002708 -0.006068
# 2 0.001021 0.012848 -0.002797 -0.012874 0.002325 -0.005844
# 3 -0.009205 -0.002797 0.021796 -0.017459 0.003385 0.005900
# 4 0.006433 -0.012874 -0.017459 0.072772 -0.018134 -0.011809
# 5 -0.002708 0.002325 0.003385 -0.018134 0.038641 -0.009043
# 6 -0.006068 -0.005844 0.005900 -0.011809 -0.009043 0.038882
#
#
# Mechanical properties :
#
#
# Convention : Reuss Voigt Hill
#
# Bulk Modulus (GPa) = 28.16481 51.14299 39.65390
# Shear Modulus (GPa) = 20.69883 35.54263 28.12073
#
# Velocity S-wave (km/s) = 2.89106 3.78842 3.36974
# Velocity P-wave (km/s) = 4.74523 6.30776 5.58144
#
# Compressibility (1/GPa) = 0.03550530
#
# Stress axis : x y z
#
# Youngs Moduli (GPa) = 43.81413 77.83215 45.88073
#
# Poissons Ratio (x) = -0.07943 0.42234
# Poissons Ratio (y) = -0.04472 0.12831
# Poissons Ratio (z) = 0.40332 0.21766
#
# Static dielectric constant tensor:
#      x y z
#    x 2.074070 0.092680 0.031560 
#    y 0.092680 2.045030 -0.004080 
#    z 0.031560 -0.004080 1.971500 
# 
# From -- ./inp_files/610644.got.cif
#   From: 2010.05.17/outbox.cif.g08.bks.cpg/sg2_306_cif.got.tgz:610644.got - 2010.06.03 11:33:40.
