data_PCOD9053666
_publ_section_title
;
Structure prediction by ZEFSAII (Michael W. Deem and Ramdas Pophale) SiO2 
 PCOD9053666
Probable space group: P -1
;
_chemical_formula_sum "Si O2"
_cell_formula_units_Z 16
_cell_length_a 10.901609
_cell_length_b 8.164055
_cell_length_c 16.401639
_cell_angle_alpha 77.383208
_cell_angle_beta 52.078355
_cell_angle_gamma 117.357898
_cell_volume 715.152754
_symmetry_space_group_name_H-M "P -1"
_symmetry_group_IT_number 2
_symmetry_cell_setting 'triclinic'
loop_
_space_group_symop_operation_xyz
x,y,z
-x,-y,-z
loop_
_atom_site_type_symbol
_atom_site_label
_atom_site_fract_x
_atom_site_fract_y
_atom_site_fract_z
Si Si1 0.384214 0.234794 0.348210
Si Si2 0.948940 0.383578 0.227791
Si Si3 0.528187 0.305861 0.776749
Si Si4 0.970352 0.323267 0.404345
Si Si5 0.685089 0.510841 0.359532
Si Si6 0.925319 0.943422 0.941438
Si Si7 0.501827 0.176599 0.619159
Si Si8 0.800883 0.452092 0.041783
O O1 0.400754 0.438299 0.288784
O O2 0.486587 0.326395 0.388788
O O3 0.564170 0.270617 0.214748
O O4 0.127104 0.929035 0.488666
O O5 0.004613 0.329665 0.292938
O O6 0.851318 0.483487 0.282208
O O7 0.720453 0.105592 0.303783
O O8 0.184215 0.601419 0.050356
O O9 0.442998 0.173959 0.736662
O O10 0.771637 0.411228 0.691693
O O11 0.311043 0.132582 0.950042
O O12 0.745984 0.265603 0.512669
O O13 0.574380 0.394722 0.507604
O O14 0.866441 0.811989 0.228571
O O15 0.868628 0.703722 0.972904
O O16 0.000000 0.000000 0.000000
O O17 0.000000 0.500000 0.000000
#
# Coordination Sequence:
#
# PCOD9053666 Si02
#       8
#     2   2   2   2   2   2   2   2
#     4  11  21  39  61  88 126 156 197 257 307 358
#     4  11  21  38  65  91 119 161 207 258 291 359
#     4  11  25  39  61  90 124 163 198 250 314 364
#     4  11  22  43  60  88 125 163 201 248 307 366
#     4  11  20  38  60  93 122 151 206 255 304 347
#     4  11  21  38  59  88 128 156 198 256 303 358
#     4  11  22  39  64  90 120 161 210 254 293 357
#     4  11  20  35  61  93 116 157 205 250 300 354
#
# _framework density 22.372841999999999
#
# number of rings (size 3 to 8) (size 9 to 14) (size 15 to 20)
#    0.000    1.000    6.250    2.250    0.000    2.500 
#    0.000    6.250    0.000    0.000    0.000    0.000 
#    0.000    0.000    0.000    0.000    0.000    0.000 
#
# Total GULP energy -89402.480699 kJ/mol
# GULP energy per Si atom -5587.655044 kJ/mol
# Density = 2.232192 g / cm^3
# Si number density = 22.372842 Si / 1000 Ang^3
#
#
#
# Elastic Constant Matrix: (Units=GPa)
#
#
# Indices 1 2 3 4 5 6 
#
# 1 57.8127 16.1425 37.9404 0.2966 -2.6400 5.0164
# 2 16.1425 51.7334 34.5241 4.3827 -0.1917 -1.4363
# 3 37.9404 34.5241 115.9875 14.5015 13.8416 11.9980
# 4 0.2966 4.3827 14.5015 41.9805 -6.6678 4.4861
# 5 -2.6400 -0.1917 13.8416 -6.6678 22.8684 -8.2407
# 6 5.0164 -1.4363 11.9980 4.4861 -8.2407 26.1166
#
#
#
# Elastic Compliance Matrix: (Units=1/GPa)
#
#
# Indices 1 2 3 4 5 6 
#
# 1 0.024309 -0.001445 -0.009654 0.004794 0.010860 0.002289
# 2 -0.001445 0.026330 -0.009531 0.001089 0.009334 0.008862
# 3 -0.009654 -0.009531 0.019103 -0.007290 -0.019310 -0.012287
# 4 0.004794 0.001089 -0.007290 0.028185 0.013928 0.002041
# 5 0.010860 0.009334 -0.019310 0.013928 0.070605 0.027184
# 6 0.002289 0.008862 -0.012287 0.002041 0.027184 0.052209
#
#
# Mechanical properties :
#
#
# Convention : Reuss Voigt Hill
#
# Bulk Modulus (GPa) = 35.11038 44.74971 39.93004
# Shear Modulus (GPa) = 18.41657 27.32156 22.86906
#
# Velocity S-wave (km/s) = 2.87220 3.49835 3.20062
# Velocity P-wave (km/s) = 5.16979 6.03019 5.61649
#
# Compressibility (1/GPa) = 0.02848161
#
# Stress axis : x y z
#
# Youngs Moduli (GPa) = 41.13752 37.97986 52.34740
#
# Poissons Ratio (x) = 0.05489 0.50534
# Poissons Ratio (y) = 0.05945 0.49894
# Poissons Ratio (z) = 0.39713 0.36200
#
# Static dielectric constant tensor:
#      x y z
#    x 1.846970 -0.043220 0.010400 
#    y -0.043220 1.911370 0.053360 
#    z 0.010400 0.053360 1.904980 
# 
# From -- ./inp_files/566683.got.cif
#   From: 2010.05.17/outbox.cif.g08.bks.cpg/sg2_284_cif.got.tgz:566683.got - 2010.06.03 11:33:40.
