data_PCOD9053450
_publ_section_title
;
Structure prediction by ZEFSAII (Michael W. Deem and Ramdas Pophale) SiO2 
 PCOD9053450
Probable space group: P -1
;
_chemical_formula_sum "Si O2"
_cell_formula_units_Z 16
_cell_length_a 8.655908
_cell_length_b 11.770814
_cell_length_c 8.466483
_cell_angle_alpha 105.968006
_cell_angle_beta 106.399390
_cell_angle_gamma 53.310427
_cell_volume 657.204476
_symmetry_space_group_name_H-M "P -1"
_symmetry_group_IT_number 2
_symmetry_cell_setting 'triclinic'
loop_
_space_group_symop_operation_xyz
x,y,z
-x,-y,-z
loop_
_atom_site_type_symbol
_atom_site_label
_atom_site_fract_x
_atom_site_fract_y
_atom_site_fract_z
Si Si1 0.924990 0.463375 0.793493
Si Si2 0.831179 0.808775 0.699757
Si Si3 0.973548 0.802566 0.053715
Si Si4 0.446857 0.201816 0.611440
Si Si5 0.678084 0.692703 0.058846
Si Si6 0.364850 0.640038 0.907824
Si Si7 0.911292 0.022852 0.656269
Si Si8 0.792948 0.463241 0.411051
O O1 0.992794 0.319107 0.860862
O O2 0.841146 0.447541 0.603144
O O3 0.134293 0.442155 0.847855
O O4 0.770326 0.617079 0.884004
O O5 0.638708 0.853732 0.563816
O O6 0.991445 0.640921 0.645080
O O7 0.926931 0.885206 0.677729
O O8 0.804966 0.846566 0.893262
O O9 0.974810 0.926746 0.188435
O O10 0.161592 0.728027 0.969691
O O11 0.383446 0.191986 0.770116
O O12 0.675933 0.135646 0.637706
O O13 0.335296 0.369974 0.604070
O O14 0.469427 0.720645 0.980316
O O15 0.333405 0.594777 0.711692
O O16 0.500000 0.500000 0.000000
O O17 0.000000 0.000000 0.500000
#
# Coordination Sequence:
#
# PCOD9053450 Si02
#       8
#     2   2   2   2   2   2   2   2
#     4  11  24  38  64 109 146 173 223 291 341 395
#     4  11  25  46  73 101 138 185 230 273 359 413
#     4  11  23  45  69  93 138 186 226 282 339 413
#     4  12  24  46  73 100 140 185 227 277 354 416
#     4  11  22  39  64  98 145 180 218 280 346 404
#     4  11  19  40  62  95 134 184 222 267 343 407
#     4  12  27  50  70  99 135 183 235 293 337 408
#     4  11  23  40  71 108 138 175 227 289 337 412
#
# _framework density 24.345542999999999
#
# number of rings (size 3 to 8) (size 9 to 14) (size 15 to 20)
#    0.000    0.750    5.000    2.625    3.500    0.500 
#    4.500    0.625    0.000    0.000    0.000    0.000 
#    0.000    0.000    0.000    0.000    0.000    0.000 
#
# Total GULP energy -89180.999926 kJ/mol
# GULP energy per Si atom -5573.812495 kJ/mol
# Density = 2.429013 g / cm^3
# Si number density = 24.345543 Si / 1000 Ang^3
#
#
#
# Elastic Constant Matrix: (Units=GPa)
#
#
# Indices 1 2 3 4 5 6 
#
# 1 54.0794 11.9511 49.9430 -2.4357 8.7072 -11.1168
# 2 11.9511 77.3679 19.1694 -4.6369 5.8787 4.4032
# 3 49.9430 19.1694 245.7378 -3.3234 23.6403 2.4833
# 4 -2.4357 -4.6369 -3.3234 29.6992 -3.4472 3.4532
# 5 8.7072 5.8787 23.6403 -3.4472 45.1506 4.8421
# 6 -11.1168 4.4032 2.4833 3.4532 4.8421 39.0611
#
#
#
# Elastic Compliance Matrix: (Units=1/GPa)
#
#
# Indices 1 2 3 4 5 6 
#
# 1 0.025797 -0.003058 -0.004806 -0.000219 -0.002976 0.008381
# 2 -0.003058 0.013796 -0.000344 0.002088 -0.000598 -0.002514
# 3 -0.004806 -0.000344 0.005244 0.000124 -0.001607 -0.001474
# 4 -0.000219 0.002088 0.000124 0.034745 0.002757 -0.003719
# 5 -0.002976 -0.000598 -0.001607 0.002757 0.024273 -0.003930
# 6 0.008381 -0.002514 -0.001474 -0.003719 -0.003930 0.029179
#
#
# Mechanical properties :
#
#
# Convention : Reuss Voigt Hill
#
# Bulk Modulus (GPa) = 35.18306 59.92356 47.55331
# Shear Modulus (GPa) = 31.46145 42.52361 36.99253
#
# Velocity S-wave (km/s) = 3.59874 4.18385 3.90228
# Velocity P-wave (km/s) = 5.63479 6.92869 6.31496
#
# Compressibility (1/GPa) = 0.02842277
#
# Stress axis : x y z
#
# Youngs Moduli (GPa) = 38.76359 72.48259 190.69335
#
# Poissons Ratio (x) = 0.22167 0.91643
# Poissons Ratio (y) = 0.11855 0.06551
# Poissons Ratio (z) = 0.18629 0.02490
#
# Static dielectric constant tensor:
#      x y z
#    x 2.077910 0.092630 -0.033970 
#    y 0.092630 1.971520 -0.011350 
#    z -0.033970 -0.011350 2.009310 
# 
# From -- ./inp_files/190281.got.cif
#   From: 2010.05.17/outbox.cif.g08.bks.cpg/sg2_96_cif.got.tgz:190281.got - 2010.06.03 11:33:40.
