data_PCOD9053734
_publ_section_title
;
Structure prediction by ZEFSAII (Michael W. Deem and Ramdas Pophale) SiO2 
 PCOD9053734
Probable space group: P -1
;
_chemical_formula_sum "Si O2"
_cell_formula_units_Z 12
_cell_length_a 8.145556
_cell_length_b 10.324459
_cell_length_c 13.717799
_cell_angle_alpha 41.504416
_cell_angle_beta 123.433757
_cell_angle_gamma 138.715956
_cell_volume 504.224847
_symmetry_space_group_name_H-M "P -1"
_symmetry_group_IT_number 2
_symmetry_cell_setting 'triclinic'
loop_
_space_group_symop_operation_xyz
x,y,z
-x,-y,-z
loop_
_atom_site_type_symbol
_atom_site_label
_atom_site_fract_x
_atom_site_fract_y
_atom_site_fract_z
Si Si1 0.941090 0.985397 0.622118
Si Si2 0.635568 0.049218 0.216113
Si Si3 0.724684 0.483717 0.552484
Si Si4 0.841828 0.029681 0.105277
Si Si5 0.611792 0.485221 0.300822
Si Si6 0.715799 0.487787 0.115625
O O1 0.674270 0.743375 0.645642
O O2 0.156240 0.972832 0.660149
O O3 0.974637 0.972022 0.757477
O O4 0.027577 0.258130 0.474854
O O5 0.698106 0.086852 0.100209
O O6 0.674505 0.271888 0.158629
O O7 0.370604 0.782106 0.292275
O O8 0.500000 0.500000 0.500000
O O9 0.742966 0.487873 0.439423
O O10 0.667226 0.752109 0.163190
O O11 0.017347 0.251357 0.965065
O O12 0.687429 0.440576 0.248095
O O13 0.500000 0.500000 0.000000
#
# Coordination Sequence:
#
# PCOD9053734 Si02
#       6
#     2   2   2   2   2   2
#     4   8  18  36  62  86 112 147 193 232 286 339
#     4   9  20  39  59  85 120 150 190 244 280 336
#     4   9  18  38  62  85 119 143 194 244 282 341
#     4   9  20  39  59  84 115 156 192 236 276 347
#     4  11  20  36  66  87 113 156 188 234 303 333
#     4  12  22  38  60  84 123 155 189 240 288 339
#
# _framework density 23.798907
#
# number of rings (size 3 to 8) (size 9 to 14) (size 15 to 20)
#    1.000    1.333    3.333    1.000    0.000    3.333 
#    0.000    5.833    0.000    0.000    0.000    0.000 
#    0.000    0.000    0.000    0.000    0.000    0.000 
#
# Total GULP energy -67028.288423 kJ/mol
# GULP energy per Si atom -5585.690702 kJ/mol
# Density = 2.374474 g / cm^3
# Si number density = 23.798907 Si / 1000 Ang^3
#
#
#
# Elastic Constant Matrix: (Units=GPa)
#
#
# Indices 1 2 3 4 5 6 
#
# 1 90.0040 65.0223 71.4807 -20.3593 -8.7421 -21.3782
# 2 65.0223 142.2539 42.1728 -36.5977 -11.3058 9.3608
# 3 71.4807 42.1728 80.1995 -32.5521 -37.0377 22.5492
# 4 -20.3593 -36.5977 -32.5521 64.2121 -4.8466 -11.5160
# 5 -8.7421 -11.3058 -37.0377 -4.8466 27.7115 8.0981
# 6 -21.3782 9.3608 22.5492 -11.5160 8.0981 13.3103
#
#
#
# Elastic Compliance Matrix: (Units=1/GPa)
#
#
# Indices 1 2 3 4 5 6 
#
# 1 0.005450 -0.001912 0.008795 0.004348 0.016734 -0.011221
# 2 -0.001912 0.009520 -0.005000 0.002586 -0.003923 0.003329
# 3 0.008795 -0.005000 0.000781 0.004020 -0.004019 0.022244
# 4 0.004348 0.002586 0.004020 0.023561 0.007838 0.013969
# 5 0.016734 -0.003923 -0.004019 0.007838 0.028133 0.026111
# 6 -0.011221 0.003329 0.022244 0.013969 0.026111 0.013282
#
#
# Mechanical properties :
#
#
# Convention : Reuss Voigt Hill
#
# Bulk Modulus (GPa) = 51.23693 74.42322 62.83008
# Shear Modulus (GPa) = 59.90367 29.96554 44.93460
#
# Velocity S-wave (km/s) = 5.02249 3.55225 4.34994
# Velocity P-wave (km/s) = 7.43032 6.94004 7.18937
#
# Compressibility (1/GPa) = 0.01951717
#
# Stress axis : x y z
#
# Youngs Moduli (GPa) = 183.47178 105.03713 1281.02029
#
# Poissons Ratio (x) = 0.20081 -11.26676
# Poissons Ratio (y) = 0.35077 6.40570
# Poissons Ratio (z) = -1.61366 0.52523
#
# Static dielectric constant tensor:
#      x y z
#    x 1.930740 0.033500 0.028420 
#    y 0.033500 1.896810 0.040410 
#    z 0.028420 0.040410 1.912420 
# 
# From -- ./inp_files/490449.got.cif
#   From: 2010.05.17/outbox.cif.g08.bks.cpg/sg2_246_cif.got.tgz:490449.got - 2010.06.03 11:33:40.
