data_PCOD9053985
_publ_section_title
;
Structure prediction by ZEFSAII (Michael W. Deem and Ramdas Pophale) SiO2 
 PCOD9053985
Probable space group: P -1
;
_chemical_formula_sum "Si O2"
_cell_formula_units_Z 14
_cell_length_a 6.308000
_cell_length_b 21.261382
_cell_length_c 12.953281
_cell_angle_alpha 157.297580
_cell_angle_beta 95.142733
_cell_angle_gamma 72.102554
_cell_volume 541.905029
_symmetry_space_group_name_H-M "P -1"
_symmetry_group_IT_number 2
_symmetry_cell_setting 'triclinic'
loop_
_space_group_symop_operation_xyz
x,y,z
-x,-y,-z
loop_
_atom_site_type_symbol
_atom_site_label
_atom_site_fract_x
_atom_site_fract_y
_atom_site_fract_z
Si Si1 0.732225 0.799360 0.879607
Si Si2 0.569128 0.798631 0.252734
Si Si3 0.046727 0.825099 0.656570
Si Si4 0.359928 0.797956 0.447491
Si Si5 0.317470 0.449498 0.324687
Si Si6 0.569195 0.591091 0.440953
Si Si7 0.880691 0.527960 0.179179
O O1 0.703419 0.691357 0.811413
O O2 0.552522 0.787247 0.770645
O O3 0.033285 0.663680 0.648137
O O4 0.636933 0.017484 0.233640
O O5 0.360034 0.815591 0.350224
O O6 0.500000 0.000000 0.500000
O O7 0.626240 0.661235 0.949473
O O8 0.838685 0.672166 0.140511
O O9 0.104139 0.848134 0.574519
O O10 0.335269 0.654846 0.452420
O O11 0.898943 0.716612 0.483404
O O12 0.000000 0.000000 0.000000
O O13 0.634283 0.599149 0.201719
O O14 0.543520 0.488349 0.383799
O O15 0.825560 0.469150 0.199079
#
# Coordination Sequence:
#
# PCOD9053985 Si02
#       7
#     2   2   2   2   2   2   2
#     4  11  22  41  68 101 132 176 219 283 331 393
#     4  12  24  49  68  94 136 183 221 276 332 397
#     4  11  22  40  67 102 135 172 218 274 335 397
#     4  11  25  41  72  99 135 175 224 269 339 396
#     4  11  23  42  69  95 138 175 223 277 335 390
#     4  11  20  39  68  96 130 171 223 270 339 385
#     4  11  24  45  67  97 137 174 220 282 327 393
#
# _framework density 25.834782000000001
#
# number of rings (size 3 to 8) (size 9 to 14) (size 15 to 20)
#    0.000    0.857    4.286    3.429    0.000    2.857 
#    2.571    2.143    0.000    0.000    0.000    0.000 
#    0.000    0.000    0.000    0.000    0.000    0.000 
#
# Total GULP energy -78124.060111 kJ/mol
# GULP energy per Si atom -5580.290008 kJ/mol
# Density = 2.577598 g / cm^3
# Si number density = 25.834782 Si / 1000 Ang^3
#
#
#
# Elastic Constant Matrix: (Units=GPa)
#
#
# Indices 1 2 3 4 5 6 
#
# 1 107.6018 40.7569 19.0571 -8.2447 8.2383 40.7573
# 2 40.7569 106.7979 20.7239 -16.0449 -12.6045 60.3099
# 3 19.0571 20.7239 96.2562 4.6927 -1.2945 16.3948
# 4 -8.2447 -16.0449 4.6927 42.4981 7.8384 -8.6691
# 5 8.2383 -12.6045 -1.2945 7.8384 24.9538 -11.1868
# 6 40.7573 60.3099 16.3948 -8.6691 -11.1868 61.8578
#
#
#
# Elastic Compliance Matrix: (Units=1/GPa)
#
#
# Indices 1 2 3 4 5 6 
#
# 1 0.014663 -0.000127 -0.001324 0.002716 -0.010637 -0.010729
# 2 -0.000127 0.021653 -0.001430 0.004115 0.000669 -0.019951
# 3 -0.001324 -0.001430 0.011240 -0.002341 0.000616 -0.000929
# 4 0.002716 0.004115 -0.002341 0.026868 -0.008721 -0.002993
# 5 -0.010637 0.000669 0.000616 -0.008721 0.053240 0.014599
# 6 -0.010729 -0.019951 -0.000929 -0.002993 0.014599 0.045154
#
#
# Mechanical properties :
#
#
# Convention : Reuss Voigt Hill
#
# Bulk Modulus (GPa) = 23.92742 52.41462 38.17102
# Shear Modulus (GPa) = 25.97274 41.20314 33.58794
#
# Velocity S-wave (km/s) = 3.17415 3.99792 3.60961
# Velocity P-wave (km/s) = 4.76607 6.45318 5.67270
#
# Compressibility (1/GPa) = 0.04179305
#
# Stress axis : x y z
#
# Youngs Moduli (GPa) = 68.20081 46.18270 88.97145
#
# Poissons Ratio (x) = 0.00588 0.11776
# Poissons Ratio (y) = 0.00868 0.12725
# Poissons Ratio (z) = 0.09027 0.06605
#
# Static dielectric constant tensor:
#      x y z
#    x 2.145990 0.051910 0.002770 
#    y 0.051910 2.190810 -0.042520 
#    z 0.002770 -0.042520 2.045560 
# 
# From -- ./inp_files/76327.got.cif
#   From: 2010.05.17/outbox.cif.g08.bks.cpg/sg2_39_cif.got.tgz:76327.got - 2010.06.03 11:33:40.
