data_PCOD9053486
_publ_section_title
;
Structure prediction by ZEFSAII (Michael W. Deem and Ramdas Pophale) SiO2 
 PCOD9053486
Probable space group: P -1
;
_chemical_formula_sum "Si O2"
_cell_formula_units_Z 14
_cell_length_a 13.500121
_cell_length_b 6.062201
_cell_length_c 11.898765
_cell_angle_alpha 75.373275
_cell_angle_beta 115.290319
_cell_angle_gamma 133.029440
_cell_volume 642.502467
_symmetry_space_group_name_H-M "P -1"
_symmetry_group_IT_number 2
_symmetry_cell_setting 'triclinic'
loop_
_space_group_symop_operation_xyz
x,y,z
-x,-y,-z
loop_
_atom_site_type_symbol
_atom_site_label
_atom_site_fract_x
_atom_site_fract_y
_atom_site_fract_z
Si Si1 0.663755 0.701119 0.010567
Si Si2 0.836229 0.551160 0.530220
Si Si3 0.152447 0.888022 0.312281
Si Si4 0.098216 0.134706 0.708737
Si Si5 0.848552 0.332233 0.894176
Si Si6 0.444875 0.692343 0.447545
Si Si7 0.331678 0.497446 0.198334
O O1 0.781335 0.790414 0.152722
O O2 0.500000 0.500000 0.000000
O O3 0.643378 0.503891 0.919756
O O4 0.729014 0.015858 0.940923
O O5 0.807063 0.239506 0.556859
O O6 0.828816 0.630080 0.389441
O O7 0.719141 0.528525 0.551844
O O8 0.994472 0.816591 0.629378
O O9 0.124440 0.688837 0.218406
O O10 0.016115 0.854904 0.284827
O O11 0.283916 0.207084 0.279196
O O12 0.807888 0.536063 0.859223
O O13 0.000000 0.500000 0.000000
O O14 0.500000 0.500000 0.500000
O O15 0.446935 0.761100 0.306712
O O16 0.500000 0.000000 0.500000
#
# Coordination Sequence:
#
# PCOD9053486 Si02
#       7
#     2   2   2   2   2   2   2
#     4  11  27  45  69 104 151 194 246 310 383 457
#     4  11  24  43  71 105 143 190 247 311 377 450
#     4  11  19  41  69 102 138 179 254 305 365 443
#     4  11  24  43  68 101 148 194 244 307 379 453
#     4  11  22  40  72 101 135 186 244 303 367 445
#     4  12  27  46  75 110 147 194 251 315 379 451
#     4  11  24  44  71 101 140 192 246 310 370 453
#
# _framework density 21.789801000000001
#
# number of rings (size 3 to 8) (size 9 to 14) (size 15 to 20)
#    0.000    0.857    2.857    3.857    4.000    2.857 
#    0.000    1.429    0.000    0.000    0.000    0.000 
#    0.000    0.000    0.000    0.000    0.000    0.000 
#
# Total GULP energy -77951.026419 kJ/mol
# GULP energy per Si atom -5567.930458 kJ/mol
# Density = 2.174021 g / cm^3
# Si number density = 21.789801 Si / 1000 Ang^3
#
#
#
# Elastic Constant Matrix: (Units=GPa)
#
#
# Indices 1 2 3 4 5 6 
#
# 1 95.4928 13.7727 46.6142 13.6196 1.3792 -3.2709
# 2 13.7727 63.6985 41.0665 -5.6147 4.8204 -2.9607
# 3 46.6142 41.0665 159.1630 -5.5794 -6.1552 2.0152
# 4 13.6196 -5.6147 -5.5794 30.8320 -3.5379 2.5551
# 5 1.3792 4.8204 -6.1552 -3.5379 42.9568 -0.8879
# 6 -3.2709 -2.9607 2.0152 2.5551 -0.8879 28.0886
#
#
#
# Elastic Compliance Matrix: (Units=1/GPa)
#
#
# Indices 1 2 3 4 5 6 
#
# 1 0.013779 -0.000686 -0.004206 -0.007351 -0.001523 0.002454
# 2 -0.000686 0.019499 -0.004869 0.002506 -0.002616 0.002014
# 3 -0.004206 -0.004869 0.008984 0.003000 0.002177 -0.001852
# 4 -0.007351 0.002506 0.003000 0.037408 0.003381 -0.004103
# 5 -0.001523 -0.002616 0.002177 0.003381 0.024209 -0.000152
# 6 0.002454 0.002014 -0.001852 -0.004103 -0.000152 0.036601
#
#
# Mechanical properties :
#
#
# Convention : Reuss Voigt Hill
#
# Bulk Modulus (GPa) = 43.97722 57.91790 50.94756
# Shear Modulus (GPa) = 29.83641 34.83554 32.33598
#
# Velocity S-wave (km/s) = 3.70440 4.00272 3.85645
# Velocity P-wave (km/s) = 6.20669 6.92823 6.57736
#
# Compressibility (1/GPa) = 0.02273904
#
# Stress axis : x y z
#
# Youngs Moduli (GPa) = 72.57675 51.28560 111.31262
#
# Poissons Ratio (x) = 0.03519 0.46817
# Poissons Ratio (y) = 0.04980 0.54196
# Poissons Ratio (z) = 0.30525 0.24970
#
# Static dielectric constant tensor:
#      x y z
#    x 1.746100 0.001020 -0.051820 
#    y 0.001020 1.936780 0.134130 
#    z -0.051820 0.134130 1.693570 
# 
# From -- ./inp_files/71134.got.cif
#   From: 2010.05.17/outbox.cif.g08.bks.cpg/sg2_36_cif.got.tgz:71134.got - 2010.06.03 11:33:40.
