data_PCOD9053473
_publ_section_title
;
Structure prediction by ZEFSAII (Michael W. Deem and Ramdas Pophale) SiO2 
 PCOD9053473
Probable space group: P -1
;
_chemical_formula_sum "Si O2"
_cell_formula_units_Z 16
_cell_length_a 13.870463
_cell_length_b 12.361544
_cell_length_c 17.652030
_cell_angle_alpha 26.798259
_cell_angle_beta 32.430987
_cell_angle_gamma 47.234941
_cell_volume 696.286448
_symmetry_space_group_name_H-M "P -1"
_symmetry_group_IT_number 2
_symmetry_cell_setting 'triclinic'
loop_
_space_group_symop_operation_xyz
x,y,z
-x,-y,-z
loop_
_atom_site_type_symbol
_atom_site_label
_atom_site_fract_x
_atom_site_fract_y
_atom_site_fract_z
Si Si1 0.844485 0.134228 0.185722
Si Si2 0.107529 0.697690 0.661829
Si Si3 0.494112 0.210875 0.285701
Si Si4 0.110237 0.938513 0.035289
Si Si5 0.496251 0.535062 0.226811
Si Si6 0.858679 0.018410 0.692348
Si Si7 0.924448 0.422727 0.514575
Si Si8 0.518918 0.156024 0.585568
O O1 0.682917 0.139041 0.228751
O O2 0.709996 0.979717 0.436339
O O3 0.963225 0.420503 0.942492
O O4 0.989926 0.993036 0.150535
O O5 0.139048 0.778360 0.502332
O O6 0.303675 0.719730 0.557732
O O7 0.012938 0.887808 0.646038
O O8 0.510594 0.440903 0.189176
O O9 0.485549 0.132968 0.252204
O O10 0.322659 0.114490 0.784804
O O11 0.000000 0.000000 0.000000
O O12 0.079422 0.643619 0.229469
O O13 0.285830 0.550817 0.368103
O O14 0.526070 0.335402 0.394530
O O15 0.657142 0.801075 0.964219
O O16 0.908417 0.159179 0.651193
O O17 0.000000 0.500000 0.500000
#
# Coordination Sequence:
#
# PCOD9053473 Si02
#       8
#     2   2   2   2   2   2   2   2
#     4  11  20  42  68  98 140 176 235 287 346 398
#     4  11  27  44  71 104 140 189 224 292 356 409
#     4  11  19  40  72 102 131 180 232 294 337 400
#     4  12  22  43  70 102 138 177 233 298 343 398
#     4  12  23  46  69 102 141 184 231 290 349 407
#     4  11  27  50  65  98 153 185 224 280 356 433
#     4  12  28  46  72 102 139 193 229 279 354 427
#     4  12  25  41  74 109 132 181 242 295 344 403
#
# _framework density 22.979049
#
# number of rings (size 3 to 8) (size 9 to 14) (size 15 to 20)
#    0.000    0.500    7.500    1.125    3.500    3.500 
#    0.000    1.250    0.000    0.000    0.000    0.000 
#    0.000    0.000    0.000    0.000    0.000    0.000 
#
# Total GULP energy -89315.998345 kJ/mol
# GULP energy per Si atom -5582.249897 kJ/mol
# Density = 2.292675 g / cm^3
# Si number density = 22.979049 Si / 1000 Ang^3
#
#
#
# Elastic Constant Matrix: (Units=GPa)
#
#
# Indices 1 2 3 4 5 6 
#
# 1 97.0281 32.5685 63.6391 2.3990 -34.0971 3.8072
# 2 32.5685 92.5607 46.4130 -4.4839 -12.3699 19.5872
# 3 63.6391 46.4130 125.5954 -5.6135 -38.8369 14.4065
# 4 2.3990 -4.4839 -5.6135 39.5304 -3.0172 -4.7414
# 5 -34.0971 -12.3699 -38.8369 -3.0172 29.6867 5.0730
# 6 3.8072 19.5872 14.4065 -4.7414 5.0730 15.3615
#
#
#
# Elastic Compliance Matrix: (Units=1/GPa)
#
#
# Indices 1 2 3 4 5 6 
#
# 1 0.019815 -0.001464 -0.002388 -0.001101 0.020252 -0.007832
# 2 -0.001464 0.018332 0.000683 -0.000154 0.011536 -0.027510
# 3 -0.002388 0.000683 0.023066 0.002179 0.033457 -0.032288
# 4 -0.001101 -0.000154 0.002179 0.026571 0.003274 0.005546
# 5 0.020252 0.011536 0.033457 0.003274 0.121257 -0.090140
# 6 -0.007832 -0.027510 -0.032288 0.005546 -0.090140 0.163877
#
#
# Mechanical properties :
#
#
# Convention : Reuss Voigt Hill
#
# Bulk Modulus (GPa) = 18.22294 66.71393 42.46844
# Shear Modulus (GPa) = 12.57709 28.41996 20.49852
#
# Velocity S-wave (km/s) = 2.34204 3.52060 2.98997
# Velocity P-wave (km/s) = 3.90653 6.75438 5.51737
#
# Compressibility (1/GPa) = 0.05487589
#
# Stress axis : x y z
#
# Youngs Moduli (GPa) = 50.46643 54.54906 43.35393
#
# Poissons Ratio (x) = 0.07988 0.10352
# Poissons Ratio (y) = 0.07390 -0.02963
# Poissons Ratio (z) = 0.12050 -0.03728
#
# Static dielectric constant tensor:
#      x y z
#    x 1.895650 0.027890 0.074860 
#    y 0.027890 1.940040 -0.026960 
#    z 0.074860 -0.026960 1.842240 
# 
# From -- ./inp_files/573560.got.cif
#   From: 2010.05.17/outbox.cif.g08.bks.cpg/sg2_287_cif.got.tgz:573560.got - 2010.06.03 11:33:40.
