data_PCOD9053757
_publ_section_title
;
Structure prediction by ZEFSAII (Michael W. Deem and Ramdas Pophale) SiO2 
 PCOD9053757
Probable space group: P -1
;
_chemical_formula_sum "Si O2"
_cell_formula_units_Z 16
_cell_length_a 11.524504
_cell_length_b 11.501461
_cell_length_c 13.717065
_cell_angle_alpha 69.249951
_cell_angle_beta 88.395360
_cell_angle_gamma 144.691618
_cell_volume 795.768870
_symmetry_space_group_name_H-M "P -1"
_symmetry_group_IT_number 2
_symmetry_cell_setting 'triclinic'
loop_
_space_group_symop_operation_xyz
x,y,z
-x,-y,-z
loop_
_atom_site_type_symbol
_atom_site_label
_atom_site_fract_x
_atom_site_fract_y
_atom_site_fract_z
Si Si1 0.887825 0.028361 0.775261
Si Si2 0.531845 0.268249 0.015018
Si Si3 0.912819 0.531878 0.424119
Si Si4 0.556041 0.893160 0.319238
Si Si5 0.961599 0.481266 0.121121
Si Si6 0.047446 0.842602 0.049253
Si Si7 0.279033 0.774854 0.199542
Si Si8 0.982312 0.119384 0.176684
O O1 0.955518 0.208334 0.651090
O O2 0.599429 0.765922 0.890656
O O3 0.021437 0.178394 0.833833
O O4 0.959695 0.960718 0.757738
O O5 0.464944 0.067809 0.115971
O O6 0.793421 0.322620 0.880142
O O7 0.800376 0.575672 0.897458
O O8 0.629594 0.290225 0.530580
O O9 0.000000 0.500000 0.500000
O O10 0.015560 0.576317 0.306424
O O11 0.388925 0.771490 0.265002
O O12 0.739423 0.182371 0.246201
O O13 0.728230 0.939361 0.274741
O O14 0.000000 0.500000 0.000000
O O15 0.925577 0.593838 0.104785
O O16 0.011906 0.888000 0.939440
O O17 0.344324 0.102475 0.977137
#
# Coordination Sequence:
#
# PCOD9053757 Si02
#       8
#     2   2   2   2   2   2   2   2
#     4   9  20  39  61  82 116 162 195 240 287 351
#     4   8  19  34  59  84 112 155 193 237 291 342
#     4   9  19  42  62  82 112 158 210 239 290 337
#     4  11  24  32  58  90 118 162 189 244 301 341
#     4  11  20  37  58  92 120 147 198 249 307 347
#     4   9  20  36  56  87 119 153 190 241 295 347
#     4   9  20  40  58  83 124 153 197 250 285 349
#     4  12  20  35  56  91 125 150 193 232 301 371
#
# _framework density 20.106341
#
# number of rings (size 3 to 8) (size 9 to 14) (size 15 to 20)
#    0.750    1.500    2.500    1.500    0.000    2.500 
#    0.000    0.000    0.000    0.000    0.000    4.375 
#    0.000    0.000    0.000    0.000    0.000    0.000 
#
# Total GULP energy -89097.221914 kJ/mol
# GULP energy per Si atom -5568.576370 kJ/mol
# Density = 2.006058 g / cm^3
# Si number density = 20.106341 Si / 1000 Ang^3
#
#
#
# Elastic Constant Matrix: (Units=GPa)
#
#
# Indices 1 2 3 4 5 6 
#
# 1 100.0258 19.1352 50.1532 -2.7402 -4.5860 -12.8272
# 2 19.1352 57.3943 16.9014 0.2336 -4.3758 -4.9787
# 3 50.1532 16.9014 98.0519 -10.7273 -19.5140 -10.2917
# 4 -2.7402 0.2336 -10.7273 16.2255 4.1893 -2.2303
# 5 -4.5860 -4.3758 -19.5140 4.1893 38.4098 -0.2136
# 6 -12.8272 -4.9787 -10.2917 -2.2303 -0.2136 25.5034
#
#
#
# Elastic Compliance Matrix: (Units=1/GPa)
#
#
# Indices 1 2 3 4 5 6 
#
# 1 0.014376 -0.002539 -0.007045 -0.001157 -0.002005 0.003774
# 2 -0.002539 0.019033 -0.001803 -0.001985 0.001174 0.001547
# 3 -0.007045 -0.001803 0.016756 0.008733 0.006534 0.003685
# 4 -0.001157 -0.001985 0.008733 0.069307 -0.003439 0.008587
# 5 -0.002005 0.001174 0.006534 -0.003439 0.029634 0.001805
# 6 0.003774 0.001547 0.003685 0.008587 0.001805 0.043664
#
#
# Mechanical properties :
#
#
# Convention : Reuss Voigt Hill
#
# Bulk Modulus (GPa) = 36.51006 47.53908 42.02457
# Shear Modulus (GPa) = 22.25459 27.31321 24.78390
#
# Velocity S-wave (km/s) = 3.33054 3.68970 3.51471
# Velocity P-wave (km/s) = 5.74351 6.46892 6.11698
#
# Compressibility (1/GPa) = 0.02738971
#
# Stress axis : x y z
#
# Youngs Moduli (GPa) = 69.56088 52.54132 59.68156
#
# Poissons Ratio (x) = 0.13341 0.42046
# Poissons Ratio (y) = 0.17662 0.10761
# Poissons Ratio (z) = 0.49006 0.09474
#
# Static dielectric constant tensor:
#      x y z
#    x 1.795780 0.009640 -0.019490 
#    y 0.009640 1.737690 0.024500 
#    z -0.019490 0.024500 1.726860 
# 
# From -- ./inp_files/567995.got.cif
#   From: 2010.05.17/outbox.cif.g08.bks.cpg/sg2_284_cif.got.tgz:567995.got - 2010.06.03 11:33:40.
