data_PCOD9053152
_publ_section_title
;
Structure prediction by ZEFSAII (Michael W. Deem and Ramdas Pophale) SiO2 
 PCOD9053152
Probable space group: P -1
;
_chemical_formula_sum "Si O2"
_cell_formula_units_Z 16
_cell_length_a 11.760547
_cell_length_b 7.095252
_cell_length_c 12.559824
_cell_angle_alpha 122.552163
_cell_angle_beta 107.212041
_cell_angle_gamma 57.021795
_cell_volume 741.055284
_symmetry_space_group_name_H-M "P -1"
_symmetry_group_IT_number 2
_symmetry_cell_setting 'triclinic'
loop_
_space_group_symop_operation_xyz
x,y,z
-x,-y,-z
loop_
_atom_site_type_symbol
_atom_site_label
_atom_site_fract_x
_atom_site_fract_y
_atom_site_fract_z
Si Si1 0.682241 0.010117 0.716996
Si Si2 0.150238 0.728033 0.768292
Si Si3 0.799482 0.845732 0.917503
Si Si4 0.570764 0.605323 0.137929
Si Si5 0.877021 0.474427 0.513039
Si Si6 0.024245 0.386929 0.733144
Si Si7 0.885389 0.167370 0.896074
Si Si8 0.750458 0.753256 0.103908
O O1 0.529608 0.233490 0.745238
O O2 0.779594 0.141042 0.778850
O O3 0.694847 0.907228 0.810900
O O4 0.753133 0.756959 0.589150
O O5 0.293342 0.610830 0.833579
O O6 0.168338 0.663148 0.628587
O O7 0.075625 0.572527 0.748498
O O8 0.033173 0.017655 0.841194
O O9 0.913791 0.555249 0.842175
O O10 0.734317 0.887026 0.027177
O O11 0.868610 0.014145 0.945996
O O12 0.620304 0.773301 0.133488
O O13 0.500000 0.500000 0.000000
O O14 0.000000 0.500000 0.500000
O O15 0.943037 0.334678 0.600958
O O16 0.159594 0.188593 0.769620
O O17 0.835129 0.452341 0.005191
#
# Coordination Sequence:
#
# PCOD9053152 Si02
#       8
#     2   2   2   2   2   2   2   2
#     4   9  18  33  50  72 108 135 168 222 250 302
#     4   9  18  30  53  77 100 142 172 213 270 299
#     4   8  17  32  47  76 105 138 171 211 261 306
#     4  11  21  32  45  79 115 132 174 217 250 322
#     4   9  14  31  52  73  98 132 179 219 254 307
#     4   8  16  28  48  77 100 126 170 218 251 298
#     4   9  18  34  53  82 100 135 179 215 259 309
#     4  11  19  30  54  75 111 143 163 211 275 307
#
# _framework density 21.59083
#
# number of rings (size 3 to 8) (size 9 to 14) (size 15 to 20)
#    0.750    2.000    3.750    0.375    0.000    7.500 
#    0.000    0.000    0.000    4.500    0.000    3.500 
#    0.000    0.000    0.000    0.000    0.000    0.000 
#
# Total GULP energy -89094.598213 kJ/mol
# GULP energy per Si atom -5568.412388 kJ/mol
# Density = 2.154169 g / cm^3
# Si number density = 21.590830 Si / 1000 Ang^3
#
#
#
# Elastic Constant Matrix: (Units=GPa)
#
#
# Indices 1 2 3 4 5 6 
#
# 1 86.0341 38.0272 28.0963 3.9250 -8.8932 -16.4809
# 2 38.0272 60.1111 27.5300 23.5826 0.3443 -19.7058
# 3 28.0963 27.5300 86.3610 15.4572 -0.2614 -7.7717
# 4 3.9250 23.5826 15.4572 31.9716 -8.9584 -9.9441
# 5 -8.8932 0.3443 -0.2614 -8.9584 27.0156 0.1479
# 6 -16.4809 -19.7058 -7.7717 -9.9441 0.1479 43.2960
#
#
#
# Elastic Compliance Matrix: (Units=1/GPa)
#
#
# Indices 1 2 3 4 5 6 
#
# 1 0.022062 -0.017660 -0.004262 0.017135 0.013109 0.003486
# 2 -0.017660 0.042902 -0.001836 -0.031696 -0.016917 0.005253
# 3 -0.004262 -0.001836 0.014592 -0.006544 -0.003401 -0.001330
# 4 0.017135 -0.031696 -0.006544 0.065256 0.027589 0.005816
# 5 0.013109 -0.016917 -0.003401 0.027589 0.050647 0.002844
# 6 0.003486 0.005253 -0.001330 0.005816 0.002844 0.027902
#
#
# Mechanical properties :
#
#
# Convention : Reuss Voigt Hill
#
# Bulk Modulus (GPa) = 31.20973 46.64588 38.92781
# Shear Modulus (GPa) = 17.75837 29.71350 23.73593
#
# Velocity S-wave (km/s) = 2.87103 3.71375 3.31925
# Velocity P-wave (km/s) = 5.04746 6.32777 5.72353
#
# Compressibility (1/GPa) = 0.03204129
#
# Stress axis : x y z
#
# Youngs Moduli (GPa) = 45.32725 23.30867 68.52882
#
# Poissons Ratio (x) = 0.41162 0.29204
# Poissons Ratio (y) = 0.80047 0.12585
# Poissons Ratio (z) = 0.19316 0.04281
#
# Static dielectric constant tensor:
#      x y z
#    x 1.816430 0.016790 0.042540 
#    y 0.016790 1.875930 -0.014650 
#    z 0.042540 -0.014650 1.882720 
# 
# From -- ./inp_files/418199.got.cif
#   From: 2010.05.17/outbox.cif.g08.bks.cpg/sg2_210_cif.got.tgz:418199.got - 2010.06.03 11:33:40.
