data_PCOD9053885
_publ_section_title
;
Structure prediction by ZEFSAII (Michael W. Deem and Ramdas Pophale) SiO2 
 PCOD9053885
Probable space group: P -1
;
_chemical_formula_sum "Si O2"
_cell_formula_units_Z 14
_cell_length_a 9.650059
_cell_length_b 15.420399
_cell_length_c 9.734453
_cell_angle_alpha 60.199894
_cell_angle_beta 86.135401
_cell_angle_gamma 42.005800
_cell_volume 718.593007
_symmetry_space_group_name_H-M "P -1"
_symmetry_group_IT_number 2
_symmetry_cell_setting 'triclinic'
loop_
_space_group_symop_operation_xyz
x,y,z
-x,-y,-z
loop_
_atom_site_type_symbol
_atom_site_label
_atom_site_fract_x
_atom_site_fract_y
_atom_site_fract_z
Si Si1 0.125857 0.689623 0.487145
Si Si2 0.616528 0.016363 0.882004
Si Si3 0.903700 0.169662 0.892210
Si Si4 0.782240 0.590972 0.348321
Si Si5 0.238627 0.377718 0.993669
Si Si6 0.448630 0.471746 0.885142
Si Si7 0.446191 0.995119 0.659977
O O1 0.160894 0.748439 0.317714
O O2 0.230084 0.521320 0.561878
O O3 0.263308 0.634402 0.663019
O O4 0.840048 0.839283 0.417389
O O5 0.459626 0.209769 0.747914
O O6 0.587946 0.987084 0.757044
O O7 0.500000 0.000000 0.000000
O O8 0.881325 0.887470 0.018224
O O9 0.685062 0.307326 0.906721
O O10 0.000000 0.000000 0.000000
O O11 0.821850 0.599001 0.181366
O O12 0.000000 0.500000 0.500000
O O13 0.328953 0.436833 0.959338
O O14 0.443455 0.178755 0.180802
O O15 0.000000 0.500000 0.000000
O O16 0.500000 0.500000 0.000000
O O17 0.500000 0.000000 0.500000
#
# Coordination Sequence:
#
# PCOD9053885 Si02
#       7
#     2   2   2   2   2   2   2
#     4  11  23  44  70  96 136 181 223 277 338 406
#     4  12  23  42  71 100 132 178 229 278 330 402
#     4  12  25  47  70  97 142 182 223 283 340 409
#     4  11  20  38  66 105 130 164 228 278 327 394
#     4  11  25  44  68  95 138 176 220 281 337 395
#     4  11  27  46  67 101 137 178 229 278 345 406
#     4  12  24  42  67 103 137 172 229 283 334 394
#
# _framework density 19.482516
#
# number of rings (size 3 to 8) (size 9 to 14) (size 15 to 20)
#    0.000    0.571    4.286    4.714    4.000    0.000 
#    2.571    1.429    0.000    0.000    0.000    0.000 
#    0.000    0.000    0.000    0.000    0.000    0.000 
#
# Total GULP energy -78313.300321 kJ/mol
# GULP energy per Si atom -5593.807166 kJ/mol
# Density = 1.943817 g / cm^3
# Si number density = 19.482516 Si / 1000 Ang^3
#
#
#
# Elastic Constant Matrix: (Units=GPa)
#
#
# Indices 1 2 3 4 5 6 
#
# 1 114.5269 55.8627 70.9181 18.2414 11.6303 -9.1218
# 2 55.8627 89.2770 55.9488 6.3547 -5.9162 0.8635
# 3 70.9181 55.9488 167.6596 17.5935 -1.3647 17.9498
# 4 18.2414 6.3547 17.5935 44.0658 4.4277 8.3585
# 5 11.6303 -5.9162 -1.3647 4.4277 47.5279 3.1159
# 6 -9.1218 0.8635 17.9498 8.3585 3.1159 34.6129
#
#
#
# Elastic Compliance Matrix: (Units=1/GPa)
#
#
# Indices 1 2 3 4 5 6 
#
# 1 0.018384 -0.008083 -0.005599 -0.005485 -0.005797 0.009797
# 2 -0.008083 0.018006 -0.002517 0.001731 0.004121 -0.002063
# 3 -0.005599 -0.002517 0.009922 -0.000196 0.001797 -0.006673
# 4 -0.005485 0.001731 -0.000196 0.026292 -0.000392 -0.007701
# 5 -0.005797 0.004121 0.001797 -0.000392 0.023360 -0.004571
# 6 0.009797 -0.002063 -0.006673 -0.007701 -0.004571 0.037256
#
#
# Mechanical properties :
#
#
# Convention : Reuss Voigt Hill
#
# Bulk Modulus (GPa) = 71.87027 81.88030 76.87528
# Shear Modulus (GPa) = 29.36753 37.82357 33.59555
#
# Velocity S-wave (km/s) = 3.88671 4.41092 4.15709
# Velocity P-wave (km/s) = 7.55723 8.24988 7.91114
#
# Compressibility (1/GPa) = 0.01391396
#
# Stress axis : x y z
#
# Youngs Moduli (GPa) = 54.39555 55.53782 100.78127
#
# Poissons Ratio (x) = 0.44889 0.56432
# Poissons Ratio (y) = 0.43966 0.25367
# Poissons Ratio (z) = 0.30458 0.13979
#
# Static dielectric constant tensor:
#      x y z
#    x 1.596000 -0.057000 -0.051940 
#    y -0.057000 1.635840 -0.066920 
#    z -0.051940 -0.066920 1.629700 
# 
# From -- ./inp_files/149506.got.cif
#   From: 2010.05.17/outbox.cif.g08.bks.cpg/sg2_75_cif.got.tgz:149506.got - 2010.06.03 11:33:40.
