data_PCOD9053884
_publ_section_title
;
Structure prediction by ZEFSAII (Michael W. Deem and Ramdas Pophale) SiO2 
 PCOD9053884
Probable space group: P -1
;
_chemical_formula_sum "Si O2"
_cell_formula_units_Z 14
_cell_length_a 16.510713
_cell_length_b 10.010058
_cell_length_c 9.599309
_cell_angle_alpha 105.170528
_cell_angle_beta 125.846459
_cell_angle_gamma 37.286005
_cell_volume 708.475477
_symmetry_space_group_name_H-M "P -1"
_symmetry_group_IT_number 2
_symmetry_cell_setting 'triclinic'
loop_
_space_group_symop_operation_xyz
x,y,z
-x,-y,-z
loop_
_atom_site_type_symbol
_atom_site_label
_atom_site_fract_x
_atom_site_fract_y
_atom_site_fract_z
Si Si1 0.337449 0.589774 0.904917
Si Si2 0.820625 0.354028 0.510755
Si Si3 0.033643 0.045495 0.905276
Si Si4 0.438652 0.933858 0.999598
Si Si5 0.927520 0.698129 0.878028
Si Si6 0.037369 0.388014 0.655337
Si Si7 0.463094 0.906453 0.347379
O O1 0.215557 0.696080 0.676805
O O2 0.224428 0.790341 0.966185
O O3 0.500000 0.500000 0.000000
O O4 0.424297 0.344885 0.967444
O O5 0.925426 0.376738 0.578354
O O6 0.630342 0.618072 0.444932
O O7 0.911934 0.170308 0.679847
O O8 0.006207 0.233242 0.978633
O O9 0.000000 0.000000 0.000000
O O10 0.241777 0.119053 0.807113
O O11 0.500000 0.000000 0.000000
O O12 0.438566 0.962118 0.173083
O O13 0.990790 0.567608 0.760203
O O14 0.718371 0.946800 0.739959
O O15 0.000000 0.500000 0.000000
O O16 0.000000 0.500000 0.500000
O O17 0.500000 0.000000 0.500000
#
# Coordination Sequence:
#
# PCOD9053884 Si02
#       7
#     2   2   2   2   2   2   2
#     4  11  25  48  70  95 141 187 227 278 349 419
#     4  11  23  44  71  98 135 188 226 279 342 417
#     4  12  27  45  68 104 140 180 228 288 348 409
#     4  11  25  41  68  99 135 175 230 282 332 402
#     4  12  23  45  72  96 139 179 225 288 344 400
#     4  12  24  42  72 105 134 177 239 284 335 406
#     4  11  20  38  66 101 129 172 222 280 343 391
#
# _framework density 19.760740999999999
#
# number of rings (size 3 to 8) (size 9 to 14) (size 15 to 20)
#    0.000    0.571    4.286    4.714    4.000    0.000 
#    0.000    1.429    0.000    0.000    0.000    0.000 
#    0.000    0.000    0.000    0.000    0.000    0.000 
#
# Total GULP energy -78222.094079 kJ/mol
# GULP energy per Si atom -5587.292434 kJ/mol
# Density = 1.971576 g / cm^3
# Si number density = 19.760741 Si / 1000 Ang^3
#
#
#
# Elastic Constant Matrix: (Units=GPa)
#
#
# Indices 1 2 3 4 5 6 
#
# 1 72.2839 44.3500 41.7595 -12.4331 -12.8942 6.6875
# 2 44.3500 100.7028 50.2564 11.0388 -23.7417 -5.3592
# 3 41.7595 50.2564 121.9142 -7.0395 -15.0856 -2.7962
# 4 -12.4331 11.0388 -7.0395 44.7017 -1.8591 3.8150
# 5 -12.8942 -23.7417 -15.0856 -1.8591 38.3811 1.7675
# 6 6.6875 -5.3592 -2.7962 3.8150 1.7675 38.9347
#
#
#
# Elastic Compliance Matrix: (Units=1/GPa)
#
#
# Indices 1 2 3 4 5 6 
#
# 1 0.024676 -0.010075 -0.003746 0.009405 0.001358 -0.006877
# 2 -0.010075 0.018948 -0.003968 -0.008241 0.006167 0.004581
# 3 -0.003746 -0.003968 0.011333 0.001695 0.000791 0.000709
# 4 0.009405 -0.008241 0.001695 0.027759 0.000320 -0.005362
# 5 0.001358 0.006167 0.000791 0.000320 0.030686 -0.000752
# 6 -0.006877 0.004581 0.000709 -0.005362 -0.000752 0.028106
#
#
# Mechanical properties :
#
#
# Convention : Reuss Voigt Hill
#
# Bulk Modulus (GPa) = 51.59791 63.07030 57.33411
# Shear Modulus (GPa) = 27.24108 34.97250 31.10679
#
# Velocity S-wave (km/s) = 3.71690 4.21146 3.97189
# Velocity P-wave (km/s) = 6.67746 7.45887 7.07896
#
# Compressibility (1/GPa) = 0.01938063
#
# Stress axis : x y z
#
# Youngs Moduli (GPa) = 40.52540 52.77506 88.23609
#
# Poissons Ratio (x) = 0.53170 0.33052
# Poissons Ratio (y) = 0.40828 0.35010
# Poissons Ratio (z) = 0.15180 0.20940
#
# Static dielectric constant tensor:
#      x y z
#    x 1.656280 0.102710 0.025750 
#    y 0.102710 1.526990 -0.102080 
#    z 0.025750 -0.102080 1.677700 
# 
# From -- ./inp_files/176449.got.cif
#   From: 2010.05.17/outbox.cif.g08.bks.cpg/sg2_89_cif.got.tgz:176449.got - 2010.06.03 11:33:40.
