data_PCOD9053015
_publ_section_title
;
Structure prediction by ZEFSAII (Michael W. Deem and Ramdas Pophale) SiO2 
 PCOD9053015
Probable space group: P -1
;
_chemical_formula_sum "Si O2"
_cell_formula_units_Z 16
_cell_length_a 15.925637
_cell_length_b 11.815694
_cell_length_c 10.420436
_cell_angle_alpha 79.220885
_cell_angle_beta 124.826186
_cell_angle_gamma 54.774203
_cell_volume 838.746442
_symmetry_space_group_name_H-M "P -1"
_symmetry_group_IT_number 2
_symmetry_cell_setting 'triclinic'
loop_
_space_group_symop_operation_xyz
x,y,z
-x,-y,-z
loop_
_atom_site_type_symbol
_atom_site_label
_atom_site_fract_x
_atom_site_fract_y
_atom_site_fract_z
Si Si1 0.008111 0.110527 0.635999
Si Si2 0.770730 0.543426 0.413370
Si Si3 0.246690 0.227719 0.828762
Si Si4 0.953556 0.692553 0.836356
Si Si5 0.646550 0.118170 0.113422
Si Si6 0.206838 0.242385 0.076824
Si Si7 0.603999 0.874499 0.385211
Si Si8 0.075547 0.067269 0.414471
O O1 0.917236 0.298938 0.598164
O O2 0.961006 0.179295 0.427836
O O3 0.939221 0.048991 0.621067
O O4 0.239333 0.904391 0.877851
O O5 0.825435 0.595144 0.352189
O O6 0.708340 0.662035 0.466715
O O7 0.575484 0.677058 0.153524
O O8 0.144207 0.303717 0.860131
O O9 0.259393 0.096906 0.789471
O O10 0.465871 0.046328 0.109503
O O11 0.767164 0.807040 0.584950
O O12 0.989786 0.776395 0.777552
O O13 0.133482 0.434133 0.029408
O O14 0.892774 0.755256 0.918870
O O15 0.711498 0.099353 0.313908
O O16 0.437933 0.009074 0.316720
#
# Coordination Sequence:
#
# PCOD9053015 Si02
#       8
#     2   2   2   2   2   2   2   2
#     4   9  21  32  47  75  94 132 163 194 238 276
#     4  11  18  30  51  76 102 125 152 195 248 292
#     4   9  18  31  45  79 103 117 156 194 242 295
#     4  11  18  35  52  67 102 130 155 198 243 278
#     4   9  18  32  48  72 105 122 154 202 240 283
#     4   9  22  30  48  79  95 126 160 191 245 293
#     4   9  20  30  49  78 101 120 156 197 244 293
#     4   9  19  36  48  71  98 128 167 197 227 286
#
# _framework density 19.076087000000001
#
# number of rings (size 3 to 8) (size 9 to 14) (size 15 to 20)
#    1.500    1.000    0.000    4.125    1.750    1.000 
#    0.000    0.000    0.000    1.500    0.000    0.000 
#    0.000    0.000    0.000    0.000    0.000    0.000 
#
# Total GULP energy -89091.232742 kJ/mol
# GULP energy per Si atom -5568.202046 kJ/mol
# Density = 1.903267 g / cm^3
# Si number density = 19.076087 Si / 1000 Ang^3
#
#
#
# Elastic Constant Matrix: (Units=GPa)
#
#
# Indices 1 2 3 4 5 6 
#
# 1 115.8340 48.2321 19.9682 -6.3341 -6.7311 4.2207
# 2 48.2321 75.1179 12.1605 -5.2664 2.4457 -2.6324
# 3 19.9682 12.1605 45.0068 2.8581 4.4000 2.5660
# 4 -6.3341 -5.2664 2.8581 24.0995 -0.4912 7.1954
# 5 -6.7311 2.4457 4.4000 -0.4912 21.0856 -0.5803
# 6 4.2207 -2.6324 2.5660 7.1954 -0.5803 28.1980
#
#
#
# Elastic Compliance Matrix: (Units=1/GPa)
#
#
# Indices 1 2 3 4 5 6 
#
# 1 0.013341 -0.007923 -0.004411 0.003336 0.006092 -0.003061
# 2 -0.007923 0.018958 -0.001421 0.001349 -0.004327 0.002652
# 3 -0.004411 -0.001421 0.025540 -0.004392 -0.006697 -0.000814
# 4 0.003336 0.001349 -0.004392 0.046780 0.002589 -0.011858
# 5 0.006092 -0.004327 -0.006697 0.002589 0.051322 -0.000311
# 6 -0.003061 0.002652 -0.000814 -0.011858 -0.000311 0.039263
#
#
# Mechanical properties :
#
#
# Convention : Reuss Voigt Hill
#
# Bulk Modulus (GPa) = 32.97222 44.07560 38.52391
# Shear Modulus (GPa) = 21.47553 25.04979 23.26266
#
# Velocity S-wave (km/s) = 3.35891 3.62767 3.49588
# Velocity P-wave (km/s) = 5.68904 6.37981 6.04430
#
# Compressibility (1/GPa) = 0.03032856
#
# Stress axis : x y z
#
# Youngs Moduli (GPa) = 74.95917 52.74723 39.15458
#
# Poissons Ratio (x) = 0.41794 0.17270
# Poissons Ratio (y) = 0.59394 0.05563
# Poissons Ratio (z) = 0.33063 0.07494
#
# Static dielectric constant tensor:
#      x y z
#    x 1.705830 -0.035920 0.031840 
#    y -0.035920 1.670430 0.021930 
#    z 0.031840 0.021930 1.720640 
# 
# From -- ./inp_files/451357.got.cif
#   From: 2010.05.17/outbox.cif.g08.bks.cpg/sg2_226_cif.got.tgz:451357.got - 2010.06.03 11:33:40.
