data_PCOD9053194
_publ_section_title
;
Structure prediction by ZEFSAII (Michael W. Deem and Ramdas Pophale) SiO2 
 PCOD9053194
Probable space group: P -1
;
_chemical_formula_sum "Si O2"
_cell_formula_units_Z 16
_cell_length_a 7.542927
_cell_length_b 9.612763
_cell_length_c 14.087887
_cell_angle_alpha 83.386461
_cell_angle_beta 121.833617
_cell_angle_gamma 66.645373
_cell_volume 724.620241
_symmetry_space_group_name_H-M "P -1"
_symmetry_group_IT_number 2
_symmetry_cell_setting 'triclinic'
loop_
_space_group_symop_operation_xyz
x,y,z
-x,-y,-z
loop_
_atom_site_type_symbol
_atom_site_label
_atom_site_fract_x
_atom_site_fract_y
_atom_site_fract_z
Si Si1 0.780607 0.002841 0.270176
Si Si2 0.477046 0.037944 0.631509
Si Si3 0.322816 0.800037 0.524385
Si Si4 0.963177 0.016949 0.830929
Si Si5 0.705732 0.265205 0.912917
Si Si6 0.689017 0.610646 0.484530
Si Si7 0.796771 0.559670 0.300051
Si Si8 0.399204 0.638112 0.762751
O O1 0.597680 0.971735 0.280344
O O2 0.030458 0.919857 0.412119
O O3 0.647205 0.202110 0.208647
O O4 0.883358 0.939839 0.199810
O O5 0.293561 0.226541 0.531014
O O6 0.437607 0.912149 0.569545
O O7 0.747628 0.011487 0.713558
O O8 0.457382 0.675594 0.483416
O O9 0.383328 0.692755 0.644878
O O10 0.840655 0.156185 0.866719
O O11 0.134933 0.840198 0.944887
O O12 0.431181 0.293713 0.833506
O O13 0.638401 0.454697 0.868659
O O14 0.691812 0.572956 0.377012
O O15 0.941689 0.461736 0.613810
O O16 0.817849 0.395993 0.276137
#
# Coordination Sequence:
#
# PCOD9053194 Si02
#       8
#     2   2   2   2   2   2   2   2
#     4  11  22  37  60  90 120 153 192 238 295 346
#     4  11  21  36  58  89 117 149 193 243 282 350
#     4  11  21  34  57  89 123 152 189 238 297 350
#     4  11  22  42  64  84 110 162 204 230 289 348
#     4   9  21  43  61  78 122 154 195 247 282 341
#     4  11  19  33  56  89 115 155 193 232 295 349
#     4   9  19  35  55  80 117 152 185 244 289 335
#     4   9  20  38  54  83 118 153 184 240 292 334
#
# _framework density 22.080532000000002
#
# number of rings (size 3 to 8) (size 9 to 14) (size 15 to 20)
#    0.750    1.000    2.500    3.375    1.750    1.000 
#    4.500    6.250    0.000    0.000    0.000    0.000 
#    0.000    0.000    0.000    0.000    0.000    0.000 
#
# Total GULP energy -89175.145064 kJ/mol
# GULP energy per Si atom -5573.446566 kJ/mol
# Density = 2.203028 g / cm^3
# Si number density = 22.080532 Si / 1000 Ang^3
#
#
#
# Elastic Constant Matrix: (Units=GPa)
#
#
# Indices 1 2 3 4 5 6 
#
# 1 45.2272 14.9926 -3.7015 -4.3901 -5.4552 -5.0832
# 2 14.9926 68.0173 12.9702 -11.4746 0.4379 -1.0757
# 3 -3.7015 12.9702 73.3939 -29.7630 1.3104 -5.7792
# 4 -4.3901 -11.4746 -29.7630 30.4430 -0.2619 7.5808
# 5 -5.4552 0.4379 1.3104 -0.2619 21.8937 -0.4521
# 6 -5.0832 -1.0757 -5.7792 7.5808 -0.4521 15.9645
#
#
#
# Elastic Compliance Matrix: (Units=1/GPa)
#
#
# Indices 1 2 3 4 5 6 
#
# 1 0.026554 -0.005944 0.004576 0.004145 0.006675 0.007932
# 2 -0.005944 0.017102 -0.001571 0.004964 -0.001746 -0.003715
# 3 0.004576 -0.001571 0.023508 0.023357 0.000019 -0.001230
# 4 0.004145 0.004964 0.023357 0.063096 -0.000120 -0.019855
# 5 0.006675 -0.001746 0.000019 -0.000120 0.047441 0.003415
# 6 0.007932 -0.003715 -0.001230 -0.019855 0.003415 0.073994
#
#
# Mechanical properties :
#
#
# Convention : Reuss Voigt Hill
#
# Bulk Modulus (GPa) = 16.31670 26.12898 21.22284
# Shear Modulus (GPa) = 17.98547 24.48539 21.23543
#
# Velocity S-wave (km/s) = 2.85711 3.33365 3.10454
# Velocity P-wave (km/s) = 4.27666 5.16496 4.74165
#
# Compressibility (1/GPa) = 0.06128691
#
# Stress axis : x y z
#
# Youngs Moduli (GPa) = 37.65851 58.47378 42.53820
#
# Poissons Ratio (x) = 0.34757 -0.19465
# Poissons Ratio (y) = 0.22385 0.06681
# Poissons Ratio (z) = -0.17232 0.09183
#
# Static dielectric constant tensor:
#      x y z
#    x 1.816130 -0.012440 -0.009070 
#    y -0.012440 1.871080 0.024010 
#    z -0.009070 0.024010 1.792100 
# 
# From -- ./inp_files/499163.got.cif
#   From: 2010.05.17/outbox.cif.g08.bks.cpg/sg2_250_cif.got.tgz:499163.got - 2010.06.03 11:33:40.
