data_PCOD9053352
_publ_section_title
;
Structure prediction by ZEFSAII (Michael W. Deem and Ramdas Pophale) SiO2 
 PCOD9053352
Probable space group: P -1
;
_chemical_formula_sum "Si O2"
_cell_formula_units_Z 12
_cell_length_a 8.418249
_cell_length_b 16.705441
_cell_length_c 6.866949
_cell_angle_alpha 113.065958
_cell_angle_beta 93.671452
_cell_angle_gamma 37.336194
_cell_volume 482.972873
_symmetry_space_group_name_H-M "P -1"
_symmetry_group_IT_number 2
_symmetry_cell_setting 'triclinic'
loop_
_space_group_symop_operation_xyz
x,y,z
-x,-y,-z
loop_
_atom_site_type_symbol
_atom_site_label
_atom_site_fract_x
_atom_site_fract_y
_atom_site_fract_z
Si Si1 0.464373 0.295051 0.267306
Si Si2 0.105920 0.777292 0.931609
Si Si3 0.674051 0.943202 0.760507
Si Si4 0.933761 0.412736 0.201612
Si Si5 0.775183 0.062511 0.393945
Si Si6 0.751610 0.761696 0.289937
O O1 0.606061 0.294613 0.118170
O O2 0.308760 0.428093 0.540083
O O3 0.230553 0.329187 0.211939
O O4 0.719631 0.127694 0.241054
O O5 0.117185 0.667550 0.842105
O O6 0.953492 0.863301 0.792084
O O7 0.895942 0.910292 0.212880
O O8 0.795750 0.806520 0.515831
O O9 0.460341 0.093759 0.746282
O O10 0.500000 0.000000 0.000000
O O11 0.968214 0.399530 0.957226
O O12 0.458966 0.213111 0.612102
O O13 0.000000 0.000000 0.500000
#
# Coordination Sequence:
#
# PCOD9053352 Si02
#       6
#     2   2   2   2   2   2
#     4  11  26  44  67 102 142 185 228 286 349 410
#     4  12  22  44  72  97 136 182 235 284 345 410
#     4  11  19  37  65 103 133 171 230 288 335 399
#     4  11  24  45  69  99 141 185 231 281 348 418
#     4  12  24  41  66 103 141 173 233 297 341 405
#     4  11  21  37  65 101 133 177 230 278 345 410
#
# _framework density 24.846115999999999
#
# number of rings (size 3 to 8) (size 9 to 14) (size 15 to 20)
#    0.000    0.667    3.333    6.000    0.000    0.667 
#    0.000    5.000    0.000    0.000    0.000    0.000 
#    0.000    0.000    0.000    0.000    0.000    0.000 
#
# Total GULP energy -67038.690947 kJ/mol
# GULP energy per Si atom -5586.557579 kJ/mol
# Density = 2.478956 g / cm^3
# Si number density = 24.846116 Si / 1000 Ang^3
#
#
#
# Elastic Constant Matrix: (Units=GPa)
#
#
# Indices 1 2 3 4 5 6 
#
# 1 135.0955 31.1736 32.1475 5.9257 2.3052 23.6159
# 2 31.1736 35.8688 11.3462 -1.8317 11.2938 6.2603
# 3 32.1475 11.3462 164.9223 20.8883 14.9807 12.2954
# 4 5.9257 -1.8317 20.8883 35.9782 2.9107 8.4351
# 5 2.3052 11.2938 14.9807 2.9107 62.2279 -1.1857
# 6 23.6159 6.2603 12.2954 8.4351 -1.1857 28.0307
#
#
#
# Elastic Compliance Matrix: (Units=1/GPa)
#
#
# Indices 1 2 3 4 5 6 
#
# 1 0.010697 -0.008177 -0.001133 -0.000069 0.001238 -0.006616
# 2 -0.008177 0.038156 -0.000830 0.005034 -0.006716 -0.003067
# 3 -0.001133 -0.000830 0.006985 -0.003592 -0.001338 -0.000900
# 4 -0.000069 0.005034 -0.003592 0.032478 -0.001743 -0.009337
# 5 0.001238 -0.006716 -0.001338 -0.001743 0.017691 0.002317
# 6 -0.006616 -0.003067 -0.000900 -0.009337 0.002317 0.045236
#
#
# Mechanical properties :
#
#
# Convention : Reuss Voigt Hill
#
# Bulk Modulus (GPa) = 28.12326 53.91346 41.01836
# Shear Modulus (GPa) = 27.26652 42.66199 34.96426
#
# Velocity S-wave (km/s) = 3.31632 4.14822 3.75538
# Velocity P-wave (km/s) = 5.09976 6.68504 5.94547
#
# Compressibility (1/GPa) = 0.03555775
#
# Stress axis : x y z
#
# Youngs Moduli (GPa) = 93.48345 26.20853 143.16505
#
# Poissons Ratio (x) = 0.21431 0.16220
# Poissons Ratio (y) = 0.76442 0.11881
# Poissons Ratio (z) = 0.10592 0.02175
#
# Static dielectric constant tensor:
#      x y z
#    x 2.040930 0.013930 -0.043800 
#    y 0.013930 2.026530 -0.005150 
#    z -0.043800 -0.005150 1.964740 
# 
# From -- ./inp_files/48603.got.cif
#   From: 2010.05.17/outbox.cif.g08.bks.cpg/sg2_25_cif.got.tgz:48603.got - 2010.06.03 11:33:40.
