data_PCOD9053296
_publ_section_title
;
Structure prediction by ZEFSAII (Michael W. Deem and Ramdas Pophale) SiO2 
 PCOD9053296
Probable space group: P -1
;
_chemical_formula_sum "Si O2"
_cell_formula_units_Z 16
_cell_length_a 9.391474
_cell_length_b 11.730811
_cell_length_c 10.967393
_cell_angle_alpha 60.247625
_cell_angle_beta 52.348092
_cell_angle_gamma 73.777954
_cell_volume 830.031761
_symmetry_space_group_name_H-M "P -1"
_symmetry_group_IT_number 2
_symmetry_cell_setting 'triclinic'
loop_
_space_group_symop_operation_xyz
x,y,z
-x,-y,-z
loop_
_atom_site_type_symbol
_atom_site_label
_atom_site_fract_x
_atom_site_fract_y
_atom_site_fract_z
Si Si1 0.297007 0.308182 0.467528
Si Si2 0.263630 0.715542 0.217591
Si Si3 0.681463 0.376390 0.331513
Si Si4 0.001806 0.187746 0.290880
Si Si5 0.152033 0.524122 0.582248
Si Si6 0.009421 0.113307 0.613466
Si Si7 0.250679 0.500404 0.160067
Si Si8 0.342233 0.365183 0.946482
O O1 0.500570 0.307637 0.409697
O O2 0.193585 0.379056 0.593759
O O3 0.186780 0.179248 0.549246
O O4 0.293330 0.408164 0.301823
O O5 0.148300 0.611349 0.416172
O O6 0.259517 0.651999 0.118492
O O7 0.163327 0.846432 0.236225
O O8 0.472888 0.703310 0.148256
O O9 0.843617 0.279213 0.280066
O O10 0.691553 0.410651 0.451495
O O11 0.706710 0.520975 0.182400
O O12 0.994948 0.171148 0.451617
O O13 0.188110 0.256643 0.113193
O O14 0.981064 0.041873 0.325103
O O15 0.960599 0.526143 0.746712
O O16 0.362901 0.450114 0.015143
#
# Coordination Sequence:
#
# PCOD9053296 Si02
#       8
#     2   2   2   2   2   2   2   2
#     4  11  20  35  65  90 117 151 200 256 290 347
#     4  11  20  35  65  90 117 151 200 256 290 347
#     4  12  23  36  61  94 126 150 189 255 307 351
#     4  11  25  41  61  84 124 163 206 233 293 360
#     4  11  19  36  59  93 116 152 200 243 306 341
#     4  11  22  44  64  83 115 168 208 243 272 362
#     4  11  19  36  59  93 116 152 200 243 306 341
#     4  12  23  36  61  94 126 150 189 255 307 351
#
# _framework density 19.276371000000001
#
# number of rings (size 3 to 8) (size 9 to 14) (size 15 to 20)
#    0.000    0.750    8.750    1.875    0.000    1.000 
#    0.000    0.000    0.000    3.000    0.000    0.000 
#    0.000    0.000    0.000    0.000    0.000    0.000 
#
# Total GULP energy -89237.401948 kJ/mol
# GULP energy per Si atom -5577.337622 kJ/mol
# Density = 1.923250 g / cm^3
# Si number density = 19.276371 Si / 1000 Ang^3
#
#
#
# Elastic Constant Matrix: (Units=GPa)
#
#
# Indices 1 2 3 4 5 6 
#
# 1 115.2726 48.7268 26.4949 0.1215 -25.3834 3.3818
# 2 48.7268 118.2945 31.8386 -0.5536 -23.1802 19.2994
# 3 26.4949 31.8386 62.9436 6.6583 -22.3943 -2.5102
# 4 0.1215 -0.5536 6.6583 27.4322 2.8792 -1.2410
# 5 -25.3834 -23.1802 -22.3943 2.8792 28.4426 4.5131
# 6 3.3818 19.2994 -2.5102 -1.2410 4.5131 30.2404
#
#
#
# Elastic Compliance Matrix: (Units=1/GPa)
#
#
# Indices 1 2 3 4 5 6 
#
# 1 0.011851 -0.003114 -0.000596 -0.000809 0.007743 -0.000576
# 2 -0.003114 0.013655 -0.003407 -0.000081 0.007219 -0.009730
# 3 -0.000596 -0.003407 0.024666 -0.007734 0.016659 0.001485
# 4 -0.000809 -0.000081 -0.007734 0.039650 -0.011340 0.002820
# 5 0.007743 0.007219 0.016659 -0.011340 0.064466 -0.014176
# 6 -0.000576 -0.009730 0.001485 0.002820 -0.014176 0.041697
#
#
# Mechanical properties :
#
#
# Convention : Reuss Voigt Hill
#
# Bulk Modulus (GPa) = 27.82583 56.73681 42.28132
# Shear Modulus (GPa) = 22.50240 29.85308 26.17774
#
# Velocity S-wave (km/s) = 3.42037 3.93961 3.68913
# Velocity P-wave (km/s) = 5.48316 7.08458 6.33468
#
# Compressibility (1/GPa) = 0.03593784
#
# Stress axis : x y z
#
# Youngs Moduli (GPa) = 84.38076 73.23519 40.54136
#
# Poissons Ratio (x) = 0.22803 0.02417
# Poissons Ratio (y) = 0.26273 0.13814
# Poissons Ratio (z) = 0.05030 0.24953
#
# Static dielectric constant tensor:
#      x y z
#    x 1.746750 0.010230 -0.016510 
#    y 0.010230 1.699330 0.035900 
#    z -0.016510 0.035900 1.682700 
# 
# From -- ./inp_files/243430.got.cif
#   From: 2010.05.17/outbox.cif.g08.bks.cpg/sg2_122_cif.got.tgz:243430.got - 2010.06.03 11:33:40.
