data_PCOD9053863
_publ_section_title
;
Structure prediction by ZEFSAII (Michael W. Deem and Ramdas Pophale) SiO2 
 PCOD9053863
Probable space group: P -1
;
_chemical_formula_sum "Si O2"
_cell_formula_units_Z 16
_cell_length_a 19.547241
_cell_length_b 8.303876
_cell_length_c 11.893249
_cell_angle_alpha 106.428859
_cell_angle_beta 141.262878
_cell_angle_gamma 43.633233
_cell_volume 631.680791
_symmetry_space_group_name_H-M "P -1"
_symmetry_group_IT_number 2
_symmetry_cell_setting 'triclinic'
loop_
_space_group_symop_operation_xyz
x,y,z
-x,-y,-z
loop_
_atom_site_type_symbol
_atom_site_label
_atom_site_fract_x
_atom_site_fract_y
_atom_site_fract_z
Si Si1 0.029439 0.152410 0.932161
Si Si2 0.311950 0.903086 0.432430
Si Si3 0.778833 0.806392 0.227714
Si Si4 0.084544 0.380622 0.875348
Si Si5 0.162111 0.765677 0.507149
Si Si6 0.807794 0.416140 0.266207
Si Si7 0.467471 0.622604 0.818228
Si Si8 0.642972 0.696755 0.694103
O O1 0.969942 0.104784 0.745869
O O2 0.819946 0.416741 0.782211
O O3 0.089496 0.245237 0.959497
O O4 0.197554 0.929431 0.201513
O O5 0.139649 0.252877 0.328005
O O6 0.405757 0.705462 0.625368
O O7 0.494507 0.758384 0.574496
O O8 0.828593 0.804706 0.165636
O O9 0.710552 0.698515 0.133383
O O10 0.000000 0.500000 0.500000
O O11 0.646838 0.092133 0.195026
O O12 0.232645 0.348308 0.070389
O O13 0.189079 0.579481 0.593142
O O14 0.385860 0.546711 0.733908
O O15 0.035769 0.080840 0.460544
O O16 0.691892 0.394119 0.079848
O O17 0.500000 0.000000 0.500000
#
# Coordination Sequence:
#
# PCOD9053863 Si02
#       8
#     2   2   2   2   2   2   2   2
#     4  11  24  40  66  98 134 184 217 271 341 392
#     4  11  22  41  66  96 135 173 221 280 324 394
#     4  12  22  42  72 101 133 172 219 283 340 386
#     4  11  21  38  64  99 138 167 218 277 337 388
#     4  11  26  46  68  94 142 179 223 274 336 409
#     4  11  25  47  68 100 135 179 223 277 338 400
#     4  12  26  45  70 101 136 177 226 277 336 404
#     4  11  20  38  62  97 132 170 222 273 324 386
#
# _framework density 25.329250999999999
#
# number of rings (size 3 to 8) (size 9 to 14) (size 15 to 20)
#    0.000    0.750    5.000    3.000    1.750    3.500 
#    0.000    1.250    0.000    0.000    0.000    0.000 
#    0.000    0.000    0.000    0.000    0.000    0.000 
#
# Total GULP energy -89416.078661 kJ/mol
# GULP energy per Si atom -5588.504916 kJ/mol
# Density = 2.527160 g / cm^3
# Si number density = 25.329251 Si / 1000 Ang^3
#
#
#
# Elastic Constant Matrix: (Units=GPa)
#
#
# Indices 1 2 3 4 5 6 
#
# 1 172.7871 50.2361 58.7664 2.6913 7.8110 -19.9540
# 2 50.2361 58.5332 35.8349 9.4382 5.5569 -15.1407
# 3 58.7664 35.8349 117.7397 1.0877 27.1493 -22.2726
# 4 2.6913 9.4382 1.0877 31.7230 -7.5611 -1.9815
# 5 7.8110 5.5569 27.1493 -7.5611 53.1503 3.4588
# 6 -19.9540 -15.1407 -22.2726 -1.9815 3.4588 32.8098
#
#
#
# Elastic Compliance Matrix: (Units=1/GPa)
#
#
# Indices 1 2 3 4 5 6 
#
# 1 0.008319 -0.005727 -0.002458 0.001312 0.000770 0.000747
# 2 -0.005727 0.027322 -0.003866 -0.007482 -0.001509 0.006208
# 3 -0.002458 -0.003866 0.013722 -0.000294 -0.006724 0.006728
# 4 0.001312 -0.007482 -0.000294 0.034945 0.005799 -0.001355
# 5 0.000770 -0.001509 -0.006724 0.005799 0.023569 -0.006927
# 6 0.000747 0.006208 0.006728 -0.001355 -0.006927 0.039013
#
#
# Mechanical properties :
#
#
# Convention : Reuss Voigt Hill
#
# Bulk Modulus (GPa) = 39.58431 70.97055 55.27743
# Shear Modulus (GPa) = 27.86866 37.15146 32.51006
#
# Velocity S-wave (km/s) = 3.32061 3.83396 3.58648
# Velocity P-wave (km/s) = 5.51033 6.90500 6.24671
#
# Compressibility (1/GPa) = 0.02526254
#
# Stress axis : x y z
#
# Youngs Moduli (GPa) = 120.20065 36.60083 72.87388
#
# Poissons Ratio (x) = 0.20962 0.17910
# Poissons Ratio (y) = 0.68840 0.28171
# Poissons Ratio (z) = 0.29542 0.14149
#
# Static dielectric constant tensor:
#      x y z
#    x 2.134490 0.032620 0.009650 
#    y 0.032620 2.034200 0.093170 
#    z 0.009650 0.093170 1.998400 
# 
# From -- ./inp_files/462257.got.cif
#   From: 2010.05.17/outbox.cif.g08.bks.cpg/sg2_232_cif.got.tgz:462257.got - 2010.06.03 11:33:40.
