data_PCOD9053848
_publ_section_title
;
Structure prediction by ZEFSAII (Michael W. Deem and Ramdas Pophale) SiO2 
 PCOD9053848
Probable space group: P -1
;
_chemical_formula_sum "Si O2"
_cell_formula_units_Z 12
_cell_length_a 10.094081
_cell_length_b 9.318679
_cell_length_c 21.230688
_cell_angle_alpha 33.826578
_cell_angle_beta 147.683691
_cell_angle_gamma 121.907531
_cell_volume 482.854478
_symmetry_space_group_name_H-M "P -1"
_symmetry_group_IT_number 2
_symmetry_cell_setting 'triclinic'
loop_
_space_group_symop_operation_xyz
x,y,z
-x,-y,-z
loop_
_atom_site_type_symbol
_atom_site_label
_atom_site_fract_x
_atom_site_fract_y
_atom_site_fract_z
Si Si1 0.317437 0.445725 0.581799
Si Si2 0.768933 0.070824 0.716229
Si Si3 0.633301 0.677644 0.210483
Si Si4 0.317490 0.659876 0.760255
Si Si5 0.079750 0.541356 0.273489
Si Si6 0.774576 0.801610 0.929529
O O1 0.228838 0.795340 0.400355
O O2 0.445159 0.318714 0.749386
O O3 0.000000 0.485755 0.431055
O O4 0.554132 0.171305 0.728693
O O5 0.412160 0.211351 0.529048
O O6 0.883866 0.246731 0.740140
O O7 0.911021 0.759707 0.929702
O O8 0.553656 0.488687 0.202451
O O9 0.500000 0.000000 0.000000
O O10 0.564342 0.675547 0.890710
O O11 0.202610 0.466591 0.817238
O O12 0.000000 0.000000 0.500000
O O13 0.023777 0.644721 0.140996
#
# Coordination Sequence:
#
# PCOD9053848 Si02
#       6
#     2   2   2   2   2   2
#     4  11  22  38  62  93 121 168 208 255 304 374
#     4  11  20  38  60  95 126 160 210 261 300 375
#     4  11  24  41  62  90 129 167 205 251 314 373
#     4  12  21  43  63  94 129 159 209 264 305 364
#     4  11  21  35  61  97 122 161 207 259 308 360
#     4  12  22  37  67  94 126 161 212 260 309 360
#
# _framework density 24.852208000000001
#
# number of rings (size 3 to 8) (size 9 to 14) (size 15 to 20)
#    0.000    0.667    8.333    2.000    0.000    0.000 
#    0.000    0.833    0.000    2.000    0.000    0.000 
#    0.000    0.000    0.000    0.000    0.000    0.000 
#
# Total GULP energy -66976.308360 kJ/mol
# GULP energy per Si atom -5581.359030 kJ/mol
# Density = 2.479564 g / cm^3
# Si number density = 24.852208 Si / 1000 Ang^3
#
#
#
# Elastic Constant Matrix: (Units=GPa)
#
#
# Indices 1 2 3 4 5 6 
#
# 1 120.1299 31.3559 28.8908 11.4699 -35.7965 3.9136
# 2 31.3559 89.8166 27.3182 27.1713 -5.1436 12.0396
# 3 28.8908 27.3182 123.2702 33.6400 -34.8734 -15.9743
# 4 11.4699 27.1713 33.6400 32.2881 1.7723 5.1561
# 5 -35.7965 -5.1436 -34.8734 1.7723 51.7328 14.8896
# 6 3.9136 12.0396 -15.9743 5.1561 14.8896 43.6961
#
#
#
# Elastic Compliance Matrix: (Units=1/GPa)
#
#
# Indices 1 2 3 4 5 6 
#
# 1 0.012056 -0.002595 0.000983 -0.003188 0.009701 -0.002935
# 2 -0.002595 0.016287 0.000588 -0.012997 0.001538 -0.003031
# 3 0.000983 0.000588 0.017067 -0.019964 0.011671 0.004368
# 4 -0.003188 -0.012997 -0.019964 0.065635 -0.017726 -0.005136
# 5 0.009701 0.001538 0.011671 -0.017726 0.036824 -0.007482
# 6 -0.002935 -0.003031 0.004368 -0.005136 -0.007482 0.028736
#
#
# Mechanical properties :
#
#
# Convention : Reuss Voigt Hill
#
# Bulk Modulus (GPa) = 23.06074 56.48295 39.77184
# Shear Modulus (GPa) = 25.89264 41.92020 33.90642
#
# Velocity S-wave (km/s) = 3.23129 4.11150 3.69768
# Velocity P-wave (km/s) = 4.81882 6.73172 5.85393
#
# Compressibility (1/GPa) = 0.04336374
#
# Stress axis : x y z
#
# Youngs Moduli (GPa) = 82.94855 61.39857 58.59091
#
# Poissons Ratio (x) = 0.15931 -0.05762
# Poissons Ratio (y) = 0.21522 -0.03445
# Poissons Ratio (z) = -0.08158 -0.03610
#
# Static dielectric constant tensor:
#      x y z
#    x 2.100620 -0.008760 -0.021160 
#    y -0.008760 1.983050 -0.091910 
#    z -0.021160 -0.091910 1.966730 
# 
# From -- ./inp_files/443696.got.cif
#   From: 2010.05.17/outbox.cif.g08.bks.cpg/sg2_222_cif.got.tgz:443696.got - 2010.06.03 11:33:40.
