data_PCOD9053284
_publ_section_title
;
Structure prediction by ZEFSAII (Michael W. Deem and Ramdas Pophale) SiO2 
 PCOD9053284
Probable space group: P -1
;
_chemical_formula_sum "Si O2"
_cell_formula_units_Z 16
_cell_length_a 8.477054
_cell_length_b 17.301167
_cell_length_c 8.991528
_cell_angle_alpha 97.526041
_cell_angle_beta 94.924691
_cell_angle_gamma 33.195146
_cell_volume 715.085612
_symmetry_space_group_name_H-M "P -1"
_symmetry_group_IT_number 2
_symmetry_cell_setting 'triclinic'
loop_
_space_group_symop_operation_xyz
x,y,z
-x,-y,-z
loop_
_atom_site_type_symbol
_atom_site_label
_atom_site_fract_x
_atom_site_fract_y
_atom_site_fract_z
Si Si1 0.562857 0.697523 0.139706
Si Si2 0.751989 0.441365 0.094288
Si Si3 0.822826 0.881510 0.441710
Si Si4 0.313461 0.624396 0.632878
Si Si5 0.280964 0.022385 0.035390
Si Si6 0.679685 0.234603 0.179248
Si Si7 0.203391 0.244427 0.824344
Si Si8 0.080980 0.015445 0.727779
O O1 0.672331 0.564689 0.134197
O O2 0.793116 0.667192 0.203637
O O3 0.261004 0.835697 0.234876
O O4 0.491976 0.732195 0.964666
O O5 0.780955 0.393630 0.247375
O O6 0.500000 0.500000 0.000000
O O7 0.028234 0.314564 0.981178
O O8 0.890630 0.787718 0.296991
O O9 0.846466 0.959402 0.399312
O O10 0.044660 0.772757 0.563119
O O11 0.500000 0.000000 0.500000
O O12 0.500000 0.500000 0.500000
O O13 0.483279 0.627564 0.719770
O O14 0.460236 0.906814 0.149437
O O15 0.957603 0.163183 0.107280
O O16 0.500000 0.000000 0.000000
O O17 0.231050 0.994740 0.875722
O O18 0.797108 0.122026 0.276752
#
# Coordination Sequence:
#
# PCOD9053284 Si02
#       8
#     2   2   2   2   2   2   2   2
#     4  11  22  42  72 110 133 173 241 305 346 400
#     4  12  25  45  75 101 132 191 246 291 345 414
#     4  12  29  46  68 106 150 192 229 286 363 433
#     4  12  27  48  69 100 145 189 236 284 359 430
#     4  11  19  35  69 107 132 170 225 296 342 398
#     4  11  22  41  72 104 137 175 236 296 352 412
#     4  12  23  43  71 102 140 173 240 291 343 418
#     4  11  22  41  70 102 140 177 232 292 353 417
#
# _framework density 22.374942000000001
#
# number of rings (size 3 to 8) (size 9 to 14) (size 15 to 20)
#    0.000    0.500    5.000    4.875    1.750    0.500 
#    2.250    0.625    0.000    0.000    0.000    0.000 
#    0.000    0.000    0.000    0.000    0.000    0.000 
#
# Total GULP energy -89454.732051 kJ/mol
# GULP energy per Si atom -5590.920753 kJ/mol
# Density = 2.232402 g / cm^3
# Si number density = 22.374942 Si / 1000 Ang^3
#
#
#
# Elastic Constant Matrix: (Units=GPa)
#
#
# Indices 1 2 3 4 5 6 
#
# 1 117.1344 30.1509 34.2125 8.6347 -19.2029 25.1980
# 2 30.1509 67.9556 20.1311 -3.7688 -14.5149 25.2546
# 3 34.2125 20.1311 80.0739 -7.2672 -24.3471 17.1602
# 4 8.6347 -3.7688 -7.2672 42.0906 5.1973 -0.7592
# 5 -19.2029 -14.5149 -24.3471 5.1973 35.2883 -9.3228
# 6 25.1980 25.2546 17.1602 -0.7592 -9.3228 45.9115
#
#
#
# Elastic Compliance Matrix: (Units=1/GPa)
#
#
# Indices 1 2 3 4 5 6 
#
# 1 0.011506 -0.002605 -0.003050 -0.003518 0.002747 -0.003242
# 2 -0.002605 0.020207 -0.000822 0.001574 0.003830 -0.008574
# 3 -0.003050 -0.000822 0.017517 0.002412 0.009061 -0.002541
# 4 -0.003518 0.001574 0.002412 0.025453 -0.003378 -0.000102
# 5 0.002747 0.003830 0.009061 -0.003378 0.038350 0.000731
# 6 -0.003242 -0.008574 -0.002541 -0.000102 0.000731 0.029373
#
#
# Mechanical properties :
#
#
# Convention : Reuss Voigt Hill
#
# Bulk Modulus (GPa) = 27.56766 48.23919 37.90343
# Shear Modulus (GPa) = 29.85927 36.70273 33.28100
#
# Velocity S-wave (km/s) = 3.65704 4.05452 3.86090
# Velocity P-wave (km/s) = 5.49358 6.59735 6.07061
#
# Compressibility (1/GPa) = 0.03627438
#
# Stress axis : x y z
#
# Youngs Moduli (GPa) = 86.91338 49.48878 57.08708
#
# Poissons Ratio (x) = 0.12891 0.17414
# Poissons Ratio (y) = 0.22639 0.04694
# Poissons Ratio (z) = 0.26512 0.04070
#
# Static dielectric constant tensor:
#      x y z
#    x 1.852010 0.090070 0.011830 
#    y 0.090070 1.831910 0.008910 
#    z 0.011830 0.008910 1.839790 
# 
# From -- ./inp_files/217675.got.cif
#   From: 2010.05.17/outbox.cif.g08.bks.cpg/sg2_109_cif.got.tgz:217675.got - 2010.06.03 11:33:40.
