data_PCOD9053553
_publ_section_title
;
Structure prediction by ZEFSAII (Michael W. Deem and Ramdas Pophale) SiO2 
 PCOD9053553
Probable space group: P -1
;
_chemical_formula_sum "Si O2"
_cell_formula_units_Z 10
_cell_length_a 12.730433
_cell_length_b 7.873402
_cell_length_c 11.784887
_cell_angle_alpha 46.819524
_cell_angle_beta 147.370616
_cell_angle_gamma 143.284715
_cell_volume 380.619094
_symmetry_space_group_name_H-M "P -1"
_symmetry_group_IT_number 2
_symmetry_cell_setting 'triclinic'
loop_
_space_group_symop_operation_xyz
x,y,z
-x,-y,-z
loop_
_atom_site_type_symbol
_atom_site_label
_atom_site_fract_x
_atom_site_fract_y
_atom_site_fract_z
Si Si1 0.916735 0.498846 0.050040
Si Si2 0.727417 0.482521 0.214440
Si Si3 0.625689 0.910124 0.290554
Si Si4 0.795764 0.922194 0.690449
Si Si5 0.693652 0.466829 0.454033
O O1 0.100194 0.506594 0.296684
O O2 0.645248 0.234862 0.926672
O O3 0.902207 0.765076 0.917749
O O4 0.000000 0.500000 0.000000
O O5 0.734960 0.429698 0.378791
O O6 0.708638 0.230974 0.241776
O O7 0.500000 0.500000 0.000000
O O8 0.965169 0.769667 0.256789
O O9 0.677271 0.826702 0.499584
O O10 0.710305 0.760582 0.351736
O O11 0.562113 0.799548 0.612067
#
# Coordination Sequence:
#
# PCOD9053553 Si02
#       5
#     2   2   2   2   2
#     4  11  19  47  83 111 151 206 259 317 390 470
#     4  12  30  52  74 118 161 201 266 326 383 473
#     4  11  24  50  78 114 156 200 264 319 383 476
#     4  11  24  50  78 114 156 200 264 319 383 476
#     4  11  26  52  84 107 156 215 250 325 402 446
#
# _framework density 26.272984000000001
#
# number of rings (size 3 to 8) (size 9 to 14) (size 15 to 20)
#    0.000    0.800    4.000    3.000    0.000    3.200 
#   14.400    4.000    0.000    0.000    0.000    0.000 
#    0.000    0.000    0.000    0.000    0.000    0.000 
#
# Total GULP energy -56015.201920 kJ/mol
# GULP energy per Si atom -5601.520192 kJ/mol
# Density = 2.621319 g / cm^3
# Si number density = 26.272984 Si / 1000 Ang^3
#
#
#
# Elastic Constant Matrix: (Units=GPa)
#
#
# Indices 1 2 3 4 5 6 
#
# 1 163.6433 83.8082 62.9733 15.1881 9.5781 10.8508
# 2 83.8082 191.8620 51.2121 25.3482 11.5039 38.9923
# 3 62.9733 51.2121 226.9408 23.2661 33.2371 19.2229
# 4 15.1881 25.3482 23.2661 21.1778 0.1409 4.1286
# 5 9.5781 11.5039 33.2371 0.1409 59.3866 1.9664
# 6 10.8508 38.9923 19.2229 4.1286 1.9664 38.5128
#
#
#
# Elastic Compliance Matrix: (Units=1/GPa)
#
#
# Indices 1 2 3 4 5 6 
#
# 1 0.008532 -0.003701 -0.001733 -0.000220 0.000238 0.002219
# 2 -0.003701 0.009352 0.000539 -0.007600 -0.001240 -0.007817
# 3 -0.001733 0.000539 0.005975 -0.005499 -0.003080 -0.002293
# 4 -0.000220 -0.007600 -0.005499 0.061773 0.004318 0.003659
# 5 0.000238 -0.001240 -0.003080 0.004318 0.018711 0.001307
# 6 0.002219 -0.007817 -0.002293 0.003659 0.001307 0.033940
#
#
# Mechanical properties :
#
#
# Convention : Reuss Voigt Hill
#
# Bulk Modulus (GPa) = 71.07068 108.71480 89.89274
# Shear Modulus (GPa) = 32.73108 49.44560 41.08834
#
# Velocity S-wave (km/s) = 3.53343 4.34290 3.95891
# Velocity P-wave (km/s) = 6.61486 8.16189 7.42876
#
# Compressibility (1/GPa) = 0.01407050
#
# Stress axis : x y z
#
# Youngs Moduli (GPa) = 117.20198 106.93423 167.37477
#
# Poissons Ratio (x) = 0.39573 0.29001
# Poissons Ratio (y) = 0.43373 -0.09028
# Poissons Ratio (z) = 0.20307 -0.05768
#
# Static dielectric constant tensor:
#      x y z
#    x 2.025260 -0.050710 -0.016760 
#    y -0.050710 2.218830 -0.082650 
#    z -0.016760 -0.082650 2.039270 
# 
# From -- ./inp_files/446724.got.cif
#   From: 2010.05.17/outbox.cif.g08.bks.cpg/sg2_224_cif.got.tgz:446724.got - 2010.06.03 11:33:40.
