data_PCOD9053846
_publ_section_title
;
Structure prediction by ZEFSAII (Michael W. Deem and Ramdas Pophale) SiO2 
 PCOD9053846
Probable space group: P -1
;
_chemical_formula_sum "Si O2"
_cell_formula_units_Z 16
_cell_length_a 7.434174
_cell_length_b 19.877660
_cell_length_c 11.625026
_cell_angle_alpha 146.650135
_cell_angle_beta 58.995268
_cell_angle_gamma 109.951168
_cell_volume 794.878931
_symmetry_space_group_name_H-M "P -1"
_symmetry_group_IT_number 2
_symmetry_cell_setting 'triclinic'
loop_
_space_group_symop_operation_xyz
x,y,z
-x,-y,-z
loop_
_atom_site_type_symbol
_atom_site_label
_atom_site_fract_x
_atom_site_fract_y
_atom_site_fract_z
Si Si1 0.448172 0.428157 0.648791
Si Si2 0.094234 0.620492 0.939350
Si Si3 0.352489 0.742034 0.841018
Si Si4 0.005022 0.895967 0.728603
Si Si5 0.458605 0.023386 0.910341
Si Si6 0.232699 0.225416 0.562587
Si Si7 0.955168 0.171136 0.149474
Si Si8 0.935717 0.440687 0.554481
O O1 0.268571 0.551849 0.875027
O O2 0.485289 0.376565 0.431719
O O3 0.353371 0.323541 0.600013
O O4 0.677847 0.448512 0.648893
O O5 0.210809 0.699496 0.925883
O O6 0.004563 0.516275 0.746402
O O7 0.902858 0.708164 0.193001
O O8 0.216702 0.786834 0.834838
O O9 0.455928 0.860304 0.004526
O O10 0.933482 0.819231 0.538128
O O11 0.154755 0.831356 0.689978
O O12 0.795105 0.929633 0.928993
O O13 0.051009 0.030593 0.870757
O O14 0.595257 0.897198 0.634015
O O15 0.500000 0.000000 0.000000
O O16 0.054346 0.295598 0.305773
O O17 0.000000 0.500000 0.500000
#
# Coordination Sequence:
#
# PCOD9053846 Si02
#       8
#     2   2   2   2   2   2   2   2
#     4  11  22  41  64  90 120 168 214 244 295 382
#     4  12  26  40  61  94 132 165 195 258 319 361
#     4  11  20  38  63  89 117 156 210 252 300 362
#     4  10  19  35  64  90 110 155 213 254 294 360
#     4  10  17  35  62  87 112 156 209 247 295 365
#     4  11  22  40  64  91 127 160 201 257 316 367
#     4  10  19  34  58  91 114 147 207 262 287 345
#     4  11  23  38  62  91 124 160 206 253 295 367
#
# _framework density 20.128852999999999
#
# number of rings (size 3 to 8) (size 9 to 14) (size 15 to 20)
#    0.000    1.250    7.500    2.250    0.000    1.000 
#    0.000    3.750    0.000    0.750    0.000    0.000 
#    0.000    0.000    0.000    0.000    0.000    0.000 
#
# Total GULP energy -89077.976364 kJ/mol
# GULP energy per Si atom -5567.373523 kJ/mol
# Density = 2.008304 g / cm^3
# Si number density = 20.128853 Si / 1000 Ang^3
#
#
#
# Elastic Constant Matrix: (Units=GPa)
#
#
# Indices 1 2 3 4 5 6 
#
# 1 59.5000 12.9081 21.0571 5.0630 5.9823 9.8717
# 2 12.9081 95.9189 53.4628 14.4278 -0.5447 20.6889
# 3 21.0571 53.4628 97.0265 -3.4963 -8.7112 13.4303
# 4 5.0630 14.4278 -3.4963 30.8108 2.8422 -5.5869
# 5 5.9823 -0.5447 -8.7112 2.8422 27.9626 3.5690
# 6 9.8717 20.6889 13.4303 -5.5869 3.5690 24.7223
#
#
#
# Elastic Compliance Matrix: (Units=1/GPa)
#
#
# Indices 1 2 3 4 5 6 
#
# 1 0.020573 0.003293 -0.005693 -0.006765 -0.004302 -0.008785
# 2 0.003293 0.022231 -0.011111 -0.015365 0.000045 -0.017362
# 3 -0.005693 -0.011111 0.018055 0.008200 0.005431 0.002832
# 4 -0.006765 -0.015365 0.008200 0.046043 -0.003793 0.022057
# 5 -0.004302 0.000045 0.005431 -0.003793 0.039765 -0.007868
# 6 -0.008785 -0.017362 0.002832 0.022057 -0.007868 0.063069
#
#
# Mechanical properties :
#
#
# Convention : Reuss Voigt Hill
#
# Bulk Modulus (GPa) = 29.55320 47.47792 38.51556
# Shear Modulus (GPa) = 20.15824 27.70030 23.92927
#
# Velocity S-wave (km/s) = 3.16802 3.71367 3.45164
# Velocity P-wave (km/s) = 5.30053 6.48280 5.92125
#
# Compressibility (1/GPa) = 0.03383729
#
# Stress axis : x y z
#
# Youngs Moduli (GPa) = 48.60756 44.98140 55.38538
#
# Poissons Ratio (x) = -0.14811 0.31531
# Poissons Ratio (y) = -0.16005 0.61537
# Poissons Ratio (z) = 0.27672 0.49978
#
# Static dielectric constant tensor:
#      x y z
#    x 2.428360 -0.395580 -0.216260 
#    y -0.395580 2.035030 0.219270 
#    z -0.216260 0.219270 1.811920 
# 
# From -- ./inp_files/405026.got.cif
#   From: 2010.05.17/outbox.cif.g08.bks.cpg/sg2_203_cif.got.tgz:405026.got - 2010.06.03 11:33:40.
