data_PCOD9053251
_publ_section_title
;
Structure prediction by ZEFSAII (Michael W. Deem and Ramdas Pophale) SiO2 
 PCOD9053251
Probable space group: P -1
;
_chemical_formula_sum "Si O2"
_cell_formula_units_Z 16
_cell_length_a 5.392057
_cell_length_b 17.590220
_cell_length_c 24.788821
_cell_angle_alpha 23.814013
_cell_angle_beta 102.557404
_cell_angle_gamma 89.994773
_cell_volume 799.817558
_symmetry_space_group_name_H-M "P -1"
_symmetry_group_IT_number 2
_symmetry_cell_setting 'triclinic'
loop_
_space_group_symop_operation_xyz
x,y,z
-x,-y,-z
loop_
_atom_site_type_symbol
_atom_site_label
_atom_site_fract_x
_atom_site_fract_y
_atom_site_fract_z
Si Si1 0.033388 0.558639 0.533224
Si Si2 0.955686 0.838322 0.455611
Si Si3 0.959435 0.206156 0.959479
Si Si4 0.404512 0.043211 0.904478
Si Si5 0.407478 0.342702 0.407545
Si Si6 0.426395 0.678341 0.926428
Si Si7 0.955586 0.733791 0.955651
Si Si8 0.403025 0.743864 0.402852
O O1 0.187704 0.652230 0.441146
O O2 0.014950 0.674339 0.514795
O O3 0.694930 0.652324 0.441080
O O4 0.217336 0.301192 0.717278
O O5 0.776004 0.780661 0.526956
O O6 0.278008 0.780741 0.526894
O O7 0.765603 0.080997 0.265595
O O8 0.780245 0.406808 0.780266
O O9 0.796878 0.065014 0.046380
O O10 0.295782 0.064997 0.046385
O O11 0.947881 0.312353 0.947886
O O12 0.500000 0.000000 0.000000
O O13 0.483280 0.328980 0.483438
O O14 0.725806 0.658591 0.976395
O O15 0.226816 0.658601 0.976372
O O16 0.500000 0.500000 0.000000
O O17 0.773867 0.997145 0.773960
#
# Coordination Sequence:
#
# PCOD9053251 Si02
#       8
#     2   2   2   2   2   2   2   2
#     4  10  18  32  58  81 116 161 213 261 290 341
#     4  10  18  36  62  92 113 161 219 255 299 380
#     4  12  26  40  62  97 135 177 208 274 334 360
#     4  12  23  40  59  93 133 174 233 268 297 370
#     4  10  18  35  61  87 115 166 221 239 296 386
#     4  12  23  42  73 101 123 161 215 272 318 398
#     4  12  23  44  64  97 138 161 208 267 341 394
#     4  10  17  35  60  82 113 169 214 248 295 384
#
# _framework density 20.004564999999999
#
# number of rings (size 3 to 8) (size 9 to 14) (size 15 to 20)
#    0.000    1.000    5.000    6.000    0.000    0.000 
#    0.000    3.750    0.000    4.500    0.000    0.000 
#    0.000    0.000    0.000    0.000    0.000    0.000 
#
# Total GULP energy -89404.334990 kJ/mol
# GULP energy per Si atom -5587.770937 kJ/mol
# Density = 1.995903 g / cm^3
# Si number density = 20.004565 Si / 1000 Ang^3
#
#
#
# Elastic Constant Matrix: (Units=GPa)
#
#
# Indices 1 2 3 4 5 6 
#
# 1 235.5368 66.3334 40.6564 -42.5999 -12.3830 -4.8611
# 2 66.3334 156.5995 87.7278 -62.6248 1.4144 -4.4083
# 3 40.6564 87.7278 117.8112 -42.4342 3.0676 -1.9217
# 4 -42.5999 -62.6248 -42.4342 43.4063 0.6315 1.7301
# 5 -12.3830 1.4144 3.0676 0.6315 18.1929 -6.5688
# 6 -4.8611 -4.4083 -1.9217 1.7301 -6.5688 19.4754
#
#
#
# Elastic Compliance Matrix: (Units=1/GPa)
#
#
# Indices 1 2 3 4 5 6 
#
# 1 0.005484 -0.000507 0.000039 0.004529 0.004461 0.002360
# 2 -0.000507 0.017635 -0.006084 0.018959 -0.000886 0.001282
# 3 0.000039 -0.006084 0.015346 0.006358 -0.002801 -0.001362
# 4 0.004529 0.018959 0.006358 0.061070 -0.001546 0.000103
# 5 0.004461 -0.000886 -0.002801 -0.001546 0.067041 0.023386
# 6 0.002360 0.001282 -0.001362 0.000103 0.023386 0.059970
#
#
# Mechanical properties :
#
#
# Convention : Reuss Voigt Hill
#
# Bulk Modulus (GPa) = 39.43167 99.93141 69.68154
# Shear Modulus (GPa) = 20.15284 37.23023 28.69153
#
# Velocity S-wave (km/s) = 3.17742 4.31871 3.79126
# Velocity P-wave (km/s) = 5.76328 8.65628 7.35345
#
# Compressibility (1/GPa) = 0.02536033
#
# Stress axis : x y z
#
# Youngs Moduli (GPa) = 182.34158 56.70690 65.16490
#
# Poissons Ratio (x) = 0.02877 -0.00255
# Poissons Ratio (y) = 0.09252 0.39644
# Poissons Ratio (z) = -0.00713 0.34499
#
# Static dielectric constant tensor:
#      x y z
#    x 1.920280 0.000350 -0.019640 
#    y 0.000350 1.703190 0.017760 
#    z -0.019640 0.017760 1.657630 
# 
# From -- ./inp_files/615829.got.cif
#   From: 2010.05.17/outbox.cif.g08.bks.cpg/sg2_308_cif.got.tgz:615829.got - 2010.06.03 11:33:40.
