data_PCOD9053568
_publ_section_title
;
Structure prediction by ZEFSAII (Michael W. Deem and Ramdas Pophale) SiO2 
 PCOD9053568
Probable space group: P -1
;
_chemical_formula_sum "Si O2"
_cell_formula_units_Z 16
_cell_length_a 9.580584
_cell_length_b 9.779237
_cell_length_c 11.641756
_cell_angle_alpha 44.243000
_cell_angle_beta 101.266598
_cell_angle_gamma 72.739527
_cell_volume 574.594702
_symmetry_space_group_name_H-M "P -1"
_symmetry_group_IT_number 2
_symmetry_cell_setting 'triclinic'
loop_
_space_group_symop_operation_xyz
x,y,z
-x,-y,-z
loop_
_atom_site_type_symbol
_atom_site_label
_atom_site_fract_x
_atom_site_fract_y
_atom_site_fract_z
Si Si1 0.709566 0.294956 0.785579
Si Si2 0.206518 0.283708 0.596063
Si Si3 0.740891 0.227121 0.079957
Si Si4 0.296487 0.673289 0.741445
Si Si5 0.728286 0.249033 0.560808
Si Si6 0.828279 0.701938 0.929910
Si Si7 0.816597 0.747389 0.160077
Si Si8 0.442095 0.966697 0.629378
O O1 0.782806 0.283260 0.676124
O O2 0.494084 0.537407 0.606478
O O3 0.790224 0.287346 0.929337
O O4 0.741294 0.031922 0.956918
O O5 0.296148 0.255525 0.751559
O O6 0.016521 0.548931 0.369744
O O7 0.191210 0.058045 0.737293
O O8 0.341679 0.196519 0.563591
O O9 0.802332 0.269875 0.184783
O O10 0.514098 0.413530 0.932783
O O11 0.212383 0.713881 0.576338
O O12 0.320772 0.887087 0.627922
O O13 0.786811 0.969906 0.743627
O O14 0.640875 0.752578 0.841708
O O15 0.847572 0.635642 0.107049
O O16 0.000000 0.500000 0.000000
O O17 0.500000 0.000000 0.500000
#
# Coordination Sequence:
#
# PCOD9053568 Si02
#       8
#     2   2   2   2   2   2   2   2
#     4   8  15  28  48  75  99 131 172 211 248 309
#     4   9  18  33  55  79 104 137 174 215 261 313
#     4   8  15  27  48  76  97 132 173 206 249 310
#     4   9  16  28  48  75  99 134 170 211 250 310
#     4   9  16  29  48  73 101 133 170 210 257 307
#     4  11  22  33  50  79 107 140 177 217 267 312
#     4   9  18  33  53  81 101 136 174 217 261 311
#     4  11  20  32  50  77 110 140 173 215 264 312
#
# _framework density 27.845714000000001
#
# number of rings (size 3 to 8) (size 9 to 14) (size 15 to 20)
#    0.000    2.750    1.250    0.750    1.750    0.500 
#    0.000    0.000    0.000    1.500   42.250    0.000 
#    0.000    0.000    0.000    0.000    0.000    0.000 
#
# Total GULP energy -89431.210312 kJ/mol
# GULP energy per Si atom -5589.450645 kJ/mol
# Density = 2.778234 g / cm^3
# Si number density = 27.845714 Si / 1000 Ang^3
#
#
#
# Elastic Constant Matrix: (Units=GPa)
#
#
# Indices 1 2 3 4 5 6 
#
# 1 35.2876 24.2747 29.1679 20.4275 -8.3131 -2.4969
# 2 24.2747 228.3458 88.2930 48.1616 -16.8051 -21.1761
# 3 29.1679 88.2930 148.0588 24.6601 -19.4168 -16.5977
# 4 20.4275 48.1616 24.6601 83.3665 -11.2513 -7.8607
# 5 -8.3131 -16.8051 -19.4168 -11.2513 24.4199 -2.3157
# 6 -2.4969 -21.1761 -16.5977 -7.8607 -2.3157 29.4646
#
#
#
# Elastic Compliance Matrix: (Units=1/GPa)
#
#
# Indices 1 2 3 4 5 6 
#
# 1 0.038411 -0.000110 -0.005857 -0.007107 0.004915 -0.001633
# 2 -0.000110 0.006333 -0.002953 -0.002392 0.001092 0.002327
# 3 -0.005857 -0.002953 0.010643 0.001098 0.005330 0.004089
# 4 -0.007107 -0.002392 0.001098 0.015635 0.004277 0.002805
# 5 0.004915 0.001092 0.005330 0.004277 0.050467 0.009311
# 6 -0.001633 0.002327 0.004089 0.002805 0.009311 0.039256
#
#
# Mechanical properties :
#
#
# Convention : Reuss Voigt Hill
#
# Bulk Modulus (GPa) = 26.63116 77.24039 51.93578
# Shear Modulus (GPa) = 26.16419 45.44730 35.80574
#
# Velocity S-wave (km/s) = 3.06864 4.04432 3.58978
# Velocity P-wave (km/s) = 4.70531 7.04327 5.98947
#
# Compressibility (1/GPa) = 0.03754999
#
# Stress axis : x y z
#
# Youngs Moduli (GPa) = 26.03402 157.89517 93.95582
#
# Poissons Ratio (x) = 0.01731 0.55026
# Poissons Ratio (y) = 0.00285 0.27743
# Poissons Ratio (z) = 0.15247 0.46623
#
# Static dielectric constant tensor:
#      x y z
#    x 2.207220 0.015470 -0.055920 
#    y 0.015470 2.234820 -0.061330 
#    z -0.055920 -0.061330 2.102900 
# 
# From -- ./inp_files/252611.got.cif
#   From: 2010.05.17/outbox.cif.g08.bks.cpg/sg2_127_cif.got.tgz:252611.got - 2010.06.03 11:33:40.
