data_PCOD9053820
_publ_section_title
;
Structure prediction by ZEFSAII (Michael W. Deem and Ramdas Pophale) SiO2 
 PCOD9053820
Probable space group: P -1
;
_chemical_formula_sum "Si O2"
_cell_formula_units_Z 16
_cell_length_a 13.801750
_cell_length_b 9.090301
_cell_length_c 11.715771
_cell_angle_alpha 110.692221
_cell_angle_beta 147.228313
_cell_angle_gamma 78.770979
_cell_volume 728.942696
_symmetry_space_group_name_H-M "P -1"
_symmetry_group_IT_number 2
_symmetry_cell_setting 'triclinic'
loop_
_space_group_symop_operation_xyz
x,y,z
-x,-y,-z
loop_
_atom_site_type_symbol
_atom_site_label
_atom_site_fract_x
_atom_site_fract_y
_atom_site_fract_z
Si Si1 0.573203 0.071104 0.468868
Si Si2 0.786061 0.579821 0.725226
Si Si3 0.138677 0.172020 0.693766
Si Si4 0.984350 0.673007 0.582644
Si Si5 0.017472 0.911215 0.110605
Si Si6 0.261542 0.993915 0.957294
Si Si7 0.959033 0.512926 0.204491
Si Si8 0.403469 0.592468 0.305614
O O1 0.773508 0.044514 0.634512
O O2 0.589717 0.257933 0.562723
O O3 0.500000 0.000000 0.500000
O O4 0.437901 0.009632 0.215343
O O5 0.898954 0.455554 0.750997
O O6 0.611047 0.593066 0.477020
O O7 0.686819 0.552445 0.741593
O O8 0.944688 0.731020 0.948052
O O9 0.164629 0.249153 0.613085
O O10 0.058019 0.314342 0.714282
O O11 0.288212 0.116861 0.909580
O O12 0.000000 0.000000 0.500000
O O13 0.961254 0.617406 0.675589
O O14 0.000000 0.500000 0.500000
O O15 0.169277 0.808987 0.786192
O O16 0.889590 0.953381 0.095107
O O17 0.000000 0.000000 0.000000
O O18 0.751157 0.420590 0.946950
#
# Coordination Sequence:
#
# PCOD9053820 Si02
#       8
#     2   2   2   2   2   2   2   2
#     4  12  23  37  58  91 133 167 197 243 303 380
#     4  11  23  37  57  94 132 172 202 243 304 388
#     4   9  21  39  62  89 115 157 220 269 314 358
#     4   9  20  40  66  88 112 161 219 270 313 362
#     4  12  22  37  59  91 134 165 205 242 298 389
#     4  11  21  38  64  89 124 168 199 253 323 361
#     4  11  20  37  67  87 122 171 205 251 321 367
#     4  11  23  37  58  94 139 158 203 248 302 390
#
# _framework density 21.949598999999999
#
# number of rings (size 3 to 8) (size 9 to 14) (size 15 to 20)
#    0.000    1.250    3.750    2.625    3.500    0.000 
#    0.000    0.000    0.000   30.000    0.000    0.000 
#    0.000    0.000    0.000    0.000    0.000    0.000 
#
# Total GULP energy -89145.622889 kJ/mol
# GULP energy per Si atom -5571.601431 kJ/mol
# Density = 2.189964 g / cm^3
# Si number density = 21.949599 Si / 1000 Ang^3
#
#
#
# Elastic Constant Matrix: (Units=GPa)
#
#
# Indices 1 2 3 4 5 6 
#
# 1 28.9415 18.1866 45.2475 -11.4801 7.7031 5.8691
# 2 18.1866 103.3684 47.3884 -7.5233 -11.5072 18.8308
# 3 45.2475 47.3884 156.9367 -20.8956 5.7368 -2.8387
# 4 -11.4801 -7.5233 -20.8956 41.3008 -4.5295 -14.8424
# 5 7.7031 -11.5072 5.7368 -4.5295 32.7968 -7.2565
# 6 5.8691 18.8308 -2.8387 -14.8424 -7.2565 37.3051
#
#
#
# Elastic Compliance Matrix: (Units=1/GPa)
#
#
# Indices 1 2 3 4 5 6 
#
# 1 0.078270 -0.003537 -0.020612 0.003472 -0.018716 -0.014356
# 2 -0.003537 0.013486 -0.003630 -0.002231 0.004440 -0.006551
# 3 -0.020612 -0.003630 0.013982 0.004119 0.003565 0.008471
# 4 0.003472 -0.002231 0.004119 0.032873 0.005552 0.015052
# 5 -0.018716 0.004440 0.003565 0.005552 0.038969 0.010764
# 6 -0.014356 -0.006551 0.008471 0.015052 0.010764 0.041098
#
#
# Mechanical properties :
#
#
# Convention : Reuss Voigt Hill
#
# Bulk Modulus (GPa) = 19.92826 56.76574 38.34700
# Shear Modulus (GPa) = 17.18428 34.17548 25.67988
#
# Velocity S-wave (km/s) = 2.80107 3.95016 3.42416
# Velocity P-wave (km/s) = 4.42268 6.83543 5.75687
#
# Compressibility (1/GPa) = 0.05017999
#
# Stress axis : x y z
#
# Youngs Moduli (GPa) = 12.77635 74.15081 71.51957
#
# Poissons Ratio (x) = 0.26228 1.47414
# Poissons Ratio (y) = 0.04519 0.25963
# Poissons Ratio (z) = 0.26334 0.26918
#
# Static dielectric constant tensor:
#      x y z
#    x 1.201550 -1.497870 -0.736050 
#    y -1.497870 -1.436480 -1.484950 
#    z -0.736050 -1.484950 1.311660 
# 
# From -- ./inp_files/447971.got.cif
#   From: 2010.05.17/outbox.cif.g08.bks.cpg/sg2_224_cif.got.tgz:447971.got - 2010.06.03 11:33:40.
