data_PCOD9053770
_publ_section_title
;
Structure prediction by ZEFSAII (Michael W. Deem and Ramdas Pophale) SiO2 
 PCOD9053770
Probable space group: P -1
;
_chemical_formula_sum "Si O2"
_cell_formula_units_Z 16
_cell_length_a 9.371968
_cell_length_b 12.186606
_cell_length_c 10.257833
_cell_angle_alpha 48.759913
_cell_angle_beta 63.311820
_cell_angle_gamma 68.647466
_cell_volume 783.068214
_symmetry_space_group_name_H-M "P -1"
_symmetry_group_IT_number 2
_symmetry_cell_setting 'triclinic'
loop_
_space_group_symop_operation_xyz
x,y,z
-x,-y,-z
loop_
_atom_site_type_symbol
_atom_site_label
_atom_site_fract_x
_atom_site_fract_y
_atom_site_fract_z
Si Si1 0.150899 0.911811 0.160416
Si Si2 0.313801 0.322176 0.358078
Si Si3 0.339994 0.828707 0.688078
Si Si4 0.844106 0.101412 0.538396
Si Si5 0.027347 0.667890 0.006874
Si Si6 0.774096 0.939880 0.244242
Si Si7 0.081728 0.319803 0.225045
Si Si8 0.891322 0.393401 0.703694
O O1 0.203209 0.935088 0.268002
O O2 0.167858 0.739623 0.249427
O O3 0.958066 0.955724 0.200302
O O4 0.233472 0.003297 0.944889
O O5 0.501139 0.281769 0.293057
O O6 0.261141 0.223994 0.577213
O O7 0.220280 0.269881 0.309707
O O8 0.254747 0.492950 0.272053
O O9 0.296535 0.895574 0.511195
O O10 0.340717 0.954904 0.697019
O O11 0.187329 0.743138 0.852578
O O12 0.918262 0.258077 0.388719
O O13 0.000000 0.000000 0.500000
O O14 0.060539 0.494335 0.107750
O O15 0.004846 0.682620 0.159032
O O16 0.901511 0.721119 0.903085
O O17 0.000000 0.500000 0.500000
#
# Coordination Sequence:
#
# PCOD9053770 Si02
#       8
#     2   2   2   2   2   2   2   2
#     4  11  21  37  62  88 116 155 205 251 288 354
#     4  11  22  38  61  91 122 161 193 251 306 356
#     4  11  22  37  62  88 126 154 201 247 304 359
#     4  11  20  38  61  89 115 159 202 248 293 353
#     4   9  19  35  57  90 112 155 198 249 285 348
#     4  11  21  37  60  92 116 156 200 251 298 350
#     4   9  18  34  57  85 119 142 204 244 287 338
#     4  11  20  37  61  86 119 158 205 242 298 357
#
# _framework density 20.432445999999999
#
# number of rings (size 3 to 8) (size 9 to 14) (size 15 to 20)
#    0.000    1.500    5.000    1.125    0.000    2.000 
#    0.000    1.250    2.750    0.000    0.000    0.000 
#    0.000    0.000    0.000    0.000    0.000    0.000 
#
# Total GULP energy -89300.305508 kJ/mol
# GULP energy per Si atom -5581.269094 kJ/mol
# Density = 2.038594 g / cm^3
# Si number density = 20.432446 Si / 1000 Ang^3
#
#
#
# Elastic Constant Matrix: (Units=GPa)
#
#
# Indices 1 2 3 4 5 6 
#
# 1 56.2867 28.1252 18.6219 15.2530 16.2596 -9.3742
# 2 28.1252 108.1371 39.3272 -0.9589 9.1321 -11.0102
# 3 18.6219 39.3272 140.6743 17.9277 27.6452 14.1844
# 4 15.2530 -0.9589 17.9277 38.3579 12.3573 -0.5717
# 5 16.2596 9.1321 27.6452 12.3573 21.6109 -2.4493
# 6 -9.3742 -11.0102 14.1844 -0.5717 -2.4493 25.3857
#
#
#
# Elastic Compliance Matrix: (Units=1/GPa)
#
#
# Indices 1 2 3 4 5 6 
#
# 1 0.027358 -0.005842 0.001386 -0.006591 -0.015535 0.005147
# 2 -0.005842 0.012845 -0.004624 0.003792 0.003441 0.006415
# 3 0.001386 -0.004624 0.012405 -0.001755 -0.015078 -0.009919
# 4 -0.006591 0.003792 -0.001755 0.034090 -0.013936 -0.000386
# 5 -0.015535 0.003441 -0.015078 -0.013936 0.085133 0.012081
# 6 0.005147 0.006415 -0.009919 -0.000386 0.012081 0.050775
#
#
# Mechanical properties :
#
#
# Convention : Reuss Voigt Hill
#
# Bulk Modulus (GPa) = 29.03013 53.02742 41.02877
# Shear Modulus (GPa) = 19.82179 31.67247 25.74713
#
# Velocity S-wave (km/s) = 3.11804 3.94141 3.55365
# Velocity P-wave (km/s) = 5.21552 6.83534 6.07962
#
# Compressibility (1/GPa) = 0.03444697
#
# Stress axis : x y z
#
# Youngs Moduli (GPa) = 36.55269 77.85314 80.61396
#
# Poissons Ratio (x) = 0.45480 -0.11170
# Poissons Ratio (y) = 0.21353 0.37275
# Poissons Ratio (z) = -0.05065 0.35999
#
# Static dielectric constant tensor:
#      x y z
#    x 1.701720 0.017050 0.029150 
#    y 0.017050 1.784230 0.000700 
#    z 0.029150 0.000700 1.803790 
# 
# From -- ./inp_files/174964.got.cif
#   From: 2010.05.17/outbox.cif.g08.bks.cpg/sg2_88_cif.got.tgz:174964.got - 2010.06.03 11:33:40.
