data_PCOD9053698
_publ_section_title
;
Structure prediction by ZEFSAII (Michael W. Deem and Ramdas Pophale) SiO2 
 PCOD9053698
Probable space group: P -1
;
_chemical_formula_sum "Si O2"
_cell_formula_units_Z 16
_cell_length_a 15.227194
_cell_length_b 10.191288
_cell_length_c 9.069318
_cell_angle_alpha 126.379271
_cell_angle_beta 84.538727
_cell_angle_gamma 52.385388
_cell_volume 625.803661
_symmetry_space_group_name_H-M "P -1"
_symmetry_group_IT_number 2
_symmetry_cell_setting 'triclinic'
loop_
_space_group_symop_operation_xyz
x,y,z
-x,-y,-z
loop_
_atom_site_type_symbol
_atom_site_label
_atom_site_fract_x
_atom_site_fract_y
_atom_site_fract_z
Si Si1 0.719711 0.257364 0.680278
Si Si2 0.801826 0.212407 0.055156
Si Si3 0.438506 0.805782 0.487426
Si Si4 0.656101 0.699502 0.123327
Si Si5 0.966602 0.426034 0.815159
Si Si6 0.131849 0.759236 0.615884
Si Si7 0.737044 0.966912 0.014075
Si Si8 0.618291 0.886703 0.786356
O O1 0.601411 0.293727 0.669035
O O2 0.775469 0.277462 0.542748
O O3 0.671105 0.476404 0.946819
O O4 0.872310 0.915572 0.473849
O O5 0.626218 0.551711 0.288155
O O6 0.849266 0.185867 0.194609
O O7 0.787072 0.046754 0.970921
O O8 0.943198 0.044414 0.812159
O O9 0.364173 0.094741 0.640628
O O10 0.373145 0.864666 0.704911
O O11 0.487465 0.974382 0.247094
O O12 0.829501 0.496546 0.901043
O O13 0.896003 0.642143 0.838688
O O14 0.000000 0.500000 0.000000
O O15 0.216089 0.458715 0.438967
O O16 0.643031 0.025963 0.936894
O O17 0.500000 0.000000 0.000000
#
# Coordination Sequence:
#
# PCOD9053698 Si02
#       8
#     2   2   2   2   2   2   2   2
#     4  12  22  37  63  88 118 162 201 252 293 350
#     4  11  22  35  56  88 123 158 189 252 311 356
#     4  11  20  36  61  86 120 155 203 246 296 356
#     4  11  22  35  59  92 121 150 199 255 299 352
#     4  11  20  36  57  90 122 154 204 252 290 348
#     4  11  22  35  56  88 125 153 195 244 312 362
#     4  11  21  36  61  87 118 160 200 250 297 357
#     4  12  19  36  59  89 122 149 198 253 303 354
#
# _framework density 25.567122000000001
#
# number of rings (size 3 to 8) (size 9 to 14) (size 15 to 20)
#    0.000    0.750    8.750    1.500    0.000    0.500 
#    0.000    0.000    0.000    4.500    0.000    6.125 
#    0.000    0.000    0.000    0.000    0.000    0.000 
#
# Total GULP energy -89069.448673 kJ/mol
# GULP energy per Si atom -5566.840542 kJ/mol
# Density = 2.550893 g / cm^3
# Si number density = 25.567122 Si / 1000 Ang^3
#
#
#
# Elastic Constant Matrix: (Units=GPa)
#
#
# Indices 1 2 3 4 5 6 
#
# 1 169.9209 86.8357 4.2990 27.0031 13.6058 -7.9763
# 2 86.8357 -722.3733 165.7848 -169.6388 184.8946 -133.3730
# 3 4.2990 165.7848 212.8670 20.2503 -18.0742 3.8837
# 4 27.0031 -169.6388 20.2503 23.0513 32.4411 -28.1924
# 5 13.6058 184.8946 -18.0742 32.4411 11.4013 29.5037
# 6 -7.9763 -133.3730 3.8837 -28.1924 29.5037 21.2040
#
#
#
# Elastic Compliance Matrix: (Units=1/GPa)
#
#
# Indices 1 2 3 4 5 6 
#
# 1 0.006886 -0.000484 -0.000026 -0.001634 -0.004238 0.003275
# 2 -0.000484 0.000887 -0.000018 -0.002834 0.003838 -0.003711
# 3 -0.000026 -0.000018 0.004454 0.000952 -0.001466 0.002370
# 4 -0.001634 -0.002834 0.000952 0.017057 0.003705 -0.001091
# 5 -0.004238 0.003838 -0.001466 0.003705 0.020818 -0.001223
# 6 0.003275 -0.003711 0.002370 -0.001091 -0.001223 0.024869
#
#
# Mechanical properties :
#
#
# Convention : Reuss Voigt Hill
#
# Bulk Modulus (GPa) = 89.52025 19.36151 54.44088
# Shear Modulus (GPa) = 62.69680 -28.63567 17.03057
#
# Velocity S-wave (km/s) = 4.95739 -3.35030 2.58371
# Velocity P-wave (km/s) = 8.23756 2.71602 5.49912
#
# Compressibility (1/GPa) = 0.01117066
#
# Stress axis : x y z
#
# Youngs Moduli (GPa) = 145.22687 1127.94926 224.53577
#
# Poissons Ratio (x) = 0.54572 0.00591
# Poissons Ratio (y) = 0.07026 0.00393
# Poissons Ratio (z) = 0.00382 0.01974
#
# Static dielectric constant tensor:
#      x y z
#    x 1.988090 -0.013160 0.026420 
#    y -0.013160 2.083810 0.059910 
#    z 0.026420 0.059910 2.155520 
# 
# From -- ./inp_files/452637.got.cif
#   From: 2010.05.17/outbox.cif.g08.bks.cpg/sg2_227_cif.got.tgz:452637.got - 2010.06.03 11:33:40.
