data_PCOD9053584
_publ_section_title
;
Structure prediction by ZEFSAII (Michael W. Deem and Ramdas Pophale) SiO2 
 PCOD9053584
Probable space group: P -1
;
_chemical_formula_sum "Si O2"
_cell_formula_units_Z 16
_cell_length_a 26.199117
_cell_length_b 9.046531
_cell_length_c 21.402481
_cell_angle_alpha 37.904168
_cell_angle_beta 167.568792
_cell_angle_gamma 145.123955
_cell_volume 621.358839
_symmetry_space_group_name_H-M "P -1"
_symmetry_group_IT_number 2
_symmetry_cell_setting 'triclinic'
loop_
_space_group_symop_operation_xyz
x,y,z
-x,-y,-z
loop_
_atom_site_type_symbol
_atom_site_label
_atom_site_fract_x
_atom_site_fract_y
_atom_site_fract_z
Si Si1 0.481755 0.686211 0.259803
Si Si2 0.869705 0.495537 0.911883
Si Si3 0.939060 0.034989 0.633452
Si Si4 0.849141 0.808915 0.290076
Si Si5 0.996162 0.728187 0.110523
Si Si6 0.511944 0.272492 0.009928
Si Si7 0.411580 0.085669 0.566153
Si Si8 0.272085 0.570318 0.908951
O O1 0.500166 0.910948 0.257756
O O2 0.782238 0.780622 0.569987
O O3 0.286701 0.435864 0.146649
O O4 0.357022 0.633157 0.060003
O O5 0.650373 0.217865 0.761058
O O6 0.730129 0.706356 0.670460
O O7 0.039354 0.589616 0.146202
O O8 0.000000 0.500000 0.000000
O O9 0.725279 0.157490 0.321053
O O10 0.037021 0.992848 0.696775
O O11 0.150396 0.263314 0.849371
O O12 0.624184 0.570405 0.067091
O O13 0.057056 0.686739 0.598088
O O14 0.736482 0.873172 0.197398
O O15 0.215971 0.810976 0.398414
O O16 0.000000 0.000000 0.000000
O O17 0.502664 0.289095 0.918713
#
# Coordination Sequence:
#
# PCOD9053584 Si02
#       8
#     2   2   2   2   2   2   2   2
#     4  11  20  33  54  78 109 142 179 222 271 324
#     4   9  18  35  61  86 103 130 178 223 267 327
#     4   9  18  32  51  75 105 139 178 226 268 309
#     4   8  15  31  53  74 101 141 180 217 264 317
#     4   9  19  37  60  80 105 145 181 219 275 327
#     4   8  15  31  53  74 102 140 181 219 262 315
#     4   9  19  36  55  79 111 140 170 219 273 323
#     4   9  18  32  51  76 104 139 177 216 266 317
#
# _framework density 25.750017
#
# number of rings (size 3 to 8) (size 9 to 14) (size 15 to 20)
#    0.000    3.000    0.000    3.000    0.000    2.500 
#    0.000    7.500    0.000   12.000    0.000    0.000 
#    0.000    0.000    0.000    0.000    0.000    0.000 
#
# Total GULP energy -89388.873422 kJ/mol
# GULP energy per Si atom -5586.804589 kJ/mol
# Density = 2.569141 g / cm^3
# Si number density = 25.750017 Si / 1000 Ang^3
#
#
#
# Elastic Constant Matrix: (Units=GPa)
#
#
# Indices 1 2 3 4 5 6 
#
# 1 270.3225 60.2760 97.3482 25.5481 19.1056 10.6187
# 2 60.2760 91.7924 42.4527 21.8904 2.7349 -3.3626
# 3 97.3482 42.4527 94.7811 38.0653 -3.2665 -12.9273
# 4 25.5481 21.8904 38.0653 49.6696 -5.2984 1.9210
# 5 19.1056 2.7349 -3.2665 -5.2984 58.8194 2.8225
# 6 10.6187 -3.3626 -12.9273 1.9210 2.8225 33.7548
#
#
#
# Elastic Compliance Matrix: (Units=1/GPa)
#
#
# Indices 1 2 3 4 5 6 
#
# 1 0.007549 -0.001674 -0.009647 0.004254 -0.002225 -0.006292
# 2 -0.001674 0.014326 -0.003426 -0.002926 -0.000617 0.000860
# 3 -0.009647 -0.003426 0.031389 -0.017898 0.002680 0.015509
# 4 0.004254 -0.002926 -0.017898 0.033493 0.001281 -0.010497
# 5 -0.002225 -0.000617 0.002680 0.001281 0.018013 0.000085
# 6 -0.006292 0.000860 0.015509 -0.010497 0.000085 0.038220
#
#
# Mechanical properties :
#
#
# Convention : Reuss Voigt Hill
#
# Bulk Modulus (GPa) = 42.07038 95.22774 68.64906
# Shear Modulus (GPa) = 27.71515 45.57005 36.64260
#
# Velocity S-wave (km/s) = 3.28428 4.21136 3.77638
# Velocity P-wave (km/s) = 5.54576 7.79161 6.76257
#
# Compressibility (1/GPa) = 0.02376969
#
# Stress axis : x y z
#
# Youngs Moduli (GPa) = 132.46777 69.80514 31.85847
#
# Poissons Ratio (x) = 0.11687 0.30734
# Poissons Ratio (y) = 0.22178 0.10914
# Poissons Ratio (z) = 1.27791 0.23913
#
# Static dielectric constant tensor:
#      x y z
#    x 2.046380 0.051700 -0.048870 
#    y 0.051700 2.086310 -0.075850 
#    z -0.048870 -0.075850 2.149550 
# 
# From -- ./inp_files/577326.got.cif
#   From: 2010.05.17/outbox.cif.g08.bks.cpg/sg2_289_cif.got.tgz:577326.got - 2010.06.03 11:33:40.
