data_PCOD9053303
_publ_section_title
;
Structure prediction by ZEFSAII (Michael W. Deem and Ramdas Pophale) SiO2 
 PCOD9053303
Probable space group: P -1
;
_chemical_formula_sum "Si O2"
_cell_formula_units_Z 16
_cell_length_a 15.813661
_cell_length_b 15.939823
_cell_length_c 9.252681
_cell_angle_alpha 38.233137
_cell_angle_beta 135.169837
_cell_angle_gamma 146.156967
_cell_volume 792.853963
_symmetry_space_group_name_H-M "P -1"
_symmetry_group_IT_number 2
_symmetry_cell_setting 'triclinic'
loop_
_space_group_symop_operation_xyz
x,y,z
-x,-y,-z
loop_
_atom_site_type_symbol
_atom_site_label
_atom_site_fract_x
_atom_site_fract_y
_atom_site_fract_z
Si Si1 0.219265 0.451069 0.020768
Si Si2 0.357153 0.272207 0.466450
Si Si3 0.345856 0.955113 0.803894
Si Si4 0.949616 0.387110 0.949274
Si Si5 0.783776 0.448280 0.437822
Si Si6 0.530298 0.036143 0.656659
Si Si7 0.577655 0.768128 0.084922
Si Si8 0.613003 0.574889 0.175021
O O1 0.238364 0.302594 0.230439
O O2 0.391026 0.622522 0.043305
O O3 0.180514 0.494007 0.763394
O O4 0.088720 0.392911 0.055624
O O5 0.363994 0.267005 0.654445
O O6 0.519957 0.437418 0.377700
O O7 0.335141 0.108339 0.597783
O O8 0.373961 0.936385 0.695816
O O9 0.203358 0.796030 0.934164
O O10 0.500000 0.000000 0.000000
O O11 0.907018 0.457505 0.671236
O O12 0.000000 0.500000 0.000000
O O13 0.633953 0.242084 0.534845
O O14 0.746590 0.567294 0.303430
O O15 0.500000 0.000000 0.500000
O O16 0.612895 0.951277 0.905059
O O17 0.642955 0.744515 0.049854
O O18 0.500000 0.500000 0.000000
#
# Coordination Sequence:
#
# PCOD9053303 Si02
#       8
#     2   2   2   2   2   2   2   2
#     4  11  24  41  61  94 136 174 210 265 339 393
#     4  11  22  38  67  96 130 169 221 274 327 387
#     4  12  23  44  69  97 128 172 222 278 326 381
#     4  12  28  43  65  95 133 177 224 269 326 397
#     4  12  23  42  67  95 136 177 216 272 330 392
#     4  12  22  38  68  98 131 164 222 274 325 385
#     4  11  22  36  65 101 130 168 220 277 325 385
#     4  11  19  36  61  99 131 163 215 274 329 381
#
# _framework density 20.180260000000001
#
# number of rings (size 3 to 8) (size 9 to 14) (size 15 to 20)
#    0.000    0.500    7.500    2.625    3.500    0.500 
#    0.000    0.000    0.000    0.750    0.000    0.000 
#    0.000    0.000    0.000    0.000    0.000    0.000 
#
# Total GULP energy -89340.277574 kJ/mol
# GULP energy per Si atom -5583.767348 kJ/mol
# Density = 2.013433 g / cm^3
# Si number density = 20.180260 Si / 1000 Ang^3
#
#
#
# Elastic Constant Matrix: (Units=GPa)
#
#
# Indices 1 2 3 4 5 6 
#
# 1 145.9691 31.3688 29.4366 -15.9778 6.6732 -11.4808
# 2 31.3688 45.0510 21.9218 -5.3098 7.8730 -10.0426
# 3 29.4366 21.9218 105.1716 -4.0638 -0.3351 -10.0905
# 4 -15.9778 -5.3098 -4.0638 27.8470 -11.8791 0.4959
# 5 6.6732 7.8730 -0.3351 -11.8791 39.6845 1.3824
# 6 -11.4808 -10.0426 -10.0905 0.4959 1.3824 32.6824
#
#
#
# Elastic Compliance Matrix: (Units=1/GPa)
#
#
# Indices 1 2 3 4 5 6 
#
# 1 0.008629 -0.004844 -0.001138 0.004141 0.000702 0.001099
# 2 -0.004844 0.030037 -0.004310 -0.000116 -0.005440 0.006429
# 3 -0.001138 -0.004310 0.010905 0.000631 0.001272 0.001579
# 4 0.004141 -0.000116 0.000631 0.043629 0.012377 0.000429
# 5 0.000702 -0.005440 0.001272 0.012377 0.029962 -0.002487
# 6 0.001099 0.006429 0.001579 0.000429 -0.002487 0.033545
#
#
# Mechanical properties :
#
#
# Convention : Reuss Voigt Hill
#
# Bulk Modulus (GPa) = 34.49779 51.29402 42.89590
# Shear Modulus (GPa) = 26.74453 34.27375 30.50914
#
# Velocity S-wave (km/s) = 3.64439 4.12561 3.89245
# Velocity P-wave (km/s) = 5.90260 6.94027 6.44236
#
# Compressibility (1/GPa) = 0.02898736
#
# Stress axis : x y z
#
# Youngs Moduli (GPa) = 115.89012 33.29173 91.70027
#
# Poissons Ratio (x) = 0.16127 0.10433
# Poissons Ratio (y) = 0.56140 0.39524
# Poissons Ratio (z) = 0.13185 0.14349
#
# Static dielectric constant tensor:
#      x y z
#    x 1.720710 -0.027200 0.005110 
#    y -0.027200 1.763620 -0.004050 
#    z 0.005110 -0.004050 1.810370 
# 
# From -- ./inp_files/283104.got.cif
#   From: 2010.05.17/outbox.cif.g08.bks.cpg/sg2_142_cif.got.tgz:283104.got - 2010.06.03 11:33:40.
