data_PCOD9053543
_publ_section_title
;
Structure prediction by ZEFSAII (Michael W. Deem and Ramdas Pophale) SiO2 
 PCOD9053543
Probable space group: P -1
;
_chemical_formula_sum "Si O2"
_cell_formula_units_Z 16
_cell_length_a 23.071607
_cell_length_b 14.831150
_cell_length_c 9.057098
_cell_angle_alpha 33.431038
_cell_angle_beta 124.475806
_cell_angle_gamma 149.514867
_cell_volume 724.638606
_symmetry_space_group_name_H-M "P -1"
_symmetry_group_IT_number 2
_symmetry_cell_setting 'triclinic'
loop_
_space_group_symop_operation_xyz
x,y,z
-x,-y,-z
loop_
_atom_site_type_symbol
_atom_site_label
_atom_site_fract_x
_atom_site_fract_y
_atom_site_fract_z
Si Si1 0.720522 0.158748 0.292364
Si Si2 0.707744 0.768425 0.833407
Si Si3 0.993785 0.171042 0.699776
Si Si4 0.002263 0.694138 0.800404
Si Si5 0.452462 0.071598 0.907298
Si Si6 0.701279 0.757027 0.479277
Si Si7 0.446919 0.060232 0.413515
Si Si8 0.285354 0.870651 0.174722
O O1 0.705787 0.952028 0.627724
O O2 0.614920 0.957653 0.279953
O O3 0.671757 0.198190 0.283662
O O4 0.872337 0.468137 0.023542
O O5 0.698002 0.750037 0.663481
O O6 0.577891 0.410545 0.192639
O O7 0.850397 0.969819 0.806554
O O8 0.128270 0.535209 0.450523
O O9 0.003506 0.204188 0.490874
O O10 0.000000 0.000000 0.000000
O O11 0.146917 0.004606 0.664061
O O12 0.000000 0.500000 0.000000
O O13 0.579528 0.410003 0.709157
O O14 0.500000 0.000000 0.000000
O O15 0.333766 0.822234 0.200206
O O16 0.693268 0.920985 0.171234
O O17 0.500000 0.000000 0.500000
O O18 0.382913 0.046939 0.213445
#
# Coordination Sequence:
#
# PCOD9053543 Si02
#       8
#     2   2   2   2   2   2   2   2
#     4  12  23  44  70 101 135 189 239 283 351 433
#     4  11  21  43  69  98 136 181 235 282 354 426
#     4  11  22  39  71 106 141 180 227 292 364 411
#     4  11  19  44  76 103 137 183 237 291 352 429
#     4  12  24  40  66 101 138 175 241 297 344 415
#     4  11  21  41  76 102 127 186 236 288 353 425
#     4  12  27  42  62  98 146 185 226 295 359 405
#     4  12  21  44  69  97 134 184 237 281 352 426
#
# _framework density 22.079971
#
# number of rings (size 3 to 8) (size 9 to 14) (size 15 to 20)
#    0.000    0.500    7.500    3.000    0.000    0.000 
#    0.000    6.875    0.000    0.000    0.000    0.000 
#    0.000    0.000    0.000    0.000    0.000    0.000 
#
# Total GULP energy -89502.553580 kJ/mol
# GULP energy per Si atom -5593.909599 kJ/mol
# Density = 2.202972 g / cm^3
# Si number density = 22.079971 Si / 1000 Ang^3
#
#
#
# Elastic Constant Matrix: (Units=GPa)
#
#
# Indices 1 2 3 4 5 6 
#
# 1 134.3466 43.6844 28.3461 0.8385 -18.9019 24.0463
# 2 43.6844 115.8339 26.3419 -8.9262 -0.4621 40.5179
# 3 28.3461 26.3419 70.4458 11.2375 -2.9060 18.1518
# 4 0.8385 -8.9262 11.2375 30.6731 11.7273 -6.8399
# 5 -18.9019 -0.4621 -2.9060 11.7273 30.8615 -2.3512
# 6 24.0463 40.5179 18.1518 -6.8399 -2.3512 33.7528
#
#
#
# Elastic Compliance Matrix: (Units=1/GPa)
#
#
# Indices 1 2 3 4 5 6 
#
# 1 0.010320 -0.002509 -0.001153 -0.004378 0.007527 -0.004083
# 2 -0.002509 0.015696 -0.001391 0.003042 -0.003804 -0.015955
# 3 -0.001153 -0.001391 0.019911 -0.011815 0.004855 -0.010273
# 4 -0.004378 0.003042 -0.011815 0.049309 -0.021394 0.014323
# 5 0.007527 -0.003804 0.004855 -0.021394 0.045193 -0.004594
# 6 -0.004083 -0.015955 -0.010273 0.014323 -0.004594 0.059795
#
#
# Mechanical properties :
#
#
# Convention : Reuss Voigt Hill
#
# Bulk Modulus (GPa) = 27.91671 57.48568 42.70120
# Shear Modulus (GPa) = 22.49517 33.87442 28.18480
#
# Velocity S-wave (km/s) = 3.19533 3.92110 3.57667
# Velocity P-wave (km/s) = 5.12684 6.82581 6.03640
#
# Compressibility (1/GPa) = 0.03582084
#
# Stress axis : x y z
#
# Youngs Moduli (GPa) = 96.90262 63.71251 50.22229
#
# Poissons Ratio (x) = 0.15983 0.05793
# Poissons Ratio (y) = 0.24309 0.06985
# Poissons Ratio (z) = 0.11177 0.08861
#
# Static dielectric constant tensor:
#      x y z
#    x 1.846570 0.001360 -0.021690 
#    y 0.001360 1.819910 0.014410 
#    z -0.021690 0.014410 1.827470 
# 
# From -- ./inp_files/354493.got.cif
#   From: 2010.05.17/outbox.cif.g08.bks.cpg/sg2_178_cif.got.tgz:354493.got - 2010.06.03 11:33:40.
