data_PCOD9053359
_publ_section_title
;
Structure prediction by ZEFSAII (Michael W. Deem and Ramdas Pophale) SiO2 
 PCOD9053359
Probable space group: P -1
;
_chemical_formula_sum "Si O2"
_cell_formula_units_Z 16
_cell_length_a 13.863041
_cell_length_b 6.396028
_cell_length_c 13.711246
_cell_angle_alpha 67.519735
_cell_angle_beta 55.526178
_cell_angle_gamma 106.739399
_cell_volume 693.918123
_symmetry_space_group_name_H-M "P -1"
_symmetry_group_IT_number 2
_symmetry_cell_setting 'triclinic'
loop_
_space_group_symop_operation_xyz
x,y,z
-x,-y,-z
loop_
_atom_site_type_symbol
_atom_site_label
_atom_site_fract_x
_atom_site_fract_y
_atom_site_fract_z
Si Si1 0.695220 0.186331 0.684248
Si Si2 0.202148 0.202971 0.565719
Si Si3 0.997675 0.259407 0.929655
Si Si4 0.062259 0.834768 0.530253
Si Si5 0.140610 0.099469 0.115666
Si Si6 0.617933 0.199654 0.149192
Si Si7 0.253912 0.897718 0.742245
Si Si8 0.736195 0.184693 0.873958
O O1 0.727489 0.464597 0.560686
O O2 0.847080 0.220102 0.583513
O O3 0.661072 0.190836 0.817003
O O4 0.545133 0.893947 0.767623
O O5 0.188819 0.039827 0.505177
O O6 0.279075 0.152488 0.616603
O O7 0.019019 0.011672 0.729029
O O8 0.163838 0.596462 0.780791
O O9 0.920772 0.147080 0.888921
O O10 0.876838 0.212072 0.082321
O O11 0.000000 0.000000 0.000000
O O12 0.907610 0.516877 0.714685
O O13 0.000000 0.000000 0.500000
O O14 0.251065 0.066225 0.114181
O O15 0.246394 0.447513 0.965363
O O16 0.610703 0.029942 0.279494
O O17 0.662843 0.138104 0.030856
#
# Coordination Sequence:
#
# PCOD9053359 Si02
#       8
#     2   2   2   2   2   2   2   2
#     4  12  29  46  67 104 143 184 228 286 356 407
#     4  12  24  42  72 102 139 184 236 285 332 415
#     4  11  19  37  67 103 137 173 234 289 332 392
#     4  12  24  47  74 101 134 182 239 286 338 418
#     4  12  22  40  74 103 135 181 229 289 342 403
#     4  12  27  45  67 106 144 179 229 288 351 407
#     4  11  23  39  67 105 139 180 231 282 338 414
#     4  12  24  45  74 100 132 185 237 284 341 411
#
# _framework density 23.057476999999999
#
# number of rings (size 3 to 8) (size 9 to 14) (size 15 to 20)
#    0.000    0.250    7.500    3.000    0.000    2.000 
#    0.000    0.625    0.000    0.000    0.000    0.000 
#    0.000    0.000    0.000    0.000    0.000    0.000 
#
# Total GULP energy -89301.310313 kJ/mol
# GULP energy per Si atom -5581.331895 kJ/mol
# Density = 2.300500 g / cm^3
# Si number density = 23.057477 Si / 1000 Ang^3
#
#
#
# Elastic Constant Matrix: (Units=GPa)
#
#
# Indices 1 2 3 4 5 6 
#
# 1 132.1130 35.1971 41.3010 -4.2325 26.4179 -2.3973
# 2 35.1971 77.8689 17.3850 -0.3495 11.7623 0.8764
# 3 41.3010 17.3850 44.4205 0.1801 17.9916 -3.7606
# 4 -4.2325 -0.3495 0.1801 27.1695 -6.1121 9.5739
# 5 26.4179 11.7623 17.9916 -6.1121 43.0827 -5.5365
# 6 -2.3973 0.8764 -3.7606 9.5739 -5.5365 42.6449
#
#
#
# Elastic Compliance Matrix: (Units=1/GPa)
#
#
# Indices 1 2 3 4 5 6 
#
# 1 0.011607 -0.002904 -0.008677 0.001503 -0.002580 -0.000726
# 2 -0.002904 0.014963 -0.002689 -0.000249 -0.001323 -0.000824
# 3 -0.008677 -0.002689 0.035558 -0.004570 -0.009116 0.002546
# 4 0.001503 -0.000249 -0.004570 0.041500 0.005801 -0.008877
# 5 -0.002580 -0.001323 -0.009116 0.005801 0.029999 0.001671
# 6 -0.000726 -0.000824 0.002546 -0.008877 0.001671 0.025860
#
#
# Mechanical properties :
#
#
# Convention : Reuss Voigt Hill
#
# Bulk Modulus (GPa) = 29.77299 49.12986 39.45142
# Shear Modulus (GPa) = 25.09733 33.28072 29.18903
#
# Velocity S-wave (km/s) = 3.30277 3.80331 3.56184
# Velocity P-wave (km/s) = 5.24261 6.37500 5.83634
#
# Compressibility (1/GPa) = 0.03358749
#
# Stress axis : x y z
#
# Youngs Moduli (GPa) = 86.15700 66.83110 28.12268
#
# Poissons Ratio (x) = 0.19410 0.24403
# Poissons Ratio (y) = 0.25023 0.07562
# Poissons Ratio (z) = 0.74761 0.17970
#
# Static dielectric constant tensor:
#      x y z
#    x -0.970620 -0.184560 -0.042080 
#    y -0.184560 1.888290 0.028410 
#    z -0.042080 0.028410 1.839280 
# 
# From -- ./inp_files/411134.got.cif
#   From: 2010.05.17/outbox.cif.g08.bks.cpg/sg2_206_cif.got.tgz:411134.got - 2010.06.03 11:33:40.
