data_PCOD9053219
_publ_section_title
;
Structure prediction by ZEFSAII (Michael W. Deem and Ramdas Pophale) SiO2 
 PCOD9053219
Probable space group: P -1
;
_chemical_formula_sum "Si O2"
_cell_formula_units_Z 14
_cell_length_a 25.269662
_cell_length_b 8.153846
_cell_length_c 8.871128
_cell_angle_alpha 121.195616
_cell_angle_beta 44.390703
_cell_angle_gamma 147.730225
_cell_volume 664.235705
_symmetry_space_group_name_H-M "P -1"
_symmetry_group_IT_number 2
_symmetry_cell_setting 'triclinic'
loop_
_space_group_symop_operation_xyz
x,y,z
-x,-y,-z
loop_
_atom_site_type_symbol
_atom_site_label
_atom_site_fract_x
_atom_site_fract_y
_atom_site_fract_z
Si Si1 0.181895 0.607287 0.614600
Si Si2 0.194561 0.670339 0.943309
Si Si3 0.229267 0.408857 0.933844
Si Si4 0.097897 0.814700 0.737771
Si Si5 0.354788 0.675447 0.122681
Si Si6 0.011526 0.928523 0.603906
Si Si7 0.213671 0.059457 0.293941
O O1 0.098823 0.602650 0.702943
O O2 0.280778 0.715580 0.350028
O O3 0.100640 0.258035 0.665561
O O4 0.235318 0.800619 0.751587
O O5 0.041100 0.384814 0.111552
O O6 0.241291 0.918531 0.087397
O O7 0.260262 0.599102 0.815528
O O8 0.162663 0.083163 0.857033
O O9 0.318471 0.560191 0.967131
O O10 0.122060 0.335405 0.179458
O O11 0.188920 0.997924 0.493433
O O12 0.305733 0.405848 0.203459
O O13 0.500000 0.000000 0.000000
O O14 0.077335 0.859669 0.423714
O O15 0.000000 0.000000 0.500000
#
# Coordination Sequence:
#
# PCOD9053219 Si02
#       7
#     2   2   2   2   2   2   2
#     4  11  23  38  61  94 131 163 208 250 311 378
#     4  12  23  36  63 103 137 162 194 250 327 390
#     4  12  22  38  62  93 130 166 209 250 311 376
#     4  12  23  36  63 103 137 162 194 250 327 390
#     4  11  26  48  66  84 121 171 221 268 304 353
#     4  11  19  34  57  89 128 164 198 254 313 373
#     4  11  23  38  61  94 131 163 208 250 311 378
#
# _framework density 21.076857
#
# number of rings (size 3 to 8) (size 9 to 14) (size 15 to 20)
#    0.000    0.571    5.714    5.571    0.000    0.000 
#    0.000    8.571    0.000    0.000    0.000    0.000 
#    0.000    0.000    0.000    0.000    0.000    0.000 
#
# Total GULP energy -78111.579788 kJ/mol
# GULP energy per Si atom -5579.398556 kJ/mol
# Density = 2.102889 g / cm^3
# Si number density = 21.076857 Si / 1000 Ang^3
#
#
#
# Elastic Constant Matrix: (Units=GPa)
#
#
# Indices 1 2 3 4 5 6 
#
# 1 74.8401 29.7401 15.5464 1.6323 14.6799 -5.6221
# 2 29.7401 83.3470 34.2060 8.5337 -1.8393 9.0403
# 3 15.5464 34.2060 63.2735 18.1922 12.7287 10.8466
# 4 1.6323 8.5337 18.1922 25.7890 -2.2018 -4.4864
# 5 14.6799 -1.8393 12.7287 -2.2018 34.4883 7.9809
# 6 -5.6221 9.0403 10.8466 -4.4864 7.9809 32.8787
#
#
#
# Elastic Compliance Matrix: (Units=1/GPa)
#
#
# Indices 1 2 3 4 5 6 
#
# 1 0.019267 -0.008090 -0.000419 0.002349 -0.010289 0.008475
# 2 -0.008090 0.019650 -0.009749 0.000691 0.009470 -0.005775
# 3 -0.000419 -0.009749 0.030685 -0.020676 -0.011226 -0.007610
# 4 0.002349 0.000691 -0.020676 0.055846 0.007250 0.012893
# 5 -0.010289 0.009470 -0.011226 0.007250 0.040696 -0.009549
# 6 0.008475 -0.005775 -0.007610 0.012893 -0.009549 0.040040
#
#
# Mechanical properties :
#
#
# Convention : Reuss Voigt Hill
#
# Bulk Modulus (GPa) = 30.22335 42.27173 36.24754
# Shear Modulus (GPa) = 19.70600 28.09575 23.90087
#
# Velocity S-wave (km/s) = 3.06103 3.65501 3.37112
# Velocity P-wave (km/s) = 5.18304 6.15724 5.69103
#
# Compressibility (1/GPa) = 0.03308700
#
# Stress axis : x y z
#
# Youngs Moduli (GPa) = 51.90138 50.88947 32.58878
#
# Poissons Ratio (x) = 0.41169 0.01365
# Poissons Ratio (y) = 0.41988 0.31772
# Poissons Ratio (z) = 0.02174 0.49613
#
# Static dielectric constant tensor:
#      x y z
#    x 5.133110 -2.759880 1.354820 
#    y -2.759880 4.051380 -1.048130 
#    z 1.354820 -1.048130 2.290140 
# 
# From -- ./inp_files/171114.got.cif
#   From: 2010.05.17/outbox.cif.g08.bks.cpg/sg2_86_cif.got.tgz:171114.got - 2010.06.03 11:33:40.
