data_PCOD9053901
_publ_section_title
;
Structure prediction by ZEFSAII (Michael W. Deem and Ramdas Pophale) SiO2 
 PCOD9053901
Probable space group: P -1
;
_chemical_formula_sum "Si O2"
_cell_formula_units_Z 12
_cell_length_a 6.587992
_cell_length_b 8.216912
_cell_length_c 10.618776
_cell_angle_alpha 119.566508
_cell_angle_beta 80.397123
_cell_angle_gamma 96.151700
_cell_volume 492.761135
_symmetry_space_group_name_H-M "P -1"
_symmetry_group_IT_number 2
_symmetry_cell_setting 'triclinic'
loop_
_space_group_symop_operation_xyz
x,y,z
-x,-y,-z
loop_
_atom_site_type_symbol
_atom_site_label
_atom_site_fract_x
_atom_site_fract_y
_atom_site_fract_z
Si Si1 0.326995 0.485163 0.117951
Si Si2 0.431104 0.781514 0.670080
Si Si3 0.807511 0.918313 0.064672
Si Si4 0.802084 0.615464 0.444120
Si Si5 0.752099 0.237515 0.573404
Si Si6 0.015855 0.230711 0.751764
O O1 0.376357 0.603756 0.283237
O O2 0.119910 0.588283 0.133997
O O3 0.500000 0.500000 0.000000
O O4 0.278272 0.269257 0.063372
O O5 0.661711 0.716541 0.599485
O O6 0.289272 0.595050 0.637830
O O7 0.363696 0.853875 0.565243
O O8 0.371602 0.936253 0.835331
O O9 0.900132 0.862776 0.170029
O O10 0.000000 0.000000 0.000000
O O11 0.804852 0.707474 0.339266
O O12 0.955284 0.349347 0.541074
O O13 0.848543 0.120571 0.635083
#
# Coordination Sequence:
#
# PCOD9053901 Si02
#       6
#     2   2   2   2   2   2
#     4   9  21  42  63  88 124 174 203 247 324 386
#     4  11  20  38  68  91 126 160 213 264 304 372
#     4  12  24  40  62  97 126 160 214 268 311 360
#     4   8  20  39  60  96 119 171 204 248 323 376
#     4   8  20  39  64  87 121 168 208 249 308 384
#     4   8  21  40  63  83 127 168 208 249 313 382
#
# _framework density 24.35257
#
# number of rings (size 3 to 8) (size 9 to 14) (size 15 to 20)
#    2.000    0.333    0.000    3.000    2.333    1.333 
#    6.000    0.833    0.000    0.000    0.000    0.000 
#    0.000    0.000    0.000    0.000    0.000    0.000 
#
# Total GULP energy -66964.943352 kJ/mol
# GULP energy per Si atom -5580.411946 kJ/mol
# Density = 2.429714 g / cm^3
# Si number density = 24.352570 Si / 1000 Ang^3
#
#
#
# Elastic Constant Matrix: (Units=GPa)
#
#
# Indices 1 2 3 4 5 6 
#
# 1 62.5523 3.0007 34.4484 0.8033 -13.9134 7.4342
# 2 3.0007 84.0334 32.8994 -8.1770 -10.5357 2.5456
# 3 34.4484 32.8994 164.2127 19.7963 -47.6385 8.7319
# 4 0.8033 -8.1770 19.7963 49.4124 -8.3874 0.7063
# 5 -13.9134 -10.5357 -47.6385 -8.3874 43.5585 -14.6385
# 6 7.4342 2.5456 8.7319 0.7063 -14.6385 31.8976
#
#
#
# Elastic Compliance Matrix: (Units=1/GPa)
#
#
# Indices 1 2 3 4 5 6 
#
# 1 0.018654 0.001257 -0.003781 0.001719 0.001536 -0.002746
# 2 0.001257 0.013560 -0.003159 0.003638 0.000862 -0.000196
# 3 -0.003781 -0.003159 0.010649 -0.003061 0.010061 0.002903
# 4 0.001719 0.003638 -0.003061 0.022486 0.002711 0.000893
# 5 0.001536 0.000862 0.010061 0.002711 0.040310 0.015258
# 6 -0.002746 -0.000196 0.002903 0.000893 0.015258 0.038194
#
#
# Mechanical properties :
#
#
# Convention : Reuss Voigt Hill
#
# Bulk Modulus (GPa) = 31.74752 50.16617 40.95685
# Shear Modulus (GPa) = 30.17199 41.00369 35.58784
#
# Velocity S-wave (km/s) = 3.52371 4.10781 3.82692
# Velocity P-wave (km/s) = 5.44246 6.56837 6.03174
#
# Compressibility (1/GPa) = 0.03149852
#
# Stress axis : x y z
#
# Youngs Moduli (GPa) = 53.60662 73.74807 93.90534
#
# Poissons Ratio (x) = -0.09271 0.35505
# Poissons Ratio (y) = -0.06739 0.29661
# Poissons Ratio (z) = 0.20268 0.23294
#
# Static dielectric constant tensor:
#      x y z
#    x 1.985020 -0.078260 0.033240 
#    y -0.078260 1.975210 0.019410 
#    z 0.033240 0.019410 1.930980 
# 
# From -- ./inp_files/375163.got.cif
#   From: 2010.05.17/outbox.cif.g08.bks.cpg/sg2_188_cif.got.tgz:375163.got - 2010.06.03 11:33:40.
