data_PCOD9053537
_publ_section_title
;
Structure prediction by ZEFSAII (Michael W. Deem and Ramdas Pophale) SiO2 
 PCOD9053537
Probable space group: P -1
;
_chemical_formula_sum "Si O2"
_cell_formula_units_Z 16
_cell_length_a 13.298070
_cell_length_b 8.520168
_cell_length_c 10.465846
_cell_angle_alpha 120.518382
_cell_angle_beta 70.899667
_cell_angle_gamma 68.114357
_cell_volume 723.455888
_symmetry_space_group_name_H-M "P -1"
_symmetry_group_IT_number 2
_symmetry_cell_setting 'triclinic'
loop_
_space_group_symop_operation_xyz
x,y,z
-x,-y,-z
loop_
_atom_site_type_symbol
_atom_site_label
_atom_site_fract_x
_atom_site_fract_y
_atom_site_fract_z
Si Si1 0.337880 0.973694 0.196652
Si Si2 0.021725 0.102218 0.153214
Si Si3 0.686871 0.042480 0.083714
Si Si4 0.609551 0.606072 0.085063
Si Si5 0.240187 0.380009 0.601986
Si Si6 0.685424 0.889091 0.284991
Si Si7 0.451277 0.448513 0.647317
Si Si8 0.887932 0.099530 0.701425
O O1 0.488736 0.727403 0.080814
O O2 0.209532 0.976140 0.286693
O O3 0.312808 0.177749 0.379521
O O4 0.349280 0.012604 0.057871
O O5 0.907713 0.389359 0.301080
O O6 0.019270 0.007636 0.251583
O O7 0.180053 0.990586 0.026443
O O8 0.000000 0.000000 0.000000
O O9 0.563423 0.324479 0.296166
O O10 0.742296 0.869745 0.111964
O O11 0.592371 0.817607 0.255435
O O12 0.589617 0.487701 0.159597
O O13 0.767669 0.393406 0.878880
O O14 0.227150 0.278804 0.697976
O O15 0.334244 0.450818 0.629555
O O16 0.597037 0.169530 0.473384
O O17 0.000000 0.000000 0.500000
#
# Coordination Sequence:
#
# PCOD9053537 Si02
#       8
#     2   2   2   2   2   2   2   2
#     4  11  23  43  68  98 130 177 215 270 341 383
#     4  11  22  44  65  88 131 184 213 258 337 396
#     4  11  25  39  65  97 140 165 216 280 330 378
#     4  11  20  43  72  91 133 176 217 268 334 389
#     4  11  22  40  71  90 127 180 224 259 324 402
#     4  11  23  39  67 103 127 165 230 275 314 389
#     4  11  19  44  67  94 129 177 213 275 327 386
#     4  11  26  43  66 100 136 170 219 277 329 393
#
# _framework density 22.116067999999999
#
# number of rings (size 3 to 8) (size 9 to 14) (size 15 to 20)
#    0.000    1.000    6.250    2.250    0.000    6.000 
#    2.250    0.000    0.000    0.000    0.000    0.000 
#    0.000    0.000    0.000    0.000    0.000    0.000 
#
# Total GULP energy -89237.258229 kJ/mol
# GULP energy per Si atom -5577.328639 kJ/mol
# Density = 2.206573 g / cm^3
# Si number density = 22.116068 Si / 1000 Ang^3
#
#
#
# Elastic Constant Matrix: (Units=GPa)
#
#
# Indices 1 2 3 4 5 6 
#
# 1 31.6516 26.6041 31.3423 -9.8990 17.2893 -18.3377
# 2 26.6041 137.0020 86.4556 -12.5168 -2.8215 -22.8557
# 3 31.3423 86.4556 124.5814 -11.4118 10.5408 -16.4227
# 4 -9.8990 -12.5168 -11.4118 49.0623 -0.5665 -1.4816
# 5 17.2893 -2.8215 10.5408 -0.5665 35.1536 -2.8399
# 6 -18.3377 -22.8557 -16.4227 -1.4816 -2.8399 36.6634
#
#
#
# Elastic Compliance Matrix: (Units=1/GPa)
#
#
# Indices 1 2 3 4 5 6 
#
# 1 0.095184 -0.004850 -0.010747 0.016123 -0.040710 0.037269
# 2 -0.004850 0.014684 -0.009021 0.000842 0.006543 0.003228
# 3 -0.010747 -0.009021 0.016493 -0.000753 -0.000695 -0.003695
# 4 0.016123 0.000842 -0.000753 0.023862 -0.006548 0.008709
# 5 -0.040710 0.006543 -0.000695 -0.006548 0.048035 -0.013138
# 6 0.037269 0.003228 -0.003695 0.008709 -0.013138 0.045607
#
#
# Mechanical properties :
#
#
# Convention : Reuss Voigt Hill
#
# Bulk Modulus (GPa) = 12.96568 64.67100 38.81834
# Shear Modulus (GPa) = 15.68332 34.09806 24.89069
#
# Velocity S-wave (km/s) = 2.66585 3.93081 3.35842
# Velocity P-wave (km/s) = 3.91803 7.06447 5.71217
#
# Compressibility (1/GPa) = 0.07712669
#
# Stress axis : x y z
#
# Youngs Moduli (GPa) = 10.50597 68.10183 60.62997
#
# Poissons Ratio (x) = 0.33028 0.65157
# Poissons Ratio (y) = 0.05095 0.54694
# Poissons Ratio (z) = 0.11290 0.61434
#
# Static dielectric constant tensor:
#      x y z
#    x 2.019620 -0.120720 0.157500 
#    y -0.120720 2.045770 -0.156490 
#    z 0.157500 -0.156490 1.999520 
# 
# From -- ./inp_files/185810.got.cif
#   From: 2010.05.17/outbox.cif.g08.bks.cpg/sg2_93_cif.got.tgz:185810.got - 2010.06.03 11:33:40.
