data_PCOD9053688
_publ_section_title
;
Structure prediction by ZEFSAII (Michael W. Deem and Ramdas Pophale) SiO2 
 PCOD9053688
Probable space group: P -1
;
_chemical_formula_sum "Si O2"
_cell_formula_units_Z 12
_cell_length_a 10.650085
_cell_length_b 6.465266
_cell_length_c 9.311427
_cell_angle_alpha 79.272594
_cell_angle_beta 127.949943
_cell_angle_gamma 109.202446
_cell_volume 477.332224
_symmetry_space_group_name_H-M "P -1"
_symmetry_group_IT_number 2
_symmetry_cell_setting 'triclinic'
loop_
_space_group_symop_operation_xyz
x,y,z
-x,-y,-z
loop_
_atom_site_type_symbol
_atom_site_label
_atom_site_fract_x
_atom_site_fract_y
_atom_site_fract_z
Si Si1 0.435819 0.466424 0.794348
Si Si2 0.663927 0.176548 0.937783
Si Si3 0.797440 0.940962 0.273354
Si Si4 0.139050 0.931910 0.395985
Si Si5 0.316991 0.152757 0.229651
Si Si6 0.061498 0.413425 0.908373
O O1 0.520722 0.291475 0.806404
O O2 0.246184 0.318990 0.686045
O O3 0.508602 0.683306 0.721719
O O4 0.500000 0.500000 0.000000
O O5 0.699839 0.081602 0.823995
O O6 0.810427 0.367369 0.086862
O O7 0.657989 0.974611 0.063416
O O8 0.972501 0.005268 0.306078
O O9 0.795504 0.079989 0.396861
O O10 0.072639 0.712537 0.283990
O O11 0.271467 0.105870 0.369824
O O12 0.173507 0.252054 0.051836
O O13 0.000000 0.500000 0.000000
#
# Coordination Sequence:
#
# PCOD9053688 Si02
#       6
#     2   2   2   2   2   2
#     4  11  23  41  68  96 118 167 220 255 309 376
#     4  11  21  39  69  90 123 169 212 261 303 376
#     4  11  23  41  64  94 132 163 205 262 322 366
#     4  11  23  41  63  96 131 164 202 265 319 369
#     4  11  22  40  68  93 123 166 218 255 307 374
#     4  11  20  35  66  95 121 162 217 254 305 371
#
# _framework density 25.139724000000001
#
# number of rings (size 3 to 8) (size 9 to 14) (size 15 to 20)
#    0.000    1.000    5.000    3.000    0.000    1.333 
#    0.000    2.500    0.000    0.000    0.000    0.000 
#    0.000    0.000    0.000    0.000    0.000    0.000 
#
# Total GULP energy -67031.041547 kJ/mol
# GULP energy per Si atom -5585.920129 kJ/mol
# Density = 2.508250 g / cm^3
# Si number density = 25.139724 Si / 1000 Ang^3
#
#
#
# Elastic Constant Matrix: (Units=GPa)
#
#
# Indices 1 2 3 4 5 6 
#
# 1 101.2484 34.2555 25.3879 3.9962 -33.3671 -1.9657
# 2 34.2555 93.7333 9.4056 15.5866 -19.0903 2.4813
# 3 25.3879 9.4056 64.6766 17.1276 -32.8263 -1.9163
# 4 3.9962 15.5866 17.1276 31.9602 -1.3521 -6.4470
# 5 -33.3671 -19.0903 -32.8263 -1.3521 40.9174 -0.7984
# 6 -1.9657 2.4813 -1.9163 -6.4470 -0.7984 53.8800
#
#
#
# Elastic Compliance Matrix: (Units=1/GPa)
#
#
# Indices 1 2 3 4 5 6 
#
# 1 0.014343 -0.003275 -0.000129 0.000477 0.010098 0.000876
# 2 -0.003275 0.014773 0.006283 -0.010120 0.008896 -0.001655
# 3 -0.000129 0.006283 0.035828 -0.021164 0.030849 -0.001095
# 4 0.000477 -0.010120 -0.021164 0.047715 -0.019635 0.005149
# 5 0.010098 0.008896 0.030849 -0.019635 0.060917 -0.000391
# 6 0.000876 -0.001655 -0.001095 0.005149 -0.000391 0.019239
#
#
# Mechanical properties :
#
#
# Convention : Reuss Voigt Hill
#
# Bulk Modulus (GPa) = 14.14362 44.19513 29.16937
# Shear Modulus (GPa) = 23.73894 38.05879 30.89887
#
# Velocity S-wave (km/s) = 3.07625 3.89510 3.50963
# Velocity P-wave (km/s) = 4.27270 6.15199 5.29636
#
# Compressibility (1/GPa) = 0.07070327
#
# Stress axis : x y z
#
# Youngs Moduli (GPa) = 69.72043 67.68920 27.91116
#
# Poissons Ratio (x) = 0.22166 0.00360
# Poissons Ratio (y) = 0.22831 -0.17537
# Poissons Ratio (z) = 0.00900 -0.42531
#
# Static dielectric constant tensor:
#      x y z
#    x 2.127420 0.086640 0.051180 
#    y 0.086640 2.021420 -0.012190 
#    z 0.051180 -0.012190 1.970360 
# 
# From -- ./inp_files/24054.got.cif
#   From: 2010.05.17/outbox.cif.g08.bks.cpg/sg2_13_cif.got.tgz:24054.got - 2010.06.03 11:33:40.
