data_PCOD9053104
_publ_section_title
;
Structure prediction by ZEFSAII (Michael W. Deem and Ramdas Pophale) SiO2 
 PCOD9053104
Probable space group: P -1
;
_chemical_formula_sum "Si O2"
_cell_formula_units_Z 14
_cell_length_a 11.143427
_cell_length_b 7.956188
_cell_length_c 7.749086
_cell_angle_alpha 55.192987
_cell_angle_beta 102.458895
_cell_angle_gamma 79.347271
_cell_volume 508.552487
_symmetry_space_group_name_H-M "P -1"
_symmetry_group_IT_number 2
_symmetry_cell_setting 'triclinic'
loop_
_space_group_symop_operation_xyz
x,y,z
-x,-y,-z
loop_
_atom_site_type_symbol
_atom_site_label
_atom_site_fract_x
_atom_site_fract_y
_atom_site_fract_z
Si Si1 0.543728 0.326980 0.417216
Si Si2 0.183931 0.877468 0.209856
Si Si3 0.217924 0.921297 0.578170
Si Si4 0.276156 0.313485 0.467610
Si Si5 0.034031 0.324505 0.766457
Si Si6 0.200918 0.481853 0.967667
Si Si7 0.585974 0.748432 0.111721
O O1 0.659764 0.264333 0.636965
O O2 0.626060 0.185026 0.365983
O O3 0.430190 0.254311 0.493061
O O4 0.507647 0.581922 0.201695
O O5 0.145927 0.970674 0.339801
O O6 0.095670 0.737617 0.223511
O O7 0.149170 0.077350 0.949215
O O8 0.207709 0.134666 0.552569
O O9 0.186753 0.729249 0.771826
O O10 0.214777 0.442979 0.196288
O O11 0.293433 0.353104 0.652479
O O12 0.000000 0.500000 0.500000
O O13 0.079635 0.436999 0.872577
O O14 0.334936 0.308165 0.013153
O O15 0.500000 0.000000 0.000000
#
# Coordination Sequence:
#
# PCOD9053104 Si02
#       7
#     2   2   2   2   2   2   2
#     4   9  21  43  59  93 136 168 207 267 321 375
#     4   9  20  35  63  98 122 164 225 261 313 394
#     4   9  20  37  60  98 123 162 221 255 314 389
#     4  12  24  41  67  92 137 172 207 271 323 380
#     4  11  18  36  66  96 123 167 219 268 319 379
#     4  11  24  43  65  96 132 173 211 268 330 372
#     4  11  27  39  62 100 132 175 226 249 316 408
#
# _framework density 27.529114
#
# number of rings (size 3 to 8) (size 9 to 14) (size 15 to 20)
#    0.857    0.857    2.857    0.857    8.000    1.143 
#    0.000    0.000    0.000    4.286    0.000    0.000 
#    0.000    0.000    0.000    0.000    0.000    0.000 
#
# Total GULP energy -78289.292884 kJ/mol
# GULP energy per Si atom -5592.092349 kJ/mol
# Density = 2.746646 g / cm^3
# Si number density = 27.529114 Si / 1000 Ang^3
#
#
#
# Elastic Constant Matrix: (Units=GPa)
#
#
# Indices 1 2 3 4 5 6 
#
# 1 109.8801 32.9796 42.0872 -15.3538 8.4170 35.0633
# 2 32.9796 103.5783 61.6169 2.8101 -22.4322 12.3390
# 3 42.0872 61.6169 199.8144 -17.8571 -11.1788 12.9901
# 4 -15.3538 2.8101 -17.8571 47.2444 9.5094 1.1967
# 5 8.4170 -22.4322 -11.1788 9.5094 37.9882 -5.9056
# 6 35.0633 12.3390 12.9901 1.1967 -5.9056 53.7144
#
#
#
# Elastic Compliance Matrix: (Units=1/GPa)
#
#
# Indices 1 2 3 4 5 6 
#
# 1 0.016664 -0.006205 -0.000817 0.008013 -0.011261 -0.010671
# 2 -0.006205 0.016424 -0.003879 -0.006962 0.012095 0.002700
# 3 -0.000817 -0.003879 0.006580 0.002639 -0.000884 -0.000323
# 4 0.008013 -0.006962 0.002639 0.027979 -0.013099 -0.006333
# 5 -0.011261 0.012095 -0.000884 -0.013099 0.040461 0.009527
# 6 -0.010671 0.002700 -0.000323 -0.006333 0.009527 0.026229
#
#
# Mechanical properties :
#
#
# Convention : Reuss Voigt Hill
#
# Bulk Modulus (GPa) = 55.96925 76.29337 66.13131
# Shear Modulus (GPa) = 30.84639 46.22868 38.53754
#
# Velocity S-wave (km/s) = 3.35102 4.10233 3.74556
# Velocity P-wave (km/s) = 5.94538 7.08609 6.54065
#
# Compressibility (1/GPa) = 0.01786696
#
# Stress axis : x y z
#
# Youngs Moduli (GPa) = 60.01136 60.88553 151.97199
#
# Poissons Ratio (x) = 0.37779 0.12410
# Poissons Ratio (y) = 0.37237 0.58949
# Poissons Ratio (z) = 0.04901 0.23617
#
# Static dielectric constant tensor:
#      x y z
#    x 2.197940 -0.122060 0.086120 
#    y -0.122060 2.228420 -0.117120 
#    z 0.086120 -0.117120 2.210170 
# 
# From -- ./inp_files/294191.got.cif
#   From: 2010.05.17/outbox.cif.g08.bks.cpg/sg2_148_cif.got.tgz:294191.got - 2010.06.03 11:33:40.
