data_PCOD9053519
_publ_section_title
;
Structure prediction by ZEFSAII (Michael W. Deem and Ramdas Pophale) SiO2 
 PCOD9053519
Probable space group: P -1
;
_chemical_formula_sum "Si O2"
_cell_formula_units_Z 16
_cell_length_a 9.016811
_cell_length_b 11.387798
_cell_length_c 19.952179
_cell_angle_alpha 39.528515
_cell_angle_beta 70.791874
_cell_angle_gamma 40.865133
_cell_volume 675.581474
_symmetry_space_group_name_H-M "P -1"
_symmetry_group_IT_number 2
_symmetry_cell_setting 'triclinic'
loop_
_space_group_symop_operation_xyz
x,y,z
-x,-y,-z
loop_
_atom_site_type_symbol
_atom_site_label
_atom_site_fract_x
_atom_site_fract_y
_atom_site_fract_z
Si Si1 0.766068 0.701316 0.639187
Si Si2 0.210371 0.439718 0.613291
Si Si3 0.100439 0.655405 0.102990
Si Si4 0.447353 0.655469 0.289236
Si Si5 0.612036 0.147353 0.570519
Si Si6 0.101595 0.569974 0.999300
Si Si7 0.137141 0.856853 0.670272
Si Si8 0.553810 0.326024 0.955952
O O1 0.046582 0.424610 0.673175
O O2 0.748685 0.548775 0.759853
O O3 0.500000 0.000000 0.500000
O O4 0.778204 0.861787 0.617612
O O5 0.405124 0.337999 0.687274
O O6 0.396957 0.241204 0.606382
O O7 0.966191 0.832433 0.460916
O O8 0.243529 0.706185 0.035995
O O9 0.126121 0.495200 0.106763
O O10 0.768572 0.998886 0.021101
O O11 0.435897 0.478460 0.411706
O O12 0.656211 0.405319 0.306174
O O13 0.145607 0.031588 0.144907
O O14 0.847211 0.021494 0.635438
O O15 0.397971 0.358731 0.020415
O O16 0.000000 0.500000 0.000000
O O17 0.301415 0.655579 0.802568
#
# Coordination Sequence:
#
# PCOD9053519 Si02
#       8
#     2   2   2   2   2   2   2   2
#     4  12  27  44  67  99 141 183 230 290 349 413
#     4  11  22  40  66 100 135 177 228 290 344 410
#     4  11  28  48  70 101 145 191 235 283 352 422
#     4  11  21  41  70 102 137 180 228 289 357 408
#     4  11  23  40  70 102 138 180 233 294 348 412
#     4  12  28  44  75 109 141 183 237 295 349 412
#     4  11  19  42  72 101 134 181 231 287 349 411
#     4  11  25  48  74  99 143 192 234 284 349 426
#
# _framework density 23.683302000000001
#
# number of rings (size 3 to 8) (size 9 to 14) (size 15 to 20)
#    0.000    0.750    3.750    4.875    5.250    1.000 
#    0.000    1.250    0.000    0.000    0.000    0.000 
#    0.000    0.000    0.000    0.000    0.000    0.000 
#
# Total GULP energy -89621.230720 kJ/mol
# GULP energy per Si atom -5601.326920 kJ/mol
# Density = 2.362940 g / cm^3
# Si number density = 23.683302 Si / 1000 Ang^3
#
#
#
# Elastic Constant Matrix: (Units=GPa)
#
#
# Indices 1 2 3 4 5 6 
#
# 1 28.9418 30.7701 6.3754 6.5012 -3.8009 -15.4584
# 2 30.7701 157.1630 35.9463 7.7383 3.8786 -26.3796
# 3 6.3754 35.9463 116.5159 -10.7354 17.4394 -8.3888
# 4 6.5012 7.7383 -10.7354 31.4909 5.4753 3.1723
# 5 -3.8009 3.8786 17.4394 5.4753 24.4210 3.2404
# 6 -15.4584 -26.3796 -8.3888 3.1723 3.2404 33.7759
#
#
#
# Elastic Compliance Matrix: (Units=1/GPa)
#
#
# Indices 1 2 3 4 5 6 
#
# 1 0.059190 -0.006871 -0.003053 -0.016013 0.013261 0.021197
# 2 -0.006871 0.008890 -0.002103 -0.001652 -0.001078 0.003535
# 3 -0.003053 -0.002103 0.011515 0.006781 -0.009902 0.000133
# 4 -0.016013 -0.001652 0.006781 0.041348 -0.015099 -0.009370
# 5 0.013261 -0.001078 -0.009902 -0.015099 0.053769 -0.000972
# 6 0.021197 0.003535 0.000133 -0.009370 -0.000972 0.043075
#
#
# Mechanical properties :
#
#
# Convention : Reuss Voigt Hill
#
# Bulk Modulus (GPa) = 18.00484 49.86714 33.93599
# Shear Modulus (GPa) = 19.20450 33.23949 26.22199
#
# Velocity S-wave (km/s) = 2.85070 3.75039 3.33106
# Velocity P-wave (km/s) = 4.29583 6.31312 5.39952
#
# Compressibility (1/GPa) = 0.05554061
#
# Stress axis : x y z
#
# Youngs Moduli (GPa) = 16.89473 112.48087 86.84470
#
# Poissons Ratio (x) = 0.77288 0.26514
# Poissons Ratio (y) = 0.11609 0.18264
# Poissons Ratio (z) = 0.05158 0.23656
#
# Static dielectric constant tensor:
#      x y z
#    x 1.878320 -0.004620 -0.043340 
#    y -0.004620 1.879650 0.017840 
#    z -0.043340 0.017840 1.911740 
# 
# From -- ./inp_files/589474.got.cif
#   From: 2010.05.17/outbox.cif.g08.bks.cpg/sg2_295_cif.got.tgz:589474.got - 2010.06.03 11:33:40.
