data_PCOD9053981
_publ_section_title
;
Structure prediction by ZEFSAII (Michael W. Deem and Ramdas Pophale) SiO2 
 PCOD9053981
Probable space group: P -1
;
_chemical_formula_sum "Si O2"
_cell_formula_units_Z 14
_cell_length_a 9.922394
_cell_length_b 9.370402
_cell_length_c 11.954124
_cell_angle_alpha 120.810803
_cell_angle_beta 48.191309
_cell_angle_gamma 135.602947
_cell_volume 578.233252
_symmetry_space_group_name_H-M "P -1"
_symmetry_group_IT_number 2
_symmetry_cell_setting 'triclinic'
loop_
_space_group_symop_operation_xyz
x,y,z
-x,-y,-z
loop_
_atom_site_type_symbol
_atom_site_label
_atom_site_fract_x
_atom_site_fract_y
_atom_site_fract_z
Si Si1 0.012723 0.839364 0.353282
Si Si2 0.281498 0.089143 0.856716
Si Si3 0.654853 0.933046 0.927318
Si Si4 0.670165 0.056522 0.596711
Si Si5 0.543113 0.502543 0.784654
Si Si6 0.335056 0.595083 0.555013
Si Si7 0.028147 0.733026 0.700489
O O1 0.791076 0.610505 0.384403
O O2 0.113976 0.933344 0.215089
O O3 0.199471 0.838222 0.319418
O O4 0.000000 0.000000 0.500000
O O5 0.338986 0.307763 0.882250
O O6 0.299632 0.047273 0.958248
O O7 0.488238 0.098930 0.688628
O O8 0.070758 0.899768 0.834697
O O9 0.537203 0.697234 0.865930
O O10 0.500000 0.000000 0.000000
O O11 0.530676 0.811214 0.585840
O O12 0.846505 0.147564 0.435368
O O13 0.571535 0.447085 0.622497
O O14 0.770481 0.575696 0.753067
O O15 0.148786 0.630311 0.633915
#
# Coordination Sequence:
#
# PCOD9053981 Si02
#       7
#     2   2   2   2   2   2   2
#     4  12  24  43  65  94 136 182 227 266 325 406
#     4  11  23  43  68  98 135 172 222 275 337 398
#     4  12  27  46  66  94 144 188 214 269 340 400
#     4  11  20  39  68 101 135 168 218 287 328 393
#     4  12  22  42  71  99 129 177 226 278 328 392
#     4  11  21  37  68 104 127 167 225 275 336 384
#     4  11  21  38  73 105 131 163 228 286 332 384
#
# _framework density 24.211680999999999
#
# number of rings (size 3 to 8) (size 9 to 14) (size 15 to 20)
#    0.000    0.571    7.143    2.571    0.000    1.143 
#    0.000    4.286    0.000    0.000    0.000    0.000 
#    0.000    0.000    0.000    0.000    0.000    0.000 
#
# Total GULP energy -78520.264810 kJ/mol
# GULP energy per Si atom -5608.590344 kJ/mol
# Density = 2.415657 g / cm^3
# Si number density = 24.211681 Si / 1000 Ang^3
#
#
#
# Elastic Constant Matrix: (Units=GPa)
#
#
# Indices 1 2 3 4 5 6 
#
# 1 73.6382 29.5601 21.6274 5.4690 -3.7419 -3.8974
# 2 29.5601 196.2323 65.0566 -8.2297 21.0335 -4.4391
# 3 21.6274 65.0566 91.6642 -17.5435 17.6390 -11.5048
# 4 5.4690 -8.2297 -17.5435 37.5381 -6.6705 1.2993
# 5 -3.7419 21.0335 17.6390 -6.6705 48.1041 5.2124
# 6 -3.8974 -4.4391 -11.5048 1.2993 5.2124 43.1610
#
#
#
# Elastic Compliance Matrix: (Units=1/GPa)
#
#
# Indices 1 2 3 4 5 6 
#
# 1 0.015791 -0.001542 -0.003930 -0.003979 0.002791 0.000002
# 2 -0.001542 0.006925 -0.004411 -0.000584 -0.001569 -0.000396
# 3 -0.003930 -0.004411 0.017661 0.006941 -0.004347 0.004215
# 4 -0.003979 -0.000584 0.006941 0.030611 0.001611 0.000315
# 5 0.002791 -0.001569 -0.004347 0.001611 0.023943 -0.004008
# 6 0.000002 -0.000396 0.004215 0.000315 -0.004008 0.024727
#
#
# Mechanical properties :
#
#
# Convention : Reuss Voigt Hill
#
# Bulk Modulus (GPa) = 48.51514 66.00256 57.25885
# Shear Modulus (GPa) = 34.17803 42.11336 38.14569
#
# Velocity S-wave (km/s) = 3.76125 4.17511 3.97357
# Velocity P-wave (km/s) = 6.24052 7.11069 6.68977
#
# Compressibility (1/GPa) = 0.02061212
#
# Stress axis : x y z
#
# Youngs Moduli (GPa) = 63.32914 144.39870 56.62178
#
# Poissons Ratio (x) = 0.22264 0.22251
# Poissons Ratio (y) = 0.09764 0.24974
# Poissons Ratio (z) = 0.24887 0.63690
#
# Static dielectric constant tensor:
#      x y z
#    x 1.959500 -0.015140 -0.068180 
#    y -0.015140 1.897920 0.013540 
#    z -0.068180 0.013540 1.961430 
# 
# From -- ./inp_files/516231.got.cif
#   From: 2010.05.17/outbox.cif.g08.bks.cpg/sg2_259_cif.got.tgz:516231.got - 2010.06.03 11:33:40.
