data_PCOD9053648
_publ_section_title
;
Structure prediction by ZEFSAII (Michael W. Deem and Ramdas Pophale) SiO2 
 PCOD9053648
Probable space group: P -1
;
_chemical_formula_sum "Si O2"
_cell_formula_units_Z 12
_cell_length_a 24.249096
_cell_length_b 12.379197
_cell_length_c 12.539848
_cell_angle_alpha 23.392491
_cell_angle_beta 28.852697
_cell_angle_gamma 27.874391
_cell_volume 655.136319
_symmetry_space_group_name_H-M "P -1"
_symmetry_group_IT_number 2
_symmetry_cell_setting 'triclinic'
loop_
_space_group_symop_operation_xyz
x,y,z
-x,-y,-z
loop_
_atom_site_type_symbol
_atom_site_label
_atom_site_fract_x
_atom_site_fract_y
_atom_site_fract_z
Si Si1 0.003542 0.793353 0.281622
Si Si2 0.724220 0.561310 0.786471
Si Si3 0.632003 0.821869 0.147675
Si Si4 0.485126 0.220029 0.228871
Si Si5 0.254412 0.823796 0.513282
Si Si6 0.370024 0.787265 0.575240
O O1 0.134057 0.686798 0.222189
O O2 0.000000 0.500000 0.500000
O O3 0.886144 0.969602 0.397634
O O4 0.000000 0.000000 0.000000
O O5 0.649068 0.652960 0.719994
O O6 0.723738 0.869299 0.552529
O O7 0.644838 0.438542 0.109340
O O8 0.729109 0.474442 0.308620
O O9 0.504325 0.799342 0.345490
O O10 0.588439 0.027538 0.140314
O O11 0.686430 0.984705 0.824997
O O12 0.500000 0.000000 0.500000
O O13 0.500000 0.500000 0.000000
O O14 0.333379 0.713914 0.588645
#
# Coordination Sequence:
#
# PCOD9053648 Si02
#       6
#     2   2   2   2   2   2
#     4  12  22  38  58  85 127 167 194 220 273 362
#     4  11  21  38  60  90 115 156 206 235 281 348
#     4  11  23  36  56  90 115 154 198 240 302 348
#     4  11  23  42  65  83 110 150 202 265 299 329
#     4  12  21  35  57  85 130 159 182 232 289 357
#     4  11  20  35  57  85 128 155 188 232 287 360
#
# _framework density 18.316797999999999
#
# number of rings (size 3 to 8) (size 9 to 14) (size 15 to 20)
#    0.000    0.667    3.333    8.000    0.000    0.000 
#    0.000    0.000    0.000    6.000    0.000    0.000 
#    0.000    0.000    0.000    0.000    0.000    0.000 
#
# Total GULP energy -67033.074546 kJ/mol
# GULP energy per Si atom -5586.089545 kJ/mol
# Density = 1.827511 g / cm^3
# Si number density = 18.316798 Si / 1000 Ang^3
#
#
#
# Elastic Constant Matrix: (Units=GPa)
#
#
# Indices 1 2 3 4 5 6 
#
# 1 96.7414 58.8286 52.0747 1.3858 8.7506 1.6370
# 2 58.8286 140.6629 39.2915 -3.4714 -2.4844 3.5024
# 3 52.0747 39.2915 128.9108 -9.5020 18.7281 -6.1692
# 4 1.3858 -3.4714 -9.5020 38.5127 8.1599 -4.7292
# 5 8.7506 -2.4844 18.7281 8.1599 30.2182 -11.5832
# 6 1.6370 3.5024 -6.1692 -4.7292 -11.5832 23.0667
#
#
#
# Elastic Compliance Matrix: (Units=1/GPa)
#
#
# Indices 1 2 3 4 5 6 
#
# 1 0.016820 -0.005668 -0.004949 -0.002130 -0.003092 -0.003646
# 2 -0.005668 0.009859 -0.001160 0.000153 0.003224 0.000245
# 3 -0.004949 -0.001160 0.011435 0.004417 -0.006464 0.001245
# 4 -0.002130 0.000153 0.004417 0.029392 -0.008957 0.002837
# 5 -0.003092 0.003224 -0.006464 -0.008957 0.048554 0.020546
# 6 -0.003646 0.000245 0.001245 0.002837 0.020546 0.054806
#
#
# Mechanical properties :
#
#
# Convention : Reuss Voigt Hill
#
# Bulk Modulus (GPa) = 68.69446 74.07831 71.38638
# Shear Modulus (GPa) = 25.09121 32.76755 28.92938
#
# Velocity S-wave (km/s) = 3.70516 4.23417 3.97847
# Velocity P-wave (km/s) = 7.47591 8.02713 7.75642
#
# Compressibility (1/GPa) = 0.01455722
#
# Stress axis : x y z
#
# Youngs Moduli (GPa) = 59.45427 101.43447 87.45445
#
# Poissons Ratio (x) = 0.57497 0.43282
# Poissons Ratio (y) = 0.33701 0.10148
# Poissons Ratio (z) = 0.29424 0.11770
#
# Static dielectric constant tensor:
#      x y z
#    x 1.631150 -0.009870 -0.022540 
#    y -0.009870 1.689400 -0.022420 
#    z -0.022540 -0.022420 1.660900 
# 
# From -- ./inp_files/64804.got.cif
#   From: 2010.05.17/outbox.cif.g08.bks.cpg/sg2_33_cif.got.tgz:64804.got - 2010.06.03 11:33:40.
