data_PCOD9053916
_publ_section_title
;
Structure prediction by ZEFSAII (Michael W. Deem and Ramdas Pophale) SiO2 
 PCOD9053916
Probable space group: P -1
;
_chemical_formula_sum "Si O2"
_cell_formula_units_Z 16
_cell_length_a 8.566021
_cell_length_b 16.460179
_cell_length_c 10.709371
_cell_angle_alpha 25.663789
_cell_angle_beta 92.489444
_cell_angle_gamma 94.658686
_cell_volume 650.253463
_symmetry_space_group_name_H-M "P -1"
_symmetry_group_IT_number 2
_symmetry_cell_setting 'triclinic'
loop_
_space_group_symop_operation_xyz
x,y,z
-x,-y,-z
loop_
_atom_site_type_symbol
_atom_site_label
_atom_site_fract_x
_atom_site_fract_y
_atom_site_fract_z
Si Si1 0.231293 0.806584 0.684088
Si Si2 0.885076 0.814924 0.595636
Si Si3 0.124377 0.432505 0.317162
Si Si4 0.573019 0.346911 0.299983
Si Si5 0.213014 0.442243 0.819073
Si Si6 0.815221 0.940589 0.053405
Si Si7 0.653673 0.036172 0.156646
Si Si8 0.649675 0.858722 0.909919
O O1 0.276903 0.697727 0.712403
O O2 0.059002 0.869453 0.575074
O O3 0.345371 0.998570 0.407474
O O4 0.219592 0.637834 0.017927
O O5 0.893470 0.679097 0.662480
O O6 0.801178 0.693956 0.870919
O O7 0.800024 0.998514 0.301940
O O8 0.206217 0.283286 0.608752
O O9 0.951842 0.467078 0.315480
O O10 0.449822 0.166145 0.558094
O O11 0.500000 0.500000 0.000000
O O12 0.636116 0.416415 0.338804
O O13 0.258746 0.317226 0.879401
O O14 0.720647 0.050774 0.999330
O O15 0.747863 0.961756 0.884627
O O16 0.000000 0.000000 0.000000
O O17 0.530566 0.176872 0.002383
#
# Coordination Sequence:
#
# PCOD9053916 Si02
#       8
#     2   2   2   2   2   2   2   2
#     4  10  19  37  65  94 123 162 214 255 302 375
#     4  10  17  35  62  93 119 164 217 248 297 364
#     4  10  19  37  67  92 120 167 217 249 301 365
#     4  11  18  35  63  95 123 170 207 250 309 377
#     4  11  21  36  62  95 138 156 202 269 313 367
#     4  11  24  44  70  89 120 167 219 258 302 381
#     4  10  22  38  65  88 124 167 219 245 307 388
#     4  11  25  39  60 101 131 162 200 263 330 353
#
# _framework density 24.605788
#
# number of rings (size 3 to 8) (size 9 to 14) (size 15 to 20)
#    0.000    1.500    3.750    3.375    1.750    3.000 
#    0.000    0.625   11.000    0.000    0.000    0.000 
#    0.000    0.000    0.000    0.000    0.000    0.000 
#
# Total GULP energy -89452.981783 kJ/mol
# GULP energy per Si atom -5590.811361 kJ/mol
# Density = 2.454978 g / cm^3
# Si number density = 24.605788 Si / 1000 Ang^3
#
#
#
# Elastic Constant Matrix: (Units=GPa)
#
#
# Indices 1 2 3 4 5 6 
#
# 1 104.1824 46.9695 21.7305 3.6915 14.4664 -26.4951
# 2 46.9695 68.7502 17.8136 -7.1963 13.4176 -31.4279
# 3 21.7305 17.8136 79.9424 15.0440 18.9996 -7.8261
# 4 3.6915 -7.1963 15.0440 18.6666 -4.2441 10.9796
# 5 14.4664 13.4176 18.9996 -4.2441 36.9625 -4.6655
# 6 -26.4951 -31.4279 -7.8261 10.9796 -4.6655 38.1089
#
#
#
# Elastic Compliance Matrix: (Units=1/GPa)
#
#
# Indices 1 2 3 4 5 6 
#
# 1 0.016222 -0.008347 0.002103 -0.014127 -0.004976 0.008288
# 2 -0.008347 0.029536 -0.002931 0.005205 -0.003325 0.016047
# 3 0.002103 -0.002931 0.021958 -0.028118 -0.013004 0.010063
# 4 -0.014127 0.005205 -0.028118 0.110385 0.025724 -0.039957
# 5 -0.004976 -0.003325 -0.013004 0.025724 0.038385 -0.011585
# 6 0.008288 0.016047 0.010063 -0.039957 -0.011585 0.057397
#
#
# Mechanical properties :
#
#
# Convention : Reuss Voigt Hill
#
# Bulk Modulus (GPa) = 20.25667 47.32247 33.78957
# Shear Modulus (GPa) = 16.19759 29.83837 23.01798
#
# Velocity S-wave (km/s) = 2.56849 3.48610 3.06186
# Velocity P-wave (km/s) = 4.12874 5.95633 5.12466
#
# Compressibility (1/GPa) = 0.04936645
#
# Stress axis : x y z
#
# Youngs Moduli (GPa) = 61.64408 33.85652 45.54193
#
# Poissons Ratio (x) = 0.28259 -0.09576
# Poissons Ratio (y) = 0.51452 0.13349
# Poissons Ratio (z) = -0.12962 0.09923
#
# Static dielectric constant tensor:
#      x y z
#    x 1.970200 -0.011840 -0.028380 
#    y -0.011840 1.952700 -0.035280 
#    z -0.028380 -0.035280 1.995890 
# 
# From -- ./inp_files/401663.got.cif
#   From: 2010.05.17/outbox.cif.g08.bks.cpg/sg2_201_cif.got.tgz:401663.got - 2010.06.03 11:33:40.
