data_PCOD9053278
_publ_section_title
;
Structure prediction by ZEFSAII (Michael W. Deem and Ramdas Pophale) SiO2 
 PCOD9053278
Probable space group: P -1
;
_chemical_formula_sum "Si O2"
_cell_formula_units_Z 16
_cell_length_a 17.054836
_cell_length_b 12.385588
_cell_length_c 8.141219
_cell_angle_alpha 52.292694
_cell_angle_beta 33.498010
_cell_angle_gamma 49.630793
_cell_volume 712.590143
_symmetry_space_group_name_H-M "P -1"
_symmetry_group_IT_number 2
_symmetry_cell_setting 'triclinic'
loop_
_space_group_symop_operation_xyz
x,y,z
-x,-y,-z
loop_
_atom_site_type_symbol
_atom_site_label
_atom_site_fract_x
_atom_site_fract_y
_atom_site_fract_z
Si Si1 0.856095 0.386967 0.104566
Si Si2 0.825334 0.696745 0.779030
Si Si3 0.503646 0.799638 0.078360
Si Si4 0.421124 0.565967 0.245956
Si Si5 0.675220 0.080254 0.226149
Si Si6 0.071020 0.122031 0.824024
Si Si7 0.358891 0.074889 0.874762
Si Si8 0.646870 0.318468 0.268028
O O1 0.753156 0.405155 0.430958
O O2 0.756188 0.375752 0.130827
O O3 0.898099 0.530960 0.858029
O O4 0.981727 0.232141 0.018540
O O5 0.922904 0.774470 0.434208
O O6 0.675418 0.727477 0.898803
O O7 0.762166 0.788586 0.965849
O O8 0.464755 0.706573 0.086210
O O9 0.407274 0.782354 0.419536
O O10 0.441636 0.962783 0.975369
O O11 0.504625 0.447710 0.344539
O O12 0.500000 0.500000 0.000000
O O13 0.495258 0.117892 0.515968
O O14 0.711043 0.223892 0.082857
O O15 0.767004 0.961362 0.306317
O O16 0.712908 0.008824 0.049778
O O17 0.000000 0.000000 0.000000
#
# Coordination Sequence:
#
# PCOD9053278 Si02
#       8
#     2   2   2   2   2   2   2   2
#     4  11  23  43  67  95 136 177 222 267 326 407
#     4  12  22  42  66  97 130 175 232 269 332 391
#     4  11  19  35  65  97 126 166 222 277 328 388
#     4  11  22  37  65 103 134 167 215 283 343 384
#     4  11  22  40  63  99 135 167 223 279 337 389
#     4  12  26  44  69  93 133 187 230 265 318 410
#     4  11  23  37  66 100 130 166 216 297 338 371
#     4  11  19  39  66  95 129 169 223 281 325 387
#
# _framework density 22.453298
#
# number of rings (size 3 to 8) (size 9 to 14) (size 15 to 20)
#    0.000    0.750    6.250    3.000    1.750    1.000 
#    0.000    2.500    0.000    0.000    0.000    0.000 
#    0.000    0.000    0.000    0.000    0.000    0.000 
#
# Total GULP energy -89366.675699 kJ/mol
# GULP energy per Si atom -5585.417231 kJ/mol
# Density = 2.240219 g / cm^3
# Si number density = 22.453298 Si / 1000 Ang^3
#
#
#
# Elastic Constant Matrix: (Units=GPa)
#
#
# Indices 1 2 3 4 5 6 
#
# 1 52.5673 13.0997 10.0943 1.0680 7.6347 23.2180
# 2 13.0997 132.0059 31.7349 3.5202 5.6101 15.4248
# 3 10.0943 31.7349 79.1706 3.1262 8.9166 11.5570
# 4 1.0680 3.5202 3.1262 38.2758 0.1183 -0.0101
# 5 7.6347 5.6101 8.9166 0.1183 13.7845 1.7502
# 6 23.2180 15.4248 11.5570 -0.0101 1.7502 37.5474
#
#
#
# Elastic Compliance Matrix: (Units=1/GPa)
#
#
# Indices 1 2 3 4 5 6 
#
# 1 0.028562 -0.000374 0.000590 -0.000772 -0.013878 -0.017043
# 2 -0.000374 0.008656 -0.002929 -0.000544 -0.001115 -0.002371
# 3 0.000590 -0.002929 0.015234 -0.000966 -0.008542 -0.003453
# 4 -0.000772 -0.000544 -0.000966 0.026274 0.000926 0.000962
# 5 -0.013878 -0.001115 -0.008542 0.000926 0.085226 0.007697
# 6 -0.017043 -0.002371 -0.003453 0.000962 0.007697 0.038850
#
#
# Mechanical properties :
#
#
# Convention : Reuss Voigt Hill
#
# Bulk Modulus (GPa) = 21.26524 41.51129 31.38827
# Shear Modulus (GPa) = 22.33112 31.84254 27.08683
#
# Velocity S-wave (km/s) = 3.15708 3.76994 3.47704
# Velocity P-wave (km/s) = 4.77295 6.12192 5.48903
#
# Compressibility (1/GPa) = 0.04702509
#
# Stress axis : x y z
#
# Youngs Moduli (GPa) = 35.01146 115.53259 65.64316
#
# Poissons Ratio (x) = 0.04325 -0.03871
# Poissons Ratio (y) = 0.01311 0.19224
# Poissons Ratio (z) = -0.02065 0.33835
#
# Static dielectric constant tensor:
#      x y z
#    x 1.858000 0.045490 0.013240 
#    y 0.045490 1.891010 0.028500 
#    z 0.013240 0.028500 1.891270 
# 
# From -- ./inp_files/263202.got.cif
#   From: 2010.05.17/outbox.cif.g08.bks.cpg/sg2_132_cif.got.tgz:263202.got - 2010.06.03 11:33:40.
