data_PCOD9053436
_publ_section_title
;
Structure prediction by ZEFSAII (Michael W. Deem and Ramdas Pophale) SiO2 
 PCOD9053436
Probable space group: P -1
;
_chemical_formula_sum "Si O2"
_cell_formula_units_Z 14
_cell_length_a 16.672999
_cell_length_b 11.192611
_cell_length_c 8.227540
_cell_angle_alpha 56.972195
_cell_angle_beta 56.752516
_cell_angle_gamma 30.323334
_cell_volume 638.850234
_symmetry_space_group_name_H-M "P -1"
_symmetry_group_IT_number 2
_symmetry_cell_setting 'triclinic'
loop_
_space_group_symop_operation_xyz
x,y,z
-x,-y,-z
loop_
_atom_site_type_symbol
_atom_site_label
_atom_site_fract_x
_atom_site_fract_y
_atom_site_fract_z
Si Si1 0.786508 0.731783 0.165616
Si Si2 0.534626 0.507767 0.270615
Si Si3 0.546286 0.211578 0.282515
Si Si4 0.287460 0.471070 0.118682
Si Si5 0.252270 0.027889 0.240697
Si Si6 0.517127 0.055261 0.745845
Si Si7 0.025076 0.620411 0.477408
O O1 0.670169 0.762327 0.174297
O O2 0.866923 0.550436 0.358679
O O3 0.678394 0.980393 0.193076
O O4 0.854243 0.749690 0.930411
O O5 0.500000 0.500000 0.500000
O O6 0.582299 0.318060 0.246871
O O7 0.355063 0.782051 0.221425
O O8 0.670721 0.466112 0.116223
O O9 0.382547 0.419713 0.206875
O O10 0.529269 0.119095 0.514083
O O11 0.111190 0.630552 0.255062
O O12 0.378844 0.213062 0.173858
O O13 0.139610 0.125341 0.446614
O O14 0.398150 0.946469 0.215831
O O15 0.000000 0.500000 0.500000
#
# Coordination Sequence:
#
# PCOD9053436 Si02
#       7
#     2   2   2   2   2   2   2
#     4  11  22  39  70 101 126 175 225 279 324 383
#     4  12  26  41  66 100 132 175 224 275 323 397
#     4  11  20  40  69  94 131 166 227 269 327 386
#     4  11  22  42  67  97 126 176 222 271 326 391
#     4  12  24  39  65 102 139 166 220 273 334 386
#     4  11  19  39  70  97 124 168 230 279 313 380
#     4  12  24  43  66 101 140 170 214 280 343 387
#
# _framework density 21.914370000000002
#
# number of rings (size 3 to 8) (size 9 to 14) (size 15 to 20)
#    0.000    0.571    8.571    2.143    0.000    0.000 
#    0.000    1.429    0.000    0.000    0.000    0.000 
#    0.000    0.000    0.000    0.000    0.000    0.000 
#
# Total GULP energy -78074.405713 kJ/mol
# GULP energy per Si atom -5576.743265 kJ/mol
# Density = 2.186449 g / cm^3
# Si number density = 21.914370 Si / 1000 Ang^3
#
#
#
# Elastic Constant Matrix: (Units=GPa)
#
#
# Indices 1 2 3 4 5 6 
#
# 1 71.7854 11.7916 15.6686 0.4924 -5.8172 5.4225
# 2 11.7916 48.3396 13.4489 11.1867 -16.8743 2.8959
# 3 15.6686 13.4489 166.7091 13.7688 -15.7626 -6.0727
# 4 0.4924 11.1867 13.7688 37.9491 -10.1999 1.2329
# 5 -5.8172 -16.8743 -15.7626 -10.1999 39.3618 -8.9520
# 6 5.4225 2.8959 -6.0727 1.2329 -8.9520 24.5224
#
#
#
# Elastic Compliance Matrix: (Units=1/GPa)
#
#
# Indices 1 2 3 4 5 6 
#
# 1 0.015035 -0.003481 -0.001394 0.001381 -0.000248 -0.003419
# 2 -0.003481 0.026037 -0.000418 -0.004970 0.009489 0.001305
# 3 -0.001394 -0.000418 0.006651 -0.001691 0.002525 0.003012
# 4 0.001381 -0.004970 -0.001691 0.029794 0.005175 0.000254
# 5 -0.000248 0.009489 0.002525 0.005175 0.034493 0.011891
# 6 -0.003419 0.001305 0.003012 0.000254 0.011891 0.046455
#
#
# Mechanical properties :
#
#
# Convention : Reuss Voigt Hill
#
# Bulk Modulus (GPa) = 26.92789 40.96138 33.94464
# Shear Modulus (GPa) = 27.55856 36.76167 32.16012
#
# Velocity S-wave (km/s) = 3.55005 4.10019 3.83500
# Velocity P-wave (km/s) = 5.39614 6.41464 5.92730
#
# Compressibility (1/GPa) = 0.03713621
#
# Stress axis : x y z
#
# Youngs Moduli (GPa) = 66.51036 38.40712 150.34494
#
# Poissons Ratio (x) = 0.13370 0.20964
# Poissons Ratio (y) = 0.23154 0.06285
# Poissons Ratio (z) = 0.09274 0.01605
#
# Static dielectric constant tensor:
#      x y z
#    x 1.807560 -0.019660 -0.005550 
#    y -0.019660 1.838890 -0.001940 
#    z -0.005550 -0.001940 1.888760 
# 
# From -- ./inp_files/202631.got.cif
#   From: 2010.05.17/outbox.cif.g08.bks.cpg/sg2_102_cif.got.tgz:202631.got - 2010.06.03 11:33:40.
