data_PCOD9053845
_publ_section_title
;
Structure prediction by ZEFSAII (Michael W. Deem and Ramdas Pophale) SiO2 
 PCOD9053845
Probable space group: P -1
;
_chemical_formula_sum "Si O2"
_cell_formula_units_Z 14
_cell_length_a 15.635146
_cell_length_b 11.903565
_cell_length_c 15.840726
_cell_angle_alpha 24.079688
_cell_angle_beta 143.637768
_cell_angle_gamma 140.464203
_cell_volume 705.221877
_symmetry_space_group_name_H-M "P -1"
_symmetry_group_IT_number 2
_symmetry_cell_setting 'triclinic'
loop_
_space_group_symop_operation_xyz
x,y,z
-x,-y,-z
loop_
_atom_site_type_symbol
_atom_site_label
_atom_site_fract_x
_atom_site_fract_y
_atom_site_fract_z
Si Si1 0.272957 0.746532 0.160462
Si Si2 0.522249 0.821570 0.054220
Si Si3 0.115953 0.725057 0.891394
Si Si4 0.050696 0.468088 0.697603
Si Si5 0.797183 0.631721 0.482028
Si Si6 0.998506 0.957111 0.195078
Si Si7 0.777854 0.511193 0.020889
O O1 0.260926 0.487637 0.391589
O O2 0.251181 0.675634 0.092596
O O3 0.421338 0.963893 0.124272
O O4 0.135170 0.901123 0.970934
O O5 0.656161 0.656577 0.296060
O O6 0.382753 0.611048 0.055531
O O7 0.500000 0.000000 0.000000
O O8 0.124522 0.649954 0.852564
O O9 0.114502 0.054732 0.663123
O O10 0.000000 0.500000 0.000000
O O11 0.034596 0.724087 0.448346
O O12 0.188143 0.534636 0.823145
O O13 0.906212 0.439074 0.661506
O O14 0.050902 0.200871 0.822475
O O15 0.147022 0.171955 0.153071
#
# Coordination Sequence:
#
# PCOD9053845 Si02
#       7
#     2   2   2   2   2   2   2
#     4  11  22  40  64  93 128 172 203 261 320 382
#     4  11  24  45  57  96 138 167 204 265 322 387
#     4  11  20  38  59  97 129 154 212 268 308 376
#     4  11  23  42  71  94 121 172 218 265 313 374
#     4  11  22  40  67  93 127 173 208 255 333 375
#     4  11  23  43  69  94 127 163 223 267 309 373
#     4  12  23  40  66  95 129 162 216 266 316 377
#
# _framework density 19.851908000000002
#
# number of rings (size 3 to 8) (size 9 to 14) (size 15 to 20)
#    0.000    0.857    8.571    0.429    0.000    5.143 
#    0.000    1.429    0.000    0.000    0.000    0.000 
#    0.000    0.000    0.000    0.000    0.000    0.000 
#
# Total GULP energy -77995.241967 kJ/mol
# GULP energy per Si atom -5571.088712 kJ/mol
# Density = 1.980672 g / cm^3
# Si number density = 19.851908 Si / 1000 Ang^3
#
#
#
# Elastic Constant Matrix: (Units=GPa)
#
#
# Indices 1 2 3 4 5 6 
#
# 1 64.3933 54.3582 26.8129 -3.5179 -20.8192 0.1188
# 2 54.3582 158.7593 39.2135 1.4533 -3.4775 3.2057
# 3 26.8129 39.2135 73.7770 -9.7854 -23.4974 2.4778
# 4 -3.5179 1.4533 -9.7854 26.1966 7.3504 -8.0480
# 5 -20.8192 -3.4775 -23.4974 7.3504 34.0762 -0.1742
# 6 0.1188 3.2057 2.4778 -8.0480 -0.1742 44.4374
#
#
#
# Elastic Compliance Matrix: (Units=1/GPa)
#
#
# Indices 1 2 3 4 5 6 
#
# 1 0.029051 -0.009539 -0.000223 -0.000120 0.016651 0.000666
# 2 -0.009539 0.010625 -0.004841 -0.001769 -0.007705 -0.000822
# 3 -0.000223 -0.004841 0.020876 0.004457 0.012804 0.000043
# 4 -0.000120 -0.001769 0.004457 0.044208 -0.006676 0.007860
# 5 0.016651 -0.007705 0.012804 -0.006676 0.048996 -0.001220
# 6 0.000666 -0.000822 0.000043 0.007860 -0.001220 0.023977
#
#
# Mechanical properties :
#
#
# Convention : Reuss Voigt Hill
#
# Bulk Modulus (GPa) = 31.90303 59.74431 45.82367
# Shear Modulus (GPa) = 23.00032 32.71171 27.85601
#
# Velocity S-wave (km/s) = 3.40751 4.06370 3.74998
# Velocity P-wave (km/s) = 5.62022 7.22347 6.47168
#
# Compressibility (1/GPa) = 0.03134499
#
# Stress axis : x y z
#
# Youngs Moduli (GPa) = 34.42235 94.11814 47.90123
#
# Poissons Ratio (x) = 0.89784 0.01067
# Poissons Ratio (y) = 0.32837 0.23191
# Poissons Ratio (z) = 0.00767 0.45566
#
# Static dielectric constant tensor:
#      x y z
#    x 1.755510 0.032880 -0.014640 
#    y 0.032880 1.791650 0.001230 
#    z -0.014640 0.001230 1.728850 
# 
# From -- ./inp_files/530895.got.cif
#   From: 2010.05.17/outbox.cif.g08.bks.cpg/sg2_266_cif.got.tgz:530895.got - 2010.06.03 11:33:40.
