data_PCOD9053917
_publ_section_title
;
Structure prediction by ZEFSAII (Michael W. Deem and Ramdas Pophale) SiO2 
 PCOD9053917
Probable space group: P -1
;
_chemical_formula_sum "Si O2"
_cell_formula_units_Z 16
_cell_length_a 9.006607
_cell_length_b 16.986653
_cell_length_c 21.397225
_cell_angle_alpha 148.213354
_cell_angle_beta 152.841948
_cell_angle_gamma 41.433788
_cell_volume 786.800522
_symmetry_space_group_name_H-M "P -1"
_symmetry_group_IT_number 2
_symmetry_cell_setting 'triclinic'
loop_
_space_group_symop_operation_xyz
x,y,z
-x,-y,-z
loop_
_atom_site_type_symbol
_atom_site_label
_atom_site_fract_x
_atom_site_fract_y
_atom_site_fract_z
Si Si1 0.608147 0.353894 0.580257
Si Si2 0.213857 0.480615 0.730873
Si Si3 0.158738 0.349120 0.204425
Si Si4 0.117336 0.950017 0.327305
Si Si5 0.719576 0.231598 0.414272
Si Si6 0.202624 0.638352 0.199003
Si Si7 0.301618 0.147190 0.011148
Si Si8 0.894685 0.352290 0.321847
O O1 0.643442 0.512196 0.662318
O O2 0.774445 0.247152 0.519748
O O3 0.730665 0.383028 0.716474
O O4 0.245946 0.279916 0.401308
O O5 0.491237 0.369269 0.738751
O O6 0.205161 0.595276 0.748358
O O7 0.170806 0.578529 0.843490
O O8 0.903687 0.370974 0.544198
O O9 0.354156 0.269076 0.280152
O O10 0.130080 0.221925 0.056098
O O11 0.073074 0.804310 0.256161
O O12 0.500000 0.000000 0.500000
O O13 0.884587 0.082966 0.351376
O O14 0.972042 0.893015 0.168821
O O15 0.000000 0.500000 0.000000
O O16 0.590057 0.261636 0.173905
O O17 0.500000 0.000000 0.000000
O O18 0.000000 0.500000 0.500000
#
# Coordination Sequence:
#
# PCOD9053917 Si02
#       8
#     2   2   2   2   2   2   2   2
#     4  11  22  38  72  99 131 175 229 286 336 401
#     4  11  20  38  70  97 130 175 222 287 328 403
#     4  11  20  41  68 107 133 163 234 290 341 387
#     4  12  27  47  67  94 142 187 224 272 348 416
#     4  11  21  42  67 104 134 175 224 286 345 399
#     4  12  26  45  65  96 138 186 233 273 339 419
#     4  12  26  43  69 101 137 180 228 288 338 404
#     4  12  20  37  69 102 128 169 229 275 344 390
#
# _framework density 20.335522999999998
#
# number of rings (size 3 to 8) (size 9 to 14) (size 15 to 20)
#    0.000    0.500    7.500    2.250    1.750    0.500 
#    2.250    5.625    0.000    0.000    0.000    0.000 
#    0.000    0.000    0.000    0.000    0.000    0.000 
#
# Total GULP energy -89101.728647 kJ/mol
# GULP energy per Si atom -5568.858040 kJ/mol
# Density = 2.028924 g / cm^3
# Si number density = 20.335523 Si / 1000 Ang^3
#
#
#
# Elastic Constant Matrix: (Units=GPa)
#
#
# Indices 1 2 3 4 5 6 
#
# 1 98.8418 31.7425 36.8732 14.3181 -25.1816 -8.0618
# 2 31.7425 86.1530 22.3740 17.5532 -22.2934 5.3679
# 3 36.8732 22.3740 98.2832 6.5778 -19.1323 4.9043
# 4 14.3181 17.5532 6.5778 29.9798 -7.3505 -7.9309
# 5 -25.1816 -22.2934 -19.1323 -7.3505 30.8486 11.5392
# 6 -8.0618 5.3679 4.9043 -7.9309 11.5392 29.2261
#
#
#
# Elastic Compliance Matrix: (Units=1/GPa)
#
#
# Indices 1 2 3 4 5 6 
#
# 1 0.014356 -0.002166 -0.003463 -0.002766 0.006782 0.001511
# 2 -0.002166 0.018809 0.000663 -0.009880 0.014598 -0.012608
# 3 -0.003463 0.000663 0.013364 -0.001500 0.008186 -0.006959
# 4 -0.002766 -0.009880 -0.001500 0.043450 -0.005717 0.015351
# 5 0.006782 0.014598 0.008186 -0.005717 0.062904 -0.028571
# 6 0.001511 -0.012608 -0.006959 0.015351 -0.028571 0.053563
#
#
# Mechanical properties :
#
#
# Convention : Reuss Voigt Hill
#
# Bulk Modulus (GPa) = 27.32446 51.69528 39.50987
# Shear Modulus (GPa) = 21.87444 30.83013 26.35228
#
# Velocity S-wave (km/s) = 3.28331 3.89790 3.60373
# Velocity P-wave (km/s) = 5.27631 6.76273 6.06523
#
# Compressibility (1/GPa) = 0.03659724
#
# Stress axis : x y z
#
# Youngs Moduli (GPa) = 69.65565 53.16598 74.82644
#
# Poissons Ratio (x) = 0.11514 0.25914
# Poissons Ratio (y) = 0.15086 -0.04959
# Poissons Ratio (z) = 0.24123 -0.03523
#
# Static dielectric constant tensor:
#      x y z
#    x 1.828700 -0.056570 0.023940 
#    y -0.056570 1.805150 -0.038840 
#    z 0.023940 -0.038840 1.779150 
# 
# From -- ./inp_files/591246.got.cif
#   From: 2010.05.17/outbox.cif.g08.bks.cpg/sg2_296_cif.got.tgz:591246.got - 2010.06.03 11:33:40.
