data_PCOD9053333
_publ_section_title
;
Structure prediction by ZEFSAII (Michael W. Deem and Ramdas Pophale) SiO2 
 PCOD9053333
Probable space group: P -1
;
_chemical_formula_sum "Si O2"
_cell_formula_units_Z 14
_cell_length_a 9.259636
_cell_length_b 20.126928
_cell_length_c 11.473330
_cell_angle_alpha 31.738818
_cell_angle_beta 142.684935
_cell_angle_gamma 130.545536
_cell_volume 679.540458
_symmetry_space_group_name_H-M "P -1"
_symmetry_group_IT_number 2
_symmetry_cell_setting 'triclinic'
loop_
_space_group_symop_operation_xyz
x,y,z
-x,-y,-z
loop_
_atom_site_type_symbol
_atom_site_label
_atom_site_fract_x
_atom_site_fract_y
_atom_site_fract_z
Si Si1 0.578656 0.389739 0.469308
Si Si2 0.127805 0.488552 0.343479
Si Si3 0.297259 0.273011 0.642525
Si Si4 0.764109 0.937489 0.902564
Si Si5 0.209222 0.632015 0.944495
Si Si6 0.648841 0.367574 0.286788
Si Si7 0.478271 0.186046 0.252835
O O1 0.804543 0.444274 0.595014
O O2 0.490060 0.279842 0.656729
O O3 0.642057 0.331485 0.471527
O O4 0.367992 0.509095 0.171137
O O5 0.339045 0.384229 0.596170
O O6 0.906918 0.404325 0.354094
O O7 0.126574 0.587536 0.086607
O O8 0.042544 0.323029 0.347416
O O9 0.299165 0.143917 0.905134
O O10 0.760147 0.843293 0.927735
O O11 0.582217 0.054186 0.573135
O O12 0.000000 0.000000 0.000000
O O13 0.356868 0.753873 0.830300
O O14 0.509563 0.281874 0.236984
O O15 0.500000 0.500000 0.000000
#
# Coordination Sequence:
#
# PCOD9053333 Si02
#       7
#     2   2   2   2   2   2   2
#     4  11  22  35  58  91 127 163 193 246 310 364
#     4  11  21  35  59  92 124 162 201 247 299 362
#     4  11  20  37  62  87 118 159 211 253 290 352
#     4  11  22  41  63  89 115 158 214 257 292 347
#     4  11  19  37  60  90 123 157 205 251 296 356
#     4  12  22  39  58  91 131 160 191 243 315 374
#     4  11  23  38  63  90 122 160 201 254 301 356
#
# _framework density 20.602159
#
# number of rings (size 3 to 8) (size 9 to 14) (size 15 to 20)
#    0.000    0.857    4.286    6.429    0.000    0.000 
#    2.571    0.714    0.000    0.857    0.000    0.000 
#    0.000    0.000    0.000    0.000    0.000    0.000 
#
# Total GULP energy -77945.875564 kJ/mol
# GULP energy per Si atom -5567.562540 kJ/mol
# Density = 2.055527 g / cm^3
# Si number density = 20.602159 Si / 1000 Ang^3
#
#
#
# Elastic Constant Matrix: (Units=GPa)
#
#
# Indices 1 2 3 4 5 6 
#
# 1 123.3388 58.7145 22.1050 -1.5066 -33.0003 -9.2332
# 2 58.7145 162.9735 22.0328 11.6256 -17.0385 -15.9170
# 3 22.1050 22.0328 91.7356 -10.7450 -32.7321 4.7225
# 4 -1.5066 11.6256 -10.7450 33.5666 7.7334 -10.7392
# 5 -33.0003 -17.0385 -32.7321 7.7334 34.9313 -2.9358
# 6 -9.2332 -15.9170 4.7225 -10.7392 -2.9358 34.3026
#
#
#
# Elastic Compliance Matrix: (Units=1/GPa)
#
#
# Indices 1 2 3 4 5 6 
#
# 1 0.012962 -0.003377 0.002139 0.000409 0.012751 0.002847
# 2 -0.003377 0.007967 -0.001504 -0.002721 0.000069 0.002149
# 3 0.002139 -0.001504 0.016966 0.002081 0.016692 -0.000378
# 4 0.000409 -0.002721 0.002081 0.035789 -0.006137 0.009240
# 5 0.012751 0.000069 0.016692 -0.006137 0.058061 0.004214
# 6 0.002847 0.002149 -0.000378 0.009240 0.004214 0.034221
#
#
# Mechanical properties :
#
#
# Convention : Reuss Voigt Hill
#
# Bulk Modulus (GPa) = 30.85529 64.86139 47.85834
# Shear Modulus (GPa) = 27.43420 38.90648 33.17034
#
# Velocity S-wave (km/s) = 3.65309 4.35036 4.01689
# Velocity P-wave (km/s) = 5.72736 7.53561 6.69283
#
# Compressibility (1/GPa) = 0.03240935
#
# Stress axis : x y z
#
# Youngs Moduli (GPa) = 77.15044 125.51467 58.94166
#
# Poissons Ratio (x) = 0.42386 -0.12606
# Poissons Ratio (y) = 0.26053 0.08868
# Poissons Ratio (z) = -0.16500 0.18884
#
# Static dielectric constant tensor:
#      x y z
#    x 1.977420 -0.070030 -0.092530 
#    y -0.070030 1.897010 0.096870 
#    z -0.092530 0.096870 1.816300 
# 
# From -- ./inp_files/405333.got.cif
#   From: 2010.05.17/outbox.cif.g08.bks.cpg/sg2_203_cif.got.tgz:405333.got - 2010.06.03 11:33:40.
