data_PCOD9053950
_publ_section_title
;
Structure prediction by ZEFSAII (Michael W. Deem and Ramdas Pophale) SiO2 
 PCOD9053950
Probable space group: P -1
;
_chemical_formula_sum "Si O2"
_cell_formula_units_Z 16
_cell_length_a 9.037010
_cell_length_b 12.448311
_cell_length_c 14.087296
_cell_angle_alpha 106.807634
_cell_angle_beta 154.079871
_cell_angle_gamma 79.056829
_cell_volume 653.725001
_symmetry_space_group_name_H-M "P -1"
_symmetry_group_IT_number 2
_symmetry_cell_setting 'triclinic'
loop_
_space_group_symop_operation_xyz
x,y,z
-x,-y,-z
loop_
_atom_site_type_symbol
_atom_site_label
_atom_site_fract_x
_atom_site_fract_y
_atom_site_fract_z
Si Si1 0.855477 0.011770 0.524674
Si Si2 0.550673 0.593195 0.471458
Si Si3 0.479513 0.764605 0.622934
Si Si4 0.468874 0.541484 0.205727
Si Si5 0.184410 0.893538 0.054159
Si Si6 0.236369 0.680271 0.665448
Si Si7 0.522375 0.153928 0.988567
Si Si8 0.668353 0.388958 0.047540
O O1 0.662912 0.119220 0.441323
O O2 0.194454 0.055400 0.793388
O O3 0.541892 0.905463 0.322457
O O4 0.000000 0.000000 0.500000
O O5 0.500000 0.500000 0.500000
O O6 0.424281 0.698383 0.475408
O O7 0.364525 0.557376 0.257248
O O8 0.960657 0.612767 0.692494
O O9 0.314881 0.704914 0.606734
O O10 0.889877 0.789083 0.881129
O O11 0.524183 0.411452 0.188817
O O12 0.259413 0.592667 0.017532
O O13 0.846806 0.617516 0.429951
O O14 0.260356 0.890344 0.983509
O O15 0.000000 0.000000 0.000000
O O16 0.309620 0.793082 0.802756
O O17 0.439664 0.269666 0.916981
O O18 0.500000 0.500000 0.000000
#
# Coordination Sequence:
#
# PCOD9053950 Si02
#       8
#     2   2   2   2   2   2   2   2
#     4   9  21  39  65  91 115 163 221 267 321 380
#     4  12  25  41  61  96 137 172 208 261 320 374
#     4  11  21  40  64  91 129 170 207 268 331 371
#     4  11  22  40  60  91 137 176 216 250 304 385
#     4   9  19  40  63  84 121 164 212 275 331 366
#     4  11  21  37  62  93 128 172 214 258 314 387
#     4  11  20  39  64  94 124 167 221 257 318 388
#     4  12  23  39  66  93 131 178 215 256 306 385
#
# _framework density 24.475123
#
# number of rings (size 3 to 8) (size 9 to 14) (size 15 to 20)
#    0.000    1.250    5.000    1.500    1.750    0.500 
#    2.250    6.250    0.000    6.000    0.000    0.000 
#    0.000    0.000    0.000    0.000    0.000    0.000 
#
# Total GULP energy -89398.731006 kJ/mol
# GULP energy per Si atom -5587.420688 kJ/mol
# Density = 2.441942 g / cm^3
# Si number density = 24.475123 Si / 1000 Ang^3
#
#
#
# Elastic Constant Matrix: (Units=GPa)
#
#
# Indices 1 2 3 4 5 6 
#
# 1 119.7909 26.6949 36.5143 9.9340 -11.1376 -19.5246
# 2 26.6949 79.5267 2.4170 5.9175 -13.9760 -47.5574
# 3 36.5143 2.4170 106.7923 13.2819 -3.8312 -12.3928
# 4 9.9340 5.9175 13.2819 31.0634 0.9927 -7.7549
# 5 -11.1376 -13.9760 -3.8312 0.9927 37.5939 5.8086
# 6 -19.5246 -47.5574 -12.3928 -7.7549 5.8086 50.6403
#
#
#
# Elastic Compliance Matrix: (Units=1/GPa)
#
#
# Indices 1 2 3 4 5 6 
#
# 1 0.010252 -0.002958 -0.003207 -0.001400 0.001650 -0.000013
# 2 -0.002958 0.032128 0.003896 0.000234 0.006943 0.029225
# 3 -0.003207 0.003896 0.011370 -0.003475 0.001045 0.004553
# 4 -0.001400 0.000234 -0.003475 0.035278 -0.002308 0.004496
# 5 0.001650 0.006943 0.001045 -0.002308 0.029266 0.003702
# 6 -0.000013 0.029225 0.004553 0.004496 0.003702 0.048565
#
#
# Mechanical properties :
#
#
# Convention : Reuss Voigt Hill
#
# Bulk Modulus (GPa) = 20.31994 48.59581 34.45788
# Shear Modulus (GPa) = 26.62405 39.89176 33.25791
#
# Velocity S-wave (km/s) = 3.30176 4.04157 3.69025
# Velocity P-wave (km/s) = 4.78077 6.45580 5.68037
#
# Compressibility (1/GPa) = 0.04921274
#
# Stress axis : x y z
#
# Youngs Moduli (GPa) = 97.54468 31.12544 87.94925
#
# Poissons Ratio (x) = 0.09206 0.28201
# Poissons Ratio (y) = 0.28850 -0.34261
# Poissons Ratio (z) = 0.31278 -0.12125
#
# Static dielectric constant tensor:
#      x y z
#    x 1.958170 -0.003540 0.033530 
#    y -0.003540 1.922900 0.026840 
#    z 0.033530 0.026840 2.039100 
# 
# From -- ./inp_files/218403.got.cif
#   From: 2010.05.17/outbox.cif.g08.bks.cpg/sg2_110_cif.got.tgz:218403.got - 2010.06.03 11:33:40.
