data_PCOD9053376
_publ_section_title
;
Structure prediction by ZEFSAII (Michael W. Deem and Ramdas Pophale) SiO2 
 PCOD9053376
Probable space group: P -1
;
_chemical_formula_sum "Si O2"
_cell_formula_units_Z 12
_cell_length_a 9.133703
_cell_length_b 10.803495
_cell_length_c 8.896524
_cell_angle_alpha 94.870502
_cell_angle_beta 137.890365
_cell_angle_gamma 107.261634
_cell_volume 494.264519
_symmetry_space_group_name_H-M "P -1"
_symmetry_group_IT_number 2
_symmetry_cell_setting 'triclinic'
loop_
_space_group_symop_operation_xyz
x,y,z
-x,-y,-z
loop_
_atom_site_type_symbol
_atom_site_label
_atom_site_fract_x
_atom_site_fract_y
_atom_site_fract_z
Si Si1 0.694268 0.234133 0.188728
Si Si2 0.755587 0.998396 0.385485
Si Si3 0.805195 0.623797 0.587591
Si Si4 0.349631 0.160527 0.424742
Si Si5 0.636784 0.700685 0.842905
Si Si6 0.051957 0.660563 0.088399
O O1 0.517772 0.281012 0.141009
O O2 0.981959 0.356706 0.366648
O O3 0.742852 0.134160 0.328407
O O4 0.515607 0.138051 0.901751
O O5 0.767730 0.980833 0.572219
O O6 0.000000 0.000000 0.500000
O O7 0.686735 0.724982 0.489258
O O8 0.580130 0.453949 0.416445
O O9 0.967810 0.691720 0.869444
O O10 0.266778 0.167366 0.191651
O O11 0.652141 0.227748 0.642085
O O12 0.859153 0.671526 0.056350
O O13 0.000000 0.500000 0.000000
#
# Coordination Sequence:
#
# PCOD9053376 Si02
#       6
#     2   2   2   2   2   2
#     4  11  25  41  62  95 125 157 210 260 297 358
#     4  11  24  45  66  82 122 175 209 242 307 369
#     4  11  20  39  65  93 127 159 199 251 312 370
#     4  11  21  40  66  89 120 169 206 242 304 374
#     4  11  24  37  63 101 127 150 202 264 305 355
#     4  11  19  38  62  92 128 165 199 238 311 380
#
# _framework density 24.278499
#
# number of rings (size 3 to 8) (size 9 to 14) (size 15 to 20)
#    0.000    1.000    6.667    1.500    0.000    2.000 
#    0.000    3.333    0.000    0.000    0.000    0.000 
#    0.000    0.000    0.000    0.000    0.000    0.000 
#
# Total GULP energy -67063.861172 kJ/mol
# GULP energy per Si atom -5588.655098 kJ/mol
# Density = 2.422324 g / cm^3
# Si number density = 24.278499 Si / 1000 Ang^3
#
#
#
# Elastic Constant Matrix: (Units=GPa)
#
#
# Indices 1 2 3 4 5 6 
#
# 1 147.3793 24.4599 20.5728 -6.5428 48.4055 -14.5921
# 2 24.4599 59.2827 19.1908 -13.3465 14.5232 3.0349
# 3 20.5728 19.1908 86.1879 -11.6276 21.3235 -0.4670
# 4 -6.5428 -13.3465 -11.6276 27.8271 -4.6833 8.0072
# 5 48.4055 14.5232 21.3235 -4.6833 51.1651 -7.4882
# 6 -14.5921 3.0349 -0.4670 8.0072 -7.4882 38.8954
#
#
#
# Elastic Compliance Matrix: (Units=1/GPa)
#
#
# Indices 1 2 3 4 5 6 
#
# 1 0.010273 -0.002473 0.000166 -0.000914 -0.008798 0.002544
# 2 -0.002473 0.021813 -0.002266 0.009978 -0.002762 -0.005243
# 3 0.000166 -0.002266 0.013913 0.004326 -0.005131 -0.001472
# 4 -0.000914 0.009978 0.004326 0.045163 -0.001187 -0.010596
# 5 -0.008798 -0.002762 -0.005131 -0.001187 0.031134 0.003092
# 6 0.002544 -0.005243 -0.001472 -0.010596 0.003092 0.029832
#
#
# Mechanical properties :
#
#
# Convention : Reuss Voigt Hill
#
# Bulk Modulus (GPa) = 27.13492 46.81077 36.97285
# Shear Modulus (GPa) = 28.80851 38.81927 33.81389
#
# Velocity S-wave (km/s) = 3.44842 4.00298 3.73601
# Velocity P-wave (km/s) = 5.20156 6.37870 5.81997
#
# Compressibility (1/GPa) = 0.03685288
#
# Stress axis : x y z
#
# Youngs Moduli (GPa) = 97.33939 45.84325 71.87707
#
# Poissons Ratio (x) = 0.11337 -0.01190
# Poissons Ratio (y) = 0.24072 0.16286
# Poissons Ratio (z) = -0.01611 0.10387
#
# Static dielectric constant tensor:
#      x y z
#    x 2.017960 -0.052140 -0.003870 
#    y -0.052140 2.012490 -0.054380 
#    z -0.003870 -0.054380 1.939390 
# 
# From -- ./inp_files/18290.got.cif
#   From: 2010.05.17/outbox.cif.g08.bks.cpg/sg2_10_cif.got.tgz:18290.got - 2010.06.03 11:33:40.
