data_PCOD9053624
_publ_section_title
;
Structure prediction by ZEFSAII (Michael W. Deem and Ramdas Pophale) SiO2 
 PCOD9053624
Probable space group: P -1
;
_chemical_formula_sum "Si O2"
_cell_formula_units_Z 16
_cell_length_a 4.776884
_cell_length_b 16.103843
_cell_length_c 8.006536
_cell_angle_alpha 81.779298
_cell_angle_beta 107.743973
_cell_angle_gamma 86.703809
_cell_volume 577.237186
_symmetry_space_group_name_H-M "P -1"
_symmetry_group_IT_number 2
_symmetry_cell_setting 'triclinic'
loop_
_space_group_symop_operation_xyz
x,y,z
-x,-y,-z
loop_
_atom_site_type_symbol
_atom_site_label
_atom_site_fract_x
_atom_site_fract_y
_atom_site_fract_z
Si Si1 0.554676 0.269357 0.575575
Si Si2 0.611474 0.065290 0.875439
Si Si3 0.113179 0.524733 0.247797
Si Si4 0.269080 0.579187 0.618355
Si Si5 0.072792 0.693975 0.043823
Si Si6 0.446169 0.801586 0.907317
Si Si7 0.292807 0.062513 0.324238
Si Si8 0.067830 0.161412 0.552837
O O1 0.592112 0.334356 0.415051
O O2 0.684099 0.298969 0.764956
O O3 0.222116 0.247507 0.534489
O O4 0.762932 0.184589 0.585111
O O5 0.700889 0.140516 0.983885
O O6 0.313804 0.105694 0.718634
O O7 0.815740 0.005506 0.804625
O O8 0.500000 0.000000 0.000000
O O9 0.091392 0.568444 0.415530
O O10 0.455133 0.492531 0.297638
O O11 0.009566 0.596502 0.075602
O O12 0.937194 0.443742 0.263007
O O13 0.220709 0.728970 0.893651
O O14 0.768191 0.750731 0.016176
O O15 0.542430 0.867302 0.765152
O O16 0.059555 0.114113 0.388599
O O17 0.500000 0.000000 0.500000
#
# Coordination Sequence:
#
# PCOD9053624 Si02
#       8
#     2   2   2   2   2   2   2   2
#     4  11  20  34  58  85 119 154 190 236 283 343
#     4   9  18  38  59  82 110 146 188 237 290 338
#     4   9  17  29  48  80 119 147 180 231 282 335
#     4   9  17  29  48  80 116 152 182 222 286 336
#     4  11  20  34  58  88 118 150 190 239 289 338
#     4  11  21  38  60  86 114 154 192 239 291 338
#     4   9  22  42  61  84 116 152 198 239 287 344
#     4  11  21  38  56  84 116 154 190 238 284 339
#
# _framework density 27.718240999999999
#
# number of rings (size 3 to 8) (size 9 to 14) (size 15 to 20)
#    0.000    2.000    2.500    1.500    0.000    5.000 
#    0.000   25.000    0.000    0.000    0.000   17.500 
#    0.000    0.000    0.000    0.000    0.000    0.000 
#
# Total GULP energy -89560.001724 kJ/mol
# GULP energy per Si atom -5597.500108 kJ/mol
# Density = 2.765515 g / cm^3
# Si number density = 27.718241 Si / 1000 Ang^3
#
#
#
# Elastic Constant Matrix: (Units=GPa)
#
#
# Indices 1 2 3 4 5 6 
#
# 1 129.7342 16.9636 32.7488 -21.3718 -15.4117 3.3366
# 2 16.9636 50.7562 56.0545 -34.9487 -0.0916 4.2301
# 3 32.7488 56.0545 138.5371 -30.1916 -19.3876 7.2577
# 4 -21.3718 -34.9487 -30.1916 67.3320 6.5115 -13.2827
# 5 -15.4117 -0.0916 -19.3876 6.5115 32.1866 -9.9728
# 6 3.3366 4.2301 7.2577 -13.2827 -9.9728 38.1958
#
#
#
# Elastic Compliance Matrix: (Units=1/GPa)
#
#
# Indices 1 2 3 4 5 6 
#
# 1 0.008738 -0.000681 -0.000940 0.001864 0.003571 0.001071
# 2 -0.000681 0.058749 -0.021126 0.022655 -0.017169 0.000963
# 3 -0.000940 -0.021126 0.016371 -0.004864 0.010442 0.000346
# 4 0.001864 0.022655 -0.004864 0.026761 -0.005489 0.006125
# 5 0.003571 -0.017169 0.010442 -0.005489 0.042886 0.008894
# 6 0.001071 0.000963 0.000346 0.006125 0.008894 0.030367
#
#
# Mechanical properties :
#
#
# Convention : Reuss Voigt Hill
#
# Bulk Modulus (GPa) = 26.06587 58.95124 42.50856
# Shear Modulus (GPa) = 20.64804 41.76026 31.20415
#
# Velocity S-wave (km/s) = 2.73229 3.88570 3.35888
# Velocity P-wave (km/s) = 4.40207 6.43784 5.51471
#
# Compressibility (1/GPa) = 0.03836434
#
# Stress axis : x y z
#
# Youngs Moduli (GPa) = 114.43982 17.02168 61.08200
#
# Poissons Ratio (x) = 0.01160 0.05742
# Poissons Ratio (y) = 0.07797 1.29039
# Poissons Ratio (z) = 0.10758 0.35959
#
# Static dielectric constant tensor:
#      x y z
#    x 2.030570 0.065290 0.031130 
#    y 0.065290 2.250160 0.033160 
#    z 0.031130 0.033160 2.234510 
# 
# From -- ./inp_files/137360.got.cif
#   From: 2010.05.17/outbox.cif.g08.bks.cpg/sg2_69_cif.got.tgz:137360.got - 2010.06.03 11:33:40.
