data_PCOD9053082
_publ_section_title
;
Structure prediction by ZEFSAII (Michael W. Deem and Ramdas Pophale) SiO2 
 PCOD9053082
Probable space group: P -1
;
_chemical_formula_sum "Si O2"
_cell_formula_units_Z 14
_cell_length_a 15.571967
_cell_length_b 12.233076
_cell_length_c 24.453929
_cell_angle_alpha 28.464691
_cell_angle_beta 17.293360
_cell_angle_gamma 36.953086
_cell_volume 632.810728
_symmetry_space_group_name_H-M "P -1"
_symmetry_group_IT_number 2
_symmetry_cell_setting 'triclinic'
loop_
_space_group_symop_operation_xyz
x,y,z
-x,-y,-z
loop_
_atom_site_type_symbol
_atom_site_label
_atom_site_fract_x
_atom_site_fract_y
_atom_site_fract_z
Si Si1 0.978876 0.241062 0.649655
Si Si2 0.623362 0.249613 0.643629
Si Si3 0.216322 0.806230 0.544722
Si Si4 0.293064 0.332406 0.244739
Si Si5 0.481841 0.214082 0.033669
Si Si6 0.083159 0.770837 0.760299
Si Si7 0.464498 0.571425 0.693585
O O1 0.217417 0.294311 0.531663
O O2 0.000000 0.500000 0.500000
O O3 0.057613 0.039819 0.653458
O O4 0.631129 0.128248 0.928675
O O5 0.655431 0.309995 0.533182
O O6 0.496749 0.401423 0.697605
O O7 0.959712 0.270079 0.451023
O O8 0.468717 0.965820 0.870507
O O9 0.219406 0.714477 0.644776
O O10 0.860789 0.781949 0.762674
O O11 0.369523 0.091733 0.320810
O O12 0.500000 0.500000 0.000000
O O13 0.326846 0.513905 0.194016
O O14 0.300049 0.750861 0.687153
O O15 0.761871 0.586886 0.053571
#
# Coordination Sequence:
#
# PCOD9053082 Si02
#       7
#     2   2   2   2   2   2   2
#     4  12  24  40  70  97 121 164 218 264 310 375
#     4  11  21  37  64  91 122 166 207 252 316 372
#     4  11  23  36  62  97 127 161 206 263 314 372
#     4  11  18  35  60  93 130 162 197 263 323 360
#     4  11  20  35  61  94 126 156 204 263 314 364
#     4  11  26  45  61  91 135 167 212 257 311 380
#     4  11  25  45  66  87 129 179 205 255 318 374
#
# _framework density 22.123518000000001
#
# number of rings (size 3 to 8) (size 9 to 14) (size 15 to 20)
#    0.000    0.857    5.714    3.000    2.000    1.714 
#    0.000    0.000    0.000    1.714    0.000    0.000 
#    0.000    0.000    0.000    0.000    0.000    0.000 
#
# Total GULP energy -78113.553465 kJ/mol
# GULP energy per Si atom -5579.539533 kJ/mol
# Density = 2.207316 g / cm^3
# Si number density = 22.123518 Si / 1000 Ang^3
#
#
#
# Elastic Constant Matrix: (Units=GPa)
#
#
# Indices 1 2 3 4 5 6 
#
# 1 76.0390 11.3363 20.0498 -4.0575 20.3271 11.9270
# 2 11.3363 55.6705 13.2420 -6.7898 7.0345 9.7548
# 3 20.0498 13.2420 64.4037 1.3954 20.1868 3.1943
# 4 -4.0575 -6.7898 1.3954 24.1001 5.4486 0.9525
# 5 20.3271 7.0345 20.1868 5.4486 39.6721 3.8481
# 6 11.9270 9.7548 3.1943 0.9525 3.8481 35.9292
#
#
#
# Elastic Compliance Matrix: (Units=1/GPa)
#
#
# Indices 1 2 3 4 5 6 
#
# 1 0.016882 -0.000483 -0.002717 0.004714 -0.007386 -0.004565
# 2 -0.000483 0.020847 -0.003347 0.006678 -0.002164 -0.005147
# 3 -0.002717 -0.003347 0.019517 -0.000775 -0.007931 0.000945
# 4 0.004714 0.006678 -0.000775 0.046443 -0.009239 -0.003551
# 5 -0.007386 -0.002164 -0.007931 -0.009239 0.034652 0.000278
# 6 -0.004565 -0.005147 0.000945 -0.003551 0.000278 0.030726
#
#
# Mechanical properties :
#
#
# Convention : Reuss Voigt Hill
#
# Bulk Modulus (GPa) = 22.64933 31.70773 27.17853
# Shear Modulus (GPa) = 25.39646 30.03929 27.71787
#
# Velocity S-wave (km/s) = 3.39180 3.68883 3.54343
# Velocity P-wave (km/s) = 5.05954 5.70145 5.39006
#
# Compressibility (1/GPa) = 0.04415141
#
# Stress axis : x y z
#
# Youngs Moduli (GPa) = 59.23584 47.96788 51.23810
#
# Poissons Ratio (x) = 0.02318 0.13920
# Poissons Ratio (y) = 0.02863 0.17150
# Poissons Ratio (z) = 0.16092 0.16056
#
# Static dielectric constant tensor:
#      x y z
#    x 1.889740 0.060370 0.037960 
#    y 0.060370 1.843970 -0.006090 
#    z 0.037960 -0.006090 1.849410 
# 
# From -- ./inp_files/46104.got.cif
#   From: 2010.05.17/outbox.cif.g08.bks.cpg/sg2_24_cif.got.tgz:46104.got - 2010.06.03 11:33:40.
