data_PCOD9053623
_publ_section_title
;
Structure prediction by ZEFSAII (Michael W. Deem and Ramdas Pophale) SiO2 
 PCOD9053623
Probable space group: P -1
;
_chemical_formula_sum "Si O2"
_cell_formula_units_Z 12
_cell_length_a 6.203454
_cell_length_b 12.509199
_cell_length_c 20.645191
_cell_angle_alpha 159.370449
_cell_angle_beta 99.872483
_cell_angle_gamma 89.619091
_cell_volume 498.511221
_symmetry_space_group_name_H-M "P -1"
_symmetry_group_IT_number 2
_symmetry_cell_setting 'triclinic'
loop_
_space_group_symop_operation_xyz
x,y,z
-x,-y,-z
loop_
_atom_site_type_symbol
_atom_site_label
_atom_site_fract_x
_atom_site_fract_y
_atom_site_fract_z
Si Si1 0.782437 0.485165 0.254208
Si Si2 0.751647 0.168790 0.456543
Si Si3 0.267944 0.772731 0.149190
Si Si4 0.501265 0.753744 0.018677
Si Si5 0.985831 0.147430 0.321646
Si Si6 0.606722 0.753391 0.789815
O O1 0.612140 0.455665 0.290128
O O2 0.056485 0.763066 0.437405
O O3 0.642890 0.499778 0.190117
O O4 0.775454 0.111299 0.036769
O O5 0.870665 0.095623 0.357735
O O6 0.736973 0.524414 0.648036
O O7 0.470978 0.888248 0.281504
O O8 0.365494 0.659523 0.026806
O O9 0.227688 0.097921 0.310324
O O10 0.000000 0.500000 0.000000
O O11 0.785616 0.859034 0.102262
O O12 0.491580 0.100882 0.191260
O O13 0.000000 0.500000 0.500000
#
# Coordination Sequence:
#
# PCOD9053623 Si02
#       6
#     2   2   2   2   2   2
#     4   9  19  33  56  90 120 149 184 243 300 345
#     4  11  20  34  58  84 117 153 193 236 290 347
#     4  11  25  41  57  81 120 163 197 232 284 344
#     4   9  20  35  56  84 115 150 192 239 286 341
#     4  11  22  36  61  89 116 147 195 245 292 341
#     4   9  18  33  57  90 121 146 182 241 304 343
#
# _framework density 24.071676
#
# number of rings (size 3 to 8) (size 9 to 14) (size 15 to 20)
#    1.000    1.000    0.000    4.500    0.000    6.667 
#    0.000    0.833    0.000    5.000    0.000    0.000 
#    0.000    0.000    0.000    0.000    0.000    0.000 
#
# Total GULP energy -67024.649832 kJ/mol
# GULP energy per Si atom -5585.387486 kJ/mol
# Density = 2.401689 g / cm^3
# Si number density = 24.071676 Si / 1000 Ang^3
#
#
#
# Elastic Constant Matrix: (Units=GPa)
#
#
# Indices 1 2 3 4 5 6 
#
# 1 79.7345 28.5158 44.5847 -19.0107 14.4746 -18.0986
# 2 28.5158 60.5186 55.3770 -16.7964 17.4521 -8.5951
# 3 44.5847 55.3770 106.9971 -15.6360 43.6398 -14.4177
# 4 -19.0107 -16.7964 -15.6360 41.5409 -21.4579 7.4751
# 5 14.4746 17.4521 43.6398 -21.4579 64.2620 -6.4277
# 6 -18.0986 -8.5951 -14.4177 7.4751 -6.4277 35.5312
#
#
#
# Elastic Compliance Matrix: (Units=1/GPa)
#
#
# Indices 1 2 3 4 5 6 
#
# 1 0.019130 -0.000687 -0.007354 0.006532 0.003641 0.005879
# 2 -0.000687 0.035540 -0.019622 0.010545 0.007288 -0.000615
# 3 -0.007354 -0.019622 0.027392 -0.008735 -0.014347 0.001865
# 4 0.006532 0.010545 -0.008735 0.035300 0.013112 -0.002721
# 5 0.003641 0.007288 -0.014347 0.013112 0.026873 -0.000101
# 6 0.005879 -0.000615 0.001865 -0.002721 -0.000101 0.032301
#
#
# Mechanical properties :
#
#
# Convention : Reuss Voigt Hill
#
# Bulk Modulus (GPa) = 37.40196 56.02281 46.71238
# Shear Modulus (GPa) = 20.76622 36.18500 28.47561
#
# Velocity S-wave (km/s) = 2.94033 3.88134 3.44314
# Velocity P-wave (km/s) = 5.20566 6.58865 5.93756
#
# Compressibility (1/GPa) = 0.02673657
#
# Stress axis : x y z
#
# Youngs Moduli (GPa) = 52.27334 28.13700 36.50658
#
# Poissons Ratio (x) = 0.01932 0.26848
# Poissons Ratio (y) = 0.03590 0.71634
# Poissons Ratio (z) = 0.38443 0.55211
#
# Static dielectric constant tensor:
#      x y z
#    x 1.868080 -0.030300 0.025060 
#    y -0.030300 1.929790 0.027010 
#    z 0.025060 0.027010 2.007520 
# 
# From -- ./inp_files/124318.got.cif
#   From: 2010.05.17/outbox.cif.g08.bks.cpg/sg2_63_cif.got.tgz:124318.got - 2010.06.03 11:33:40.
