data_PCOD9053184
_publ_section_title
;
Structure prediction by ZEFSAII (Michael W. Deem and Ramdas Pophale) SiO2 
 PCOD9053184
Probable space group: P -1
;
_chemical_formula_sum "Si O2"
_cell_formula_units_Z 16
_cell_length_a 17.012210
_cell_length_b 11.077691
_cell_length_c 12.727588
_cell_angle_alpha 72.717776
_cell_angle_beta 133.045837
_cell_angle_gamma 145.282115
_cell_volume 771.861582
_symmetry_space_group_name_H-M "P -1"
_symmetry_group_IT_number 2
_symmetry_cell_setting 'triclinic'
loop_
_space_group_symop_operation_xyz
x,y,z
-x,-y,-z
loop_
_atom_site_type_symbol
_atom_site_label
_atom_site_fract_x
_atom_site_fract_y
_atom_site_fract_z
Si Si1 0.374933 0.671862 0.907383
Si Si2 0.129696 0.802568 0.743032
Si Si3 0.613672 0.161801 0.727127
Si Si4 0.914600 0.521696 0.115273
Si Si5 0.435515 0.125716 0.383661
Si Si6 0.262234 0.814864 0.665531
Si Si7 0.749888 0.706343 0.212793
Si Si8 0.205319 0.321635 0.504386
O O1 0.256195 0.575940 0.938096
O O2 0.385789 0.823073 0.828037
O O3 0.226959 0.412164 0.779843
O O4 0.640952 0.904265 0.068376
O O5 0.070271 0.602581 0.786563
O O6 0.244267 0.909275 0.704960
O O7 0.911857 0.665396 0.578134
O O8 0.609076 0.236408 0.596176
O O9 0.587750 0.989607 0.710645
O O10 0.381486 0.962926 0.627123
O O11 0.810396 0.393219 0.935151
O O12 0.170557 0.849150 0.255838
O O13 0.552389 0.383165 0.403259
O O14 0.000000 0.500000 0.500000
O O15 0.744573 0.698963 0.336738
O O16 0.500000 0.500000 0.000000
O O17 0.994156 0.032495 0.324827
#
# Coordination Sequence:
#
# PCOD9053184 Si02
#       8
#     2   2   2   2   2   2   2   2
#     4  11  20  38  61  92 121 156 206 251 298 349
#     4  11  19  36  62  93 126 154 196 249 305 359
#     4  11  20  36  54  88 128 167 196 228 298 368
#     4  11  22  38  60  93 130 165 192 236 304 371
#     4  11  24  37  55  88 128 163 201 237 291 370
#     4  11  19  32  58  93 128 156 191 246 305 357
#     4  11  24  44  68  89 112 154 210 262 305 346
#     4  11  25  42  63  92 119 158 204 253 304 350
#
# _framework density 20.729106000000002
#
# number of rings (size 3 to 8) (size 9 to 14) (size 15 to 20)
#    0.000    1.000    3.750    6.375    0.000    1.000 
#    0.000    0.625    0.000    1.500    0.000    0.000 
#    0.000    0.000    0.000    0.000    0.000    0.000 
#
# Total GULP energy -89167.820394 kJ/mol
# GULP energy per Si atom -5572.988775 kJ/mol
# Density = 2.068193 g / cm^3
# Si number density = 20.729106 Si / 1000 Ang^3
#
#
#
# Elastic Constant Matrix: (Units=GPa)
#
#
# Indices 1 2 3 4 5 6 
#
# 1 42.7062 7.3826 3.3059 3.2842 -10.2923 6.6023
# 2 7.3826 99.1556 27.3883 33.2208 -8.7184 7.3685
# 3 3.3059 27.3883 107.7013 12.1824 -3.4759 4.3637
# 4 3.2842 33.2208 12.1824 33.3943 4.8897 -1.8218
# 5 -10.2923 -8.7184 -3.4759 4.8897 30.1480 6.3832
# 6 6.6023 7.3685 4.3637 -1.8218 6.3832 27.1752
#
#
#
# Elastic Compliance Matrix: (Units=1/GPa)
#
#
# Indices 1 2 3 4 5 6 
#
# 1 0.028908 0.002765 0.000320 -0.008490 0.014585 -0.011819
# 2 0.002765 0.019130 -0.001815 -0.020885 0.011712 -0.009718
# 3 0.000320 -0.001815 0.010104 -0.002219 0.001469 -0.001702
# 4 -0.008490 -0.020885 -0.002219 0.056512 -0.021966 0.017030
# 5 0.014585 0.011712 0.001469 -0.021966 0.049515 -0.020058
# 6 -0.011819 -0.009718 -0.001702 0.017030 -0.020058 0.048431
#
#
# Mechanical properties :
#
#
# Convention : Reuss Voigt Hill
#
# Bulk Modulus (GPa) = 16.47982 36.19073 26.33527
# Shear Modulus (GPa) = 21.71173 32.24258 26.97716
#
# Velocity S-wave (km/s) = 3.23987 3.94817 3.61143
# Velocity P-wave (km/s) = 4.68647 6.18715 5.48835
#
# Compressibility (1/GPa) = 0.06068027
#
# Stress axis : x y z
#
# Youngs Moduli (GPa) = 34.59207 52.27352 98.96849
#
# Poissons Ratio (x) = -0.14452 -0.03162
# Poissons Ratio (y) = -0.09564 0.17968
# Poissons Ratio (z) = -0.01105 0.09490
#
# Static dielectric constant tensor:
#      x y z
#    x 1.749880 0.011590 -0.005640 
#    y 0.011590 1.750440 0.001690 
#    z -0.005640 0.001690 1.976340 
# 
# From -- ./inp_files/314146.got.cif
#   From: 2010.05.17/outbox.cif.g08.bks.cpg/sg2_158_cif.got.tgz:314146.got - 2010.06.03 11:33:40.
