data_PCOD9053127
_publ_section_title
;
Structure prediction by ZEFSAII (Michael W. Deem and Ramdas Pophale) SiO2 
 PCOD9053127
Probable space group: P -1
;
_chemical_formula_sum "Si O2"
_cell_formula_units_Z 16
_cell_length_a 11.964808
_cell_length_b 10.750651
_cell_length_c 7.310637
_cell_angle_alpha 109.239824
_cell_angle_beta 54.676421
_cell_angle_gamma 121.924430
_cell_volume 650.810125
_symmetry_space_group_name_H-M "P -1"
_symmetry_group_IT_number 2
_symmetry_cell_setting 'triclinic'
loop_
_space_group_symop_operation_xyz
x,y,z
-x,-y,-z
loop_
_atom_site_type_symbol
_atom_site_label
_atom_site_fract_x
_atom_site_fract_y
_atom_site_fract_z
Si Si1 0.792158 0.121637 0.473005
Si Si2 0.555915 0.645843 0.708197
Si Si3 0.244365 0.590586 0.838020
Si Si4 0.412871 0.835529 0.071949
Si Si5 0.017071 0.855189 0.360135
Si Si6 0.197873 0.174401 0.749400
Si Si7 0.772824 0.531825 0.571627
Si Si8 0.901841 0.637708 0.860837
O O1 0.649294 0.155424 0.662769
O O2 0.834803 0.112975 0.643193
O O3 0.932935 0.253614 0.311201
O O4 0.781907 0.973452 0.317679
O O5 0.392383 0.560846 0.725419
O O6 0.677398 0.737844 0.481095
O O7 0.615867 0.545082 0.709570
O O8 0.527423 0.758797 0.922304
O O9 0.226496 0.581328 0.634773
O O10 0.291745 0.737904 0.979534
O O11 0.106163 0.455292 0.997340
O O12 0.500000 0.000000 0.000000
O O13 0.967589 0.850495 0.192907
O O14 0.898417 0.695694 0.471787
O O15 0.000000 0.000000 0.500000
O O16 0.196051 0.269232 0.971512
O O17 0.817726 0.515536 0.725654
#
# Coordination Sequence:
#
# PCOD9053127 Si02
#       8
#     2   2   2   2   2   2   2   2
#     4  10  19  35  56  88 117 152 194 229 289 354
#     4   9  19  35  61  81 116 152 193 236 287 337
#     4  10  21  37  59  87 115 156 191 240 292 334
#     4  10  21  38  63  82 111 164 195 228 289 352
#     4   8  16  29  55  81 110 144 187 232 275 329
#     4  10  17  35  59  86 117 146 192 246 289 329
#     4  10  19  36  57  91 117 143 198 239 290 341
#     4  11  22  33  61  91 117 148 184 250 295 334
#
# _framework density 24.584741000000001
#
# number of rings (size 3 to 8) (size 9 to 14) (size 15 to 20)
#    0.750    1.500    3.750    0.750    0.000    1.000 
#    0.000    2.500    2.750    1.500    0.000    0.000 
#    0.000    0.000    0.000    0.000    0.000    0.000 
#
# Total GULP energy -89182.300786 kJ/mol
# GULP energy per Si atom -5573.893799 kJ/mol
# Density = 2.452879 g / cm^3
# Si number density = 24.584741 Si / 1000 Ang^3
#
#
#
# Elastic Constant Matrix: (Units=GPa)
#
#
# Indices 1 2 3 4 5 6 
#
# 1 27.9468 4.9539 27.8389 4.3368 0.0450 -13.1560
# 2 4.9539 111.8464 58.7121 14.6336 -3.6426 0.6381
# 3 27.8389 58.7121 162.7127 8.2326 -10.2701 -9.1834
# 4 4.3368 14.6336 8.2326 45.7567 5.5046 -2.0881
# 5 0.0450 -3.6426 -10.2701 5.5046 30.0995 2.7235
# 6 -13.1560 0.6381 -9.1834 -2.0881 2.7235 18.8688
#
#
#
# Elastic Compliance Matrix: (Units=1/GPa)
#
#
# Indices 1 2 3 4 5 6 
#
# 1 0.064944 0.002173 -0.009863 -0.002423 -0.006473 0.041074
# 2 0.002173 0.011638 -0.004451 -0.003270 0.000620 -0.001496
# 3 -0.009863 -0.004451 0.009471 0.000191 0.002900 -0.002515
# 4 -0.002423 -0.003270 0.000191 0.023762 -0.004839 0.001842
# 5 -0.006473 0.000620 0.002900 -0.004839 0.035983 -0.008852
# 6 0.041074 -0.001496 -0.002515 0.001842 -0.008852 0.081944
#
#
# Mechanical properties :
#
#
# Convention : Reuss Voigt Hill
#
# Bulk Modulus (GPa) = 16.18905 53.94620 35.06762
# Shear Modulus (GPa) = 18.34091 33.01172 25.67632
#
# Velocity S-wave (km/s) = 2.73431 3.66836 3.23522
# Velocity P-wave (km/s) = 4.07037 6.31926 5.31512
#
# Compressibility (1/GPa) = 0.06177015
#
# Stress axis : x y z
#
# Youngs Moduli (GPa) = 15.39781 85.92878 105.58702
#
# Poissons Ratio (x) = -0.18672 1.04144
# Poissons Ratio (y) = -0.03346 0.46995
# Poissons Ratio (z) = 0.15187 0.38246
#
# Static dielectric constant tensor:
#      x y z
#    x 2.089520 0.065490 -0.026000 
#    y 0.065490 1.965450 0.039850 
#    z -0.026000 0.039850 2.038330 
# 
# From -- ./inp_files/335053.got.cif
#   From: 2010.05.17/outbox.cif.g08.bks.cpg/sg2_168_cif.got.tgz:335053.got - 2010.06.03 11:33:40.
