data_PCOD9053408
_publ_section_title
;
Structure prediction by ZEFSAII (Michael W. Deem and Ramdas Pophale) SiO2 
 PCOD9053408
Probable space group: P -1
;
_chemical_formula_sum "Si O2"
_cell_formula_units_Z 16
_cell_length_a 5.465144
_cell_length_b 12.990312
_cell_length_c 14.855560
_cell_angle_alpha 128.291070
_cell_angle_beta 92.538860
_cell_angle_gamma 58.859557
_cell_volume 645.860100
_symmetry_space_group_name_H-M "P -1"
_symmetry_group_IT_number 2
_symmetry_cell_setting 'triclinic'
loop_
_space_group_symop_operation_xyz
x,y,z
-x,-y,-z
loop_
_atom_site_type_symbol
_atom_site_label
_atom_site_fract_x
_atom_site_fract_y
_atom_site_fract_z
Si Si1 0.080752 0.845037 0.731713
Si Si2 0.930668 0.163821 0.953027
Si Si3 0.177938 0.359852 0.349784
Si Si4 0.729563 0.889176 0.245863
Si Si5 0.687984 0.643377 0.022202
Si Si6 0.258030 0.749341 0.318514
Si Si7 0.850375 0.921968 0.569433
Si Si8 0.947149 0.409162 0.177862
O O1 0.453426 0.726947 0.691694
O O2 0.915283 0.761072 0.700382
O O3 0.035351 0.885917 0.645637
O O4 0.910589 0.014766 0.880925
O O5 0.197139 0.083155 0.837162
O O6 0.629957 0.327114 0.984708
O O7 0.961510 0.244871 0.083636
O O8 0.000000 0.500000 0.500000
O O9 0.043946 0.432322 0.287672
O O10 0.041127 0.768255 0.244292
O O11 0.467111 0.046150 0.387640
O O12 0.582105 0.799171 0.167745
O O13 0.806254 0.635995 0.920039
O O14 0.000000 0.500000 0.000000
O O15 0.605771 0.577301 0.236911
O O16 0.072720 0.778872 0.423460
O O17 0.255476 0.907067 0.387586
#
# Coordination Sequence:
#
# PCOD9053408 Si02
#       8
#     2   2   2   2   2   2   2   2
#     4  12  26  51  81 107 152 198 262 319 378 452
#     4  11  24  43  75 106 148 193 253 315 381 452
#     4  12  30  55  80 109 151 206 260 318 383 456
#     4  11  19  39  64 105 146 191 246 301 385 453
#     4  11  22  40  68 105 153 197 245 312 377 459
#     4  11  23  41  67 106 153 193 252 314 380 467
#     4  11  23  41  70 109 144 199 253 311 388 452
#     4  11  27  46  72 111 152 201 257 311 387 454
#
# _framework density 24.773167000000001
#
# number of rings (size 3 to 8) (size 9 to 14) (size 15 to 20)
#    0.000    0.750    2.500    4.500    3.500    3.000 
#    4.500    0.000    0.000    0.000    0.000    0.000 
#    0.000    0.000    0.000    0.000    0.000    0.000 
#
# Total GULP energy -89460.226795 kJ/mol
# GULP energy per Si atom -5591.264175 kJ/mol
# Density = 2.471678 g / cm^3
# Si number density = 24.773167 Si / 1000 Ang^3
#
#
#
# Elastic Constant Matrix: (Units=GPa)
#
#
# Indices 1 2 3 4 5 6 
#
# 1 91.8851 32.3963 33.8426 9.5852 -13.7384 -22.8684
# 2 32.3963 82.7439 34.7148 -6.9277 2.4221 -29.2783
# 3 33.8426 34.7148 131.4967 -15.4812 -12.7881 -12.0660
# 4 9.5852 -6.9277 -15.4812 31.5777 -10.9483 0.1897
# 5 -13.7384 2.4221 -12.7881 -10.9483 43.8659 1.7545
# 6 -22.8684 -29.2783 -12.0660 0.1897 1.7545 44.2047
#
#
#
# Elastic Compliance Matrix: (Units=1/GPa)
#
#
# Indices 1 2 3 4 5 6 
#
# 1 0.015495 -0.003727 -0.003074 -0.006215 0.002426 0.004639
# 2 -0.003727 0.018511 -0.002997 0.002704 -0.002773 0.009613
# 3 -0.003074 -0.002997 0.010263 0.006663 0.003896 -0.000957
# 4 -0.006215 0.002704 0.006663 0.040905 0.010063 -0.000180
# 5 0.002426 -0.002773 0.003896 0.010063 0.027383 -0.000648
# 6 0.004639 0.009613 -0.000957 -0.000180 -0.000648 0.031154
#
#
# Mechanical properties :
#
#
# Convention : Reuss Voigt Hill
#
# Bulk Modulus (GPa) = 40.53045 56.44812 48.48928
# Shear Modulus (GPa) = 29.14942 37.60779 33.37861
#
# Velocity S-wave (km/s) = 3.43396 3.90049 3.67464
# Velocity P-wave (km/s) = 5.66735 6.56662 6.13349
#
# Compressibility (1/GPa) = 0.02467281
#
# Stress axis : x y z
#
# Youngs Moduli (GPa) = 64.53739 54.02189 97.44081
#
# Poissons Ratio (x) = 0.20133 0.29954
# Poissons Ratio (y) = 0.24052 0.29202
# Poissons Ratio (z) = 0.19839 0.16190
#
# Static dielectric constant tensor:
#      x y z
#    x 2.083040 0.085420 0.032960 
#    y 0.085420 2.024830 0.053880 
#    z 0.032960 0.053880 1.952300 
# 
# From -- ./inp_files/484398.got.cif
#   From: 2010.05.17/outbox.cif.g08.bks.cpg/sg2_243_cif.got.tgz:484398.got - 2010.06.03 11:33:40.
