data_PCOD9053076
_publ_section_title
;
Structure prediction by ZEFSAII (Michael W. Deem and Ramdas Pophale) SiO2 
 PCOD9053076
Probable space group: P -1
;
_chemical_formula_sum "Si O2"
_cell_formula_units_Z 16
_cell_length_a 17.372468
_cell_length_b 10.094674
_cell_length_c 12.521776
_cell_angle_alpha 146.520209
_cell_angle_beta 143.410867
_cell_angle_gamma 36.634813
_cell_volume 660.609939
_symmetry_space_group_name_H-M "P -1"
_symmetry_group_IT_number 2
_symmetry_cell_setting 'triclinic'
loop_
_space_group_symop_operation_xyz
x,y,z
-x,-y,-z
loop_
_atom_site_type_symbol
_atom_site_label
_atom_site_fract_x
_atom_site_fract_y
_atom_site_fract_z
Si Si1 0.699746 0.275519 0.845874
Si Si2 0.838116 0.737410 0.692497
Si Si3 0.763761 0.180203 0.071280
Si Si4 0.610849 0.507365 0.292577
Si Si5 0.670521 0.243046 0.409586
Si Si6 0.912602 0.611048 0.137274
Si Si7 0.964421 0.118643 0.707875
Si Si8 0.375056 0.332132 0.172799
O O1 0.547525 0.288211 0.723384
O O2 0.666567 0.464992 0.836925
O O3 0.812786 0.981493 0.749381
O O4 0.754960 0.348479 0.067644
O O5 0.720956 0.629242 0.464771
O O6 0.996113 0.528820 0.750704
O O7 0.785882 0.899360 0.855593
O O8 0.628637 0.304653 0.079840
O O9 0.901994 0.115659 0.252635
O O10 0.662011 0.348358 0.351714
O O11 0.542054 0.157861 0.233009
O O12 0.640218 0.501553 0.624370
O O13 0.829062 0.056998 0.493217
O O14 0.992845 0.767468 0.273952
O O15 0.744231 0.780248 0.050479
O O16 0.926689 0.358679 0.910760
#
# Coordination Sequence:
#
# PCOD9053076 Si02
#       8
#     2   2   2   2   2   2   2   2
#     4   9  20  34  50  81 110 146 180 213 271 333
#     4   9  19  33  52  86 102 142 185 219 270 320
#     4   9  21  32  54  86 106 141 178 230 269 319
#     4  11  18  35  57  80 112 135 182 235 268 307
#     4   9  18  31  53  81 105 141 182 220 273 316
#     4   9  16  30  53  78 110 137 181 225 264 320
#     4   9  16  32  51  81 105 136 183 228 266 313
#     4   9  18  31  53  79 109 149 175 218 272 326
#
# _framework density 24.220043
#
# number of rings (size 3 to 8) (size 9 to 14) (size 15 to 20)
#    0.750    2.000    1.250    0.750    1.750    1.000 
#    0.000    0.000    0.000    5.250    0.000    0.000 
#    0.000    0.000    0.000    0.000    0.000    0.000 
#
# Total GULP energy -89244.147873 kJ/mol
# GULP energy per Si atom -5577.759242 kJ/mol
# Density = 2.416492 g / cm^3
# Si number density = 24.220043 Si / 1000 Ang^3
#
#
#
# Elastic Constant Matrix: (Units=GPa)
#
#
# Indices 1 2 3 4 5 6 
#
# 1 50.9601 23.2351 4.6893 -5.4555 -3.9669 -3.8000
# 2 23.2351 117.5117 30.8315 -31.5114 1.8041 -10.2307
# 3 4.6893 30.8315 67.0956 -6.9108 12.7176 -0.7323
# 4 -5.4555 -31.5114 -6.9108 35.6327 -11.6267 -2.0646
# 5 -3.9669 1.8041 12.7176 -11.6267 41.3971 -15.6372
# 6 -3.8000 -10.2307 -0.7323 -2.0646 -15.6372 29.3744
#
#
#
# Elastic Compliance Matrix: (Units=1/GPa)
#
#
# Indices 1 2 3 4 5 6 
#
# 1 0.022115 -0.003345 -0.000633 0.002080 0.004673 0.004314
# 2 -0.003345 0.016477 -0.007463 0.016696 0.010415 0.011838
# 3 -0.000633 -0.007463 0.019641 -0.006946 -0.010930 -0.008498
# 4 0.002080 0.016696 -0.006946 0.051087 0.024462 0.022523
# 5 0.004673 0.010415 -0.010930 0.024462 0.045716 0.030015
# 6 0.004314 0.011838 -0.008498 0.022523 0.030015 0.056074
#
#
# Mechanical properties :
#
#
# Convention : Reuss Voigt Hill
#
# Bulk Modulus (GPa) = 28.28758 39.23100 33.75929
# Shear Modulus (GPa) = 20.34381 33.06827 26.70604
#
# Velocity S-wave (km/s) = 2.90135 3.69904 3.32421
# Velocity P-wave (km/s) = 4.78837 5.87169 5.35749
#
# Compressibility (1/GPa) = 0.03535120
#
# Stress axis : x y z
#
# Youngs Moduli (GPa) = 45.21884 60.69054 50.91319
#
# Poissons Ratio (x) = 0.20302 0.03222
# Poissons Ratio (y) = 0.15126 0.37996
# Poissons Ratio (z) = 0.02862 0.45293
#
# Static dielectric constant tensor:
#      x y z
#    x 1.939520 -0.061630 -0.009510 
#    y -0.061630 1.964270 0.007890 
#    z -0.009510 0.007890 1.969420 
# 
# From -- ./inp_files/464150.got.cif
#   From: 2010.05.17/outbox.cif.g08.bks.cpg/sg2_233_cif.got.tgz:464150.got - 2010.06.03 11:33:40.
