data_PCOD9053258
_publ_section_title
;
Structure prediction by ZEFSAII (Michael W. Deem and Ramdas Pophale) SiO2 
 PCOD9053258
Probable space group: P -1
;
_chemical_formula_sum "Si O2"
_cell_formula_units_Z 12
_cell_length_a 12.500722
_cell_length_b 10.548981
_cell_length_c 11.789998
_cell_angle_alpha 128.452675
_cell_angle_beta 135.220344
_cell_angle_gamma 89.800106
_cell_volume 521.482945
_symmetry_space_group_name_H-M "P -1"
_symmetry_group_IT_number 2
_symmetry_cell_setting 'triclinic'
loop_
_space_group_symop_operation_xyz
x,y,z
-x,-y,-z
loop_
_atom_site_type_symbol
_atom_site_label
_atom_site_fract_x
_atom_site_fract_y
_atom_site_fract_z
Si Si1 0.947883 0.581476 0.904507
Si Si2 0.100733 0.263561 0.484746
Si Si3 0.401377 0.235548 0.302510
Si Si4 0.456820 0.365585 0.660071
Si Si5 0.991855 0.125203 0.700047
Si Si6 0.852125 0.494641 0.144393
O O1 0.650503 0.340206 0.530132
O O2 0.087100 0.630837 0.926975
O O3 0.035543 0.821545 0.164766
O O4 0.000000 0.500000 0.000000
O O5 0.300054 0.374040 0.604449
O O6 0.124477 0.449365 0.674572
O O7 0.142650 0.159534 0.556338
O O8 0.831035 0.015714 0.087088
O O9 0.500000 0.500000 0.500000
O O10 0.329138 0.180548 0.350610
O O11 0.715120 0.662032 0.974789
O O12 0.577998 0.325167 0.805784
O O13 0.955529 0.226444 0.629696
#
# Coordination Sequence:
#
# PCOD9053258 Si02
#       6
#     2   2   2   2   2   2
#     4   9  16  36  57  72 110 144 170 217 266 315
#     4  12  19  32  57  85 103 138 183 220 262 310
#     4  11  19  35  58  81 101 145 179 219 260 313
#     4   9  20  34  53  79 111 138 177 216 263 320
#     4   8  18  33  56  76 104 144 177 208 260 313
#     4   9  19  34  55  78 111 141 172 222 267 308
#
# _framework density 23.011299999999999
#
# number of rings (size 3 to 8) (size 9 to 14) (size 15 to 20)
#    1.000    1.333    5.000    1.500    0.000    0.667 
#    0.000    0.833    0.000    1.000    0.000    0.000 
#    0.000    0.000    0.000    0.000    0.000    0.000 
#
# Total GULP energy -66865.118399 kJ/mol
# GULP energy per Si atom -5572.093200 kJ/mol
# Density = 2.295893 g / cm^3
# Si number density = 23.011300 Si / 1000 Ang^3
#
#
#
# Elastic Constant Matrix: (Units=GPa)
#
#
# Indices 1 2 3 4 5 6 
#
# 1 227.8968 7.8670 82.8255 -14.8407 -14.6568 -13.9585
# 2 7.8670 27.9206 18.5121 -6.9382 1.2383 -3.3435
# 3 82.8255 18.5121 94.6950 -29.5272 -2.3186 1.7232
# 4 -14.8407 -6.9382 -29.5272 27.3957 0.4903 -0.0289
# 5 -14.6568 1.2383 -2.3186 0.4903 43.0946 -6.5407
# 6 -13.9585 -3.3435 1.7232 -0.0289 -6.5407 19.0800
#
#
#
# Elastic Compliance Matrix: (Units=1/GPa)
#
#
# Indices 1 2 3 4 5 6 
#
# 1 0.008112 0.003605 -0.009387 -0.004864 0.003512 0.008610
# 2 0.003605 0.044113 -0.011860 0.000334 0.001111 0.011820
# 3 -0.009387 -0.011860 0.028206 0.022362 -0.003510 -0.012662
# 4 -0.004864 0.000334 0.022362 0.058084 -0.002053 -0.006135
# 5 0.003512 0.001111 -0.003510 -0.002053 0.026023 0.011999
# 6 0.008610 0.011820 -0.012662 -0.006135 0.011999 0.066029
#
#
# Mechanical properties :
#
#
# Convention : Reuss Voigt Hill
#
# Bulk Modulus (GPa) = 22.15032 63.21351 42.68191
# Shear Modulus (GPa) = 17.79995 34.00125 25.90060
#
# Velocity S-wave (km/s) = 2.78426 3.84811 3.35858
# Velocity P-wave (km/s) = 4.47022 6.87563 5.79901
#
# Compressibility (1/GPa) = 0.04514607
#
# Stress axis : x y z
#
# Youngs Moduli (GPa) = 123.28138 22.66897 35.45325
#
# Poissons Ratio (x) = -0.08172 0.33279
# Poissons Ratio (y) = -0.44441 0.42049
# Poissons Ratio (z) = 1.15722 0.26886
#
# Static dielectric constant tensor:
#      x y z
#    x 2.266670 0.131080 -0.007780 
#    y 0.131080 1.969700 0.003150 
#    z -0.007780 0.003150 1.842130 
# 
# From -- ./inp_files/233778.got.cif
#   From: 2010.05.17/outbox.cif.g08.bks.cpg/sg2_117_cif.got.tgz:233778.got - 2010.06.03 11:33:40.
