data_PCOD9053736
_publ_section_title
;
Structure prediction by ZEFSAII (Michael W. Deem and Ramdas Pophale) SiO2 
 PCOD9053736
Probable space group: P -1
;
_chemical_formula_sum "Si O2"
_cell_formula_units_Z 12
_cell_length_a 6.907566
_cell_length_b 7.925964
_cell_length_c 13.653221
_cell_angle_alpha 43.337025
_cell_angle_beta 77.118134
_cell_angle_gamma 86.485988
_cell_volume 494.374908
_symmetry_space_group_name_H-M "P -1"
_symmetry_group_IT_number 2
_symmetry_cell_setting 'triclinic'
loop_
_space_group_symop_operation_xyz
x,y,z
-x,-y,-z
loop_
_atom_site_type_symbol
_atom_site_label
_atom_site_fract_x
_atom_site_fract_y
_atom_site_fract_z
Si Si1 0.609382 0.160638 0.012183
Si Si2 0.733722 0.013511 0.740566
Si Si3 0.884843 0.870157 0.231961
Si Si4 0.911083 0.560284 0.713478
Si Si5 0.315763 0.840557 0.533351
Si Si6 0.342622 0.422976 0.444599
O O1 0.443148 0.168222 0.110991
O O2 0.776556 0.019253 0.102632
O O3 0.938311 0.977319 0.786857
O O4 0.727741 0.427492 0.854935
O O5 0.732542 0.022833 0.619429
O O6 0.692412 0.294669 0.653552
O O7 0.500000 0.000000 0.000000
O O8 0.991141 0.667092 0.248808
O O9 0.728709 0.743614 0.383855
O O10 0.106419 0.741882 0.651758
O O11 0.806682 0.675588 0.585201
O O12 0.429840 0.604555 0.594093
O O13 0.500000 0.000000 0.500000
#
# Coordination Sequence:
#
# PCOD9053736 Si02
#       6
#     2   2   2   2   2   2
#     4  12  23  34  61 103 131 153 196 262 326 362
#     4  11  21  39  64  96 124 161 207 256 314 362
#     4  11  20  36  66  95 128 156 201 263 313 363
#     4  11  23  37  61  99 125 157 208 258 310 365
#     4  12  25  41  64  91 124 171 214 251 301 369
#     4  11  20  39  68  90 120 161 213 265 302 357
#
# _framework density 24.273074999999999
#
# number of rings (size 3 to 8) (size 9 to 14) (size 15 to 20)
#    0.000    0.667    8.333    3.000    0.000    0.667 
#    0.000    0.833    0.000    2.000    0.000    0.000 
#    0.000    0.000    0.000    0.000    0.000    0.000 
#
# Total GULP energy -67160.551377 kJ/mol
# GULP energy per Si atom -5596.712615 kJ/mol
# Density = 2.421783 g / cm^3
# Si number density = 24.273075 Si / 1000 Ang^3
#
#
#
# Elastic Constant Matrix: (Units=GPa)
#
#
# Indices 1 2 3 4 5 6 
#
# 1 171.0503 44.6567 52.5799 0.3790 5.6399 47.8385
# 2 44.6567 70.4033 38.3764 0.3983 -3.4285 29.4242
# 3 52.5799 38.3764 126.4399 -8.6490 -9.1884 28.5798
# 4 0.3790 0.3983 -8.6490 22.4562 10.5925 -2.7396
# 5 5.6399 -3.4285 -9.1884 10.5925 64.1015 -0.2280
# 6 47.8385 29.4242 28.5798 -2.7396 -0.2280 45.6609
#
#
#
# Elastic Compliance Matrix: (Units=1/GPa)
#
#
# Indices 1 2 3 4 5 6 
#
# 1 0.008861 -0.001739 -0.001683 -0.001200 -0.000941 -0.007186
# 2 -0.001739 0.021592 -0.003728 -0.003638 0.001339 -0.009970
# 3 -0.001683 -0.003728 0.010544 0.003470 0.000879 -0.002221
# 4 -0.001200 -0.003638 0.003470 0.050203 -0.007872 0.004402
# 5 -0.000941 0.001339 0.000879 -0.007872 0.017179 -0.000813
# 6 -0.007186 -0.009970 -0.002221 0.004402 -0.000813 0.037505
#
#
# Mechanical properties :
#
#
# Convention : Reuss Voigt Hill
#
# Bulk Modulus (GPa) = 37.45866 71.01330 54.23598
# Shear Modulus (GPa) = 29.57156 41.92906 35.75031
#
# Velocity S-wave (km/s) = 3.49418 4.16070 3.84192
# Velocity P-wave (km/s) = 5.63425 7.23888 6.48638
#
# Compressibility (1/GPa) = 0.02669609
#
# Stress axis : x y z
#
# Youngs Moduli (GPa) = 112.85224 46.31414 94.84369
#
# Poissons Ratio (x) = 0.08052 0.15965
# Poissons Ratio (y) = 0.19621 0.35361
# Poissons Ratio (z) = 0.18996 0.17267
#
# Static dielectric constant tensor:
#      x y z
#    x 1.922360 -0.012850 -0.029910 
#    y -0.012850 2.111410 -0.012010 
#    z -0.029910 -0.012010 1.902280 
# 
# From -- ./inp_files/375417.got.cif
#   From: 2010.05.17/outbox.cif.g08.bks.cpg/sg2_188_cif.got.tgz:375417.got - 2010.06.03 11:33:40.
