data_PCOD9053353
_publ_section_title
;
Structure prediction by ZEFSAII (Michael W. Deem and Ramdas Pophale) SiO2 
 PCOD9053353
Probable space group: P -1
;
_chemical_formula_sum "Si O2"
_cell_formula_units_Z 12
_cell_length_a 8.930395
_cell_length_b 11.095891
_cell_length_c 12.841029
_cell_angle_alpha 75.499026
_cell_angle_beta 128.478194
_cell_angle_gamma 137.874606
_cell_volume 611.783233
_symmetry_space_group_name_H-M "P -1"
_symmetry_group_IT_number 2
_symmetry_cell_setting 'triclinic'
loop_
_space_group_symop_operation_xyz
x,y,z
-x,-y,-z
loop_
_atom_site_type_symbol
_atom_site_label
_atom_site_fract_x
_atom_site_fract_y
_atom_site_fract_z
Si Si1 0.864689 0.237586 0.032876
Si Si2 0.400054 0.464624 0.345476
Si Si3 0.805369 0.679099 0.158248
Si Si4 0.274093 0.569630 0.657296
Si Si5 0.462858 0.673695 0.154036
Si Si6 0.243121 0.014488 0.120390
O O1 0.038601 0.292560 0.203792
O O2 0.157005 0.437917 0.051092
O O3 0.631549 0.233304 0.927919
O O4 0.726481 0.049327 0.957496
O O5 0.500000 0.500000 0.500000
O O6 0.529360 0.415382 0.341907
O O7 0.522717 0.654079 0.301963
O O8 0.843208 0.585104 0.273602
O O9 0.727135 0.761143 0.175352
O O10 0.092976 0.848139 0.175922
O O11 0.500000 0.500000 0.000000
O O12 0.000000 0.500000 0.500000
O O13 0.470658 0.772309 0.756591
O O14 0.000000 0.000000 0.000000
#
# Coordination Sequence:
#
# PCOD9053353 Si02
#       6
#     2   2   2   2   2   2
#     4   9  17  33  60  87 111 154 200 241 282 356
#     4   9  17  34  57  81 117 158 185 237 303 342
#     4  11  19  37  65  86 118 161 192 250 298 344
#     4  11  25  40  58  93 123 153 201 250 300 352
#     4   8  17  33  53  92 115 147 204 234 293 350
#     4  12  20  39  66  89 117 156 208 245 291 360
#
# _framework density 19.614789999999999
#
# number of rings (size 3 to 8) (size 9 to 14) (size 15 to 20)
#    1.000    1.000    5.000    0.000    0.000    3.333 
#    0.000    2.500    0.000    4.000    0.000    0.000 
#    0.000    0.000    0.000    0.000    0.000    0.000 
#
# Total GULP energy -66864.951115 kJ/mol
# GULP energy per Si atom -5572.079260 kJ/mol
# Density = 1.957015 g / cm^3
# Si number density = 19.614790 Si / 1000 Ang^3
#
#
#
# Elastic Constant Matrix: (Units=GPa)
#
#
# Indices 1 2 3 4 5 6 
#
# 1 32.2309 33.7683 48.4503 -15.6096 -0.6673 -12.6293
# 2 33.7683 79.3887 61.9065 -5.7274 -4.1517 -19.2546
# 3 48.4503 61.9065 166.7038 -21.5537 0.7586 -29.4618
# 4 -15.6096 -5.7274 -21.5537 33.8637 -2.1897 -0.1697
# 5 -0.6673 -4.1517 0.7586 -2.1897 32.0182 -7.1540
# 6 -12.6293 -19.2546 -29.4618 -0.1697 -7.1540 30.9086
#
#
#
# Elastic Compliance Matrix: (Units=1/GPa)
#
#
# Indices 1 2 3 4 5 6 
#
# 1 0.098854 -0.026715 -0.012115 0.033674 0.004169 0.013351
# 2 -0.026715 0.026371 -0.002586 -0.009279 0.003120 0.003719
# 3 -0.012115 -0.002586 0.011418 0.001281 0.000208 0.004378
# 4 0.033674 -0.009279 0.001281 0.044667 0.004886 0.010576
# 5 0.004169 0.003120 0.000208 0.004886 0.034713 0.011907
# 6 0.013351 0.003719 0.004378 0.010576 0.011907 0.047113
#
#
# Mechanical properties :
#
#
# Convention : Reuss Voigt Hill
#
# Bulk Modulus (GPa) = 18.58319 62.95263 40.76791
# Shear Modulus (GPa) = 13.73981 28.30465 21.02223
#
# Velocity S-wave (km/s) = 2.64953 3.80284 3.27732
# Velocity P-wave (km/s) = 4.34220 7.17260 5.92878
#
# Compressibility (1/GPa) = 0.05381208
#
# Stress axis : x y z
#
# Youngs Moduli (GPa) = 10.11595 37.91977 87.57770
#
# Poissons Ratio (x) = 1.01302 1.06104
# Poissons Ratio (y) = 0.27025 0.22643
# Poissons Ratio (z) = 0.12256 0.09804
#
# Static dielectric constant tensor:
#      x y z
#    x 1.734370 0.001210 -0.046250 
#    y 0.001210 1.730490 0.000180 
#    z -0.046250 0.000180 1.700150 
# 
# From -- ./inp_files/382142.got.cif
#   From: 2010.05.17/outbox.cif.g08.bks.cpg/sg2_192_cif.got.tgz:382142.got - 2010.06.03 11:33:40.
