data_PCOD9053327
_publ_section_title
;
Structure prediction by ZEFSAII (Michael W. Deem and Ramdas Pophale) SiO2 
 PCOD9053327
Probable space group: P -1
;
_chemical_formula_sum "Si O2"
_cell_formula_units_Z 14
_cell_length_a 9.198488
_cell_length_b 20.539007
_cell_length_c 24.673607
_cell_angle_alpha 164.218642
_cell_angle_beta 148.527404
_cell_angle_gamma 36.450337
_cell_volume 657.484614
_symmetry_space_group_name_H-M "P -1"
_symmetry_group_IT_number 2
_symmetry_cell_setting 'triclinic'
loop_
_space_group_symop_operation_xyz
x,y,z
-x,-y,-z
loop_
_atom_site_type_symbol
_atom_site_label
_atom_site_fract_x
_atom_site_fract_y
_atom_site_fract_z
Si Si1 0.209344 0.628434 0.508999
Si Si2 0.795082 0.002035 0.386201
Si Si3 0.745274 0.425329 0.399033
Si Si4 0.822396 0.263596 0.018673
Si Si5 0.780334 0.960741 0.851955
Si Si6 0.779292 0.895618 0.178892
Si Si7 0.203963 0.429058 0.172065
O O1 0.500000 0.500000 0.500000
O O2 0.167741 0.681406 0.601966
O O3 0.962800 0.455281 0.261691
O O4 0.208089 0.871657 0.669243
O O5 0.738124 0.281564 0.584530
O O6 0.924041 0.935379 0.315476
O O7 0.000000 0.000000 0.500000
O O8 0.511339 0.818320 0.159832
O O9 0.653732 0.686462 0.595398
O O10 0.476557 0.314652 0.191027
O O11 0.000000 0.500000 0.500000
O O12 0.963525 0.350985 0.077207
O O13 0.908047 0.022898 0.883105
O O14 0.545363 0.133125 0.928855
O O15 0.000000 0.000000 0.000000
O O16 0.861873 0.682856 0.997589
#
# Coordination Sequence:
#
# PCOD9053327 Si02
#       7
#     2   2   2   2   2   2   2
#     4  12  20  41  66  97 144 186 221 267 328 407
#     4  11  26  51  75  95 130 176 230 296 354 396
#     4  12  24  35  62 102 143 184 224 261 326 407
#     4  11  22  42  70  94 132 180 224 277 337 399
#     4  11  19  37  57  91 133 182 219 261 327 387
#     4  11  24  42  66  96 137 177 221 286 334 400
#     4  12  25  45  66 104 139 172 234 279 333 416
#
# _framework density 21.293272999999999
#
# number of rings (size 3 to 8) (size 9 to 14) (size 15 to 20)
#    0.000    0.571    8.571    0.857    4.000    1.714 
#    0.000    0.714    0.000    0.000    0.000    0.000 
#    0.000    0.000    0.000    0.000    0.000    0.000 
#
# Total GULP energy -77973.994040 kJ/mol
# GULP energy per Si atom -5569.571003 kJ/mol
# Density = 2.124481 g / cm^3
# Si number density = 21.293273 Si / 1000 Ang^3
#
#
#
# Elastic Constant Matrix: (Units=GPa)
#
#
# Indices 1 2 3 4 5 6 
#
# 1 125.4163 40.1036 41.1951 -14.6046 3.5428 38.5532
# 2 40.1036 96.0000 37.9098 -42.2374 3.2032 33.2151
# 3 41.1951 37.9098 108.9733 -19.5991 6.5877 15.9375
# 4 -14.6046 -42.2374 -19.5991 42.5594 8.5264 -7.5833
# 5 3.5428 3.2032 6.5877 8.5264 39.8778 -7.5575
# 6 38.5532 33.2151 15.9375 -7.5833 -7.5575 29.4501
#
#
#
# Elastic Compliance Matrix: (Units=1/GPa)
#
#
# Indices 1 2 3 4 5 6 
#
# 1 0.017176 0.010662 -0.002690 0.011517 -0.010619 -0.032814
# 2 0.010662 0.050912 -0.002131 0.047035 -0.027072 -0.065061
# 3 -0.002690 -0.002131 0.011572 0.002681 -0.002111 -0.000190
# 4 0.011517 0.047035 0.002681 0.071132 -0.031710 -0.059398
# 5 -0.010619 -0.027072 -0.002111 -0.031710 0.044581 0.048852
# 6 -0.032814 -0.065061 -0.000190 -0.059398 0.048852 0.147635
#
#
# Mechanical properties :
#
#
# Convention : Reuss Voigt Hill
#
# Bulk Modulus (GPa) = 10.94774 63.20073 37.07423
# Shear Modulus (GPa) = 13.82081 36.45620 25.13851
#
# Velocity S-wave (km/s) = 2.55045 4.14224 3.43969
# Velocity P-wave (km/s) = 3.71828 7.25418 5.76406
#
# Compressibility (1/GPa) = 0.09134309
#
# Stress axis : x y z
#
# Youngs Moduli (GPa) = 58.22153 19.64167 86.41567
#
# Poissons Ratio (x) = -0.20942 0.23242
# Poissons Ratio (y) = -0.62075 0.18412
# Poissons Ratio (z) = 0.15659 0.04185
#
# Static dielectric constant tensor:
#      x y z
#    x 1.797300 0.129550 -0.054030 
#    y 0.129550 1.630250 0.080290 
#    z -0.054030 0.080290 1.821000 
# 
# From -- ./inp_files/591126.got.cif
#   From: 2010.05.17/outbox.cif.g08.bks.cpg/sg2_296_cif.got.tgz:591126.got - 2010.06.03 11:33:40.
