data_PCOD9053256
_publ_section_title
;
Structure prediction by ZEFSAII (Michael W. Deem and Ramdas Pophale) SiO2 
 PCOD9053256
Probable space group: P -1
;
_chemical_formula_sum "Si O2"
_cell_formula_units_Z 16
_cell_length_a 27.148443
_cell_length_b 12.782021
_cell_length_c 8.899424
_cell_angle_alpha 145.644294
_cell_angle_beta 41.390354
_cell_angle_gamma 154.278076
_cell_volume 756.102080
_symmetry_space_group_name_H-M "P -1"
_symmetry_group_IT_number 2
_symmetry_cell_setting 'triclinic'
loop_
_space_group_symop_operation_xyz
x,y,z
-x,-y,-z
loop_
_atom_site_type_symbol
_atom_site_label
_atom_site_fract_x
_atom_site_fract_y
_atom_site_fract_z
Si Si1 0.959529 0.254040 0.896156
Si Si2 0.447302 0.707257 0.578799
Si Si3 0.413552 0.326133 0.634012
Si Si4 0.232769 0.370478 0.469826
Si Si5 0.056229 0.265417 0.959225
Si Si6 0.128310 0.364283 0.437441
Si Si7 0.793408 0.335490 0.642691
Si Si8 0.632145 0.364488 0.983949
O O1 0.000389 0.322863 0.054907
O O2 0.037473 0.240324 0.627622
O O3 0.833592 0.944349 0.788461
O O4 0.000000 0.500000 0.000000
O O5 0.515783 0.641175 0.355552
O O6 0.353292 0.551723 0.482419
O O7 0.392996 0.627528 0.775391
O O8 0.534163 0.042400 0.768999
O O9 0.500000 0.500000 0.500000
O O10 0.366665 0.446730 0.892804
O O11 0.306719 0.986298 0.455049
O O12 0.160239 0.353039 0.739435
O O13 0.229434 0.473705 0.440613
O O14 0.111633 0.457211 0.206212
O O15 0.950615 0.926900 0.822277
O O16 0.155329 0.603327 0.566684
O O17 0.741429 0.439212 0.837252
#
# Coordination Sequence:
#
# PCOD9053256 Si02
#       8
#     2   2   2   2   2   2   2   2
#     4   9  19  36  53  80 113 137 180 225 257 320
#     4   9  16  32  56  76 103 138 183 221 264 310
#     4   9  20  33  50  84 112 132 184 228 260 321
#     4   9  17  34  56  76 101 147 183 210 266 327
#     4   9  18  34  57  78 103 146 184 207 262 331
#     4   9  20  36  53  78 112 141 177 220 266 324
#     4  11  19  35  58  80 112 145 171 224 280 308
#     4   9  18  32  51  81 107 135 176 230 264 311
#
# _framework density 21.161162999999998
#
# number of rings (size 3 to 8) (size 9 to 14) (size 15 to 20)
#    0.000    2.750    1.250    2.625    0.000    2.000 
#    6.750    3.125    0.000    1.500    0.000    0.000 
#    0.000    0.000    0.000    0.000    0.000    0.000 
#
# Total GULP energy -89074.635377 kJ/mol
# GULP energy per Si atom -5567.164711 kJ/mol
# Density = 2.111300 g / cm^3
# Si number density = 21.161163 Si / 1000 Ang^3
#
#
#
# Elastic Constant Matrix: (Units=GPa)
#
#
# Indices 1 2 3 4 5 6 
#
# 1 166.7914 64.5514 53.1093 51.0245 15.1943 13.8546
# 2 64.5514 76.7393 17.9550 22.4822 17.4760 -4.2061
# 3 53.1093 17.9550 35.8950 14.1265 -1.0347 0.0337
# 4 51.0245 22.4822 14.1265 25.7641 5.2919 0.1768
# 5 15.1943 17.4760 -1.0347 5.2919 37.0166 11.5125
# 6 13.8546 -4.2061 0.0337 0.1768 11.5125 42.8617
#
#
#
# Elastic Compliance Matrix: (Units=1/GPa)
#
#
# Indices 1 2 3 4 5 6 
#
# 1 0.029256 -0.008560 -0.024466 -0.036938 -0.000242 -0.010060
# 2 -0.008560 0.023010 0.001755 -0.002224 -0.009327 0.007538
# 3 -0.024466 0.001755 0.058008 0.013639 0.006988 0.006102
# 4 -0.036938 -0.002224 0.013639 0.106837 -0.002385 0.011910
# 5 -0.000242 -0.009327 0.006988 -0.002385 0.035258 -0.010303
# 6 -0.010060 0.007538 0.006102 0.011910 -0.010303 0.030036
#
#
# Mechanical properties :
#
#
# Convention : Reuss Voigt Hill
#
# Bulk Modulus (GPa) = 20.94998 61.18411 41.06705
# Shear Modulus (GPa) = 13.85585 30.71582 22.28583
#
# Velocity S-wave (km/s) = 2.56164 3.81401 3.24874
# Velocity P-wave (km/s) = 4.32100 6.95498 5.78977
#
# Compressibility (1/GPa) = 0.04773273
#
# Stress axis : x y z
#
# Youngs Moduli (GPa) = 34.18065 43.45952 17.23892
#
# Poissons Ratio (x) = 0.37202 0.42176
# Poissons Ratio (y) = 0.29259 -0.03026
# Poissons Ratio (z) = 0.83626 -0.07627
#
# Static dielectric constant tensor:
#      x y z
#    x 1.758610 -0.023470 -0.009630 
#    y -0.023470 2.407610 -0.589190 
#    z -0.009630 -0.589190 2.241240 
# 
# From -- ./inp_files/273298.got.cif
#   From: 2010.05.17/outbox.cif.g08.bks.cpg/sg2_137_cif.got.tgz:273298.got - 2010.06.03 11:33:40.
