data_PCOD9053809
_publ_section_title
;
Structure prediction by ZEFSAII (Michael W. Deem and Ramdas Pophale) SiO2 
 PCOD9053809
Probable space group: P -1
;
_chemical_formula_sum "Si O2"
_cell_formula_units_Z 14
_cell_length_a 7.597910
_cell_length_b 16.619181
_cell_length_c 9.822397
_cell_angle_alpha 30.630984
_cell_angle_beta 77.471037
_cell_angle_gamma 80.545324
_cell_volume 616.259008
_symmetry_space_group_name_H-M "P -1"
_symmetry_group_IT_number 2
_symmetry_cell_setting 'triclinic'
loop_
_space_group_symop_operation_xyz
x,y,z
-x,-y,-z
loop_
_atom_site_type_symbol
_atom_site_label
_atom_site_fract_x
_atom_site_fract_y
_atom_site_fract_z
Si Si1 0.134473 0.310719 0.225858
Si Si2 0.665571 0.076135 0.681681
Si Si3 0.995121 0.853188 0.972732
Si Si4 0.631188 0.970954 0.395760
Si Si5 0.881544 0.231413 0.636530
Si Si6 0.683766 0.416843 0.053635
Si Si7 0.996769 0.426085 0.808329
O O1 0.014965 0.236226 0.476745
O O2 0.309589 0.208491 0.344389
O O3 0.184178 0.489977 0.998204
O O4 0.051500 0.310445 0.091059
O O5 0.700371 0.149990 0.719565
O O6 0.680905 0.232601 0.356130
O O7 0.475609 0.001418 0.767511
O O8 0.822149 0.951610 0.819285
O O9 0.031084 0.855621 0.124573
O O10 0.972041 0.672897 0.187523
O O11 0.182005 0.925993 0.773157
O O12 0.500000 0.000000 0.500000
O O13 0.883416 0.412605 0.425814
O O14 0.500000 0.500000 0.000000
O O15 0.785117 0.453312 0.839692
#
# Coordination Sequence:
#
# PCOD9053809 Si02
#       7
#     2   2   2   2   2   2   2
#     4  11  21  40  71  98 126 172 234 268 327 402
#     4  12  23  43  71  96 134 179 218 272 333 394
#     4  12  27  45  66  99 144 173 217 278 342 396
#     4  12  26  40  67 105 135 172 223 278 337 393
#     4  11  23  45  69  98 129 182 226 267 334 402
#     4  11  20  37  66 100 127 167 225 280 318 387
#     4  11  22  43  72  95 129 180 221 277 335 387
#
# _framework density 22.717718999999999
#
# number of rings (size 3 to 8) (size 9 to 14) (size 15 to 20)
#    0.000    0.571    5.714    3.429    0.000    2.286 
#    0.000    0.000    0.000    3.429    0.000    0.000 
#    0.000    0.000    0.000    0.000    0.000    0.000 
#
# Total GULP energy -78151.670571 kJ/mol
# GULP energy per Si atom -5582.262184 kJ/mol
# Density = 2.266601 g / cm^3
# Si number density = 22.717719 Si / 1000 Ang^3
#
#
#
# Elastic Constant Matrix: (Units=GPa)
#
#
# Indices 1 2 3 4 5 6 
#
# 1 114.2841 23.3669 11.2570 -7.0496 27.7044 -4.5238
# 2 23.3669 125.1025 18.3272 -17.7407 9.5509 9.0443
# 3 11.2570 18.3272 46.6429 -0.9895 13.2568 -12.8436
# 4 -7.0496 -17.7407 -0.9895 44.1118 6.4722 4.1643
# 5 27.7044 9.5509 13.2568 6.4722 26.3427 -4.4034
# 6 -4.5238 9.0443 -12.8436 4.1643 -4.4034 31.5769
#
#
#
# Elastic Compliance Matrix: (Units=1/GPa)
#
#
# Indices 1 2 3 4 5 6 
#
# 1 0.012559 -0.000948 0.001619 0.003782 -0.014575 0.000198
# 2 -0.000948 0.010126 -0.004544 0.004744 -0.002533 -0.005863
# 3 0.001619 -0.004544 0.029803 -0.000105 -0.013047 0.011850
# 4 0.003782 0.004744 -0.000105 0.027771 -0.013539 -0.006410
# 5 -0.014575 -0.002533 -0.013047 -0.013539 0.064794 0.004152
# 6 0.000198 -0.005863 0.011850 -0.006410 0.004152 0.039621
#
#
# Mechanical properties :
#
#
# Convention : Reuss Voigt Hill
#
# Bulk Modulus (GPa) = 22.35055 43.54798 32.94926
# Shear Modulus (GPa) = 24.11554 35.94485 30.03019
#
# Velocity S-wave (km/s) = 3.26165 3.98205 3.63972
# Velocity P-wave (km/s) = 4.90349 6.35241 5.67438
#
# Compressibility (1/GPa) = 0.04474163
#
# Stress axis : x y z
#
# Youngs Moduli (GPa) = 79.62479 98.75269 33.55353
#
# Poissons Ratio (x) = 0.09364 -0.05432
# Poissons Ratio (y) = 0.07550 0.15247
# Poissons Ratio (z) = -0.12890 0.44873
#
# Static dielectric constant tensor:
#      x y z
#    x 1.947110 0.016910 -0.037350 
#    y 0.016910 1.849140 -0.014240 
#    z -0.037350 -0.014240 1.889530 
# 
# From -- ./inp_files/205001.got.cif
#   From: 2010.05.17/outbox.cif.g08.bks.cpg/sg2_103_cif.got.tgz:205001.got - 2010.06.03 11:33:40.
