data_PCOD9053013
_publ_section_title
;
Structure prediction by ZEFSAII (Michael W. Deem and Ramdas Pophale) SiO2 
 PCOD9053013
Probable space group: P -1
;
_chemical_formula_sum "Si O2"
_cell_formula_units_Z 12
_cell_length_a 10.284497
_cell_length_b 9.859242
_cell_length_c 18.039025
_cell_angle_alpha 136.311932
_cell_angle_beta 154.874126
_cell_angle_gamma 41.356379
_cell_volume 506.955314
_symmetry_space_group_name_H-M "P -1"
_symmetry_group_IT_number 2
_symmetry_cell_setting 'triclinic'
loop_
_space_group_symop_operation_xyz
x,y,z
-x,-y,-z
loop_
_atom_site_type_symbol
_atom_site_label
_atom_site_fract_x
_atom_site_fract_y
_atom_site_fract_z
Si Si1 0.601171 0.209731 0.660417
Si Si2 0.798848 0.004848 0.824555
Si Si3 0.343018 0.603718 0.883694
Si Si4 0.233625 0.530955 0.491026
Si Si5 0.260929 0.817446 0.493116
Si Si6 0.235795 0.166240 0.879004
O O1 0.354265 0.429931 0.593200
O O2 0.923407 0.211569 0.786473
O O3 0.500000 0.000000 0.500000
O O4 0.690655 0.192378 0.785599
O O5 0.463021 0.973080 0.660198
O O6 0.054366 0.820979 0.836274
O O7 0.000000 0.000000 0.000000
O O8 0.133057 0.464251 0.695336
O O9 0.500000 0.500000 0.000000
O O10 0.608808 0.657122 0.992359
O O11 0.237588 0.737300 0.532383
O O12 0.482125 0.363037 0.496694
O O13 0.919842 0.881343 0.298053
O O14 0.500000 0.000000 0.000000
#
# Coordination Sequence:
#
# PCOD9053013 Si02
#       6
#     2   2   2   2   2   2
#     4  11  18  34  58  83 108 153 195 233 268 341
#     4  11  23  39  56  83 119 154 185 228 292 345
#     4  11  20  33  59  88 112 142 190 242 276 326
#     4   9  17  31  54  82 107 140 197 229 272 322
#     4   9  18  32  53  79 111 149 181 234 274 336
#     4  11  18  29  56  90 110 134 194 242 274 311
#
# _framework density 23.670725000000001
#
# number of rings (size 3 to 8) (size 9 to 14) (size 15 to 20)
#    0.000    1.667    8.333    0.000    2.333    0.000 
#    0.000    1.667    0.000    1.000    0.000    0.000 
#    0.000    0.000    0.000    0.000    0.000    0.000 
#
# Total GULP energy -66833.700807 kJ/mol
# GULP energy per Si atom -5569.475067 kJ/mol
# Density = 2.361685 g / cm^3
# Si number density = 23.670725 Si / 1000 Ang^3
#
#
#
# Elastic Constant Matrix: (Units=GPa)
#
#
# Indices 1 2 3 4 5 6 
#
# 1 88.9543 67.0271 43.2921 10.8108 16.0753 36.0401
# 2 67.0271 129.8377 75.2433 -19.1225 -2.2935 67.1295
# 3 43.2921 75.2433 154.6415 -15.9191 23.0227 39.8451
# 4 10.8108 -19.1225 -15.9191 47.7996 20.5562 -1.0390
# 5 16.0753 -2.2935 23.0227 20.5562 43.1306 -1.4332
# 6 36.0401 67.1295 39.8451 -1.0390 -1.4332 71.7786
#
#
#
# Elastic Compliance Matrix: (Units=1/GPa)
#
#
# Indices 1 2 3 4 5 6 
#
# 1 0.023315 -0.013894 -0.000187 -0.008645 -0.005170 0.001162
# 2 -0.013894 0.027497 -0.004869 0.010603 0.003661 -0.015810
# 3 -0.000187 -0.004869 0.011231 0.005637 -0.008927 -0.001684
# 4 -0.008645 0.010603 0.005637 0.035970 -0.016650 -0.008516
# 5 -0.005170 0.003661 -0.008927 -0.016650 0.038162 0.004649
# 6 0.001162 -0.015810 -0.001684 -0.008516 0.004649 0.029038
#
#
# Mechanical properties :
#
#
# Convention : Reuss Voigt Hill
#
# Bulk Modulus (GPa) = 41.41792 82.72873 62.07332
# Shear Modulus (GPa) = 23.67862 45.06649 34.37255
#
# Velocity S-wave (km/s) = 3.16624 4.36809 3.81479
# Velocity P-wave (km/s) = 5.55898 7.77599 6.75900
#
# Compressibility (1/GPa) = 0.02414414
#
# Stress axis : x y z
#
# Youngs Moduli (GPa) = 42.88995 36.36805 89.03756
#
# Poissons Ratio (x) = 0.50528 0.01662
# Poissons Ratio (y) = 0.59590 0.43356
# Poissons Ratio (z) = 0.00801 0.17709
#
# Static dielectric constant tensor:
#      x y z
#    x 1.978100 -0.158410 0.034420 
#    y -0.158410 1.855890 0.201890 
#    z 0.034420 0.201890 1.585670 
# 
# From -- ./inp_files/150635.got.cif
#   From: 2010.05.17/outbox.cif.g08.bks.cpg/sg2_76_cif.got.tgz:150635.got - 2010.06.03 11:33:40.
