data_PCOD9053719
_publ_section_title
;
Structure prediction by ZEFSAII (Michael W. Deem and Ramdas Pophale) SiO2 
 PCOD9053719
Probable space group: P -1
;
_chemical_formula_sum "Si O2"
_cell_formula_units_Z 14
_cell_length_a 7.962766
_cell_length_b 13.955133
_cell_length_c 10.358350
_cell_angle_alpha 126.574252
_cell_angle_beta 75.947685
_cell_angle_gamma 62.738638
_cell_volume 568.148205
_symmetry_space_group_name_H-M "P -1"
_symmetry_group_IT_number 2
_symmetry_cell_setting 'triclinic'
loop_
_space_group_symop_operation_xyz
x,y,z
-x,-y,-z
loop_
_atom_site_type_symbol
_atom_site_label
_atom_site_fract_x
_atom_site_fract_y
_atom_site_fract_z
Si Si1 0.826328 0.804408 0.144713
Si Si2 0.742753 0.830787 0.580726
Si Si3 0.724964 0.605459 0.928761
Si Si4 0.341801 0.302862 0.277893
Si Si5 0.903028 0.970363 0.820544
Si Si6 0.899432 0.138477 0.742450
Si Si7 0.186564 0.632381 0.681312
O O1 0.969141 0.800702 0.231006
O O2 0.532748 0.017119 0.330456
O O3 0.769807 0.693227 0.086685
O O4 0.047192 0.699584 0.901467
O O5 0.680344 0.794428 0.697872
O O6 0.807229 0.930953 0.692915
O O7 0.011188 0.620497 0.308091
O O8 0.707267 0.680003 0.851921
O O9 0.433500 0.691365 0.061543
O O10 0.178420 0.504286 0.518797
O O11 0.664421 0.157098 0.098118
O O12 0.045880 0.804890 0.757028
O O13 0.023493 0.013912 0.751091
O O14 0.000000 0.000000 0.500000
O O15 0.500000 0.500000 0.500000
#
# Coordination Sequence:
#
# PCOD9053719 Si02
#       7
#     2   2   2   2   2   2   2
#     4  12  25  43  71 102 138 181 228 283 347 419
#     4  12  21  39  69 104 140 179 222 271 349 423
#     4  11  23  44  70 101 137 187 226 275 347 415
#     4  11  20  36  63 102 147 179 207 267 347 421
#     4  11  23  40  68 100 142 183 220 277 344 403
#     4  11  28  52  71  94 137 186 240 299 341 388
#     4  12  24  36  65 109 150 182 218 272 348 431
#
# _framework density 24.641459000000001
#
# number of rings (size 3 to 8) (size 9 to 14) (size 15 to 20)
#    0.000    0.571    7.143    3.429    2.000    1.714 
#    0.000    1.429    0.000    0.000    0.000    0.000 
#    0.000    0.000    0.000    0.000    0.000    0.000 
#
# Total GULP energy -78262.805154 kJ/mol
# GULP energy per Si atom -5590.200368 kJ/mol
# Density = 2.458537 g / cm^3
# Si number density = 24.641459 Si / 1000 Ang^3
#
#
#
# Elastic Constant Matrix: (Units=GPa)
#
#
# Indices 1 2 3 4 5 6 
#
# 1 153.0947 -5.5272 37.2876 4.1427 12.0823 -6.7506
# 2 -5.5272 75.1921 18.7528 9.1216 -1.2598 9.2733
# 3 37.2876 18.7528 143.9208 30.4468 -2.6911 -19.9535
# 4 4.1427 9.1216 30.4468 29.2087 -0.6814 0.2775
# 5 12.0823 -1.2598 -2.6911 -0.6814 51.9578 7.1869
# 6 -6.7506 9.2733 -19.9535 0.2775 7.1869 23.5088
#
#
#
# Elastic Compliance Matrix: (Units=1/GPa)
#
#
# Indices 1 2 3 4 5 6 
#
# 1 0.007226 0.000871 -0.002145 0.000892 -0.001822 0.000457
# 2 0.000871 0.015439 -0.003098 -0.001603 0.001210 -0.008821
# 3 -0.002145 -0.003098 0.011757 -0.011101 -0.000622 0.010906
# 4 0.000892 -0.001603 -0.011101 0.046297 0.001088 -0.009413
# 5 -0.001822 0.001210 -0.000622 0.001088 0.020773 -0.007891
# 6 0.000457 -0.008821 0.010906 -0.009413 -0.007891 0.057928
#
#
# Mechanical properties :
#
#
# Convention : Reuss Voigt Hill
#
# Bulk Modulus (GPa) = 38.94707 52.58154 45.76430
# Shear Modulus (GPa) = 28.29288 42.38134 35.33711
#
# Velocity S-wave (km/s) = 3.39216 4.15169 3.79099
# Velocity P-wave (km/s) = 5.58410 6.66086 6.14610
#
# Compressibility (1/GPa) = 0.02567587
#
# Stress axis : x y z
#
# Youngs Moduli (GPa) = 138.39766 64.77250 85.05828
#
# Poissons Ratio (x) = -0.05641 0.18245
# Poissons Ratio (y) = -0.12054 0.26355
# Poissons Ratio (z) = 0.29686 0.20070
#
# Static dielectric constant tensor:
#      x y z
#    x 2.187250 -0.126710 -0.099200 
#    y -0.126710 2.032310 0.088340 
#    z -0.099200 0.088340 2.045590 
# 
# From -- ./inp_files/397734.got.cif
#   From: 2010.05.17/outbox.cif.g08.bks.cpg/sg2_199_cif.got.tgz:397734.got - 2010.06.03 11:33:40.
