data_PCOD9053887
_publ_section_title
;
Structure prediction by ZEFSAII (Michael W. Deem and Ramdas Pophale) SiO2 
 PCOD9053887
Probable space group: P -1
;
_chemical_formula_sum "Si O2"
_cell_formula_units_Z 14
_cell_length_a 9.211262
_cell_length_b 13.780729
_cell_length_c 17.352962
_cell_angle_alpha 157.674973
_cell_angle_beta 118.712653
_cell_angle_gamma 73.965350
_cell_volume 633.470776
_symmetry_space_group_name_H-M "P -1"
_symmetry_group_IT_number 2
_symmetry_cell_setting 'triclinic'
loop_
_space_group_symop_operation_xyz
x,y,z
-x,-y,-z
loop_
_atom_site_type_symbol
_atom_site_label
_atom_site_fract_x
_atom_site_fract_y
_atom_site_fract_z
Si Si1 0.611846 0.830396 0.738284
Si Si2 0.271610 0.880233 0.866178
Si Si3 0.131885 0.172041 0.916297
Si Si4 0.251044 0.311286 0.483564
Si Si5 0.481856 0.277083 0.017549
Si Si6 0.946656 0.347291 0.789791
Si Si7 0.702974 0.646517 0.202879
O O1 0.500000 0.500000 0.500000
O O2 0.702426 0.836555 0.683958
O O3 0.755894 0.028362 0.987958
O O4 0.474216 0.966936 0.795149
O O5 0.186745 0.529197 0.588372
O O6 0.203735 0.038136 0.904141
O O7 0.500000 0.000000 0.000000
O O8 0.265871 0.210063 0.905352
O O9 0.139707 0.482116 0.155490
O O10 0.909456 0.926826 0.676345
O O11 0.434244 0.520373 0.735917
O O12 0.638154 0.463289 0.130567
O O13 0.137944 0.392035 0.830252
O O14 0.795525 0.997554 0.498031
O O15 0.000000 0.500000 0.000000
O O16 0.500000 0.500000 0.000000
#
# Coordination Sequence:
#
# PCOD9053887 Si02
#       7
#     2   2   2   2   2   2   2
#     4  11  20  38  66  91 131 176 221 272 326 402
#     4  11  21  42  62  96 139 173 225 275 330 407
#     4  12  23  41  70  96 132 184 219 279 346 397
#     4  11  23  41  65  95 136 178 227 275 333 406
#     4  11  24  43  65  96 136 173 226 277 340 408
#     4  11  26  48  72 105 140 173 237 292 346 418
#     4  11  26  48  73 101 137 181 228 294 355 414
#
# _framework density 22.100467999999999
#
# number of rings (size 3 to 8) (size 9 to 14) (size 15 to 20)
#    0.000    0.857    4.286    3.000    0.000    7.429 
#    0.000    8.571    0.000    0.000    0.000    0.000 
#    0.000    0.000    0.000    0.000    0.000    0.000 
#
# Total GULP energy -78199.590876 kJ/mol
# GULP energy per Si atom -5585.685063 kJ/mol
# Density = 2.205017 g / cm^3
# Si number density = 22.100468 Si / 1000 Ang^3
#
#
#
# Elastic Constant Matrix: (Units=GPa)
#
#
# Indices 1 2 3 4 5 6 
#
# 1 130.2121 31.9317 79.3039 15.8717 -2.1811 14.4294
# 2 31.9317 67.9241 25.7036 18.6279 -13.6543 1.9837
# 3 79.3039 25.7036 110.8605 25.0442 -14.0595 7.5904
# 4 15.8717 18.6279 25.0442 48.7340 7.3144 -7.0130
# 5 -2.1811 -13.6543 -14.0595 7.3144 40.8958 8.8618
# 6 14.4294 1.9837 7.5904 -7.0130 8.8618 38.3666
#
#
#
# Elastic Compliance Matrix: (Units=1/GPa)
#
#
# Indices 1 2 3 4 5 6 
#
# 1 0.015273 -0.004723 -0.010968 0.002924 -0.004685 -0.001713
# 2 -0.004723 0.020870 0.002260 -0.009662 0.010053 -0.003838
# 3 -0.010968 0.002260 0.019989 -0.009568 0.009601 -0.003913
# 4 0.002924 -0.009662 -0.009568 0.031824 -0.014308 0.010415
# 5 -0.004685 0.010053 0.009601 -0.014308 0.035926 -0.011571
# 6 -0.001713 -0.003838 -0.003913 0.010415 -0.011571 0.032258
#
#
# Mechanical properties :
#
#
# Convention : Reuss Voigt Hill
#
# Bulk Modulus (GPa) = 34.16372 64.76390 49.46381
# Shear Modulus (GPa) = 25.93939 37.06978 31.50459
#
# Velocity S-wave (km/s) = 3.42965 4.09997 3.77970
# Velocity P-wave (km/s) = 5.58348 7.19589 6.44035
#
# Compressibility (1/GPa) = 0.02927082
#
# Stress axis : x y z
#
# Youngs Moduli (GPa) = 65.47661 47.91556 50.02741
#
# Poissons Ratio (x) = 0.22631 0.54868
# Poissons Ratio (y) = 0.30925 -0.11307
# Poissons Ratio (z) = 0.71812 -0.10830
#
# Static dielectric constant tensor:
#      x y z
#    x 1.823700 0.022000 0.017670 
#    y 0.022000 1.901410 -0.025700 
#    z 0.017670 -0.025700 1.812680 
# 
# From -- ./inp_files/561271.got.cif
#   From: 2010.05.17/outbox.cif.g08.bks.cpg/sg2_281_cif.got.tgz:561271.got - 2010.06.03 11:33:40.
