data_PCOD9053332
_publ_section_title
;
Structure prediction by ZEFSAII (Michael W. Deem and Ramdas Pophale) SiO2 
 PCOD9053332
Probable space group: P -1
;
_chemical_formula_sum "Si O2"
_cell_formula_units_Z 14
_cell_length_a 15.541788
_cell_length_b 8.526655
_cell_length_c 10.305598
_cell_angle_alpha 87.121495
_cell_angle_beta 85.841902
_cell_angle_gamma 148.483293
_cell_volume 695.400190
_symmetry_space_group_name_H-M "P -1"
_symmetry_group_IT_number 2
_symmetry_cell_setting 'triclinic'
loop_
_space_group_symop_operation_xyz
x,y,z
-x,-y,-z
loop_
_atom_site_type_symbol
_atom_site_label
_atom_site_fract_x
_atom_site_fract_y
_atom_site_fract_z
Si Si1 0.502583 0.426548 0.858608
Si Si2 0.987871 0.760802 0.592036
Si Si3 0.856367 0.863280 0.693838
Si Si4 0.927558 0.418383 0.801309
Si Si5 0.659430 0.149229 0.023867
Si Si6 0.189265 0.076514 0.805852
Si Si7 0.007942 0.202754 0.909415
O O1 0.683511 0.671923 0.767474
O O2 0.386649 0.360113 0.788951
O O3 0.500000 0.500000 0.000000
O O4 0.412960 0.116758 0.886202
O O5 0.938297 0.507016 0.651288
O O6 0.845832 0.670050 0.644612
O O7 0.052705 0.890451 0.435918
O O8 0.137086 0.039402 0.666971
O O9 0.973105 0.033938 0.801016
O O10 0.942675 0.263745 0.847867
O O11 0.763328 0.241370 0.887721
O O12 0.087445 0.751231 0.839338
O O13 0.801386 0.467852 0.076021
O O14 0.500000 0.000000 0.000000
O O15 0.113738 0.034056 0.947608
#
# Coordination Sequence:
#
# PCOD9053332 Si02
#       7
#     2   2   2   2   2   2   2
#     4  12  21  35  57  90 115 140 190 238 278 323
#     4   9  22  39  55  80 117 157 183 220 285 345
#     4  11  23  37  57  86 115 151 184 232 279 336
#     4   9  17  38  57  78 109 151 182 225 277 332
#     4  11  20  33  56  87 111 142 185 239 281 320
#     4   9  18  36  57  80 111 147 181 230 275 329
#     4  11  19  37  60  82 111 146 191 231 276 331
#
# _framework density 20.132292
#
# number of rings (size 3 to 8) (size 9 to 14) (size 15 to 20)
#    0.857    0.857    4.286    1.714    0.000    2.857 
#    0.000    0.000    0.000    7.714    0.000    0.000 
#    0.000    0.000    0.000    0.000    0.000    0.000 
#
# Total GULP energy -77940.128921 kJ/mol
# GULP energy per Si atom -5567.152066 kJ/mol
# Density = 2.008647 g / cm^3
# Si number density = 20.132292 Si / 1000 Ang^3
#
#
#
# Elastic Constant Matrix: (Units=GPa)
#
#
# Indices 1 2 3 4 5 6 
#
# 1 83.9984 22.3520 39.0925 -9.9571 1.5371 27.4594
# 2 22.3520 70.2721 28.4591 -8.5019 -12.8782 25.4704
# 3 39.0925 28.4591 124.4651 -5.8050 5.1977 14.0273
# 4 -9.9571 -8.5019 -5.8050 18.9303 2.2641 0.7225
# 5 1.5371 -12.8782 5.1977 2.2641 34.2832 -4.9494
# 6 27.4594 25.4704 14.0273 0.7225 -4.9494 36.8900
#
#
#
# Elastic Compliance Matrix: (Units=1/GPa)
#
#
# Indices 1 2 3 4 5 6 
#
# 1 0.019507 0.001630 -0.004268 0.010528 -0.002411 -0.014552
# 2 0.001630 0.023095 -0.003908 0.009841 0.006378 -0.015010
# 3 -0.004268 -0.003908 0.010154 -0.000648 -0.002530 0.001688
# 4 0.010528 0.009841 -0.000648 0.063579 -0.003194 -0.016058
# 5 -0.002411 0.006378 -0.002530 -0.003194 0.032671 0.002799
# 6 -0.014552 -0.015010 0.001688 -0.016058 0.002799 0.048351
#
#
# Mechanical properties :
#
#
# Convention : Reuss Voigt Hill
#
# Bulk Modulus (GPa) = 25.21249 50.94919 38.08084
# Shear Modulus (GPa) = 22.35444 30.60950 26.48197
#
# Velocity S-wave (km/s) = 3.33585 3.90348 3.63078
# Velocity P-wave (km/s) = 5.23333 6.75858 6.04426
#
# Compressibility (1/GPa) = 0.03966288
#
# Stress axis : x y z
#
# Youngs Moduli (GPa) = 51.26448 43.30033 98.48669
#
# Poissons Ratio (x) = -0.07058 0.42031
# Poissons Ratio (y) = -0.08356 0.38492
# Poissons Ratio (z) = 0.21878 0.16923
#
# Static dielectric constant tensor:
#      x y z
#    x 1.809700 -0.017350 -0.025040 
#    y -0.017350 1.732400 0.010060 
#    z -0.025040 0.010060 1.706520 
# 
# From -- ./inp_files/248824.got.cif
#   From: 2010.05.17/outbox.cif.g08.bks.cpg/sg2_125_cif.got.tgz:248824.got - 2010.06.03 11:33:40.
