data_PCOD9053322
_publ_section_title
;
Structure prediction by ZEFSAII (Michael W. Deem and Ramdas Pophale) SiO2 
 PCOD9053322
Probable space group: P -1
;
_chemical_formula_sum "Si O2"
_cell_formula_units_Z 16
_cell_length_a 16.086511
_cell_length_b 18.145958
_cell_length_c 9.575553
_cell_angle_alpha 43.407593
_cell_angle_beta 32.925528
_cell_angle_gamma 24.524806
_cell_volume 622.026856
_symmetry_space_group_name_H-M "P -1"
_symmetry_group_IT_number 2
_symmetry_cell_setting 'triclinic'
loop_
_space_group_symop_operation_xyz
x,y,z
-x,-y,-z
loop_
_atom_site_type_symbol
_atom_site_label
_atom_site_fract_x
_atom_site_fract_y
_atom_site_fract_z
Si Si1 0.693151 0.279552 0.391275
Si Si2 0.216532 0.607818 0.433567
Si Si3 0.844687 0.564300 0.407515
Si Si4 0.576085 0.064321 0.466371
Si Si5 0.047453 0.037983 0.737626
Si Si6 0.602863 0.696655 0.030850
Si Si7 0.719183 0.785285 0.009407
Si Si8 0.788509 0.924493 0.068543
O O1 0.495560 0.428686 0.347623
O O2 0.521611 0.340137 0.680156
O O3 0.850349 0.092185 0.353611
O O4 0.920337 0.232662 0.173008
O O5 0.166528 0.555562 0.445000
O O6 0.183306 0.752438 0.257085
O O7 0.989266 0.696244 0.734993
O O8 0.601799 0.736657 0.603889
O O9 0.775260 0.668962 0.217388
O O10 0.117095 0.456168 0.225017
O O11 0.770595 0.926146 0.259082
O O12 0.728798 0.007308 0.467215
O O13 0.379446 0.078638 0.745949
O O14 0.000000 0.000000 0.000000
O O15 0.665743 0.735757 0.023240
O O16 0.374055 0.881640 0.015977
O O17 0.500000 0.000000 0.000000
#
# Coordination Sequence:
#
# PCOD9053322 Si02
#       8
#     2   2   2   2   2   2   2   2
#     4  12  23  47  69 104 141 173 231 287 343 411
#     4  11  22  39  71 107 135 170 222 299 343 394
#     4  11  20  40  71 105 134 171 237 289 333 406
#     4  11  23  47  66  97 138 181 238 275 333 422
#     4  12  25  46  73 102 132 177 236 291 341 397
#     4  11  21  40  64  98 138 179 223 279 344 406
#     4  11  19  36  71 105 133 175 226 291 342 389
#     4  11  26  43  67  94 144 193 218 275 351 410
#
# _framework density 25.722362
#
# number of rings (size 3 to 8) (size 9 to 14) (size 15 to 20)
#    0.000    0.750    5.000    4.875    0.000    1.000 
#    2.250    0.625    0.000    0.000    0.000    0.000 
#    0.000    0.000    0.000    0.000    0.000    0.000 
#
# Total GULP energy -89539.982148 kJ/mol
# GULP energy per Si atom -5596.248884 kJ/mol
# Density = 2.566382 g / cm^3
# Si number density = 25.722362 Si / 1000 Ang^3
#
#
#
# Elastic Constant Matrix: (Units=GPa)
#
#
# Indices 1 2 3 4 5 6 
#
# 1 43.0832 4.7182 20.6089 1.2811 -7.2867 -9.2906
# 2 4.7182 134.1750 29.3501 6.4569 -4.8034 -0.0127
# 3 20.6089 29.3501 95.2245 8.4586 -23.6135 -9.1183
# 4 1.2811 6.4569 8.4586 41.1039 -8.8178 -5.2647
# 5 -7.2867 -4.8034 -23.6135 -8.8178 26.2252 11.1264
# 6 -9.2906 -0.0127 -9.1183 -5.2647 11.1264 35.5278
#
#
#
# Elastic Compliance Matrix: (Units=1/GPa)
#
#
# Indices 1 2 3 4 5 6 
#
# 1 0.027026 0.000178 -0.005269 0.001103 0.000777 0.005635
# 2 0.000178 0.008057 -0.002747 -0.000998 -0.001088 -0.000463
# 3 -0.005269 -0.002747 0.015467 -0.000077 0.012501 -0.001335
# 4 0.001103 -0.000998 -0.000077 0.026445 0.008269 0.001598
# 5 0.000777 -0.001088 0.012501 0.008269 0.057911 -0.013500
# 6 0.005635 -0.000463 -0.001335 0.001598 -0.013500 0.033742
#
#
# Mechanical properties :
#
#
# Convention : Reuss Voigt Hill
#
# Bulk Modulus (GPa) = 28.67618 42.42636 35.55127
# Shear Modulus (GPa) = 25.51661 35.09175 30.30418
#
# Velocity S-wave (km/s) = 3.15302 3.69758 3.43611
# Velocity P-wave (km/s) = 4.94246 5.89570 5.44000
#
# Compressibility (1/GPa) = 0.03487215
#
# Stress axis : x y z
#
# Youngs Moduli (GPa) = 37.00156 124.12067 64.65200
#
# Poissons Ratio (x) = -0.02204 0.34068
# Poissons Ratio (y) = -0.00657 0.17760
# Poissons Ratio (z) = 0.19498 0.34097
#
# Static dielectric constant tensor:
#      x y z
#    x 2.059170 0.053110 0.054650 
#    y 0.053110 2.054330 0.006020 
#    z 0.054650 0.006020 2.147630 
# 
# From -- ./inp_files/467086.got.cif
#   From: 2010.05.17/outbox.cif.g08.bks.cpg/sg2_234_cif.got.tgz:467086.got - 2010.06.03 11:33:40.
