data_PCOD9053621
_publ_section_title
;
Structure prediction by ZEFSAII (Michael W. Deem and Ramdas Pophale) SiO2 
 PCOD9053621
Probable space group: P -1
;
_chemical_formula_sum "Si O2"
_cell_formula_units_Z 16
_cell_length_a 11.467061
_cell_length_b 12.063494
_cell_length_c 12.343016
_cell_angle_alpha 145.037711
_cell_angle_beta 95.979983
_cell_angle_gamma 100.864571
_cell_volume 853.387529
_symmetry_space_group_name_H-M "P -1"
_symmetry_group_IT_number 2
_symmetry_cell_setting 'triclinic'
loop_
_space_group_symop_operation_xyz
x,y,z
-x,-y,-z
loop_
_atom_site_type_symbol
_atom_site_label
_atom_site_fract_x
_atom_site_fract_y
_atom_site_fract_z
Si Si1 0.860160 0.288845 0.078065
Si Si2 0.699305 0.203049 0.204627
Si Si3 0.120270 0.367533 0.294616
Si Si4 0.969181 0.645003 0.198354
Si Si5 0.553500 0.447044 0.351670
Si Si6 0.851567 0.842862 0.661988
Si Si7 0.710044 0.783051 0.961824
Si Si8 0.096838 0.017159 0.661441
O O1 0.751869 0.254469 0.128702
O O2 0.875221 0.465929 0.132863
O O3 0.997118 0.365494 0.219701
O O4 0.835208 0.059907 0.840571
O O5 0.795322 0.396071 0.451306
O O6 0.568593 0.233389 0.213778
O O7 0.709464 0.989439 0.067739
O O8 0.083326 0.194403 0.251620
O O9 0.205779 0.308021 0.170841
O O10 0.092857 0.835415 0.431311
O O11 0.909882 0.785168 0.244823
O O12 0.000000 0.500000 0.000000
O O13 0.500000 0.500000 0.500000
O O14 0.701242 0.637655 0.485028
O O15 0.445396 0.398690 0.208751
O O16 0.958329 0.887054 0.613070
O O17 0.780822 0.872499 0.155063
#
# Coordination Sequence:
#
# PCOD9053621 Si02
#       8
#     2   2   2   2   2   2   2   2
#     4  12  20  36  61  93 118 158 200 255 299 354
#     4  11  22  34  59  89 125 163 199 233 301 367
#     4  11  20  34  57  91 129 155 190 248 293 356
#     4  11  22  40  62  88 119 147 209 257 306 349
#     4  11  22  39  56  88 131 169 192 237 292 364
#     4  11  20  36  60  87 125 161 195 232 304 356
#     4  12  21  39  61  89 128 159 201 239 298 360
#     4  11  24  39  63  91 115 160 198 260 301 343
#
# _framework density 18.748809000000001
#
# number of rings (size 3 to 8) (size 9 to 14) (size 15 to 20)
#    0.000    0.750    6.250    4.125    0.000    0.000 
#    0.000    0.000    0.000    7.500    0.000    0.000 
#    0.000    0.000    0.000    0.000    0.000    0.000 
#
# Total GULP energy -89302.385576 kJ/mol
# GULP energy per Si atom -5581.399099 kJ/mol
# Density = 1.870614 g / cm^3
# Si number density = 18.748809 Si / 1000 Ang^3
#
#
#
# Elastic Constant Matrix: (Units=GPa)
#
#
# Indices 1 2 3 4 5 6 
#
# 1 66.5904 17.8469 18.5581 -10.1464 -4.2698 2.4746
# 2 17.8469 99.4466 21.4713 -5.3606 15.0008 -5.5537
# 3 18.5581 21.4713 103.6365 -10.6574 -7.1745 9.2335
# 4 -10.1464 -5.3606 -10.6574 25.4155 -2.0741 -0.1378
# 5 -4.2698 15.0008 -7.1745 -2.0741 36.5902 -0.2879
# 6 2.4746 -5.5537 9.2335 -0.1378 -0.2879 0.3905
#
#
#
# Elastic Compliance Matrix: (Units=1/GPa)
#
#
# Indices 1 2 3 4 5 6 
#
# 1 0.015926 0.000297 -0.005442 0.004423 0.001191 0.034407
# 2 0.000297 0.004759 0.006038 0.003144 -0.001158 -0.076705
# 3 -0.005442 0.006038 0.001231 -0.000074 -0.002168 0.089607
# 4 0.004423 0.003144 -0.000074 0.042084 0.001871 0.034654
# 5 0.001191 -0.001158 -0.002168 0.001871 0.028006 0.048552
# 6 0.034407 -0.076705 0.089607 0.034654 0.048552 -0.818811
#
#
# Mechanical properties :
#
#
# Convention : Reuss Voigt Hill
#
# Bulk Modulus (GPa) = 42.18865 42.82511 42.50688
# Shear Modulus (GPa) = -6.93780 26.59906 9.83063
#
# Velocity S-wave (km/s) = -1.92573 3.77066 2.29232
# Velocity P-wave (km/s) = 4.19599 6.46902 5.45227
#
# Compressibility (1/GPa) = 0.02370306
#
# Stress axis : x y z
#
# Youngs Moduli (GPa) = 62.79165 210.12175 812.10228
#
# Poissons Ratio (x) = -0.06242 4.41914
# Poissons Ratio (y) = -0.01865 -4.90346
# Poissons Ratio (z) = 0.34169 -1.26871
#
# Static dielectric constant tensor:
#      x y z
#    x 1.653820 0.013990 0.015580 
#    y 0.013990 1.647290 0.013290 
#    z 0.015580 0.013290 1.721520 
# 
# From -- ./inp_files/426957.got.cif
#   From: 2010.05.17/outbox.cif.g08.bks.cpg/sg2_214_cif.got.tgz:426957.got - 2010.06.03 11:33:40.
