data_PCOD9053862
_publ_section_title
;
Structure prediction by ZEFSAII (Michael W. Deem and Ramdas Pophale) SiO2 
 PCOD9053862
Probable space group: P -1
;
_chemical_formula_sum "Si O2"
_cell_formula_units_Z 12
_cell_length_a 14.636866
_cell_length_b 11.436682
_cell_length_c 14.172289
_cell_angle_alpha 147.513357
_cell_angle_beta 149.941431
_cell_angle_gamma 30.535785
_cell_volume 557.147609
_symmetry_space_group_name_H-M "P -1"
_symmetry_group_IT_number 2
_symmetry_cell_setting 'triclinic'
loop_
_space_group_symop_operation_xyz
x,y,z
-x,-y,-z
loop_
_atom_site_type_symbol
_atom_site_label
_atom_site_fract_x
_atom_site_fract_y
_atom_site_fract_z
Si Si1 0.968556 0.770382 0.848526
Si Si2 0.806680 0.781350 0.528891
Si Si3 0.464619 0.350873 0.280641
Si Si4 0.423803 0.358199 0.906703
Si Si5 0.299752 0.957393 0.890343
Si Si6 0.926812 0.184001 0.832732
O O1 0.786195 0.794367 0.632842
O O2 0.194945 0.534137 0.867107
O O3 0.937899 0.780846 0.939634
O O4 0.000000 0.000000 0.000000
O O5 0.615249 0.819365 0.319762
O O6 0.000000 0.500000 0.500000
O O7 0.878049 0.972126 0.682881
O O8 0.500000 0.500000 0.500000
O O9 0.652569 0.186655 0.264409
O O10 0.283579 0.563121 0.200014
O O11 0.385803 0.155090 0.105343
O O12 0.500000 0.500000 0.000000
O O13 0.583895 0.233531 0.049789
O O14 0.057383 0.100118 0.796886
#
# Coordination Sequence:
#
# PCOD9053862 Si02
#       6
#     2   2   2   2   2   2
#     4   9  18  35  57  87 127 165 203 258 308 383
#     4   9  19  35  61  94 130 171 208 259 321 390
#     4  11  25  46  66  95 130 170 227 269 321 388
#     4  11  20  38  62  94 133 166 208 264 326 382
#     4  11  24  43  68  95 130 173 215 275 322 382
#     4  11  21  43  65  91 132 168 216 268 329 378
#
# _framework density 21.538278999999999
#
# number of rings (size 3 to 8) (size 9 to 14) (size 15 to 20)
#    0.000    1.667    1.667    4.500    0.000    0.667 
#    9.000    4.167    0.000    0.000    0.000    0.000 
#    0.000    0.000    0.000    0.000    0.000    0.000 
#
# Total GULP energy -66944.307643 kJ/mol
# GULP energy per Si atom -5578.692304 kJ/mol
# Density = 2.148926 g / cm^3
# Si number density = 21.538279 Si / 1000 Ang^3
#
#
#
# Elastic Constant Matrix: (Units=GPa)
#
#
# Indices 1 2 3 4 5 6 
#
# 1 108.5800 14.4155 36.2346 18.7109 -14.1065 -11.4622
# 2 14.4155 47.6272 -12.0835 20.5275 -2.5582 -1.9105
# 3 36.2346 -12.0835 85.7379 9.3710 -31.9440 -1.3346
# 4 18.7109 20.5275 9.3710 22.5519 1.5987 -0.1751
# 5 -14.1065 -2.5582 -31.9440 1.5987 32.9948 2.6989
# 6 -11.4622 -1.9105 -1.3346 -0.1751 2.6989 40.7011
#
#
#
# Elastic Compliance Matrix: (Units=1/GPa)
#
#
# Indices 1 2 3 4 5 6 
#
# 1 0.012592 -0.001438 -0.004153 -0.007484 0.001351 0.003221
# 2 -0.001438 0.061806 0.031065 -0.070635 0.037617 0.000717
# 3 -0.004153 0.031065 0.036770 -0.042842 0.038409 -0.001237
# 4 -0.007484 -0.070635 -0.042842 0.136639 -0.056571 -0.002489
# 5 0.001351 0.037617 0.038409 -0.056571 0.073871 -0.001736
# 6 0.003221 0.000717 -0.001237 -0.002489 -0.001736 0.025574
#
#
# Mechanical properties :
#
#
# Convention : Reuss Voigt Hill
#
# Bulk Modulus (GPa) = 6.16839 35.45315 20.81077
# Shear Modulus (GPa) = 14.27178 32.80813 23.53995
#
# Velocity S-wave (km/s) = 2.57694 3.90711 3.30954
# Velocity P-wave (km/s) = 3.42408 6.07045 4.92822
#
# Compressibility (1/GPa) = 0.16211674
#
# Stress axis : x y z
#
# Youngs Moduli (GPa) = 79.41834 16.17964 27.19579
#
# Poissons Ratio (x) = 0.02326 0.11294
# Poissons Ratio (y) = 0.11416 -0.84483
# Poissons Ratio (z) = 0.32981 -0.50261
#
# Static dielectric constant tensor:
#      x y z
#    x 1.786670 -0.021090 -0.059980 
#    y -0.021090 1.759050 0.009750 
#    z -0.059980 0.009750 1.849760 
# 
# From -- ./inp_files/172593.got.cif
#   From: 2010.05.17/outbox.cif.g08.bks.cpg/sg2_87_cif.got.tgz:172593.got - 2010.06.03 11:33:40.
