data_PCOD9053103
_publ_section_title
;
Structure prediction by ZEFSAII (Michael W. Deem and Ramdas Pophale) SiO2 
 PCOD9053103
Probable space group: P -1
;
_chemical_formula_sum "Si O2"
_cell_formula_units_Z 16
_cell_length_a 11.830157
_cell_length_b 13.264530
_cell_length_c 8.548268
_cell_angle_alpha 113.553572
_cell_angle_beta 40.623918
_cell_angle_gamma 130.709684
_cell_volume 649.546992
_symmetry_space_group_name_H-M "P -1"
_symmetry_group_IT_number 2
_symmetry_cell_setting 'triclinic'
loop_
_space_group_symop_operation_xyz
x,y,z
-x,-y,-z
loop_
_atom_site_type_symbol
_atom_site_label
_atom_site_fract_x
_atom_site_fract_y
_atom_site_fract_z
Si Si1 0.630574 0.656640 0.008839
Si Si2 0.073078 0.195887 0.451925
Si Si3 0.437140 0.377868 0.379884
Si Si4 0.862936 0.325727 0.190711
Si Si5 0.357618 0.773294 0.305053
Si Si6 0.151952 0.221905 0.827491
Si Si7 0.209449 0.999361 0.114770
Si Si8 0.180608 0.631753 0.088561
O O1 0.878615 0.750758 0.742605
O O2 0.500000 0.500000 0.000000
O O3 0.481631 0.702819 0.142924
O O4 0.682962 0.703084 0.160459
O O5 0.249476 0.340373 0.436156
O O6 0.169142 0.107112 0.288076
O O7 0.872901 0.109362 0.724276
O O8 0.500000 0.500000 0.500000
O O9 0.306720 0.242719 0.537660
O O10 0.638220 0.395012 0.105197
O O11 0.735768 0.244722 0.432860
O O12 0.958841 0.482753 0.219462
O O13 0.775066 0.299177 0.087379
O O14 0.049654 0.304667 0.966590
O O15 0.201897 0.707672 0.275088
O O16 0.547604 0.926497 0.148743
O O17 0.942791 0.070156 0.922042
#
# Coordination Sequence:
#
# PCOD9053103 Si02
#       8
#     2   2   2   2   2   2   2   2
#     4  11  21  38  65  99 127 157 213 276 327 372
#     4   9  19  36  61  93 126 159 206 268 323 376
#     4  11  18  36  66  90 122 154 214 273 312 374
#     4  11  25  42  61  94 135 170 214 263 330 398
#     4  11  23  45  65  92 131 175 212 265 328 389
#     4  11  23  38  61  98 126 166 212 270 318 379
#     4   9  20  40  62  86 129 166 220 258 312 389
#     4  11  22  43  65  93 128 174 212 266 335 388
#
# _framework density 24.632550999999999
#
# number of rings (size 3 to 8) (size 9 to 14) (size 15 to 20)
#    0.000    1.500    3.750    2.625    0.000    2.500 
#    9.000    0.625    0.000    0.000    0.000    0.000 
#    0.000    0.000    0.000    0.000    0.000    0.000 
#
# Total GULP energy -89078.147913 kJ/mol
# GULP energy per Si atom -5567.384245 kJ/mol
# Density = 2.457649 g / cm^3
# Si number density = 24.632551 Si / 1000 Ang^3
#
#
#
# Elastic Constant Matrix: (Units=GPa)
#
#
# Indices 1 2 3 4 5 6 
#
# 1 108.1926 20.4482 17.2829 5.2058 28.5169 21.8394
# 2 20.4482 86.1153 25.3523 1.7183 8.0437 23.6013
# 3 17.2829 25.3523 133.4955 -17.3050 31.0041 -10.3464
# 4 5.2058 1.7183 -17.3050 38.3620 -8.7915 6.3614
# 5 28.5169 8.0437 31.0041 -8.7915 39.5731 6.3556
# 6 21.8394 23.6013 -10.3464 6.3614 6.3556 32.9077
#
#
#
# Elastic Compliance Matrix: (Units=1/GPa)
#
#
# Indices 1 2 3 4 5 6 
#
# 1 0.013075 -0.000353 -0.000502 -0.002895 -0.008577 -0.006365
# 2 -0.000353 0.016630 -0.004846 0.000068 0.002901 -0.013790
# 3 -0.000502 -0.004846 0.011386 0.002039 -0.008508 0.008638
# 4 -0.002895 0.000068 0.002039 0.029988 0.007909 -0.004811
# 5 -0.008577 0.002901 -0.008508 0.007909 0.040639 -0.008441
# 6 -0.006365 -0.013790 0.008638 -0.004811 -0.008441 0.049778
#
#
# Mechanical properties :
#
#
# Convention : Reuss Voigt Hill
#
# Bulk Modulus (GPa) = 33.68421 50.44113 42.06267
# Shear Modulus (GPa) = 27.35315 39.81658 33.58487
#
# Velocity S-wave (km/s) = 3.33595 4.02484 3.69648
# Velocity P-wave (km/s) = 5.34252 6.49007 5.94405
#
# Compressibility (1/GPa) = 0.02968750
#
# Stress axis : x y z
#
# Youngs Moduli (GPa) = 76.48320 60.13304 87.82771
#
# Poissons Ratio (x) = 0.02124 0.04410
# Poissons Ratio (y) = 0.02702 0.42562
# Poissons Ratio (z) = 0.03841 0.29141
#
# Static dielectric constant tensor:
#      x y z
#    x 2.170480 -0.117970 0.079190 
#    y -0.117970 2.089290 -0.060150 
#    z 0.079190 -0.060150 2.036720 
# 
# From -- ./inp_files/273556.got.cif
#   From: 2010.05.17/outbox.cif.g08.bks.cpg/sg2_137_cif.got.tgz:273556.got - 2010.06.03 11:33:40.
