data_PCOD9053448
_publ_section_title
;
Structure prediction by ZEFSAII (Michael W. Deem and Ramdas Pophale) SiO2 
 PCOD9053448
Probable space group: P -1
;
_chemical_formula_sum "Si O2"
_cell_formula_units_Z 16
_cell_length_a 21.684006
_cell_length_b 9.771430
_cell_length_c 5.429091
_cell_angle_alpha 56.245486
_cell_angle_beta 120.047058
_cell_angle_gamma 124.222424
_cell_volume 760.609287
_symmetry_space_group_name_H-M "P -1"
_symmetry_group_IT_number 2
_symmetry_cell_setting 'triclinic'
loop_
_space_group_symop_operation_xyz
x,y,z
-x,-y,-z
loop_
_atom_site_type_symbol
_atom_site_label
_atom_site_fract_x
_atom_site_fract_y
_atom_site_fract_z
Si Si1 0.239388 0.545519 0.933274
Si Si2 0.222023 0.157672 0.786414
Si Si3 0.741431 0.825239 0.657587
Si Si4 0.936656 0.585428 0.287800
Si Si5 0.439320 0.295976 0.582721
Si Si6 0.322433 0.572344 0.572522
Si Si7 0.496871 0.192054 0.301745
Si Si8 0.060651 0.202480 0.418916
O O1 0.154567 0.548307 0.760856
O O2 0.287695 0.620226 0.704985
O O3 0.226306 0.333360 0.119287
O O4 0.287697 0.620229 0.205351
O O5 0.229405 0.065474 0.642274
O O6 0.292063 0.355604 0.728538
O O7 0.145024 0.195703 0.594398
O O8 0.229405 0.065475 0.144486
O O9 0.649191 0.727957 0.570408
O O10 0.947659 0.699765 0.446358
O O11 0.000000 0.500000 0.500000
O O12 0.947655 0.699655 0.944571
O O13 0.500000 0.500000 0.500000
O O14 0.455195 0.212484 0.446660
O O15 0.455178 0.212534 0.949250
O O16 0.414895 0.660736 0.669033
O O17 0.500000 0.000000 0.500000
O O18 0.000000 0.000000 0.500000
#
# Coordination Sequence:
#
# PCOD9053448 Si02
#       8
#     2   2   2   2   2   2   2   2
#     4  10  18  36  62  92 115 170 222 261 307 376
#     4  10  17  35  60  89 116 167 220 251 309 386
#     4  10  18  32  61  85 121 154 219 272 294 355
#     4  12  23  42  68 100 134 172 225 272 316 402
#     4  12  23  40  67 103 125 170 233 273 312 392
#     4  10  18  35  64  82 115 170 223 243 300 399
#     4  12  26  43  64  98 142 173 205 276 357 389
#     4  12  23  41  68  99 134 172 211 271 343 390
#
# _framework density 21.035768000000001
#
# number of rings (size 3 to 8) (size 9 to 14) (size 15 to 20)
#    0.000    1.000    5.000    6.000    0.000    0.000 
#    0.000    0.000   16.500    0.000    0.000    0.000 
#    0.000    0.000    0.000    0.000    0.000    0.000 
#
# Total GULP energy -89435.416108 kJ/mol
# GULP energy per Si atom -5589.713507 kJ/mol
# Density = 2.098789 g / cm^3
# Si number density = 21.035768 Si / 1000 Ang^3
#
#
#
# Elastic Constant Matrix: (Units=GPa)
#
#
# Indices 1 2 3 4 5 6 
#
# 1 147.1342 26.2018 78.0887 30.8838 -21.7018 -3.0476
# 2 26.2018 42.8140 8.8802 29.0904 0.3555 -16.3090
# 3 78.0887 8.8802 172.7345 13.5948 -41.2532 14.2028
# 4 30.8838 29.0904 13.5948 52.5176 0.2713 -25.0755
# 5 -21.7018 0.3555 -41.2532 0.2713 55.9321 11.1339
# 6 -3.0476 -16.3090 14.2028 -25.0755 11.1339 46.6379
#
#
#
# Elastic Compliance Matrix: (Units=1/GPa)
#
#
# Indices 1 2 3 4 5 6 
#
# 1 0.010479 -0.003613 -0.003556 -0.004348 0.001944 -0.002297
# 2 -0.003613 0.039137 -0.000020 -0.017251 -0.002534 0.004786
# 3 -0.003556 -0.000020 0.010121 -0.004042 0.007558 -0.007299
# 4 -0.004348 -0.017251 -0.004042 0.041431 -0.008589 0.019241
# 5 0.001944 -0.002534 0.007558 -0.008589 0.027081 -0.014144
# 6 -0.002297 0.004786 -0.007299 0.019241 -0.014144 0.038910
#
#
# Mechanical properties :
#
#
# Convention : Reuss Voigt Hill
#
# Bulk Modulus (GPa) = 22.04575 65.44715 43.74645
# Shear Modulus (GPa) = 25.42507 47.65163 36.53835
#
# Velocity S-wave (km/s) = 3.48035 4.76465 4.17221
# Velocity P-wave (km/s) = 5.16268 7.83894 6.63710
#
# Compressibility (1/GPa) = 0.04536021
#
# Stress axis : x y z
#
# Youngs Moduli (GPa) = 95.42900 25.55101 98.80346
#
# Poissons Ratio (x) = 0.09231 0.35136
# Poissons Ratio (y) = 0.34476 0.00196
# Poissons Ratio (z) = 0.33936 0.00051
#
# Static dielectric constant tensor:
#      x y z
#    x 2.096920 -0.233020 -0.595320 
#    y -0.233020 1.720620 0.180280 
#    z -0.595320 0.180280 2.396010 
# 
# From -- ./inp_files/118049.got.cif
#   From: 2010.05.17/outbox.cif.g08.bks.cpg/sg2_60_cif.got.tgz:118049.got - 2010.06.03 11:33:40.
