data_PCOD9053715
_publ_section_title
;
Structure prediction by ZEFSAII (Michael W. Deem and Ramdas Pophale) SiO2 
 PCOD9053715
Probable space group: P -1
;
_chemical_formula_sum "Si O2"
_cell_formula_units_Z 14
_cell_length_a 11.998163
_cell_length_b 5.277237
_cell_length_c 22.263379
_cell_angle_alpha 74.926652
_cell_angle_beta 149.535525
_cell_angle_gamma 119.935775
_cell_volume 571.061433
_symmetry_space_group_name_H-M "P -1"
_symmetry_group_IT_number 2
_symmetry_cell_setting 'triclinic'
loop_
_space_group_symop_operation_xyz
x,y,z
-x,-y,-z
loop_
_atom_site_type_symbol
_atom_site_label
_atom_site_fract_x
_atom_site_fract_y
_atom_site_fract_z
Si Si1 0.171428 0.268761 0.700974
Si Si2 0.934065 0.083683 0.028539
Si Si3 0.348577 0.030771 0.594483
Si Si4 0.501586 0.369368 0.443642
Si Si5 0.563047 0.268760 0.800076
Si Si6 0.036328 0.574582 0.714493
Si Si7 0.890343 0.175297 0.778546
O O1 0.427173 0.394476 0.770614
O O2 0.207208 0.486315 0.760170
O O3 0.933001 0.219106 0.551142
O O4 0.101763 0.922727 0.710882
O O5 0.192664 0.436946 0.140728
O O6 0.693540 0.123620 0.907700
O O7 0.923502 0.850024 0.087209
O O8 0.000000 0.000000 0.000000
O O9 0.398841 0.363077 0.576796
O O10 0.356558 0.022111 0.670474
O O11 0.610716 0.060674 0.688392
O O12 0.500000 0.500000 0.500000
O O13 0.736833 0.320069 0.565309
O O14 0.216000 0.084797 0.307581
O O15 0.026054 0.500505 0.784837
#
# Coordination Sequence:
#
# PCOD9053715 Si02
#       7
#     2   2   2   2   2   2   2
#     4  11  26  43  68 101 143 182 214 277 354 416
#     4  11  25  44  72  93 126 182 232 296 321 389
#     4  11  21  38  67 102 133 175 219 285 340 403
#     4  11  20  36  62 100 140 168 215 279 340 400
#     4  11  25  46  65  97 133 176 239 276 341 402
#     4  11  24  40  65 102 140 178 215 276 344 409
#     4  12  21  39  67 100 133 171 237 271 336 398
#
# _framework density 24.515753
#
# number of rings (size 3 to 8) (size 9 to 14) (size 15 to 20)
#    0.000    0.857    5.714    2.571    2.000    0.000 
#    0.000    4.286    0.000    0.000    0.000    0.000 
#    0.000    0.000    0.000    0.000    0.000    0.000 
#
# Total GULP energy -78355.062664 kJ/mol
# GULP energy per Si atom -5596.790190 kJ/mol
# Density = 2.445995 g / cm^3
# Si number density = 24.515753 Si / 1000 Ang^3
#
#
#
# Elastic Constant Matrix: (Units=GPa)
#
#
# Indices 1 2 3 4 5 6 
#
# 1 121.5247 10.4982 45.8531 -18.2671 14.7627 -20.0130
# 2 10.4982 65.7546 31.0693 -7.9714 -5.1511 3.1184
# 3 45.8531 31.0693 102.6280 -42.0974 -7.3786 8.2131
# 4 -18.2671 -7.9714 -42.0974 40.4802 1.9702 1.4018
# 5 14.7627 -5.1511 -7.3786 1.9702 38.8602 -3.7119
# 6 -20.0130 3.1184 8.2131 1.4018 -3.7119 36.2951
#
#
#
# Elastic Compliance Matrix: (Units=1/GPa)
#
#
# Indices 1 2 3 4 5 6 
#
# 1 0.012860 0.000601 -0.007968 -0.002392 -0.005396 0.008382
# 2 0.000601 0.018155 -0.007319 -0.003840 0.001048 0.000683
# 3 -0.007968 -0.007319 0.025526 0.021614 0.004864 -0.009878
# 4 -0.002392 -0.003840 0.021614 0.045533 0.001480 -0.007487
# 5 -0.005396 0.001048 0.004864 0.001480 0.028647 -0.001294
# 6 0.008382 0.000683 -0.009878 -0.007487 -0.001294 0.034507
#
#
# Mechanical properties :
#
#
# Convention : Reuss Voigt Hill
#
# Bulk Modulus (GPa) = 36.80668 51.63871 44.22269
# Shear Modulus (GPa) = 24.55144 36.62623 30.58884
#
# Velocity S-wave (km/s) = 3.16801 3.86941 3.53614
# Velocity P-wave (km/s) = 5.33177 6.40877 5.89492
#
# Compressibility (1/GPa) = 0.02716898
#
# Stress axis : x y z
#
# Youngs Moduli (GPa) = 77.76320 55.08247 39.17624
#
# Poissons Ratio (x) = -0.03312 0.31214
# Poissons Ratio (y) = -0.04676 0.28674
# Poissons Ratio (z) = 0.61959 0.40316
#
# Static dielectric constant tensor:
#      x y z
#    x 1.991210 -0.001040 0.016070 
#    y -0.001040 2.038480 0.044210 
#    z 0.016070 0.044210 1.937880 
# 
# From -- ./inp_files/66113.got.cif
#   From: 2010.05.17/outbox.cif.g08.bks.cpg/sg2_34_cif.got.tgz:66113.got - 2010.06.03 11:33:40.
