data_PCOD9053746
_publ_section_title
;
Structure prediction by ZEFSAII (Michael W. Deem and Ramdas Pophale) SiO2 
 PCOD9053746
Probable space group: P -1
;
_chemical_formula_sum "Si O2"
_cell_formula_units_Z 14
_cell_length_a 18.248385
_cell_length_b 11.502901
_cell_length_c 10.645172
_cell_angle_alpha 143.613702
_cell_angle_beta 136.399260
_cell_angle_gamma 26.818219
_cell_volume 597.912740
_symmetry_space_group_name_H-M "P -1"
_symmetry_group_IT_number 2
_symmetry_cell_setting 'triclinic'
loop_
_space_group_symop_operation_xyz
x,y,z
-x,-y,-z
loop_
_atom_site_type_symbol
_atom_site_label
_atom_site_fract_x
_atom_site_fract_y
_atom_site_fract_z
Si Si1 0.738131 0.944751 0.564624
Si Si2 0.315895 0.299911 0.079826
Si Si3 0.080563 0.308326 0.805883
Si Si4 0.818560 0.514586 0.468628
Si Si5 0.651746 0.402066 0.039854
Si Si6 0.450688 0.049788 0.292659
Si Si7 0.306024 0.759831 0.481025
O O1 0.559477 0.093055 0.463181
O O2 0.760333 0.015084 0.519360
O O3 0.842582 0.618160 0.465938
O O4 0.739201 0.119855 0.817851
O O5 0.329964 0.231063 0.184408
O O6 0.268067 0.589617 0.257103
O O7 0.172604 0.365233 0.907364
O O8 0.500000 0.000000 0.000000
O O9 0.952717 0.376624 0.617887
O O10 0.228731 0.944522 0.676168
O O11 0.000000 0.500000 0.000000
O O12 0.777916 0.346524 0.236447
O O13 0.653000 0.819849 0.596177
O O14 0.566779 0.699889 0.118253
O O15 0.500000 0.500000 0.000000
O O16 0.500000 0.500000 0.500000
#
# Coordination Sequence:
#
# PCOD9053746 Si02
#       7
#     2   2   2   2   2   2   2
#     4  11  22  42  71 104 142 189 240 299 358 439
#     4  12  24  46  74 103 147 195 243 294 366 438
#     4  12  28  49  73 109 152 196 237 312 373 422
#     4  11  24  43  65 108 146 184 241 304 367 428
#     4  11  20  36  69 102 140 189 237 292 363 429
#     4  11  20  38  66 104 143 181 241 298 351 436
#     4  12  26  47  75 108 143 196 253 293 359 453
#
# _framework density 23.414788000000001
#
# number of rings (size 3 to 8) (size 9 to 14) (size 15 to 20)
#    0.000    0.571    7.143    1.714    0.000    3.429 
#    2.571    1.429    0.000    0.000    0.000    0.000 
#    0.000    0.000    0.000    0.000    0.000    0.000 
#
# Total GULP energy -78207.867038 kJ/mol
# GULP energy per Si atom -5586.276217 kJ/mol
# Density = 2.336149 g / cm^3
# Si number density = 23.414788 Si / 1000 Ang^3
#
#
#
# Elastic Constant Matrix: (Units=GPa)
#
#
# Indices 1 2 3 4 5 6 
#
# 1 96.7626 25.4089 56.2085 3.4595 3.9564 -5.3335
# 2 25.4089 74.7865 42.7461 -19.2828 -0.0141 -14.9508
# 3 56.2085 42.7461 204.0402 -13.4900 20.1620 -14.4223
# 4 3.4595 -19.2828 -13.4900 46.0012 -5.8294 -0.7641
# 5 3.9564 -0.0141 20.1620 -5.8294 41.9453 0.9211
# 6 -5.3335 -14.9508 -14.4223 -0.7641 0.9211 37.0189
#
#
#
# Elastic Compliance Matrix: (Units=1/GPa)
#
#
# Indices 1 2 3 4 5 6 
#
# 1 0.013236 -0.003810 -0.003126 -0.003552 -0.000221 -0.000917
# 2 -0.003810 0.019353 -0.002247 0.008157 0.002437 0.006499
# 3 -0.003126 -0.002247 0.006665 0.000913 -0.002812 0.001328
# 4 -0.003552 0.008157 0.000913 0.026191 0.003460 0.003593
# 5 -0.000221 0.002437 -0.002812 0.003460 0.025710 -0.000711
# 6 -0.000917 0.006499 0.001328 0.003593 -0.000711 0.030115
#
#
# Mechanical properties :
#
#
# Convention : Reuss Voigt Hill
#
# Bulk Modulus (GPa) = 47.87265 69.36848 58.62057
# Shear Modulus (GPa) = 34.10669 41.74147 37.92408
#
# Velocity S-wave (km/s) = 3.82072 4.22678 4.02887
# Velocity P-wave (km/s) = 6.32090 7.31513 6.83611
#
# Compressibility (1/GPa) = 0.02088875
#
# Stress axis : x y z
#
# Youngs Moduli (GPa) = 75.54974 51.67160 150.03782
#
# Poissons Ratio (x) = 0.19685 0.46903
# Poissons Ratio (y) = 0.28782 0.33715
# Poissons Ratio (z) = 0.23617 0.11611
#
# Static dielectric constant tensor:
#      x y z
#    x 1.928370 -0.012390 -0.041280 
#    y -0.012390 1.919010 -0.003700 
#    z -0.041280 -0.003700 1.888880 
# 
# From -- ./inp_files/465181.got.cif
#   From: 2010.05.17/outbox.cif.g08.bks.cpg/sg2_233_cif.got.tgz:465181.got - 2010.06.03 11:33:40.
