data_PCOD9053810
_publ_section_title
;
Structure prediction by ZEFSAII (Michael W. Deem and Ramdas Pophale) SiO2 
 PCOD9053810
Probable space group: P -1
;
_chemical_formula_sum "Si O2"
_cell_formula_units_Z 16
_cell_length_a 14.066033
_cell_length_b 5.783277
_cell_length_c 23.924965
_cell_angle_alpha 86.125130
_cell_angle_beta 160.224798
_cell_angle_gamma 92.731409
_cell_volume 656.235498
_symmetry_space_group_name_H-M "P -1"
_symmetry_group_IT_number 2
_symmetry_cell_setting 'triclinic'
loop_
_space_group_symop_operation_xyz
x,y,z
-x,-y,-z
loop_
_atom_site_type_symbol
_atom_site_label
_atom_site_fract_x
_atom_site_fract_y
_atom_site_fract_z
Si Si1 0.404047 0.877866 0.676218
Si Si2 0.134654 0.446964 0.862488
Si Si3 0.310360 0.803041 0.032151
Si Si4 0.372232 0.877895 0.878116
Si Si5 0.406639 0.615372 0.269662
Si Si6 0.115909 0.363803 0.620824
Si Si7 0.869204 0.809043 0.019323
Si Si8 0.895704 0.579181 0.613887
O O1 0.520652 0.641101 0.711634
O O2 0.068278 0.863974 0.483882
O O3 0.483426 0.141490 0.699711
O O4 0.555839 0.831118 0.820360
O O5 0.074262 0.293372 0.885896
O O6 0.962999 0.438882 0.710506
O O7 0.142089 0.698345 0.889931
O O8 0.455289 0.367140 0.027278
O O9 0.545632 0.639801 0.194685
O O10 0.527011 0.973483 0.120147
O O11 0.091068 0.918182 0.952371
O O12 0.049275 0.821089 0.703049
O O13 0.500000 0.000000 0.000000
O O14 0.568709 0.607375 0.419058
O O15 0.078276 0.673314 0.096165
O O16 0.000000 0.500000 0.500000
O O17 0.029010 0.470996 0.631727
#
# Coordination Sequence:
#
# PCOD9053810 Si02
#       8
#     2   2   2   2   2   2   2   2
#     4  11  26  48  74 103 141 184 243 293 357 410
#     4  11  23  41  65 102 136 183 229 288 356 419
#     4  11  23  39  66  98 139 177 230 287 354 423
#     4  11  20  37  66 100 131 181 226 280 352 420
#     4  11  27  49  73 103 139 194 238 297 344 414
#     4  11  24  42  71 104 142 182 227 294 358 421
#     4  11  27  43  72  99 137 186 242 290 346 419
#     4  11  23  43  68 100 144 180 233 287 355 423
#
# _framework density 24.381491
#
# number of rings (size 3 to 8) (size 9 to 14) (size 15 to 20)
#    0.000    1.000    2.500    3.375    8.750    2.000 
#    0.000    0.625    0.000    0.000    0.000    0.000 
#    0.000    0.000    0.000    0.000    0.000    0.000 
#
# Total GULP energy -89171.073007 kJ/mol
# GULP energy per Si atom -5573.192063 kJ/mol
# Density = 2.432600 g / cm^3
# Si number density = 24.381491 Si / 1000 Ang^3
#
#
#
# Elastic Constant Matrix: (Units=GPa)
#
#
# Indices 1 2 3 4 5 6 
#
# 1 62.9049 25.5887 31.5626 -2.4358 -36.3741 -8.6159
# 2 25.5887 77.2322 3.6648 -0.1722 -15.8496 -9.6900
# 3 31.5626 3.6648 110.9201 -2.8553 -43.7376 -7.4359
# 4 -2.4358 -0.1722 -2.8553 31.6752 -3.1661 -11.2082
# 5 -36.3741 -15.8496 -43.7376 -3.1661 45.7607 -7.1488
# 6 -8.6159 -9.6900 -7.4359 -11.2082 -7.1488 54.5090
#
#
#
# Elastic Compliance Matrix: (Units=1/GPa)
#
#
# Indices 1 2 3 4 5 6 
#
# 1 0.038691 -0.003723 0.004959 0.011869 0.037126 0.013440
# 2 -0.003723 0.015897 0.003492 0.002212 0.006669 0.004043
# 3 0.004959 0.003492 0.017651 0.007368 0.023853 0.008456
# 4 0.011869 0.002212 0.007368 0.040533 0.022317 0.014536
# 5 0.037126 0.006669 0.023853 0.022317 0.082023 0.025654
# 6 0.013440 0.004043 0.008456 0.014536 0.025654 0.028696
#
#
# Mechanical properties :
#
#
# Convention : Reuss Voigt Hill
#
# Bulk Modulus (GPa) = 12.24068 41.40994 26.82531
# Shear Modulus (GPa) = 20.72399 39.07172 29.89785
#
# Velocity S-wave (km/s) = 2.91862 4.00749 3.50559
# Velocity P-wave (km/s) = 4.04835 6.19954 5.23562
#
# Compressibility (1/GPa) = 0.08169483
#
# Stress axis : x y z
#
# Youngs Moduli (GPa) = 25.84562 62.90691 56.65411
#
# Poissons Ratio (x) = 0.23419 -0.28096
# Poissons Ratio (y) = 0.09622 -0.19782
# Poissons Ratio (z) = -0.12817 -0.21965
#
# Static dielectric constant tensor:
#      x y z
#    x 2.002480 -0.001720 0.008610 
#    y -0.001720 2.166430 -0.053740 
#    z 0.008610 -0.053740 1.944760 
# 
# From -- ./inp_files/71030.got.cif
#   From: 2010.05.17/outbox.cif.g08.bks.cpg/sg2_36_cif.got.tgz:71030.got - 2010.06.03 11:33:40.
