data_PCOD9053512
_publ_section_title
;
Structure prediction by ZEFSAII (Michael W. Deem and Ramdas Pophale) SiO2 
 PCOD9053512
Probable space group: P -1
;
_chemical_formula_sum "Si O2"
_cell_formula_units_Z 14
_cell_length_a 8.719761
_cell_length_b 13.809998
_cell_length_c 13.172543
_cell_angle_alpha 37.295523
_cell_angle_beta 38.565144
_cell_angle_gamma 38.123837
_cell_volume 539.254999
_symmetry_space_group_name_H-M "P -1"
_symmetry_group_IT_number 2
_symmetry_cell_setting 'triclinic'
loop_
_space_group_symop_operation_xyz
x,y,z
-x,-y,-z
loop_
_atom_site_type_symbol
_atom_site_label
_atom_site_fract_x
_atom_site_fract_y
_atom_site_fract_z
Si Si1 0.717396 0.301047 0.087879
Si Si2 0.593547 0.240384 0.885011
Si Si3 0.275035 0.552842 0.661272
Si Si4 0.029678 0.189497 0.825992
Si Si5 0.319962 0.193094 0.275519
Si Si6 0.633575 0.136010 0.555736
Si Si7 0.197543 0.024521 0.172512
O O1 0.537574 0.194071 0.243616
O O2 0.918582 0.209149 0.155661
O O3 0.500000 0.500000 0.000000
O O4 0.957900 0.257365 0.919098
O O5 0.346194 0.376849 0.834671
O O6 0.784115 0.318020 0.775347
O O7 0.811686 0.106497 0.802513
O O8 0.454446 0.193498 0.094056
O O9 0.500000 0.500000 0.500000
O O10 0.312239 0.692882 0.600726
O O11 0.968339 0.636825 0.709000
O O12 0.315871 0.186689 0.657674
O O13 0.000000 0.000000 0.000000
O O14 0.248445 0.026070 0.450374
O O15 0.733284 0.045801 0.690258
O O16 0.500000 0.000000 0.000000
#
# Coordination Sequence:
#
# PCOD9053512 Si02
#       7
#     2   2   2   2   2   2   2
#     4  11  24  38  66 109 136 169 235 296 330 392
#     4  11  22  43  72  98 132 184 235 277 339 412
#     4  12  28  42  65 104 145 180 226 292 350 399
#     4  11  19  42  68 100 128 178 229 282 336 412
#     4  11  24  46  69  96 138 183 238 279 334 415
#     4  12  23  42  72  99 140 182 229 281 350 412
#     4  12  20  38  73 105 134 180 228 280 349 404
#
# _framework density 25.961742000000001
#
# number of rings (size 3 to 8) (size 9 to 14) (size 15 to 20)
#    0.000    0.571    8.571    0.857    4.000    2.857 
#    0.000    0.714    3.143    0.000    0.000    0.000 
#    0.000    0.000    0.000    0.000    0.000    0.000 
#
# Total GULP energy -78030.945037 kJ/mol
# GULP energy per Si atom -5573.638931 kJ/mol
# Density = 2.590265 g / cm^3
# Si number density = 25.961742 Si / 1000 Ang^3
#
#
#
# Elastic Constant Matrix: (Units=GPa)
#
#
# Indices 1 2 3 4 5 6 
#
# 1 104.8681 28.3081 37.3233 1.5444 -11.5256 -15.3630
# 2 28.3081 119.0878 19.5618 1.7840 0.9355 -24.7852
# 3 37.3233 19.5618 38.7201 -1.1623 -15.8856 -11.1505
# 4 1.5444 1.7840 -1.1623 36.7980 -8.9211 -7.7301
# 5 -11.5256 0.9355 -15.8856 -8.9211 46.3691 7.7435
# 6 -15.3630 -24.7852 -11.1505 -7.7301 7.7435 52.2856
#
#
#
# Elastic Compliance Matrix: (Units=1/GPa)
#
#
# Indices 1 2 3 4 5 6 
#
# 1 0.014842 -0.000970 -0.014224 -0.001208 -0.001550 0.000919
# 2 -0.000970 0.010160 -0.004129 -0.000376 -0.002598 0.003980
# 3 -0.014224 -0.004129 0.048366 0.006320 0.013821 0.003065
# 4 -0.001208 -0.000376 0.006320 0.030014 0.006941 0.004224
# 5 -0.001550 -0.002598 0.013821 0.006941 0.027605 -0.001801
# 6 0.000919 0.003980 0.003065 0.004224 -0.001801 0.022827
#
#
# Mechanical properties :
#
#
# Convention : Reuss Voigt Hill
#
# Bulk Modulus (GPa) = 28.79991 48.11805 38.45898
# Shear Modulus (GPa) = 24.50551 38.92273 31.71412
#
# Velocity S-wave (km/s) = 3.07564 3.87620 3.49889
# Velocity P-wave (km/s) = 4.87135 6.21350 5.58291
#
# Compressibility (1/GPa) = 0.03472233
#
# Stress axis : x y z
#
# Youngs Moduli (GPa) = 67.37542 98.42182 20.67548
#
# Poissons Ratio (x) = 0.09548 0.29410
# Poissons Ratio (y) = 0.06536 0.08537
# Poissons Ratio (z) = 0.95837 0.40637
#
# Static dielectric constant tensor:
#      x y z
#    x 2.202820 0.160310 0.060570 
#    y 0.160310 2.507300 -0.055700 
#    z 0.060570 -0.055700 2.191960 
# 
# From -- ./inp_files/505210.got.cif
#   From: 2010.05.17/outbox.cif.g08.bks.cpg/sg2_253_cif.got.tgz:505210.got - 2010.06.03 11:33:40.
