data_PCOD9053433
_publ_section_title
;
Structure prediction by ZEFSAII (Michael W. Deem and Ramdas Pophale) SiO2 
 PCOD9053433
Probable space group: P -1
;
_chemical_formula_sum "Si O2"
_cell_formula_units_Z 14
_cell_length_a 6.114557
_cell_length_b 8.912680
_cell_length_c 29.021191
_cell_angle_alpha 27.584512
_cell_angle_beta 53.216187
_cell_angle_gamma 60.402374
_cell_volume 583.645881
_symmetry_space_group_name_H-M "P -1"
_symmetry_group_IT_number 2
_symmetry_cell_setting 'triclinic'
loop_
_space_group_symop_operation_xyz
x,y,z
-x,-y,-z
loop_
_atom_site_type_symbol
_atom_site_label
_atom_site_fract_x
_atom_site_fract_y
_atom_site_fract_z
Si Si1 0.867173 0.796103 0.615123
Si Si2 0.289030 0.655538 0.445739
Si Si3 0.123963 0.842191 0.923527
Si Si4 0.335501 0.378780 0.812809
Si Si5 0.517400 0.802573 0.004866
Si Si6 0.084094 0.347339 0.142604
Si Si7 0.783604 0.792428 0.276841
O O1 0.562220 0.615802 0.693660
O O2 0.074040 0.522054 0.672227
O O3 0.813360 0.035236 0.598852
O O4 0.000000 0.000000 0.500000
O O5 0.500000 0.500000 0.500000
O O6 0.502830 0.718057 0.360053
O O7 0.000000 0.500000 0.500000
O O8 0.818321 0.707970 0.986042
O O9 0.114634 0.177422 0.863206
O O10 0.270192 0.984033 0.820869
O O11 0.196346 0.573979 0.024032
O O12 0.192729 0.547758 0.827162
O O13 0.482068 0.082160 0.896060
O O14 0.307602 0.480224 0.115806
O O15 0.500000 0.000000 0.000000
O O16 0.003322 0.991039 0.229880
#
# Coordination Sequence:
#
# PCOD9053433 Si02
#       7
#     2   2   2   2   2   2   2
#     4  12  27  51  81 113 155 201 269 337 403 472
#     4  12  30  58  87 119 157 211 274 338 408 481
#     4  11  23  41  71 107 153 202 255 318 390 474
#     4  11  22  42  71 106 147 202 259 316 389 464
#     4  11  19  39  69 105 146 202 252 312 380 461
#     4  11  23  43  70 108 157 199 262 314 389 484
#     4  12  27  49  77 118 155 206 258 329 407 472
#
# _framework density 23.987148999999999
#
# number of rings (size 3 to 8) (size 9 to 14) (size 15 to 20)
#    0.000    0.571    7.143    1.286    2.000    2.286 
#    7.714    0.000    0.000    0.000    0.000    0.000 
#    0.000    0.000    0.000    0.000    0.000    0.000 
#
# Total GULP energy -78107.160416 kJ/mol
# GULP energy per Si atom -5579.082887 kJ/mol
# Density = 2.393255 g / cm^3
# Si number density = 23.987149 Si / 1000 Ang^3
#
#
#
# Elastic Constant Matrix: (Units=GPa)
#
#
# Indices 1 2 3 4 5 6 
#
# 1 79.9684 48.0597 48.1989 4.0292 -24.4031 -5.2338
# 2 48.0597 175.0480 56.5592 -2.8442 -5.6019 -22.5197
# 3 48.1989 56.5592 130.7602 19.3718 -18.8438 -10.6900
# 4 4.0292 -2.8442 19.3718 53.0873 5.0012 -4.9194
# 5 -24.4031 -5.6019 -18.8438 5.0012 42.9700 -4.1271
# 6 -5.2338 -22.5197 -10.6900 -4.9194 -4.1271 38.3694
#
#
#
# Elastic Compliance Matrix: (Units=1/GPa)
#
#
# Indices 1 2 3 4 5 6 
#
# 1 0.020337 -0.003891 -0.004308 -0.001041 0.009290 0.000156
# 2 -0.003891 0.007956 -0.002331 0.002097 -0.002100 0.003532
# 3 -0.004308 -0.002331 0.011334 -0.004107 0.002792 0.000976
# 4 -0.001041 0.002097 -0.004107 0.021141 -0.004369 0.002185
# 5 0.009290 -0.002100 0.002792 -0.004369 0.030344 0.003516
# 6 0.000156 0.003532 0.000976 0.002185 0.003516 0.029087
#
#
# Mechanical properties :
#
#
# Convention : Reuss Voigt Hill
#
# Bulk Modulus (GPa) = 53.86044 76.82357 65.34200
# Shear Modulus (GPa) = 33.90999 42.41593 38.16296
#
# Velocity S-wave (km/s) = 3.76396 4.20965 3.99303
# Velocity P-wave (km/s) = 6.43370 7.46490 6.96840
#
# Compressibility (1/GPa) = 0.01856650
#
# Stress axis : x y z
#
# Youngs Moduli (GPa) = 49.17062 125.69676 88.22786
#
# Poissons Ratio (x) = 0.48914 0.38005
# Poissons Ratio (y) = 0.19134 0.20569
# Poissons Ratio (z) = 0.21181 0.29305
#
# Static dielectric constant tensor:
#      x y z
#    x 2.073740 0.049120 0.007790 
#    y 0.049120 2.004200 -0.029900 
#    z 0.007790 -0.029900 1.884130 
# 
# From -- ./inp_files/141765.got.cif
#   From: 2010.05.17/outbox.cif.g08.bks.cpg/sg2_71_cif.got.tgz:141765.got - 2010.06.03 11:33:40.
