data_PCOD9053055
_publ_section_title
;
Structure prediction by ZEFSAII (Michael W. Deem and Ramdas Pophale) SiO2 
 PCOD9053055
Probable space group: P -1
;
_chemical_formula_sum "Si O2"
_cell_formula_units_Z 14
_cell_length_a 13.609236
_cell_length_b 16.188206
_cell_length_c 9.859230
_cell_angle_alpha 141.712752
_cell_angle_beta 148.359388
_cell_angle_gamma 31.141420
_cell_volume 576.465623
_symmetry_space_group_name_H-M "P -1"
_symmetry_group_IT_number 2
_symmetry_cell_setting 'triclinic'
loop_
_space_group_symop_operation_xyz
x,y,z
-x,-y,-z
loop_
_atom_site_type_symbol
_atom_site_label
_atom_site_fract_x
_atom_site_fract_y
_atom_site_fract_z
Si Si1 0.577755 0.165732 0.408752
Si Si2 0.214340 0.987981 0.802445
Si Si3 0.057535 0.432248 0.134385
Si Si4 0.560952 0.220992 0.953022
Si Si5 0.616250 0.451134 0.719289
Si Si6 0.060031 0.351112 0.478140
Si Si7 0.012690 0.900285 0.046004
O O1 0.661657 0.030994 0.216796
O O2 0.306705 0.265380 0.240378
O O3 0.600303 0.308020 0.565434
O O4 0.766322 0.097450 0.661868
O O5 0.398967 0.828559 0.903254
O O6 0.000000 0.000000 0.500000
O O7 0.096102 0.105886 0.944577
O O8 0.027119 0.571039 0.375678
O O9 0.000000 0.500000 0.000000
O O10 0.864385 0.409269 0.925861
O O11 0.500795 0.401544 0.119515
O O12 0.338625 0.232730 0.655824
O O13 0.797904 0.080744 0.979592
O O14 0.500000 0.500000 0.500000
O O15 0.955727 0.251507 0.188402
O O16 0.000000 0.500000 0.500000
#
# Coordination Sequence:
#
# PCOD9053055 Si02
#       7
#     2   2   2   2   2   2   2
#     4  11  19  37  62  91 124 157 206 255 306 358
#     4   8  16  30  56  89 113 155 203 246 297 361
#     4  11  23  37  62  96 122 154 208 261 303 361
#     4   9  18  32  57  86 115 158 208 244 296 365
#     4  11  18  33  60  90 120 155 199 254 302 352
#     4  11  22  39  60  91 126 161 208 254 303 367
#     4   9  19  34  58  84 116 169 203 241 308 369
#
# _framework density 24.285923
#
# number of rings (size 3 to 8) (size 9 to 14) (size 15 to 20)
#    0.857    1.143    2.857    3.000    0.000    0.571 
#    0.000    0.000    0.000   31.714    0.000    0.000 
#    0.000    0.000    0.000    0.000    0.000    0.000 
#
# Total GULP energy -78052.287369 kJ/mol
# GULP energy per Si atom -5575.163383 kJ/mol
# Density = 2.423065 g / cm^3
# Si number density = 24.285923 Si / 1000 Ang^3
#
#
#
# Elastic Constant Matrix: (Units=GPa)
#
#
# Indices 1 2 3 4 5 6 
#
# 1 65.1797 27.4425 47.6460 7.0825 -19.6778 -5.3754
# 2 27.4425 83.0344 50.8595 -29.6355 1.3640 -19.7118
# 3 47.6460 50.8595 117.6771 -14.3737 4.6255 -15.2176
# 4 7.0825 -29.6355 -14.3737 56.5059 -7.0830 -0.4178
# 5 -19.6778 1.3640 4.6255 -7.0830 42.4091 -2.2895
# 6 -5.3754 -19.7118 -15.2176 -0.4178 -2.2895 36.2441
#
#
#
# Elastic Compliance Matrix: (Units=1/GPa)
#
#
# Indices 1 2 3 4 5 6 
#
# 1 0.032745 -0.007952 -0.012046 -0.009489 0.014979 -0.003689
# 2 -0.007952 0.024265 -0.004360 0.012520 -0.001350 0.010246
# 3 -0.012046 -0.004360 0.016114 0.002502 -0.006669 0.002215
# 4 -0.009489 0.012520 0.002502 0.026095 -0.000357 0.006731
# 5 0.014979 -0.001350 -0.006669 -0.000357 0.031277 0.000659
# 6 -0.003689 0.010246 0.002215 0.006731 0.000659 0.033665
#
#
# Mechanical properties :
#
#
# Convention : Reuss Voigt Hill
#
# Bulk Modulus (GPa) = 40.97175 57.53191 49.25183
# Shear Modulus (GPa) = 22.62312 36.36137 29.49225
#
# Velocity S-wave (km/s) = 3.05541 3.87359 3.48857
# Velocity P-wave (km/s) = 5.41799 6.61416 6.04573
#
# Compressibility (1/GPa) = 0.02440706
#
# Stress axis : x y z
#
# Youngs Moduli (GPa) = 30.53917 41.21149 62.05870
#
# Poissons Ratio (x) = 0.32772 0.74755
# Poissons Ratio (y) = 0.24285 0.27059
# Poissons Ratio (z) = 0.36787 0.17969
#
# Static dielectric constant tensor:
#      x y z
#    x 1.989940 0.023810 0.014830 
#    y 0.023810 2.022590 -0.028560 
#    z 0.014830 -0.028560 2.026460 
# 
# From -- ./inp_files/457345.got.cif
#   From: 2010.05.17/outbox.cif.g08.bks.cpg/sg2_229_cif.got.tgz:457345.got - 2010.06.03 11:33:40.
