data_PCOD9053592
_publ_section_title
;
Structure prediction by ZEFSAII (Michael W. Deem and Ramdas Pophale) SiO2 
 PCOD9053592
Probable space group: P -1
;
_chemical_formula_sum "Si O2"
_cell_formula_units_Z 14
_cell_length_a 12.296027
_cell_length_b 11.596684
_cell_length_c 15.989366
_cell_angle_alpha 114.080738
_cell_angle_beta 27.631437
_cell_angle_gamma 128.139540
_cell_volume 768.800949
_symmetry_space_group_name_H-M "P -1"
_symmetry_group_IT_number 2
_symmetry_cell_setting 'triclinic'
loop_
_space_group_symop_operation_xyz
x,y,z
-x,-y,-z
loop_
_atom_site_type_symbol
_atom_site_label
_atom_site_fract_x
_atom_site_fract_y
_atom_site_fract_z
Si Si1 0.582700 0.922173 0.827311
Si Si2 0.154682 0.973364 0.490502
Si Si3 0.484684 0.690858 0.241979
Si Si4 0.957230 0.633556 0.470284
Si Si5 0.366085 0.770016 0.086849
Si Si6 0.263855 0.313857 0.094713
Si Si7 0.625370 0.104781 0.527881
O O1 0.899886 0.994112 0.674912
O O2 0.622625 0.908714 0.698488
O O3 0.533904 0.055556 0.906228
O O4 0.357436 0.769924 0.992376
O O5 0.985415 0.791347 0.518440
O O6 0.320673 0.981651 0.462285
O O7 0.219433 0.655555 0.352746
O O8 0.552260 0.833448 0.296365
O O9 0.342926 0.530359 0.344426
O O10 0.729373 0.727439 0.019128
O O11 0.063645 0.647064 0.306549
O O12 0.612236 0.756986 0.951849
O O13 0.951871 0.257790 0.324714
O O14 0.500000 0.500000 0.000000
O O15 0.500000 0.000000 0.500000
#
# Coordination Sequence:
#
# PCOD9053592 Si02
#       7
#     2   2   2   2   2   2   2
#     4   9  16  26  46  72 106 133 164 223 265 302
#     4   9  16  29  46  72 103 133 174 213 268 308
#     4   9  18  31  46  72 103 135 171 210 260 308
#     4   8  14  27  46  69 102 125 159 222 261 302
#     4   9  16  26  44  76 105 125 167 213 272 308
#     4  11  20  33  57  81 107 138 175 222 272 313
#     4  11  22  35  51  76 113 146 174 212 265 322
#
# _framework density 18.210176000000001
#
# number of rings (size 3 to 8) (size 9 to 14) (size 15 to 20)
#    0.000    2.571    1.429    4.286    0.000    0.571 
#    0.000    0.000    0.000    0.000    0.000   20.000 
#    0.000    0.143    0.000    0.000    0.000    0.000 
#
# Total GULP energy -77963.892001 kJ/mol
# GULP energy per Si atom -5568.849429 kJ/mol
# Density = 1.816873 g / cm^3
# Si number density = 18.210176 Si / 1000 Ang^3
#
#
#
# Elastic Constant Matrix: (Units=GPa)
#
#
# Indices 1 2 3 4 5 6 
#
# 1 81.4182 32.2983 22.2834 -3.7602 33.4382 -7.5434
# 2 32.2983 44.4494 10.1257 8.6037 9.6393 -8.2808
# 3 22.2834 10.1257 65.3458 7.9808 31.1094 -6.8706
# 4 -3.7602 8.6037 7.9808 25.3228 -8.0075 6.7399
# 5 33.4382 9.6393 31.1094 -8.0075 35.9537 -0.0431
# 6 -7.5434 -8.2808 -6.8706 6.7399 -0.0431 25.0972
#
#
#
# Elastic Compliance Matrix: (Units=1/GPa)
#
#
# Indices 1 2 3 4 5 6 
#
# 1 0.029192 -0.012732 0.010509 -0.008153 -0.034633 0.009580
# 2 -0.012732 0.042888 0.011907 -0.031422 -0.016931 0.021993
# 3 0.010509 0.011907 0.053312 -0.050926 -0.070395 0.035237
# 4 -0.008153 -0.031422 -0.050926 0.106123 0.083640 -0.055115
# 5 -0.034633 -0.016931 -0.070395 0.083640 0.144032 -0.057481
# 6 0.009580 0.021993 0.035237 -0.055115 -0.057481 0.074330
#
#
# Mechanical properties :
#
#
# Convention : Reuss Voigt Hill
#
# Bulk Modulus (GPa) = 6.90803 35.62536 21.26670
# Shear Modulus (GPa) = 10.44361 25.70848 18.07604
#
# Velocity S-wave (km/s) = 2.39739 3.76142 3.15403
# Velocity P-wave (km/s) = 3.38601 6.20244 4.99677
#
# Compressibility (1/GPa) = 0.14475899
#
# Stress axis : x y z
#
# Youngs Moduli (GPa) = 34.25644 23.31667 18.75749
#
# Poissons Ratio (x) = 0.29687 -0.19713
# Poissons Ratio (y) = 0.43616 -0.22334
# Poissons Ratio (z) = -0.36001 -0.27762
#
# Static dielectric constant tensor:
#      x y z
#    x 1.638960 -0.018730 0.063770 
#    y -0.018730 1.635400 0.022800 
#    z 0.063770 0.022800 1.715770 
# 
# From -- ./inp_files/197158.got.cif
#   From: 2010.05.17/outbox.cif.g08.bks.cpg/sg2_99_cif.got.tgz:197158.got - 2010.06.03 11:33:40.
