data_PCOD9053279
_publ_section_title
;
Structure prediction by ZEFSAII (Michael W. Deem and Ramdas Pophale) SiO2 
 PCOD9053279
Probable space group: P -1
;
_chemical_formula_sum "Si O2"
_cell_formula_units_Z 16
_cell_length_a 11.508380
_cell_length_b 6.162500
_cell_length_c 10.420061
_cell_angle_alpha 97.314174
_cell_angle_beta 84.211418
_cell_angle_gamma 120.870534
_cell_volume 628.590984
_symmetry_space_group_name_H-M "P -1"
_symmetry_group_IT_number 2
_symmetry_cell_setting 'triclinic'
loop_
_space_group_symop_operation_xyz
x,y,z
-x,-y,-z
loop_
_atom_site_type_symbol
_atom_site_label
_atom_site_fract_x
_atom_site_fract_y
_atom_site_fract_z
Si Si1 0.328940 0.447739 0.531175
Si Si2 0.735480 0.214565 0.858800
Si Si3 0.503590 0.937962 0.705027
Si Si4 0.010623 0.336195 0.192850
Si Si5 0.810610 0.855419 0.698627
Si Si6 0.419653 0.605265 0.935610
Si Si7 0.713172 0.877066 0.240289
Si Si8 0.969206 0.655011 0.412048
O O1 0.445354 0.734303 0.578478
O O2 0.322734 0.347615 0.379941
O O3 0.314510 0.241539 0.622283
O O4 0.184362 0.426553 0.557999
O O5 0.871668 0.478246 0.903567
O O6 0.659945 0.169378 0.721646
O O7 0.777459 0.999234 0.825348
O O8 0.631243 0.237717 0.965348
O O9 0.496404 0.773067 0.817001
O O10 0.397078 0.032709 0.750748
O O11 0.101295 0.258541 0.264000
O O12 0.979342 0.543526 0.268511
O O13 0.861501 0.095535 0.196326
O O14 0.910052 0.057173 0.594948
O O15 0.305688 0.350199 0.864571
O O16 0.500000 0.500000 0.000000
O O17 0.000000 0.500000 0.500000
#
# Coordination Sequence:
#
# PCOD9053279 Si02
#       8
#     2   2   2   2   2   2   2   2
#     4  11  22  38  67 102 131 175 224 262 317 389
#     4  11  27  43  65  98 132 176 217 271 335 394
#     4  11  25  44  72  96 128 169 229 275 316 398
#     4  11  23  40  65 100 139 172 213 269 334 383
#     4  11  24  39  64  98 143 177 206 270 334 382
#     4  11  25  46  75  94 120 175 229 271 330 391
#     4  11  23  42  72 101 127 170 227 275 315 384
#     4  11  19  35  65  97 130 181 225 254 312 389
#
# _framework density 25.453752000000001
#
# number of rings (size 3 to 8) (size 9 to 14) (size 15 to 20)
#    0.000    1.000    5.000    1.500    1.750    1.000 
#    0.000    2.500    0.000    0.000    0.000    0.000 
#    0.000    0.000    0.000    0.000    0.000    0.000 
#
# Total GULP energy -89214.497216 kJ/mol
# GULP energy per Si atom -5575.906076 kJ/mol
# Density = 2.539582 g / cm^3
# Si number density = 25.453752 Si / 1000 Ang^3
#
#
#
# Elastic Constant Matrix: (Units=GPa)
#
#
# Indices 1 2 3 4 5 6 
#
# 1 133.5311 14.3100 -0.3349 -6.3844 -21.7141 -11.3218
# 2 14.3100 85.7237 0.7115 16.3630 -8.5258 11.7531
# 3 -0.3349 0.7115 41.5746 17.2230 -24.0818 -19.1772
# 4 -6.3844 16.3630 17.2230 34.4631 -6.6416 7.7255
# 5 -21.7141 -8.5258 -24.0818 -6.6416 34.9833 -1.4339
# 6 -11.3218 11.7531 -19.1772 7.7255 -1.4339 41.7529
#
#
#
# Elastic Compliance Matrix: (Units=1/GPa)
#
#
# Indices 1 2 3 4 5 6 
#
# 1 0.013696 -0.000148 0.033238 -0.013317 0.029739 0.022507
# 2 -0.000148 0.014273 0.012207 -0.011955 0.009688 0.004094
# 3 0.033238 0.012207 0.235533 -0.116322 0.169441 0.141099
# 4 -0.013317 -0.011955 -0.116322 0.091997 -0.076793 -0.073332
# 5 0.029739 0.009688 0.169441 -0.076793 0.155675 0.102717
# 6 0.022507 0.004094 0.141099 -0.073332 0.102717 0.110804
#
#
# Mechanical properties :
#
#
# Convention : Reuss Voigt Hill
#
# Bulk Modulus (GPa) = 2.82410 32.24474 17.53442
# Shear Modulus (GPa) = 7.69921 38.64939 23.17430
#
# Velocity S-wave (km/s) = 1.74108 3.90091 3.02064
# Velocity P-wave (km/s) = 2.27018 5.74325 4.36685
#
# Compressibility (1/GPa) = 0.35409520
#
# Stress axis : x y z
#
# Youngs Moduli (GPa) = 73.01527 70.06175 4.24569
#
# Poissons Ratio (x) = 0.01038 -0.14112
# Poissons Ratio (y) = 0.01082 -0.05183
# Poissons Ratio (z) = -2.42687 -0.85524
#
# Static dielectric constant tensor:
#      x y z
#    x 2.090220 0.193180 -0.040420 
#    y 0.193180 2.369380 -0.021290 
#    z -0.040420 -0.021290 2.293510 
# 
# From -- ./inp_files/71490.got.cif
#   From: 2010.05.17/outbox.cif.g08.bks.cpg/sg2_36_cif.got.tgz:71490.got - 2010.06.03 11:33:40.
