data_PCOD9053824
_publ_section_title
;
Structure prediction by ZEFSAII (Michael W. Deem and Ramdas Pophale) SiO2 
 PCOD9053824
Probable space group: P -1
;
_chemical_formula_sum "Si O2"
_cell_formula_units_Z 16
_cell_length_a 12.377064
_cell_length_b 10.446708
_cell_length_c 9.169211
_cell_angle_alpha 124.732017
_cell_angle_beta 62.981900
_cell_angle_gamma 131.882534
_cell_volume 720.095992
_symmetry_space_group_name_H-M "P -1"
_symmetry_group_IT_number 2
_symmetry_cell_setting 'triclinic'
loop_
_space_group_symop_operation_xyz
x,y,z
-x,-y,-z
loop_
_atom_site_type_symbol
_atom_site_label
_atom_site_fract_x
_atom_site_fract_y
_atom_site_fract_z
Si Si1 0.814594 0.970443 0.497812
Si Si2 0.333738 0.419114 0.499287
Si Si3 0.437390 0.960761 0.351890
Si Si4 0.657354 0.246744 0.164739
Si Si5 0.257143 0.224700 0.125119
Si Si6 0.107605 0.830012 0.130297
Si Si7 0.838273 0.747712 0.098931
Si Si8 0.432196 0.662982 0.003949
O O1 0.760302 0.780572 0.495264
O O2 0.680082 0.986918 0.556232
O O3 0.868100 0.929141 0.288452
O O4 0.908721 0.132930 0.665540
O O5 0.500000 0.500000 0.500000
O O6 0.287460 0.556637 0.665969
O O7 0.308604 0.382799 0.319080
O O8 0.565705 0.089102 0.240041
O O9 0.500000 0.000000 0.500000
O O10 0.370560 0.746487 0.207530
O O11 0.783766 0.235829 0.005657
O O12 0.551729 0.235904 0.094763
O O13 0.183713 0.028362 0.126547
O O14 0.156843 0.217408 0.053459
O O15 0.410264 0.275901 0.996939
O O16 0.952615 0.705435 0.065070
O O17 0.677719 0.558167 0.098546
#
# Coordination Sequence:
#
# PCOD9053824 Si02
#       8
#     2   2   2   2   2   2   2   2
#     4  11  22  42  65  95 129 174 225 269 320 394
#     4  11  20  37  67  97 124 168 219 277 324 381
#     4  12  25  39  67 103 133 166 221 284 332 381
#     4  12  22  43  67  93 134 171 221 258 338 390
#     4  11  23  42  68  96 132 172 223 274 330 383
#     4  11  25  45  67  92 139 186 211 259 335 412
#     4  12  26  43  65 102 136 171 224 273 326 386
#     4  12  23  42  68  98 129 174 220 279 324 376
#
# _framework density 22.219259000000001
#
# number of rings (size 3 to 8) (size 9 to 14) (size 15 to 20)
#    0.000    0.500    6.250    3.000    1.750    0.500 
#    0.000    0.625    0.000    0.000    0.000    0.000 
#    0.000    0.000    0.000    0.000    0.000    0.000 
#
# Total GULP energy -89485.117910 kJ/mol
# GULP energy per Si atom -5592.819869 kJ/mol
# Density = 2.216869 g / cm^3
# Si number density = 22.219259 Si / 1000 Ang^3
#
#
#
# Elastic Constant Matrix: (Units=GPa)
#
#
# Indices 1 2 3 4 5 6 
#
# 1 116.2792 17.3676 55.6745 4.2845 19.8837 3.6662
# 2 17.3676 40.2978 15.9405 3.3911 4.7327 0.4269
# 3 55.6745 15.9405 134.9234 12.8776 12.6332 -15.5321
# 4 4.2845 3.3911 12.8776 23.3474 -7.5899 -2.5181
# 5 19.8837 4.7327 12.6332 -7.5899 44.7941 -7.0581
# 6 3.6662 0.4269 -15.5321 -2.5181 -7.0581 26.4291
#
#
#
# Elastic Compliance Matrix: (Units=1/GPa)
#
#
# Indices 1 2 3 4 5 6 
#
# 1 0.012460 -0.002641 -0.004910 -0.001500 -0.005078 -0.006070
# 2 -0.002641 0.027231 -0.001848 -0.003343 -0.002070 -0.002031
# 3 -0.004910 -0.001848 0.010851 -0.004223 -0.000363 0.006589
# 4 -0.001500 -0.003343 -0.004223 0.050315 0.011631 0.005680
# 5 -0.005078 -0.002070 -0.000363 0.011631 0.028319 0.009195
# 6 -0.006070 -0.002031 0.006589 0.005680 0.009195 0.045581
#
#
# Mechanical properties :
#
#
# Convention : Reuss Voigt Hill
#
# Bulk Modulus (GPa) = 31.50177 52.16283 41.83230
# Shear Modulus (GPa) = 24.49335 32.41532 28.45434
#
# Velocity S-wave (km/s) = 3.32376 3.82368 3.58245
# Velocity P-wave (km/s) = 5.37944 6.55907 5.99832
#
# Compressibility (1/GPa) = 0.03174425
#
# Stress axis : x y z
#
# Youngs Moduli (GPa) = 80.25544 36.72346 92.15344
#
# Poissons Ratio (x) = 0.09699 0.45244
# Poissons Ratio (y) = 0.21196 0.17032
# Poissons Ratio (z) = 0.39403 0.06788
#
# Static dielectric constant tensor:
#      x y z
#    x 1.788580 0.013560 0.005680 
#    y 0.013560 1.847910 -0.002380 
#    z 0.005680 -0.002380 1.878870 
# 
# From -- ./inp_files/185051.got.cif
#   From: 2010.05.17/outbox.cif.g08.bks.cpg/sg2_93_cif.got.tgz:185051.got - 2010.06.03 11:33:40.
