data_PCOD9053996
_publ_section_title
;
Structure prediction by ZEFSAII (Michael W. Deem and Ramdas Pophale) SiO2 
 PCOD9053996
Probable space group: P -1
;
_chemical_formula_sum "Si O2"
_cell_formula_units_Z 16
_cell_length_a 18.291038
_cell_length_b 12.631478
_cell_length_c 8.377271
_cell_angle_alpha 133.593448
_cell_angle_beta 126.077847
_cell_angle_gamma 28.016175
_cell_volume 657.329770
_symmetry_space_group_name_H-M "P -1"
_symmetry_group_IT_number 2
_symmetry_cell_setting 'triclinic'
loop_
_space_group_symop_operation_xyz
x,y,z
-x,-y,-z
loop_
_atom_site_type_symbol
_atom_site_label
_atom_site_fract_x
_atom_site_fract_y
_atom_site_fract_z
Si Si1 0.216056 0.344677 0.371762
Si Si2 0.930249 0.833043 0.682829
Si Si3 0.846424 0.427630 0.996054
Si Si4 0.620211 0.314672 0.320751
Si Si5 0.903188 0.760988 0.076368
Si Si6 0.669237 0.425545 0.950471
Si Si7 0.298695 0.124684 0.574784
Si Si8 0.365422 0.424253 0.573749
O O1 0.309701 0.208482 0.516999
O O2 0.307467 0.336782 0.369281
O O3 0.053067 0.643577 0.502566
O O4 0.187202 0.215990 0.150640
O O5 0.847348 0.787445 0.546947
O O6 0.036991 0.728714 0.863512
O O7 0.796668 0.128678 0.800932
O O8 0.744581 0.709827 0.166442
O O9 0.726365 0.457156 0.913838
O O10 0.970794 0.285274 0.867201
O O11 0.500000 0.500000 0.500000
O O12 0.507594 0.392618 0.121463
O O13 0.691642 0.368552 0.394114
O O14 0.761852 0.026028 0.258932
O O15 0.000000 0.500000 0.000000
O O16 0.672906 0.488766 0.199693
O O17 0.449995 0.828480 0.478364
#
# Coordination Sequence:
#
# PCOD9053996 Si02
#       8
#     2   2   2   2   2   2   2   2
#     4  11  23  41  69 108 136 172 230 291 343 412
#     4  11  20  39  69 101 145 171 219 287 360 396
#     4  11  23  41  69 108 136 172 230 291 343 412
#     4  12  31  51  67  99 146 188 234 283 348 418
#     4  12  28  48  73  96 137 192 238 277 341 424
#     4  12  25  43  73 106 139 181 228 291 354 411
#     4  11  20  39  69 101 145 171 219 287 360 396
#     4  12  25  43  73 106 139 181 228 291 354 411
#
# _framework density 24.340902
#
# number of rings (size 3 to 8) (size 9 to 14) (size 15 to 20)
#    0.000    0.500    6.250    3.375    7.000    1.000 
#    0.000    2.500    0.000    0.000    0.000    0.000 
#    0.000    0.000    0.000    0.000    0.000    0.000 
#
# Total GULP energy -89454.125668 kJ/mol
# GULP energy per Si atom -5590.882854 kJ/mol
# Density = 2.428550 g / cm^3
# Si number density = 24.340902 Si / 1000 Ang^3
#
#
#
# Elastic Constant Matrix: (Units=GPa)
#
#
# Indices 1 2 3 4 5 6 
#
# 1 102.9960 -8.5127 -2.0879 2.7642 4.7222 -4.0064
# 2 -8.5127 92.3081 12.8895 39.6601 -10.8403 -0.8602
# 3 -2.0879 12.8895 53.0198 22.2230 -16.3456 1.7694
# 4 2.7642 39.6601 22.2230 43.7980 -6.7583 -0.0659
# 5 4.7222 -10.8403 -16.3456 -6.7583 32.7294 6.7648
# 6 -4.0064 -0.8602 1.7694 -0.0659 6.7648 29.8853
#
#
#
# Elastic Compliance Matrix: (Units=1/GPa)
#
#
# Indices 1 2 3 4 5 6 
#
# 1 0.010096 0.001961 0.000667 -0.002971 -0.001437 0.001689
# 2 0.001961 0.019133 0.004951 -0.019241 0.004673 -0.000580
# 3 0.000667 0.004951 0.029256 -0.017288 0.013536 -0.004602
# 4 -0.002971 -0.019241 -0.017288 0.048471 -0.004832 0.001272
# 5 -0.001437 0.004673 0.013536 -0.004832 0.040128 -0.009954
# 6 0.001689 -0.000580 -0.004602 0.001272 -0.009954 0.036199
#
#
# Mechanical properties :
#
#
# Convention : Reuss Voigt Hill
#
# Bulk Modulus (GPa) = 13.57906 28.10019 20.83963
# Shear Modulus (GPa) = 25.95048 37.68487 31.81768
#
# Velocity S-wave (km/s) = 3.26870 3.93900 3.61940
# Velocity P-wave (km/s) = 4.45384 5.67954 5.10362
#
# Compressibility (1/GPa) = 0.07364280
#
# Stress axis : x y z
#
# Youngs Moduli (GPa) = 99.04889 52.26527 34.18052
#
# Poissons Ratio (x) = -0.10251 -0.02278
# Poissons Ratio (y) = -0.19426 -0.16922
# Poissons Ratio (z) = -0.06602 -0.25875
#
# Static dielectric constant tensor:
#      x y z
#    x 1.963170 0.028950 0.031210 
#    y 0.028950 1.928580 -0.065900 
#    z 0.031210 -0.065900 2.060240 
# 
# From -- ./inp_files/218271.got.cif
#   From: 2010.05.17/outbox.cif.g08.bks.cpg/sg2_110_cif.got.tgz:218271.got - 2010.06.03 11:33:40.
