data_PCOD9053695
_publ_section_title
;
Structure prediction by ZEFSAII (Michael W. Deem and Ramdas Pophale) SiO2 
 PCOD9053695
Probable space group: P -1
;
_chemical_formula_sum "Si O2"
_cell_formula_units_Z 14
_cell_length_a 14.397444
_cell_length_b 14.220238
_cell_length_c 14.826647
_cell_angle_alpha 152.131143
_cell_angle_beta 28.714728
_cell_angle_gamma 151.797203
_cell_volume 601.066480
_symmetry_space_group_name_H-M "P -1"
_symmetry_group_IT_number 2
_symmetry_cell_setting 'triclinic'
loop_
_space_group_symop_operation_xyz
x,y,z
-x,-y,-z
loop_
_atom_site_type_symbol
_atom_site_label
_atom_site_fract_x
_atom_site_fract_y
_atom_site_fract_z
Si Si1 0.699774 0.288018 0.365737
Si Si2 0.888962 0.091439 0.543911
Si Si3 0.694533 0.239753 0.975035
Si Si4 0.947617 0.261805 0.957671
Si Si5 0.610751 0.579132 0.569751
Si Si6 0.097257 0.659313 0.424844
Si Si7 0.089982 0.823212 0.765682
O O1 0.540007 0.354144 0.501946
O O2 0.841390 0.532744 0.504442
O O3 0.696087 0.124218 0.310759
O O4 0.834141 0.235272 0.128587
O O5 0.125600 0.287014 0.546591
O O6 0.796150 0.183368 0.618722
O O7 0.725621 0.052469 0.732788
O O8 0.952433 0.905855 0.293748
O O9 0.780803 0.244536 0.006074
O O10 0.467773 0.247402 0.175642
O O11 0.855116 0.482696 0.999772
O O12 0.500000 0.500000 0.500000
O O13 0.102363 0.423800 0.243163
O O14 0.135731 0.791927 0.596886
O O15 0.000000 0.000000 0.000000
#
# Coordination Sequence:
#
# PCOD9053695 Si02
#       7
#     2   2   2   2   2   2   2
#     4   9  17  34  52  81 110 145 180 227 275 328
#     4  11  22  38  55  83 111 148 192 227 273 335
#     4  11  21  37  54  79 113 153 184 231 274 318
#     4  11  20  36  57  76 115 150 191 228 269 329
#     4  11  20  37  58  76 119 150 181 231 274 325
#     4   8  17  30  50  78 108 133 181 228 270 326
#     4   9  15  28  54  82 103 137 183 228 278 323
#
# _framework density 23.291931999999999
#
# number of rings (size 3 to 8) (size 9 to 14) (size 15 to 20)
#    0.857    1.143    4.286    2.143    0.000    0.571 
#    2.571    0.000    0.000    0.857    0.000    5.000 
#    0.000    0.000    0.000    0.000    0.000    0.000 
#
# Total GULP energy -78026.923492 kJ/mol
# GULP energy per Si atom -5573.351678 kJ/mol
# Density = 2.323892 g / cm^3
# Si number density = 23.291932 Si / 1000 Ang^3
#
#
#
# Elastic Constant Matrix: (Units=GPa)
#
#
# Indices 1 2 3 4 5 6 
#
# 1 163.9882 14.8865 57.5829 -2.7701 15.0113 -20.2781
# 2 14.8865 34.1508 36.6311 9.0284 0.3893 -2.4163
# 3 57.5829 36.6311 152.6762 6.1466 0.6810 1.6666
# 4 -2.7701 9.0284 6.1466 32.1210 -0.4125 1.0644
# 5 15.0113 0.3893 0.6810 -0.4125 33.1283 -2.8293
# 6 -20.2781 -2.4163 1.6666 1.0644 -2.8293 27.0539
#
#
#
# Elastic Compliance Matrix: (Units=1/GPa)
#
#
# Indices 1 2 3 4 5 6 
#
# 1 0.008282 0.000026 -0.003225 0.001084 -0.003158 0.006036
# 2 0.000026 0.043054 -0.009976 -0.010352 -0.000024 0.004884
# 3 -0.003225 -0.009976 0.010168 0.000721 0.001050 -0.003853
# 4 0.001084 -0.010352 0.000721 0.034046 -0.000089 -0.001506
# 5 -0.003158 -0.000024 0.001050 -0.000089 0.031670 0.000882
# 6 0.006036 0.004884 -0.003853 -0.001506 0.000882 0.042312
#
#
# Mechanical properties :
#
#
# Convention : Reuss Voigt Hill
#
# Bulk Modulus (GPa) = 28.44689 63.22404 45.83547
# Shear Modulus (GPa) = 24.08476 34.57493 29.32984
#
# Velocity S-wave (km/s) = 3.21914 3.85699 3.55241
# Velocity P-wave (km/s) = 5.10459 6.85845 6.04546
#
# Compressibility (1/GPa) = 0.03515323
#
# Stress axis : x y z
#
# Youngs Moduli (GPa) = 120.74578 23.22675 98.34702
#
# Poissons Ratio (x) = -0.00060 0.31719
# Poissons Ratio (y) = -0.00313 0.98111
# Poissons Ratio (z) = 0.38943 0.23171
#
# Static dielectric constant tensor:
#      x y z
#    x 1.918410 0.016790 -0.023830 
#    y 0.016790 2.007880 0.032620 
#    z -0.023830 0.032620 1.849190 
# 
# From -- ./inp_files/533451.got.cif
#   From: 2010.05.17/outbox.cif.g08.bks.cpg/sg2_267_cif.got.tgz:533451.got - 2010.06.03 11:33:40.
