data_PCOD9053480
_publ_section_title
;
Structure prediction by ZEFSAII (Michael W. Deem and Ramdas Pophale) SiO2 
 PCOD9053480
Probable space group: P -1
;
_chemical_formula_sum "Si O2"
_cell_formula_units_Z 16
_cell_length_a 9.710473
_cell_length_b 20.710938
_cell_length_c 16.370496
_cell_angle_alpha 27.600394
_cell_angle_beta 29.190251
_cell_angle_gamma 34.348699
_cell_volume 723.987238
_symmetry_space_group_name_H-M "P -1"
_symmetry_group_IT_number 2
_symmetry_cell_setting 'triclinic'
loop_
_space_group_symop_operation_xyz
x,y,z
-x,-y,-z
loop_
_atom_site_type_symbol
_atom_site_label
_atom_site_fract_x
_atom_site_fract_y
_atom_site_fract_z
Si Si1 0.302294 0.159788 0.489410
Si Si2 0.721891 0.851199 0.908126
Si Si3 0.883417 0.432070 0.058404
Si Si4 0.707075 0.732012 0.214679
Si Si5 0.293697 0.372788 0.494891
Si Si6 0.182669 0.471414 0.189793
Si Si7 0.064353 0.938938 0.772187
Si Si8 0.283976 0.062397 0.782919
O O1 0.166035 0.320940 0.404317
O O2 0.096258 0.090529 0.617409
O O3 0.379264 0.064058 0.637381
O O4 0.606634 0.154938 0.292255
O O5 0.065446 0.068389 0.242617
O O6 0.913491 0.720092 0.904462
O O7 0.515966 0.959477 0.834764
O O8 0.565373 0.789122 0.136116
O O9 0.557584 0.414391 0.263140
O O10 0.885665 0.531762 0.866976
O O11 0.000000 0.500000 0.000000
O O12 0.587516 0.670098 0.425776
O O13 0.965262 0.602360 0.197254
O O14 0.852788 0.863145 0.018605
O O15 0.232379 0.225840 0.656545
O O16 0.000000 0.500000 0.500000
O O17 0.500000 0.500000 0.000000
O O18 0.000000 0.000000 0.000000
#
# Coordination Sequence:
#
# PCOD9053480 Si02
#       8
#     2   2   2   2   2   2   2   2
#     4  11  21  36  65 104 129 179 234 274 348 420
#     4   9  23  48  69  92 143 181 232 282 356 408
#     4  11  26  45  72 108 136 185 235 296 338 418
#     4   9  20  43  66  92 133 187 217 280 346 415
#     4  12  26  43  73 106 147 184 230 287 366 403
#     4  11  19  41  67  93 137 181 229 274 341 417
#     4   9  20  39  67  95 133 179 226 282 340 422
#     4  12  27  44  70 104 143 180 236 304 352 411
#
# _framework density 22.099837999999998
#
# number of rings (size 3 to 8) (size 9 to 14) (size 15 to 20)
#    0.750    0.750    1.250    3.750    1.750    5.500 
#    2.250    1.250    0.000    0.000    0.000    0.000 
#    0.000    0.000    0.000    0.000    0.000    0.000 
#
# Total GULP energy -89342.607383 kJ/mol
# GULP energy per Si atom -5583.912961 kJ/mol
# Density = 2.204954 g / cm^3
# Si number density = 22.099838 Si / 1000 Ang^3
#
#
#
# Elastic Constant Matrix: (Units=GPa)
#
#
# Indices 1 2 3 4 5 6 
#
# 1 138.1580 47.5823 32.5370 -20.0611 3.5826 9.7693
# 2 47.5823 91.6876 30.1685 -16.2913 -0.4413 -9.9541
# 3 32.5370 30.1685 78.9419 -9.2254 14.7070 -3.8834
# 4 -20.0611 -16.2913 -9.2254 35.1792 3.8641 5.9323
# 5 3.5826 -0.4413 14.7070 3.8641 37.8480 1.1228
# 6 9.7693 -9.9541 -3.8834 5.9323 1.1228 27.5053
#
#
#
# Elastic Compliance Matrix: (Units=1/GPa)
#
#
# Indices 1 2 3 4 5 6 
#
# 1 0.010496 -0.004635 -0.002291 0.004406 -0.000410 -0.006662
# 2 -0.004635 0.015669 -0.003806 0.002386 0.001673 0.006197
# 3 -0.002291 -0.003806 0.016555 0.001703 -0.006484 0.001671
# 4 0.004406 0.002386 0.001703 0.034259 -0.004321 -0.007674
# 5 -0.000410 0.001673 -0.006484 -0.004321 0.029453 -0.000435
# 6 -0.006662 0.006197 0.001671 -0.007674 -0.000435 0.042874
#
#
# Mechanical properties :
#
#
# Convention : Reuss Voigt Hill
#
# Bulk Modulus (GPa) = 47.04480 58.81813 52.93146
# Shear Modulus (GPa) = 28.11264 33.33981 30.72623
#
# Velocity S-wave (km/s) = 3.57048 3.88828 3.73277
# Velocity P-wave (km/s) = 6.19124 6.84331 6.52542
#
# Compressibility (1/GPa) = 0.02125633
#
# Stress axis : x y z
#
# Youngs Moduli (GPa) = 95.27804 63.81968 60.40340
#
# Poissons Ratio (x) = 0.29583 0.13838
# Poissons Ratio (y) = 0.44165 0.22987
# Poissons Ratio (z) = 0.21828 0.24287
#
# Static dielectric constant tensor:
#      x y z
#    x 1.828200 -0.004960 0.040710 
#    y -0.004960 1.765120 0.012450 
#    z 0.040710 0.012450 1.808680 
# 
# From -- ./inp_files/507864.got.cif
#   From: 2010.05.17/outbox.cif.g08.bks.cpg/sg2_254_cif.got.tgz:507864.got - 2010.06.03 11:33:40.
