data_PCOD9053505
_publ_section_title
;
Structure prediction by ZEFSAII (Michael W. Deem and Ramdas Pophale) SiO2 
 PCOD9053505
Probable space group: P -1
;
_chemical_formula_sum "Si O2"
_cell_formula_units_Z 16
_cell_length_a 13.212914
_cell_length_b 11.146826
_cell_length_c 11.258988
_cell_angle_alpha 95.303168
_cell_angle_beta 107.662266
_cell_angle_gamma 144.494125
_cell_volume 724.824940
_symmetry_space_group_name_H-M "P -1"
_symmetry_group_IT_number 2
_symmetry_cell_setting 'triclinic'
loop_
_space_group_symop_operation_xyz
x,y,z
-x,-y,-z
loop_
_atom_site_type_symbol
_atom_site_label
_atom_site_fract_x
_atom_site_fract_y
_atom_site_fract_z
Si Si1 0.887119 0.576163 0.688189
Si Si2 0.392649 0.096764 0.574280
Si Si3 0.159347 0.075437 0.142644
Si Si4 0.345240 0.795291 0.647673
Si Si5 0.012048 0.057381 0.316461
Si Si6 0.228368 0.707655 0.859418
Si Si7 0.657601 0.680831 0.334607
Si Si8 0.172081 0.830495 0.209177
O O1 0.667513 0.359994 0.676928
O O2 0.780915 0.412937 0.514691
O O3 0.976803 0.800138 0.721845
O O4 0.091640 0.695499 0.810344
O O5 0.345784 0.180913 0.619763
O O6 0.318224 0.908073 0.610259
O O7 0.275235 0.967542 0.390096
O O8 0.105125 0.056366 0.256570
O O9 0.414393 0.373938 0.231033
O O10 0.137743 0.910364 0.118769
O O11 0.000000 0.000000 0.000000
O O12 0.228569 0.655522 0.720395
O O13 0.619522 0.039587 0.760473
O O14 0.178681 0.221627 0.504401
O O15 0.762068 0.774165 0.250050
O O16 0.076552 0.477125 0.876598
O O17 0.500000 0.000000 0.000000
#
# Coordination Sequence:
#
# PCOD9053505 Si02
#       8
#     2   2   2   2   2   2   2   2
#     4  11  21  41  69  99 129 173 225 275 331 389
#     4  11  19  41  76  97 134 167 226 286 324 389
#     4  12  27  45  67  96 141 186 220 272 335 413
#     4  11  23  41  71 100 128 176 222 280 330 393
#     4  11  24  41  71 101 134 170 232 286 327 390
#     4  12  27  43  65 100 142 174 214 272 339 414
#     4  11  23  42  70 104 129 177 225 285 333 380
#     4  11  24  44  67  98 132 174 226 275 334 390
#
# _framework density 22.074296
#
# number of rings (size 3 to 8) (size 9 to 14) (size 15 to 20)
#    0.000    0.750    5.000    3.750    1.750    5.000 
#    0.000    0.000    0.000    0.000    0.000    0.000 
#    0.000    0.000    0.000    0.000    0.000    0.000 
#
# Total GULP energy -89515.370496 kJ/mol
# GULP energy per Si atom -5594.710656 kJ/mol
# Density = 2.202405 g / cm^3
# Si number density = 22.074296 Si / 1000 Ang^3
#
#
#
# Elastic Constant Matrix: (Units=GPa)
#
#
# Indices 1 2 3 4 5 6 
#
# 1 110.3910 -19.7147 -3.8593 -7.6071 2.8767 16.7812
# 2 -19.7147 207.1866 40.1051 54.1854 41.0125 -26.0660
# 3 -3.8593 40.1051 57.2180 21.1394 31.2439 -5.8784
# 4 -7.6071 54.1854 21.1394 36.2551 14.3432 3.8263
# 5 2.8767 41.0125 31.2439 14.3432 34.2291 -13.9746
# 6 16.7812 -26.0660 -5.8784 3.8263 -13.9746 57.2589
#
#
#
# Elastic Compliance Matrix: (Units=1/GPa)
#
#
# Indices 1 2 3 4 5 6 
#
# 1 0.010298 0.000454 0.002446 0.003214 -0.006800 -0.004435
# 2 0.000454 0.009779 0.002082 -0.013631 -0.006355 0.003893
# 3 0.002446 0.002082 0.039184 -0.011102 -0.035292 -0.003618
# 4 0.003214 -0.013631 -0.011102 0.057777 -0.003303 -0.012954
# 5 -0.006800 -0.006355 -0.035292 -0.003303 0.076905 0.014467
# 6 -0.004435 0.003893 -0.003618 -0.012954 0.014467 0.024561
#
#
# Mechanical properties :
#
#
# Convention : Reuss Voigt Hill
#
# Bulk Modulus (GPa) = 14.44545 45.31754 29.88150
# Shear Modulus (GPa) = 21.58757 49.43292 35.51025
#
# Velocity S-wave (km/s) = 3.13061 4.73735 4.01517
# Velocity P-wave (km/s) = 4.43011 7.10616 5.92129
#
# Compressibility (1/GPa) = 0.06922594
#
# Stress axis : x y z
#
# Youngs Moduli (GPa) = 97.10518 102.25583 25.52094
#
# Poissons Ratio (x) = -0.04641 -0.06243
# Poissons Ratio (y) = -0.04407 -0.05314
# Poissons Ratio (z) = -0.23755 -0.21293
#
# Static dielectric constant tensor:
#      x y z
#    x 1.804680 0.024270 -0.012150 
#    y 0.024270 1.809680 0.002590 
#    z -0.012150 0.002590 1.835420 
# 
# From -- ./inp_files/258409.got.cif
#   From: 2010.05.17/outbox.cif.g08.bks.cpg/sg2_130_cif.got.tgz:258409.got - 2010.06.03 11:33:40.
