data_PCOD9053264
_publ_section_title
;
Structure prediction by ZEFSAII (Michael W. Deem and Ramdas Pophale) SiO2 
 PCOD9053264
Probable space group: P -1
;
_chemical_formula_sum "Si O2"
_cell_formula_units_Z 16
_cell_length_a 7.804314
_cell_length_b 9.081718
_cell_length_c 20.642563
_cell_angle_alpha 40.679545
_cell_angle_beta 81.914392
_cell_angle_gamma 98.997334
_cell_volume 862.191646
_symmetry_space_group_name_H-M "P -1"
_symmetry_group_IT_number 2
_symmetry_cell_setting 'triclinic'
loop_
_space_group_symop_operation_xyz
x,y,z
-x,-y,-z
loop_
_atom_site_type_symbol
_atom_site_label
_atom_site_fract_x
_atom_site_fract_y
_atom_site_fract_z
Si Si1 0.611285 0.382009 0.232131
Si Si2 0.078808 0.743587 0.800282
Si Si3 0.129171 0.504439 0.695274
Si Si4 0.232398 0.806949 0.012859
Si Si5 0.997419 0.945046 0.871263
Si Si6 0.627353 0.820396 0.003621
Si Si7 0.069141 0.942500 0.600106
Si Si8 0.275259 0.968274 0.462880
O O1 0.754164 0.499189 0.245418
O O2 0.444610 0.148992 0.350780
O O3 0.730554 0.302373 0.200316
O O4 0.552375 0.583389 0.134495
O O5 0.096713 0.931666 0.678075
O O6 0.045188 0.838630 0.839015
O O7 0.904250 0.482288 0.881842
O O8 0.004453 0.656204 0.673728
O O9 0.263184 0.696843 0.570507
O O10 0.029647 0.229826 0.766882
O O11 0.133306 0.919935 0.928929
O O12 0.447180 0.845149 0.972989
O O13 0.255954 0.944883 0.034627
O O14 0.780089 0.799924 0.953228
O O15 0.916578 0.047699 0.555670
O O16 0.256110 0.067871 0.503253
#
# Coordination Sequence:
#
# PCOD9053264 Si02
#       8
#     2   2   2   2   2   2   2   2
#     4  11  19  35  60  87 110 154 203 239 293 341
#     4  11  23  37  59  84 126 162 185 241 295 363
#     4   9  19  35  60  82 114 152 191 244 290 336
#     4  11  23  41  58  92 115 153 208 236 293 343
#     4  12  23  41  56  88 129 157 190 236 303 349
#     4  11  23  38  67  86 115 153 199 257 279 346
#     4   8  18  37  59  86 109 151 197 251 281 342
#     4   9  18  35  64  87 110 146 206 250 283 336
#
# _framework density 18.557358000000001
#
# number of rings (size 3 to 8) (size 9 to 14) (size 15 to 20)
#    0.750    1.000    2.500    3.375    0.000    1.500 
#    2.250    1.250    0.000    0.000    0.000    0.000 
#    0.000    0.000    0.000    0.000    0.000    0.000 
#
# Total GULP energy -89121.359565 kJ/mol
# GULP energy per Si atom -5570.084973 kJ/mol
# Density = 1.851512 g / cm^3
# Si number density = 18.557358 Si / 1000 Ang^3
#
#
#
# Elastic Constant Matrix: (Units=GPa)
#
#
# Indices 1 2 3 4 5 6 
#
# 1 78.9389 17.2947 21.6314 9.5480 -5.1923 -11.1570
# 2 17.2947 48.3179 22.4407 4.7499 -21.4215 -19.5724
# 3 21.6314 22.4407 66.9392 -1.4084 -18.9453 -11.6678
# 4 9.5480 4.7499 -1.4084 12.4344 -6.6353 -3.2333
# 5 -5.1923 -21.4215 -18.9453 -6.6353 28.3190 5.0765
# 6 -11.1570 -19.5724 -11.6678 -3.2333 5.0765 14.9847
#
#
#
# Elastic Compliance Matrix: (Units=1/GPa)
#
#
# Indices 1 2 3 4 5 6 
#
# 1 0.017150 -0.005806 -0.006777 -0.017009 -0.009680 -0.000482
# 2 -0.005806 0.074786 0.006915 0.026409 0.050675 0.087274
# 3 -0.006777 0.006915 0.025338 0.022929 0.022543 0.021026
# 4 -0.017009 0.026409 0.022929 0.127140 0.053186 0.049098
# 5 -0.009680 0.050675 0.022543 0.053186 0.089043 0.057845
# 6 -0.000482 0.087274 0.021026 0.049098 0.057845 0.187738
#
#
# Mechanical properties :
#
#
# Convention : Reuss Voigt Hill
#
# Bulk Modulus (GPa) = 9.43949 35.21438 22.32693
# Shear Modulus (GPa) = 8.80525 20.00291 14.40408
#
# Velocity S-wave (km/s) = 2.18064 3.28670 2.78905
# Velocity P-wave (km/s) = 3.38200 5.78103 4.73594
#
# Compressibility (1/GPa) = 0.10593793
#
# Stress axis : x y z
#
# Youngs Moduli (GPa) = 58.31019 13.37155 39.46607
#
# Poissons Ratio (x) = 0.07763 0.26747
# Poissons Ratio (y) = 0.33852 -0.27291
# Poissons Ratio (z) = 0.39518 -0.09246
#
# Static dielectric constant tensor:
#      x y z
#    x 1.659370 -0.010890 -0.007540 
#    y -0.010890 1.626170 0.006550 
#    z -0.007540 0.006550 1.686350 
# 
# From -- ./inp_files/515937.got.cif
#   From: 2010.05.17/outbox.cif.g08.bks.cpg/sg2_258_cif.got.tgz:515937.got - 2010.06.03 11:33:40.
