data_PCOD9053653
_publ_section_title
;
Structure prediction by ZEFSAII (Michael W. Deem and Ramdas Pophale) SiO2 
 PCOD9053653
Probable space group: P -1
;
_chemical_formula_sum "Si O2"
_cell_formula_units_Z 16
_cell_length_a 14.207981
_cell_length_b 7.243261
_cell_length_c 11.655257
_cell_angle_alpha 99.326563
_cell_angle_beta 140.563549
_cell_angle_gamma 75.955270
_cell_volume 738.524739
_symmetry_space_group_name_H-M "P -1"
_symmetry_group_IT_number 2
_symmetry_cell_setting 'triclinic'
loop_
_space_group_symop_operation_xyz
x,y,z
-x,-y,-z
loop_
_atom_site_type_symbol
_atom_site_label
_atom_site_fract_x
_atom_site_fract_y
_atom_site_fract_z
Si Si1 0.760988 0.883717 0.666871
Si Si2 0.077122 0.692411 0.910729
Si Si3 0.133229 0.706180 0.228265
Si Si4 0.181539 0.096248 0.018784
Si Si5 0.556410 0.440202 0.417173
Si Si6 0.518410 0.009704 0.293159
Si Si7 0.646185 0.456254 0.982317
Si Si8 0.470463 0.198376 0.927238
O O1 0.769832 0.839456 0.804619
O O2 0.899039 0.737937 0.726090
O O3 0.808861 0.092007 0.715346
O O4 0.590998 0.902817 0.464768
O O5 0.110137 0.636385 0.069632
O O6 0.186715 0.565588 0.913011
O O7 0.128199 0.896755 0.966327
O O8 0.264383 0.568931 0.405458
O O9 0.970288 0.756516 0.141709
O O10 0.340809 0.047037 0.100858
O O11 0.500000 0.500000 0.500000
O O12 0.545717 0.222947 0.353492
O O13 0.458996 0.548251 0.231411
O O14 0.606810 0.870219 0.265963
O O15 0.606346 0.294432 0.013963
O O16 0.609499 0.646263 0.042544
O O17 0.500000 0.000000 0.000000
#
# Coordination Sequence:
#
# PCOD9053653 Si02
#       8
#     2   2   2   2   2   2   2   2
#     4   8  17  28  53  88 122 154 194 245 303 371
#     4   9  15  32  55  87 121 156 195 241 306 367
#     4   8  16  30  52  85 126 158 188 237 309 376
#     4   9  16  30  55  87 120 160 196 236 308 373
#     4  11  21  35  60  92 126 155 197 250 312 370
#     4  11  20  35  59  84 120 158 205 252 294 358
#     4  11  22  38  67  88 120 167 207 250 306 358
#     4  11  24  42  61  89 118 165 220 255 290 353
#
# _framework density 21.664812000000001
#
# number of rings (size 3 to 8) (size 9 to 14) (size 15 to 20)
#    0.000    2.250    3.750    1.875    0.000    1.000 
#    0.000    1.250    2.750    4.500    0.000    0.000 
#    0.000    0.000    0.000    0.000    0.000    0.000 
#
# Total GULP energy -89124.011531 kJ/mol
# GULP energy per Si atom -5570.250721 kJ/mol
# Density = 2.161550 g / cm^3
# Si number density = 21.664812 Si / 1000 Ang^3
#
#
#
# Elastic Constant Matrix: (Units=GPa)
#
#
# Indices 1 2 3 4 5 6 
#
# 1 102.7413 62.0846 33.8313 -2.7477 5.1108 -27.7021
# 2 62.0846 111.6129 22.3062 19.9628 6.0879 -11.7840
# 3 33.8313 22.3062 66.4827 -11.0339 9.0747 -12.2071
# 4 -2.7477 19.9628 -11.0339 32.7295 -6.2953 -1.1908
# 5 5.1108 6.0879 9.0747 -6.2953 26.8915 2.2179
# 6 -27.7021 -11.7840 -12.2071 -1.1908 2.2179 43.4290
#
#
#
# Elastic Compliance Matrix: (Units=1/GPa)
#
#
# Indices 1 2 3 4 5 6 
#
# 1 0.020161 -0.010907 -0.003825 0.007567 0.000959 0.008984
# 2 -0.010907 0.017911 -0.002734 -0.013642 -0.004002 -0.003036
# 3 -0.003825 -0.002734 0.020227 0.007510 -0.003962 0.002912
# 4 0.007567 -0.013642 0.007510 0.043931 0.009072 0.003977
# 5 0.000959 -0.004002 -0.003962 0.009072 0.041657 -0.003467
# 6 0.008984 -0.003036 0.002912 0.003977 -0.003467 0.029037
#
#
# Mechanical properties :
#
#
# Convention : Reuss Voigt Hill
#
# Bulk Modulus (GPa) = 42.79801 57.47568 50.13685
# Shear Modulus (GPa) = 23.18618 31.45099 27.31858
#
# Velocity S-wave (km/s) = 3.27498 3.81426 3.55486
# Velocity P-wave (km/s) = 5.83936 6.78124 6.32785
#
# Compressibility (1/GPa) = 0.02336557
#
# Stress axis : x y z
#
# Youngs Moduli (GPa) = 49.60160 55.83207 49.43822
#
# Poissons Ratio (x) = 0.60896 0.18911
# Poissons Ratio (y) = 0.54101 0.13518
# Poissons Ratio (z) = 0.18974 0.15266
#
# Static dielectric constant tensor:
#      x y z
#    x 2.154620 -0.116430 -0.128540 
#    y -0.116430 1.957630 0.054780 
#    z -0.128540 0.054780 1.897330 
# 
# From -- ./inp_files/444796.got.cif
#   From: 2010.05.17/outbox.cif.g08.bks.cpg/sg2_223_cif.got.tgz:444796.got - 2010.06.03 11:33:40.
