data_PCOD9053569
_publ_section_title
;
Structure prediction by ZEFSAII (Michael W. Deem and Ramdas Pophale) SiO2 
 PCOD9053569
Probable space group: P -1
;
_chemical_formula_sum "Si O2"
_cell_formula_units_Z 16
_cell_length_a 12.126941
_cell_length_b 23.593746
_cell_length_c 12.399189
_cell_angle_alpha 139.447946
_cell_angle_beta 24.201274
_cell_angle_gamma 137.404872
_cell_volume 933.065097
_symmetry_space_group_name_H-M "P -1"
_symmetry_group_IT_number 2
_symmetry_cell_setting 'triclinic'
loop_
_space_group_symop_operation_xyz
x,y,z
-x,-y,-z
loop_
_atom_site_type_symbol
_atom_site_label
_atom_site_fract_x
_atom_site_fract_y
_atom_site_fract_z
Si Si1 0.385789 0.754414 0.627043
Si Si2 0.785320 0.960186 0.977948
Si Si3 0.652636 0.448826 0.635023
Si Si4 0.970924 0.860618 0.268237
Si Si5 0.796281 0.448824 0.762562
Si Si6 0.175327 0.960216 0.441975
Si Si7 0.369871 0.754390 0.380490
Si Si8 0.109284 0.139391 0.048029
O O1 0.344862 0.651499 0.546616
O O2 0.380159 0.758927 0.508230
O O3 0.681949 0.802166 0.468582
O O4 0.153957 0.804569 0.954348
O O5 0.485447 0.970490 0.220288
O O6 0.769362 0.898239 0.007410
O O7 0.956002 0.054602 0.997251
O O8 0.962893 0.925379 0.675142
O O9 0.725766 0.451388 0.701328
O O10 0.883278 0.516857 0.468037
O O11 0.366451 0.483143 0.934323
O O12 0.129558 0.898299 0.288465
O O13 0.901110 0.945357 0.388313
O O14 0.693374 0.348514 0.743691
O O15 0.122186 0.802514 0.634326
O O16 0.652177 0.804201 0.152659
#
# Coordination Sequence:
#
# PCOD9053569 Si02
#       8
#     2   2   2   2   2   2   2   2
#     4  11  20  32  51  75 106 136 167 205 241 293
#     4  11  22  37  53  71 102 135 167 211 254 289
#     4   9  17  29  45  68 100 135 162 191 241 297
#     4  11  22  34  52  76  99 133 175 205 243 299
#     4   9  17  29  45  68 100 135 162 191 241 297
#     4  11  22  37  53  71 102 135 167 211 254 289
#     4  11  20  32  51  75 106 136 167 205 241 293
#     4  11  22  34  52  76  99 133 175 205 243 299
#
# _framework density 17.147784999999999
#
# number of rings (size 3 to 8) (size 9 to 14) (size 15 to 20)
#    0.000    1.500    0.000    7.500    0.000    8.000 
#    0.000    0.000    0.000    0.000    0.000    0.000 
#    0.000   70.000    0.000    0.000    0.000    0.000 
#
# Total GULP energy -89371.243781 kJ/mol
# GULP energy per Si atom -5585.702736 kJ/mol
# Density = 1.710876 g / cm^3
# Si number density = 17.147785 Si / 1000 Ang^3
#
#
#
# Elastic Constant Matrix: (Units=GPa)
#
#
# Indices 1 2 3 4 5 6 
#
# 1 69.9868 21.6988 19.2305 -0.3037 -8.8433 3.4020
# 2 21.6988 89.5828 28.5789 4.1378 -4.5760 -2.9201
# 3 19.2305 28.5789 95.8515 -6.9576 -12.2165 6.0579
# 4 -0.3037 4.1378 -6.9576 25.5710 3.7309 3.9572
# 5 -8.8433 -4.5760 -12.2165 3.7309 21.0222 -3.1130
# 6 3.4020 -2.9201 6.0579 3.9572 -3.1130 11.6193
#
#
#
# Elastic Compliance Matrix: (Units=1/GPa)
#
#
# Indices 1 2 3 4 5 6 
#
# 1 0.016535 -0.003441 -0.001427 0.000251 0.004775 -0.003768
# 2 -0.003441 0.013921 -0.004207 -0.004985 0.001318 0.008750
# 3 -0.001427 -0.004207 0.013383 0.004965 0.004167 -0.008191
# 4 0.000251 -0.004985 0.004965 0.046093 -0.009558 -0.022173
# 5 0.004775 0.001318 0.004167 -0.009558 0.056215 0.015077
# 6 -0.003768 0.008750 -0.008191 -0.022173 0.015077 0.105227
#
#
# Mechanical properties :
#
#
# Convention : Reuss Voigt Hill
#
# Bulk Modulus (GPa) = 38.92570 43.82640 41.37605
# Shear Modulus (GPa) = 17.98008 24.03671 21.00839
#
# Velocity S-wave (km/s) = 3.24162 3.74804 3.50399
# Velocity P-wave (km/s) = 6.06302 6.65913 6.36805
#
# Compressibility (1/GPa) = 0.02568997
#
# Stress axis : x y z
#
# Youngs Moduli (GPa) = 60.47882 71.83251 74.72388
#
# Poissons Ratio (x) = 0.24714 0.10659
# Poissons Ratio (y) = 0.20808 0.31439
# Poissons Ratio (z) = 0.08627 0.30222
#
# Static dielectric constant tensor:
#      x y z
#    x 1.572380 -0.001800 0.005370 
#    y -0.001800 1.584730 0.001640 
#    z 0.005370 0.001640 1.579050 
# 
# From -- ./inp_files/366195.got.cif
#   From: 2010.05.17/outbox.cif.g08.bks.cpg/sg2_184_cif.got.tgz:366195.got - 2010.06.03 11:33:40.
