data_PCOD9053997
_publ_section_title
;
Structure prediction by ZEFSAII (Michael W. Deem and Ramdas Pophale) SiO2 
 PCOD9053997
Probable space group: P -1
;
_chemical_formula_sum "Si O2"
_cell_formula_units_Z 14
_cell_length_a 15.210833
_cell_length_b 11.200987
_cell_length_c 20.189970
_cell_angle_alpha 29.745827
_cell_angle_beta 22.543421
_cell_angle_gamma 43.332830
_cell_volume 602.033757
_symmetry_space_group_name_H-M "P -1"
_symmetry_group_IT_number 2
_symmetry_cell_setting 'triclinic'
loop_
_space_group_symop_operation_xyz
x,y,z
-x,-y,-z
loop_
_atom_site_type_symbol
_atom_site_label
_atom_site_fract_x
_atom_site_fract_y
_atom_site_fract_z
Si Si1 0.068348 0.753490 0.584809
Si Si2 0.851008 0.241526 0.803503
Si Si3 0.191166 0.107381 0.875606
Si Si4 0.511691 0.486578 0.078485
Si Si5 0.063365 0.984645 0.670199
Si Si6 0.236897 0.800453 0.304922
Si Si7 0.238486 0.614671 0.667349
O O1 0.225091 0.729519 0.424202
O O2 0.215827 0.756988 0.546348
O O3 0.000000 0.000000 0.500000
O O4 0.788563 0.535776 0.884776
O O5 0.916138 0.050935 0.800424
O O6 0.087773 0.522154 0.506602
O O7 0.614124 0.306867 0.914890
O O8 0.809840 0.117946 0.964894
O O9 0.135296 0.314036 0.862320
O O10 0.468344 0.273868 0.574549
O O11 0.000000 0.000000 0.000000
O O12 0.335723 0.213200 0.364387
O O13 0.500000 0.500000 0.000000
O O14 0.931382 0.035746 0.671957
O O15 0.089173 0.710583 0.778431
O O16 0.500000 0.000000 0.000000
#
# Coordination Sequence:
#
# PCOD9053997 Si02
#       7
#     2   2   2   2   2   2   2
#     4  12  22  38  70 105 136 176 228 289 340 407
#     4  11  24  43  68 101 142 187 222 285 352 413
#     4  11  26  50  75  94 133 184 244 291 336 409
#     4  11  20  39  69 104 137 178 229 277 346 415
#     4  11  24  40  65 101 145 178 221 285 353 414
#     4  11  24  39  63 108 147 178 220 280 356 415
#     4  11  26  45  71 106 132 180 239 288 337 416
#
# _framework density 23.254508999999999
#
# number of rings (size 3 to 8) (size 9 to 14) (size 15 to 20)
#    0.000    0.857    4.286    4.286    8.000    0.571 
#    0.000    0.714    0.000    0.000    0.000    0.000 
#    0.000    0.000    0.000    0.000    0.000    0.000 
#
# Total GULP energy -78275.331408 kJ/mol
# GULP energy per Si atom -5591.095101 kJ/mol
# Density = 2.320158 g / cm^3
# Si number density = 23.254509 Si / 1000 Ang^3
#
#
#
# Elastic Constant Matrix: (Units=GPa)
#
#
# Indices 1 2 3 4 5 6 
#
# 1 92.1404 22.0165 31.4563 6.3174 -8.3324 5.6730
# 2 22.0165 147.9086 22.5353 -2.2572 -4.3141 25.0705
# 3 31.4563 22.5353 113.2868 6.2063 -19.7005 4.2047
# 4 6.3174 -2.2572 6.2063 25.9491 -0.9446 11.8740
# 5 -8.3324 -4.3141 -19.7005 -0.9446 38.1706 1.2061
# 6 5.6730 25.0705 4.2047 11.8740 1.2061 37.6009
#
#
#
# Elastic Compliance Matrix: (Units=1/GPa)
#
#
# Indices 1 2 3 4 5 6 
#
# 1 0.012428 -0.001453 -0.002855 -0.002512 0.001007 0.000174
# 2 -0.001453 0.008359 -0.001198 0.004410 0.000328 -0.006624
# 3 -0.002855 -0.001198 0.010775 -0.002052 0.004735 0.000521
# 4 -0.002512 0.004410 -0.002052 0.048069 0.000634 -0.017532
# 5 0.001007 0.000328 0.004735 0.000634 0.028979 -0.002030
# 6 0.000174 -0.006624 0.000521 -0.017532 -0.002030 0.036528
#
#
# Mechanical properties :
#
#
# Convention : Reuss Voigt Hill
#
# Bulk Modulus (GPa) = 48.66599 56.15020 52.40809
# Shear Modulus (GPa) = 30.67468 38.83263 34.75365
#
# Velocity S-wave (km/s) = 3.63586 4.09087 3.87006
# Velocity P-wave (km/s) = 6.21281 6.81997 6.52346
#
# Compressibility (1/GPa) = 0.02054823
#
# Stress axis : x y z
#
# Youngs Moduli (GPa) = 80.46553 119.62610 92.80864
#
# Poissons Ratio (x) = 0.17386 0.26500
# Poissons Ratio (y) = 0.11694 0.11120
# Poissons Ratio (z) = 0.22976 0.14333
#
# Static dielectric constant tensor:
#      x y z
#    x 1.908070 0.074570 -0.038160 
#    y 0.074570 1.974410 -0.022440 
#    z -0.038160 -0.022440 2.086130 
# 
# From -- ./inp_files/597927.got.cif
#   From: 2010.05.17/outbox.cif.g08.bks.cpg/sg2_299_cif.got.tgz:597927.got - 2010.06.03 11:33:40.
