data_PCOD9053874
_publ_section_title
;
Structure prediction by ZEFSAII (Michael W. Deem and Ramdas Pophale) SiO2 
 PCOD9053874
Probable space group: P -1
;
_chemical_formula_sum "Si O2"
_cell_formula_units_Z 16
_cell_length_a 13.682034
_cell_length_b 8.371180
_cell_length_c 17.637974
_cell_angle_alpha 33.043292
_cell_angle_beta 136.647387
_cell_angle_gamma 124.028363
_cell_volume 749.433649
_symmetry_space_group_name_H-M "P -1"
_symmetry_group_IT_number 2
_symmetry_cell_setting 'triclinic'
loop_
_space_group_symop_operation_xyz
x,y,z
-x,-y,-z
loop_
_atom_site_type_symbol
_atom_site_label
_atom_site_fract_x
_atom_site_fract_y
_atom_site_fract_z
Si Si1 0.232397 0.022527 0.297252
Si Si2 0.601174 0.218036 0.367972
Si Si3 0.372644 0.033522 0.072145
Si Si4 0.318918 0.644682 0.058386
Si Si5 0.793986 0.346935 0.293365
Si Si6 0.401279 0.804863 0.338304
Si Si7 0.711792 0.972237 0.261503
Si Si8 0.059362 0.564245 0.425494
O O1 0.346522 0.948914 0.459211
O O2 0.287370 0.825591 0.333517
O O3 0.089816 0.898426 0.295166
O O4 0.235366 0.363659 0.140237
O O5 0.488874 0.510164 0.204330
O O6 0.738885 0.262648 0.378337
O O7 0.508601 0.028646 0.338192
O O8 0.304185 0.879860 0.024328
O O9 0.329635 0.906524 0.178250
O O10 0.544773 0.971063 0.186646
O O11 0.322844 0.380732 0.905819
O O12 0.278472 0.807746 0.891665
O O13 0.788096 0.093273 0.329455
O O14 0.945784 0.463291 0.342340
O O15 0.500000 0.500000 0.500000
O O16 0.790887 0.651018 0.412484
O O17 0.000000 0.500000 0.500000
#
# Coordination Sequence:
#
# PCOD9053874 Si02
#       8
#     2   2   2   2   2   2   2   2
#     4  11  24  42  63  95 137 177 215 270 332 394
#     4  11  20  38  64  95 134 167 213 276 324 385
#     4  12  23  41  72 103 131 170 222 276 333 389
#     4  11  23  40  66 102 132 166 221 276 331 383
#     4  12  24  42  67 100 131 171 224 271 324 391
#     4  11  21  37  63 100 133 166 216 276 335 385
#     4  12  24  44  69 101 134 173 221 275 327 393
#     4  12  26  46  68  93 134 184 224 262 327 400
#
# _framework density 21.349454999999999
#
# number of rings (size 3 to 8) (size 9 to 14) (size 15 to 20)
#    0.000    0.500    3.750    7.875    0.000    0.000 
#    0.000    5.000    0.000    0.000    0.000    0.000 
#    0.000    0.000    0.000    0.000    0.000    0.000 
#
# Total GULP energy -89514.094676 kJ/mol
# GULP energy per Si atom -5594.630917 kJ/mol
# Density = 2.130086 g / cm^3
# Si number density = 21.349455 Si / 1000 Ang^3
#
#
#
# Elastic Constant Matrix: (Units=GPa)
#
#
# Indices 1 2 3 4 5 6 
#
# 1 81.5917 23.4426 16.4882 0.9004 -30.2839 -1.5406
# 2 23.4426 71.2487 -10.6924 -0.1120 -6.2186 0.8499
# 3 16.4882 -10.6924 45.4564 -1.3091 -14.6603 -2.6473
# 4 0.9004 -0.1120 -1.3091 28.3205 -1.1985 2.3555
# 5 -30.2839 -6.2186 -14.6603 -1.1985 42.2449 1.6337
# 6 -1.5406 0.8499 -2.6473 2.3555 1.6337 47.8332
#
#
#
# Elastic Compliance Matrix: (Units=1/GPa)
#
#
# Indices 1 2 3 4 5 6 
#
# 1 0.019085 -0.006023 -0.004755 -0.000388 0.011129 0.000097
# 2 -0.006023 0.017004 0.006320 0.000584 0.000402 -0.000189
# 3 -0.004755 0.006320 0.027608 0.001675 0.007113 0.000937
# 4 -0.000388 0.000584 0.001675 0.035608 0.001467 -0.001734
# 5 0.011129 0.000402 0.007113 0.001467 0.034238 -0.000497
# 6 0.000097 -0.000189 0.000937 -0.001734 -0.000497 0.021067
#
#
# Mechanical properties :
#
#
# Convention : Reuss Voigt Hill
#
# Bulk Modulus (GPa) = 18.25527 28.53042 23.39285
# Shear Modulus (GPa) = 27.50473 34.95028 31.22751
#
# Velocity S-wave (km/s) = 3.59320 4.05045 3.82865
# Velocity P-wave (km/s) = 5.07780 5.93863 5.52501
#
# Compressibility (1/GPa) = 0.05477869
#
# Stress axis : x y z
#
# Youngs Moduli (GPa) = 52.39789 58.80990 36.22193
#
# Poissons Ratio (x) = 0.35424 0.17225
# Poissons Ratio (y) = 0.31561 -0.22893
# Poissons Ratio (z) = 0.24918 -0.37168
#
# Static dielectric constant tensor:
#      x y z
#    x 1.878170 -0.008580 -0.033480 
#    y -0.008580 1.785950 -0.005820 
#    z -0.033480 -0.005820 1.776050 
# 
# From -- ./inp_files/269450.got.cif
#   From: 2010.05.17/outbox.cif.g08.bks.cpg/sg2_135_cif.got.tgz:269450.got - 2010.06.03 11:33:40.
