data_PCOD9053839
_publ_section_title
;
Structure prediction by ZEFSAII (Michael W. Deem and Ramdas Pophale) SiO2 
 PCOD9053839
Probable space group: P -1
;
_chemical_formula_sum "Si O2"
_cell_formula_units_Z 14
_cell_length_a 9.356984
_cell_length_b 13.415230
_cell_length_c 11.031042
_cell_angle_alpha 88.096057
_cell_angle_beta 95.903878
_cell_angle_gamma 151.053830
_cell_volume 661.961438
_symmetry_space_group_name_H-M "P -1"
_symmetry_group_IT_number 2
_symmetry_cell_setting 'triclinic'
loop_
_space_group_symop_operation_xyz
x,y,z
-x,-y,-z
loop_
_atom_site_type_symbol
_atom_site_label
_atom_site_fract_x
_atom_site_fract_y
_atom_site_fract_z
Si Si1 0.662301 0.779624 0.180153
Si Si2 0.666657 0.499468 0.049290
Si Si3 0.389389 0.511325 0.389332
Si Si4 0.631482 0.043358 0.882251
Si Si5 0.267248 0.965726 0.688769
Si Si6 0.310827 0.133128 0.480506
Si Si7 0.676369 0.854880 0.807236
O O1 0.594775 0.656350 0.283403
O O2 0.699075 0.910390 0.238378
O O3 0.400040 0.613415 0.066290
O O4 0.975810 0.947092 0.137478
O O5 0.511360 0.353449 0.156327
O O6 0.012853 0.727774 0.091321
O O7 0.500000 0.500000 0.000000
O O8 0.500000 0.500000 0.500000
O O9 0.417395 0.634279 0.455127
O O10 0.066368 0.281147 0.324891
O O11 0.492528 0.024678 0.763499
O O12 0.559822 0.884420 0.857290
O O13 0.500000 0.000000 0.000000
O O14 0.317521 0.031551 0.552454
O O15 0.324699 0.136512 0.338140
O O16 0.000000 0.000000 0.500000
#
# Coordination Sequence:
#
# PCOD9053839 Si02
#       7
#     2   2   2   2   2   2   2
#     4  11  23  41  70 105 138 181 242 289 341 422
#     4  12  28  44  75 103 135 194 244 291 357 423
#     4  11  20  37  72 102 136 184 232 281 352 412
#     4  12  29  48  70 105 150 186 233 300 363 414
#     4  11  24  43  70 104 147 184 232 294 351 414
#     4  11  22  42  70 108 142 183 238 294 345 426
#     4  12  25  45  72 106 144 181 243 297 346 433
#
# _framework density 21.149270000000001
#
# number of rings (size 3 to 8) (size 9 to 14) (size 15 to 20)
#    0.000    0.571    5.714    2.143    6.000    6.286 
#    0.000    1.429    0.000    0.000    0.000    0.000 
#    0.000    0.000    0.000    0.000    0.000    0.000 
#
# Total GULP energy -78314.957532 kJ/mol
# GULP energy per Si atom -5593.925538 kJ/mol
# Density = 2.110113 g / cm^3
# Si number density = 21.149270 Si / 1000 Ang^3
#
#
#
# Elastic Constant Matrix: (Units=GPa)
#
#
# Indices 1 2 3 4 5 6 
#
# 1 97.9928 52.7811 39.4274 -11.1681 20.6326 -1.5102
# 2 52.7811 152.0032 47.5006 -4.9024 16.1160 -0.7866
# 3 39.4274 47.5006 123.4829 -16.0322 11.1005 5.4540
# 4 -11.1681 -4.9024 -16.0322 46.2992 -3.8711 3.9867
# 5 20.6326 16.1160 11.1005 -3.8711 41.9114 8.6488
# 6 -1.5102 -0.7866 5.4540 3.9867 8.6488 28.7369
#
#
#
# Elastic Compliance Matrix: (Units=1/GPa)
#
#
# Indices 1 2 3 4 5 6 
#
# 1 0.014590 -0.003575 -0.002709 0.001518 -0.005492 0.002625
# 2 -0.003575 0.008624 -0.002224 -0.000908 -0.001252 0.000973
# 3 -0.002709 -0.002224 0.010290 0.002926 0.000279 -0.002646
# 4 0.001518 -0.000908 0.002926 0.023410 0.001880 -0.004314
# 5 -0.005492 -0.001252 0.000279 0.001880 0.029082 -0.009389
# 6 0.002625 0.000973 -0.002646 -0.004314 -0.009389 0.038890
#
#
# Mechanical properties :
#
#
# Convention : Reuss Voigt Hill
#
# Bulk Modulus (GPa) = 60.64772 72.54411 66.59591
# Shear Modulus (GPa) = 33.92197 38.97417 36.44807
#
# Velocity S-wave (km/s) = 4.00926 4.29746 4.15586
# Velocity P-wave (km/s) = 7.08311 7.68112 7.38817
#
# Compressibility (1/GPa) = 0.01648867
#
# Stress axis : x y z
#
# Youngs Moduli (GPa) = 68.54050 115.96006 97.17917
#
# Poissons Ratio (x) = 0.41455 0.26321
# Poissons Ratio (y) = 0.24503 0.21614
# Poissons Ratio (z) = 0.18564 0.25791
#
# Static dielectric constant tensor:
#      x y z
#    x 1.764270 -0.018460 -0.010720 
#    y -0.018460 1.759890 0.005690 
#    z -0.010720 0.005690 1.801700 
# 
# From -- ./inp_files/392516.got.cif
#   From: 2010.05.17/outbox.cif.g08.bks.cpg/sg2_197_cif.got.tgz:392516.got - 2010.06.03 11:33:40.
