data_PCOD9053689
_publ_section_title
;
Structure prediction by ZEFSAII (Michael W. Deem and Ramdas Pophale) SiO2 
 PCOD9053689
Probable space group: P -1
;
_chemical_formula_sum "Si O2"
_cell_formula_units_Z 16
_cell_length_a 6.401280
_cell_length_b 9.600428
_cell_length_c 17.503250
_cell_angle_alpha 131.704163
_cell_angle_beta 94.140985
_cell_angle_gamma 102.538048
_cell_volume 748.491746
_symmetry_space_group_name_H-M "P -1"
_symmetry_group_IT_number 2
_symmetry_cell_setting 'triclinic'
loop_
_space_group_symop_operation_xyz
x,y,z
-x,-y,-z
loop_
_atom_site_type_symbol
_atom_site_label
_atom_site_fract_x
_atom_site_fract_y
_atom_site_fract_z
Si Si1 0.877115 0.040628 0.767581
Si Si2 0.341510 0.625332 0.382794
Si Si3 0.559606 0.297320 0.426649
Si Si4 0.908219 0.279843 0.313229
Si Si5 0.618491 0.406656 0.237619
Si Si6 0.038609 0.253316 0.001913
Si Si7 0.294282 0.072784 0.021539
Si Si8 0.952025 0.373159 0.770348
O O1 0.904279 0.181342 0.894155
O O2 0.938597 0.177807 0.744727
O O3 0.632049 0.874787 0.687143
O O4 0.041192 0.917862 0.740182
O O5 0.422460 0.770853 0.510625
O O6 0.553594 0.565507 0.343494
O O7 0.225402 0.672847 0.321326
O O8 0.140798 0.441577 0.349079
O O9 0.500000 0.500000 0.500000
O O10 0.792381 0.336717 0.404017
O O11 0.734155 0.277794 0.241058
O O12 0.376859 0.260595 0.149476
O O13 0.799247 0.516235 0.217756
O O14 0.898159 0.117243 0.018074
O O15 0.244956 0.172261 0.979767
O O16 0.093712 0.476299 0.113995
O O17 0.500000 0.000000 0.000000
#
# Coordination Sequence:
#
# PCOD9053689 Si02
#       8
#     2   2   2   2   2   2   2   2
#     4  12  27  43  64 100 136 178 219 266 333 396
#     4  11  23  43  71  96 127 174 220 272 327 384
#     4  12  24  43  72 100 129 168 224 282 328 385
#     4  11  22  41  71  99 130 165 223 280 325 387
#     4  11  21  41  66  99 129 172 219 268 328 387
#     4  11  23  41  66  96 134 171 220 275 321 387
#     4  11  20  35  66  98 124 163 223 273 321 379
#     4  11  26  44  64  95 143 178 213 268 329 400
#
# _framework density 21.37632
#
# number of rings (size 3 to 8) (size 9 to 14) (size 15 to 20)
#    0.000    0.750    5.000    3.000    3.500    1.500 
#    0.000    1.875    0.000    0.000    0.000    0.000 
#    0.000    0.000    0.000    0.000    0.000    0.000 
#
# Total GULP energy -89285.566896 kJ/mol
# GULP energy per Si atom -5580.347931 kJ/mol
# Density = 2.132767 g / cm^3
# Si number density = 21.376320 Si / 1000 Ang^3
#
#
#
# Elastic Constant Matrix: (Units=GPa)
#
#
# Indices 1 2 3 4 5 6 
#
# 1 83.9197 36.3473 27.1409 -2.8862 -1.9306 -10.5649
# 2 36.3473 117.5696 25.7773 -5.7401 1.2659 -16.6881
# 3 27.1409 25.7773 83.5672 -31.4688 12.2826 -5.1127
# 4 -2.8862 -5.7401 -31.4688 23.1097 -4.5423 6.4346
# 5 -1.9306 1.2659 12.2826 -4.5423 42.9194 -10.2908
# 6 -10.5649 -16.6881 -5.1127 6.4346 -10.2908 20.0907
#
#
#
# Elastic Compliance Matrix: (Units=1/GPa)
#
#
# Indices 1 2 3 4 5 6 
#
# 1 0.017512 -0.002062 -0.010986 -0.015708 0.005316 0.012455
# 2 -0.002062 0.011470 -0.005299 -0.007072 0.002943 0.010868
# 3 -0.010986 -0.005299 0.036854 0.051745 -0.010914 -0.022964
# 4 -0.015708 -0.007072 0.051745 0.120269 -0.013732 -0.046520
# 5 0.005316 0.002943 -0.010914 -0.013732 0.030515 0.022491
# 6 0.012455 0.010868 -0.022964 -0.046520 0.022491 0.085926
#
#
# Mechanical properties :
#
#
# Convention : Reuss Voigt Hill
#
# Bulk Modulus (GPa) = 34.31463 51.50972 42.91218
# Shear Modulus (GPa) = 14.32850 30.27670 22.30260
#
# Velocity S-wave (km/s) = 2.59182 3.76755 3.23357
# Velocity P-wave (km/s) = 5.00442 6.56314 5.83605
#
# Compressibility (1/GPa) = 0.02914209
#
# Stress axis : x y z
#
# Youngs Moduli (GPa) = 57.10308 87.18063 27.13412
#
# Poissons Ratio (x) = 0.17973 0.29810
# Poissons Ratio (y) = 0.11772 0.14380
# Poissons Ratio (z) = 0.62735 0.46201
#
# Static dielectric constant tensor:
#      x y z
#    x 2.181920 -0.123690 0.179420 
#    y -0.123690 1.780640 -0.066860 
#    z 0.179420 -0.066860 1.952540 
# 
# From -- ./inp_files/548425.got.cif
#   From: 2010.05.17/outbox.cif.g08.bks.cpg/sg2_275_cif.got.tgz:548425.got - 2010.06.03 11:33:40.
