data_PCOD9053681
_publ_section_title
;
Structure prediction by ZEFSAII (Michael W. Deem and Ramdas Pophale) SiO2 
 PCOD9053681
Probable space group: P -1
;
_chemical_formula_sum "Si O2"
_cell_formula_units_Z 12
_cell_length_a 12.683900
_cell_length_b 9.211994
_cell_length_c 6.428377
_cell_angle_alpha 74.843279
_cell_angle_beta 135.591792
_cell_angle_gamma 114.562594
_cell_volume 477.298791
_symmetry_space_group_name_H-M "P -1"
_symmetry_group_IT_number 2
_symmetry_cell_setting 'triclinic'
loop_
_space_group_symop_operation_xyz
x,y,z
-x,-y,-z
loop_
_atom_site_type_symbol
_atom_site_label
_atom_site_fract_x
_atom_site_fract_y
_atom_site_fract_z
Si Si1 0.419050 0.314483 0.186715
Si Si2 0.144043 0.314155 0.059079
Si Si3 0.906607 0.074562 0.504246
Si Si4 0.246679 0.466381 0.540607
Si Si5 0.769846 0.353105 0.178921
Si Si6 0.567167 0.860567 0.105101
O O1 0.313191 0.292187 0.247684
O O2 0.599576 0.432063 0.415559
O O3 0.321203 0.379357 0.850367
O O4 0.429386 0.163858 0.130510
O O5 0.124862 0.342627 0.264135
O O6 0.162291 0.487302 0.919073
O O7 0.016322 0.167992 0.814395
O O8 0.838947 0.213182 0.271000
O O9 0.750253 0.929088 0.408240
O O10 0.000000 0.000000 0.500000
O O11 0.186656 0.587770 0.542556
O O12 0.574373 0.289012 0.939375
O O13 0.500000 0.000000 0.000000
#
# Coordination Sequence:
#
# PCOD9053681 Si02
#       6
#     2   2   2   2   2   2
#     4   9  17  34  57  86 117 150 193 248 290 342
#     4  11  20  35  64  89 116 151 203 248 286 348
#     4  11  21  37  61  88 122 161 191 239 307 348
#     4   9  19  34  60  91 113 149 202 247 289 340
#     4   9  21  39  64  85 115 159 200 245 285 350
#     4   9  18  36  60  81 117 160 191 230 300 354
#
# _framework density 25.141483999999998
#
# number of rings (size 3 to 8) (size 9 to 14) (size 15 to 20)
#    0.000    2.333    1.667    2.000    0.000    0.667 
#    0.000    0.833   11.000   14.000    0.000    0.000 
#    0.000    0.000    0.000    0.000    0.000    0.000 
#
# Total GULP energy -67042.281677 kJ/mol
# GULP energy per Si atom -5586.856806 kJ/mol
# Density = 2.508426 g / cm^3
# Si number density = 25.141484 Si / 1000 Ang^3
#
#
#
# Elastic Constant Matrix: (Units=GPa)
#
#
# Indices 1 2 3 4 5 6 
#
# 1 156.3063 71.8603 57.0232 9.0153 12.4726 -18.7550
# 2 71.8603 127.4533 56.8396 28.8671 -5.9326 -16.4689
# 3 57.0232 56.8396 122.5486 50.1728 1.4544 6.4524
# 4 9.0153 28.8671 50.1728 40.0589 -0.2765 -3.3732
# 5 12.4726 -5.9326 1.4544 -0.2765 29.2238 10.5598
# 6 -18.7550 -16.4689 6.4524 -3.3732 10.5598 54.6592
#
#
#
# Elastic Compliance Matrix: (Units=1/GPa)
#
#
# Indices 1 2 3 4 5 6 
#
# 1 0.012958 -0.005898 -0.008720 0.012711 -0.008378 0.006102
# 2 -0.005898 0.013416 -0.000392 -0.007762 0.004960 0.000628
# 3 -0.008720 -0.000392 0.024999 -0.029780 0.005343 -0.008932
# 4 0.012711 -0.007762 -0.029780 0.065888 -0.008994 0.011342
# 5 -0.008378 0.004960 0.005343 -0.008994 0.042333 -0.010745
# 6 0.006102 0.000628 -0.008932 0.011342 -0.010745 0.024408
#
#
# Mechanical properties :
#
#
# Convention : Reuss Voigt Hill
#
# Bulk Modulus (GPa) = 46.83236 86.41714 66.62475
# Shear Modulus (GPa) = 22.61020 39.49406 31.05213
#
# Velocity S-wave (km/s) = 3.00212 3.96772 3.51821
# Velocity P-wave (km/s) = 5.53940 7.44563 6.56210
#
# Compressibility (1/GPa) = 0.02135276
#
# Stress axis : x y z
#
# Youngs Moduli (GPa) = 77.17400 74.53680 40.00196
#
# Poissons Ratio (x) = 0.43958 0.34882
# Poissons Ratio (y) = 0.45514 0.01570
# Poissons Ratio (z) = 0.67295 0.02925
#
# Static dielectric constant tensor:
#      x y z
#    x 2.026260 -0.012380 0.032760 
#    y -0.012380 2.017000 0.008260 
#    z 0.032760 0.008260 2.050580 
# 
# From -- ./inp_files/64457.got.cif
#   From: 2010.05.17/outbox.cif.g08.bks.cpg/sg2_33_cif.got.tgz:64457.got - 2010.06.03 11:33:40.
