data_PCOD9053938
_publ_section_title
;
Structure prediction by ZEFSAII (Michael W. Deem and Ramdas Pophale) SiO2 
 PCOD9053938
Probable space group: P -1
;
_chemical_formula_sum "Si O2"
_cell_formula_units_Z 16
_cell_length_a 28.379905
_cell_length_b 17.966439
_cell_length_c 20.870505
_cell_angle_alpha 158.690579
_cell_angle_beta 166.003382
_cell_angle_gamma 16.086143
_cell_volume 713.122550
_symmetry_space_group_name_H-M "P -1"
_symmetry_group_IT_number 2
_symmetry_cell_setting 'triclinic'
loop_
_space_group_symop_operation_xyz
x,y,z
-x,-y,-z
loop_
_atom_site_type_symbol
_atom_site_label
_atom_site_fract_x
_atom_site_fract_y
_atom_site_fract_z
Si Si1 0.378927 0.174143 0.329724
Si Si2 0.757559 0.686298 0.521436
Si Si3 0.998071 0.991566 0.566332
Si Si4 0.855534 0.357867 0.841352
Si Si5 0.526856 0.545942 0.212559
Si Si6 0.213741 0.250530 0.833825
Si Si7 0.550770 0.601195 0.512091
Si Si8 0.018093 0.042165 0.914882
O O1 0.418302 0.351391 0.568991
O O2 0.400900 0.228099 0.328681
O O3 0.589047 0.866948 0.384091
O O4 0.101083 0.276509 0.062385
O O5 0.612673 0.626137 0.328760
O O6 0.042133 0.399484 0.663702
O O7 0.814919 0.864976 0.775855
O O8 0.772963 0.297666 0.536104
O O9 0.908771 0.837346 0.353678
O O10 0.000000 0.000000 0.500000
O O11 0.296321 0.777791 0.810584
O O12 0.620604 0.539657 0.629600
O O13 0.944797 0.092143 0.782734
O O14 0.791931 0.543203 0.966016
O O15 0.221538 0.728636 0.950225
O O16 0.500000 0.000000 0.000000
O O17 0.244785 0.772653 0.242677
#
# Coordination Sequence:
#
# PCOD9053938 Si02
#       8
#     2   2   2   2   2   2   2   2
#     4  11  18  36  59  83 108 149 196 226 269 336
#     4   9  17  33  62  81 105 145 199 234 259 327
#     4  11  20  37  54  86 116 141 183 236 285 324
#     4  11  20  39  59  79 115 154 189 220 274 356
#     4  10  17  35  63  78 109 149 195 233 268 330
#     4  10  20  36  62  84 104 146 196 231 271 328
#     4  12  25  33  55  93 120 143 178 238 297 326
#     4  10  19  35  55  84 112 144 187 237 280 320
#
# _framework density 22.436537000000001
#
# number of rings (size 3 to 8) (size 9 to 14) (size 15 to 20)
#    0.000    1.500    6.250    3.000    0.000    2.000 
#    2.250    0.625    2.750    0.750    0.000    0.000 
#    0.000    0.000    0.000    0.000    0.000    0.000 
#
# Total GULP energy -89160.684775 kJ/mol
# GULP energy per Si atom -5572.542798 kJ/mol
# Density = 2.238547 g / cm^3
# Si number density = 22.436537 Si / 1000 Ang^3
#
#
#
# Elastic Constant Matrix: (Units=GPa)
#
#
# Indices 1 2 3 4 5 6 
#
# 1 61.6593 35.5425 18.1706 -14.6710 7.2990 12.9442
# 2 35.5425 144.3770 50.4420 -54.3698 8.1389 8.0309
# 3 18.1706 50.4420 68.8571 -42.9712 5.3753 -2.1485
# 4 -14.6710 -54.3698 -42.9712 45.5480 -2.3999 5.0196
# 5 7.2990 8.1389 5.3753 -2.3999 24.7409 -7.6522
# 6 12.9442 8.0309 -2.1485 5.0196 -7.6522 27.3344
#
#
#
# Elastic Compliance Matrix: (Units=1/GPa)
#
#
# Indices 1 2 3 4 5 6 
#
# 1 0.023008 -0.002132 -0.001246 0.004718 -0.009670 -0.013940
# 2 -0.002132 0.014921 0.002132 0.019771 -0.005408 -0.008352
# 3 -0.001246 0.002132 0.036815 0.037171 -0.006519 -0.005794
# 4 0.004718 0.019771 0.037171 0.084070 -0.015520 -0.024904
# 5 -0.009670 -0.005408 -0.006519 -0.015520 0.052104 0.023092
# 6 -0.013940 -0.008352 -0.005794 -0.024904 0.023092 0.056222
#
#
# Mechanical properties :
#
#
# Convention : Reuss Voigt Hill
#
# Bulk Modulus (GPa) = 13.84028 53.68928 33.76478
# Shear Modulus (GPa) = 17.02334 30.90721 23.96528
#
# Velocity S-wave (km/s) = 2.75750 3.71555 3.27178
# Velocity P-wave (km/s) = 4.03985 6.51064 5.41797
#
# Compressibility (1/GPa) = 0.07225286
#
# Stress axis : x y z
#
# Youngs Moduli (GPa) = 43.46355 67.01907 27.16303
#
# Poissons Ratio (x) = 0.14285 0.03384
# Poissons Ratio (y) = 0.09264 -0.05791
# Poissons Ratio (z) = 0.05415 -0.14289
#
# Static dielectric constant tensor:
#      x y z
#    x 1.826300 0.010290 -0.043310 
#    y 0.010290 2.003730 -0.062660 
#    z -0.043310 -0.062660 1.902660 
# 
# From -- ./inp_files/257127.got.cif
#   From: 2010.05.17/outbox.cif.g08.bks.cpg/sg2_129_cif.got.tgz:257127.got - 2010.06.03 11:33:40.
