data_PCOD9053435
_publ_section_title
;
Structure prediction by ZEFSAII (Michael W. Deem and Ramdas Pophale) SiO2 
 PCOD9053435
Probable space group: P -1
;
_chemical_formula_sum "Si O2"
_cell_formula_units_Z 16
_cell_length_a 11.534091
_cell_length_b 20.385185
_cell_length_c 17.635832
_cell_angle_alpha 159.858449
_cell_angle_beta 149.887092
_cell_angle_gamma 31.412941
_cell_volume 695.592063
_symmetry_space_group_name_H-M "P -1"
_symmetry_group_IT_number 2
_symmetry_cell_setting 'triclinic'
loop_
_space_group_symop_operation_xyz
x,y,z
-x,-y,-z
loop_
_atom_site_type_symbol
_atom_site_label
_atom_site_fract_x
_atom_site_fract_y
_atom_site_fract_z
Si Si1 0.145596 0.377283 0.164824
Si Si2 0.797200 0.918400 0.000297
Si Si3 0.385398 0.557962 0.105163
Si Si4 0.725422 0.474357 0.816446
Si Si5 0.825170 0.230709 0.470158
Si Si6 0.651073 0.129747 0.774091
Si Si7 0.610680 0.870262 0.103363
Si Si8 0.657748 0.995254 0.426136
O O1 0.223544 0.569097 0.388889
O O2 0.214516 0.283445 0.183931
O O3 0.217543 0.211763 0.959559
O O4 0.863132 0.446027 0.077493
O O5 0.067686 0.924250 0.138766
O O6 0.723131 0.081896 0.201393
O O7 0.624429 0.986841 0.907035
O O8 0.352781 0.543608 0.162002
O O9 0.412077 0.776772 0.344180
O O10 0.568901 0.364052 0.970188
O O11 0.725547 0.292513 0.564296
O O12 0.573406 0.668686 0.900601
O O13 0.000000 0.500000 0.000000
O O14 0.105090 0.128989 0.532623
O O15 0.500000 0.000000 0.500000
O O16 0.563113 0.091086 0.766712
O O17 0.709011 0.969044 0.337280
#
# Coordination Sequence:
#
# PCOD9053435 Si02
#       8
#     2   2   2   2   2   2   2   2
#     4  11  21  41  67  97 136 165 224 271 327 402
#     4  12  27  42  65  98 138 183 210 270 344 391
#     4  12  22  39  72 103 120 179 226 276 326 381
#     4  11  19  39  70  96 135 167 222 278 326 394
#     4  11  21  41  67  98 129 173 218 276 328 382
#     4  12  24  46  68  97 135 172 228 276 318 398
#     4  11  24  44  65 100 141 169 216 281 333 394
#     4  12  23  42  69  99 127 174 229 272 325 384
#
# _framework density 23.001988000000001
#
# number of rings (size 3 to 8) (size 9 to 14) (size 15 to 20)
#    0.000    0.500    8.750    0.375    1.750    6.500 
#    2.250    0.625    0.000    0.000    0.000    0.000 
#    0.000    0.000    0.000    0.000    0.000    0.000 
#
# Total GULP energy -89497.554510 kJ/mol
# GULP energy per Si atom -5593.597157 kJ/mol
# Density = 2.294963 g / cm^3
# Si number density = 23.001988 Si / 1000 Ang^3
#
#
#
# Elastic Constant Matrix: (Units=GPa)
#
#
# Indices 1 2 3 4 5 6 
#
# 1 95.4797 40.8262 19.5229 1.5815 6.8893 13.4372
# 2 40.8262 138.9291 36.9031 -0.4361 8.3672 19.9122
# 3 19.5229 36.9031 85.6104 23.4969 -3.1987 -3.6434
# 4 1.5815 -0.4361 23.4969 37.9875 2.9623 4.2238
# 5 6.8893 8.3672 -3.1987 2.9623 33.2134 6.2462
# 6 13.4372 19.9122 -3.6434 4.2238 6.2462 40.1569
#
#
#
# Elastic Compliance Matrix: (Units=1/GPa)
#
#
# Indices 1 2 3 4 5 6 
#
# 1 0.012564 -0.002523 -0.002350 0.001376 -0.001748 -0.003039
# 2 -0.002523 0.010141 -0.005208 0.004131 -0.002003 -0.004780
# 3 -0.002350 -0.005208 0.018163 -0.012111 0.003550 0.005738
# 4 0.001376 0.004131 -0.012111 0.034880 -0.004362 -0.006598
# 5 -0.001748 -0.002003 0.003550 -0.004362 0.032205 -0.002650
# 6 -0.003039 -0.004780 0.005738 -0.006598 -0.002650 0.029916
#
#
# Mechanical properties :
#
#
# Convention : Reuss Voigt Hill
#
# Bulk Modulus (GPa) = 48.29470 57.16930 52.73200
# Shear Modulus (GPa) = 30.31555 37.12270 33.71913
#
# Velocity S-wave (km/s) = 3.63430 4.02168 3.83289
# Velocity P-wave (km/s) = 6.21710 6.81713 6.52402
#
# Compressibility (1/GPa) = 0.02070621
#
# Stress axis : x y z
#
# Youngs Moduli (GPa) = 79.59496 98.60632 55.05803
#
# Poissons Ratio (x) = 0.24875 0.12938
# Poissons Ratio (y) = 0.20079 0.28675
# Poissons Ratio (z) = 0.18704 0.51356
#
# Static dielectric constant tensor:
#      x y z
#    x 1.923120 0.040790 0.019230 
#    y 0.040790 1.878410 0.052360 
#    z 0.019230 0.052360 1.911800 
# 
# From -- ./inp_files/570824.got.cif
#   From: 2010.05.17/outbox.cif.g08.bks.cpg/sg2_286_cif.got.tgz:570824.got - 2010.06.03 11:33:40.
