data_PCOD9053012
_publ_section_title
;
Structure prediction by ZEFSAII (Michael W. Deem and Ramdas Pophale) SiO2 
 PCOD9053012
Probable space group: P -1
;
_chemical_formula_sum "Si O2"
_cell_formula_units_Z 16
_cell_length_a 11.028474
_cell_length_b 7.787195
_cell_length_c 23.350287
_cell_angle_alpha 126.163943
_cell_angle_beta 31.299715
_cell_angle_gamma 136.971755
_cell_volume 707.505057
_symmetry_space_group_name_H-M "P -1"
_symmetry_group_IT_number 2
_symmetry_cell_setting 'triclinic'
loop_
_space_group_symop_operation_xyz
x,y,z
-x,-y,-z
loop_
_atom_site_type_symbol
_atom_site_label
_atom_site_fract_x
_atom_site_fract_y
_atom_site_fract_z
Si Si1 0.199828 0.759601 0.092091
Si Si2 0.819660 0.910049 0.450486
Si Si3 0.322044 0.690239 0.417167
Si Si4 0.848867 0.890609 0.178285
Si Si5 0.648017 0.497067 0.510993
Si Si6 0.669894 0.579828 0.087418
Si Si7 0.761236 0.895389 0.766892
Si Si8 0.940386 0.651494 0.736027
O O1 0.185939 0.842537 0.178447
O O2 0.988201 0.780056 0.140388
O O3 0.195845 0.507808 0.031343
O O4 0.500000 0.000000 0.000000
O O5 0.769007 0.791209 0.509943
O O6 0.652426 0.666954 0.429130
O O7 0.133483 0.076514 0.334439
O O8 0.658607 0.048280 0.531981
O O9 0.521055 0.729986 0.292910
O O10 0.392032 0.596589 0.426986
O O11 0.000000 0.500000 0.500000
O O12 0.867627 0.832756 0.093108
O O13 0.968175 0.173527 0.209671
O O14 0.871631 0.450762 0.380440
O O15 0.391661 0.554122 0.169768
O O16 0.538814 0.344508 0.140959
O O17 0.959253 0.837540 0.713801
#
# Coordination Sequence:
#
# PCOD9053012 Si02
#       8
#     2   2   2   2   2   2   2   2
#     4   9  16  29  50  81 107 139 186 234 279 338
#     4  11  21  34  57  82 112 152 190 231 285 338
#     4  12  23  37  57  83 119 153 192 231 284 342
#     4  11  18  29  54  77 111 148 182 232 283 333
#     4  11  21  35  55  81 113 151 193 232 279 343
#     4   9  18  31  50  82 105 142 187 230 288 335
#     4   8  16  31  50  75 106 141 180 228 273 332
#     4   9  17  32  52  75 105 146 183 226 276 331
#
# _framework density 22.614678999999999
#
# number of rings (size 3 to 8) (size 9 to 14) (size 15 to 20)
#    0.750    1.250    3.750    3.750    0.000    0.500 
#    0.000    0.000    0.000    0.750    0.000    0.875 
#    0.000    0.625    0.000    0.000    0.000    0.000 
#
# Total GULP energy -89169.600557 kJ/mol
# GULP energy per Si atom -5573.100035 kJ/mol
# Density = 2.256321 g / cm^3
# Si number density = 22.614679 Si / 1000 Ang^3
#
#
#
# Elastic Constant Matrix: (Units=GPa)
#
#
# Indices 1 2 3 4 5 6 
#
# 1 -297.7353 662.3952 250.9219 432.6500 -190.7131 -83.9715
# 2 662.3952-1215.4959 -525.3396 -829.9486 392.0135 171.8972
# 3 250.9219 -525.3396 -154.9501 -328.8700 153.7473 66.1920
# 4 432.6500 -829.9486 -328.8700 -530.1676 268.1743 110.8639
# 5 -190.7131 392.0135 153.7473 268.1743 -94.3657 -55.6583
# 6 -83.9715 171.8972 66.1920 110.8639 -55.6583 14.9064
#
#
#
# Elastic Compliance Matrix: (Units=1/GPa)
#
#
# Indices 1 2 3 4 5 6 
#
# 1 0.029808 -0.000359 0.005451 0.011027 -0.018844 -0.004526
# 2 -0.000359 0.017583 0.007383 -0.024907 0.014326 0.001167
# 3 0.005451 0.007383 0.026352 -0.018532 0.009291 0.001072
# 4 0.011027 -0.024907 -0.018532 0.048949 -0.017706 0.001467
# 5 -0.018844 0.014326 0.009291 -0.017706 0.049507 0.003921
# 6 -0.004526 0.001167 0.001072 0.001467 0.003921 0.027107
#
#
# Mechanical properties :
#
#
# Convention : Reuss Voigt Hill
#
# Bulk Modulus (GPa) = 10.13259 -99.13625 -44.50183
# Shear Modulus (GPa) = 24.12511 -259.00264 -117.43876
#
# Velocity S-wave (km/s) = 3.26972 -10.71341 -7.21409
# Velocity P-wave (km/s) = 4.32955 14.03455 9.43990
#
# Compressibility (1/GPa) = 0.09869149
#
# Stress axis : x y z
#
# Youngs Moduli (GPa) = 33.54825 56.87449 37.94757
#
# Poissons Ratio (x) = 0.02041 -0.20684
# Poissons Ratio (y) = 0.01204 -0.28015
# Poissons Ratio (z) = -0.18286 -0.41988
#
# Static dielectric constant tensor:
#      x y z
#    x 1.896840 -0.041880 -0.023470 
#    y -0.041880 2.156650 0.044410 
#    z -0.023470 0.044410 1.877560 
# 
# From -- ./inp_files/618092.got.cif
#   From: 2010.05.17/outbox.cif.g08.bks.cpg/sg2_310_cif.got.tgz:618092.got - 2010.06.03 11:33:40.
