data_PCOD9053197
_publ_section_title
;
Structure prediction by ZEFSAII (Michael W. Deem and Ramdas Pophale) SiO2 
 PCOD9053197
Probable space group: P -1
;
_chemical_formula_sum "Si O2"
_cell_formula_units_Z 14
_cell_length_a 10.210329
_cell_length_b 9.674717
_cell_length_c 8.481141
_cell_angle_alpha 122.527433
_cell_angle_beta 75.864885
_cell_angle_gamma 74.021887
_cell_volume 594.278351
_symmetry_space_group_name_H-M "P -1"
_symmetry_group_IT_number 2
_symmetry_cell_setting 'triclinic'
loop_
_space_group_symop_operation_xyz
x,y,z
-x,-y,-z
loop_
_atom_site_type_symbol
_atom_site_label
_atom_site_fract_x
_atom_site_fract_y
_atom_site_fract_z
Si Si1 0.917443 0.267123 0.661909
Si Si2 0.897007 0.909384 0.800267
Si Si3 0.249961 0.956109 0.379544
Si Si4 0.607131 0.660125 0.641760
Si Si5 0.599275 0.066256 0.377412
Si Si6 0.783999 0.695626 0.909766
Si Si7 0.276791 0.733849 0.749807
O O1 0.787679 0.215881 0.722950
O O2 0.868240 0.484168 0.820745
O O3 0.959047 0.199401 0.425557
O O4 0.086319 0.128019 0.604270
O O5 0.892141 0.767909 0.840921
O O6 0.753870 0.977710 0.757931
O O7 0.861273 0.106221 0.009432
O O8 0.389994 0.919261 0.429760
O O9 0.555419 0.806593 0.601254
O O10 0.675950 0.701533 0.800291
O O11 0.446175 0.663488 0.738517
O O12 0.723214 0.453905 0.412134
O O13 0.703300 0.156902 0.337840
O O14 0.683811 0.852703 0.163021
#
# Coordination Sequence:
#
# PCOD9053197 Si02
#       7
#     2   2   2   2   2   2   2
#     4   9  20  35  58  74 110 142 177 212 267 318
#     4   9  19  35  54  82 107 136 174 228 258 306
#     4   9  19  38  54  74 112 143 175 212 267 317
#     4   9  18  33  56  80 104 139 182 216 257 317
#     4   9  18  32  54  77 106 143 172 213 264 318
#     4  11  19  33  58  81 105 140 178 217 265 307
#     4   8  17  33  57  75 104 139 186 212 254 309
#
# _framework density 23.557981000000002
#
# number of rings (size 3 to 8) (size 9 to 14) (size 15 to 20)
#    1.714    1.143    0.000    1.714    0.000    0.571 
#    0.000   10.714    0.000    0.000    0.000    0.000 
#    0.000    0.000    0.000    0.000    0.000    0.000 
#
# Total GULP energy -78043.871021 kJ/mol
# GULP energy per Si atom -5574.562216 kJ/mol
# Density = 2.350436 g / cm^3
# Si number density = 23.557981 Si / 1000 Ang^3
#
#
#
# Elastic Constant Matrix: (Units=GPa)
#
#
# Indices 1 2 3 4 5 6 
#
# 1 64.2193 6.0271 17.6089 0.9159 11.0636 -13.5488
# 2 6.0271 104.5421 31.2525 29.8056 3.9460 7.8895
# 3 17.6089 31.2525 73.3172 36.2125 6.8882 8.2225
# 4 0.9159 29.8056 36.2125 39.3887 1.6728 4.4972
# 5 11.0636 3.9460 6.8882 1.6728 16.9169 -8.1949
# 6 -13.5488 7.8895 8.2225 4.4972 -8.1949 36.4029
#
#
#
# Elastic Compliance Matrix: (Units=1/GPa)
#
#
# Indices 1 2 3 4 5 6 
#
# 1 0.020601 -0.001118 -0.008326 0.007488 -0.007035 0.007281
# 2 -0.001118 0.012497 -0.000142 -0.008904 -0.002482 -0.002551
# 3 -0.008326 -0.000142 0.030502 -0.026397 -0.008503 -0.008611
# 4 0.007488 -0.008904 -0.026397 0.055454 0.004825 0.004915
# 5 -0.007035 -0.002482 -0.008503 0.004825 0.075101 0.016150
# 6 0.007281 -0.002551 -0.008611 0.004915 0.016150 0.035707
#
#
# Mechanical properties :
#
#
# Convention : Reuss Voigt Hill
#
# Bulk Modulus (GPa) = 22.50749 39.09508 30.80128
# Shear Modulus (GPa) = 18.95079 31.02105 24.98592
#
# Velocity S-wave (km/s) = 2.83933 3.63270 3.26024
# Velocity P-wave (km/s) = 4.50820 5.85036 5.22257
#
# Compressibility (1/GPa) = 0.04442966
#
# Stress axis : x y z
#
# Youngs Moduli (GPa) = 48.54167 80.01913 32.78489
#
# Poissons Ratio (x) = 0.08944 0.27296
# Poissons Ratio (y) = 0.05426 0.00464
# Poissons Ratio (z) = 0.40414 0.01134
#
# Static dielectric constant tensor:
#      x y z
#    x 1.962610 -0.019600 0.004270 
#    y -0.019600 1.908710 -0.025340 
#    z 0.004270 -0.025340 1.856510 
# 
# From -- ./inp_files/304148.got.cif
#   From: 2010.05.17/outbox.cif.g08.bks.cpg/sg2_153_cif.got.tgz:304148.got - 2010.06.03 11:33:40.
