data_PCOD9053929
_publ_section_title
;
Structure prediction by ZEFSAII (Michael W. Deem and Ramdas Pophale) SiO2 
 PCOD9053929
Probable space group: P -1
;
_chemical_formula_sum "Si O2"
_cell_formula_units_Z 12
_cell_length_a 8.468392
_cell_length_b 15.188107
_cell_length_c 9.163182
_cell_angle_alpha 141.611559
_cell_angle_beta 45.788767
_cell_angle_gamma 142.830934
_cell_volume 433.790335
_symmetry_space_group_name_H-M "P -1"
_symmetry_group_IT_number 2
_symmetry_cell_setting 'triclinic'
loop_
_space_group_symop_operation_xyz
x,y,z
-x,-y,-z
loop_
_atom_site_type_symbol
_atom_site_label
_atom_site_fract_x
_atom_site_fract_y
_atom_site_fract_z
Si Si1 0.806980 0.344260 0.142299
Si Si2 0.832812 0.613279 0.272609
Si Si3 0.349343 0.554142 0.370095
Si Si4 0.293142 0.227018 0.838246
Si Si5 0.148613 0.904127 0.662772
Si Si6 0.740167 0.983026 0.962063
O O1 0.745322 0.437753 0.178041
O O2 0.862154 0.438111 0.383514
O O3 0.559233 0.149140 0.064261
O O4 0.067127 0.370776 0.936319
O O5 0.585230 0.627103 0.435277
O O6 0.073987 0.758346 0.404599
O O7 0.494814 0.682515 0.308924
O O8 0.302587 0.374546 0.119252
O O9 0.973754 0.096669 0.841898
O O10 0.339717 0.094775 0.720220
O O11 0.238988 0.902160 0.765182
O O12 0.862143 0.883382 0.827646
#
# Coordination Sequence:
#
# PCOD9053929 Si02
#       6
#     2   2   2   2   2   2
#     4  11  23  36  57  85 111 146 186 227 275 327
#     4  11  23  36  57  85 111 146 186 227 275 327
#     4  11  20  39  60  77 117 145 182 231 274 327
#     4   9  20  35  60  85 103 153 186 219 280 329
#     4   9  18  35  58  84 109 140 187 221 272 324
#     4   9  18  35  58  84 109 140 187 221 272 324
#
# _framework density 27.663135
#
# number of rings (size 3 to 8) (size 9 to 14) (size 15 to 20)
#    1.000    1.000    1.667    2.500    0.000    3.333 
#    0.000    8.333    0.000    0.000    0.000    0.000 
#    0.000    0.000    0.000    0.000    0.000    0.000 
#
# Total GULP energy -67113.454398 kJ/mol
# GULP energy per Si atom -5592.787866 kJ/mol
# Density = 2.760017 g / cm^3
# Si number density = 27.663135 Si / 1000 Ang^3
#
#
#
# Elastic Constant Matrix: (Units=GPa)
#
#
# Indices 1 2 3 4 5 6 
#
# 1 22.4113 7.0174 3.1433 10.4226 1.8944 1.4286
# 2 7.0174 185.9993 30.9901 -5.9182 -10.6060 -15.5487
# 3 3.1433 30.9901 123.7242 -9.7101 -6.9271 4.6310
# 4 10.4226 -5.9182 -9.7101 46.7474 9.6111 2.2370
# 5 1.8944 -10.6060 -6.9271 9.6111 21.2917 3.0302
# 6 1.4286 -15.5487 4.6310 2.2370 3.0302 43.9740
#
#
#
# Elastic Compliance Matrix: (Units=1/GPa)
#
#
# Indices 1 2 3 4 5 6 
#
# 1 0.051201 -0.002204 -0.001651 -0.011833 -0.000618 -0.001624
# 2 -0.002204 0.006011 -0.001373 0.000400 0.002255 0.002166
# 3 -0.001651 -0.001373 0.008761 0.001728 0.001756 -0.001563
# 4 -0.011833 0.000400 0.001728 0.026535 -0.010120 -0.000309
# 5 -0.000618 0.002255 0.001756 -0.010120 0.053647 -0.002550
# 6 -0.001624 0.002166 -0.001563 -0.000309 -0.002550 0.023915
#
#
# Mechanical properties :
#
#
# Convention : Reuss Voigt Hill
#
# Bulk Modulus (GPa) = 18.01292 46.04848 32.03070
# Shear Modulus (GPa) = 25.12174 41.80156 33.46165
#
# Velocity S-wave (km/s) = 3.01679 3.89149 3.48172
# Velocity P-wave (km/s) = 4.31976 6.07239 5.26945
#
# Compressibility (1/GPa) = 0.05551570
#
# Stress axis : x y z
#
# Youngs Moduli (GPa) = 19.53093 166.37221 114.14526
#
# Poissons Ratio (x) = 0.36671 0.18847
# Poissons Ratio (y) = 0.04305 0.15672
# Poissons Ratio (z) = 0.03225 0.22842
#
# Static dielectric constant tensor:
#      x y z
#    x 2.173600 -0.014740 -0.029150 
#    y -0.014740 2.083540 0.015360 
#    z -0.029150 0.015360 2.210570 
# 
# From -- ./inp_files/280060.got.cif
#   From: 2010.05.17/outbox.cif.g08.bks.cpg/sg2_141_cif.got.tgz:280060.got - 2010.06.03 11:33:40.
