data_PCOD9053859
_publ_section_title
;
Structure prediction by ZEFSAII (Michael W. Deem and Ramdas Pophale) SiO2 
 PCOD9053859
Probable space group: P -1
;
_chemical_formula_sum "Si O2"
_cell_formula_units_Z 16
_cell_length_a 8.953274
_cell_length_b 13.086701
_cell_length_c 12.052712
_cell_angle_alpha 36.393852
_cell_angle_beta 99.987272
_cell_angle_gamma 114.321892
_cell_volume 730.164019
_symmetry_space_group_name_H-M "P -1"
_symmetry_group_IT_number 2
_symmetry_cell_setting 'triclinic'
loop_
_space_group_symop_operation_xyz
x,y,z
-x,-y,-z
loop_
_atom_site_type_symbol
_atom_site_label
_atom_site_fract_x
_atom_site_fract_y
_atom_site_fract_z
Si Si1 0.804506 0.317853 0.292094
Si Si2 0.958464 0.645825 0.198845
Si Si3 0.512759 0.172449 0.774775
Si Si4 0.222383 0.985116 0.596127
Si Si5 0.448864 0.277771 0.187926
Si Si6 0.813800 0.538723 0.507929
Si Si7 0.586862 0.027766 0.695386
Si Si8 0.129925 0.064272 0.747925
O O1 0.904264 0.525108 0.181970
O O2 0.622058 0.282763 0.251988
O O3 0.878808 0.228204 0.287278
O O4 0.906463 0.414477 0.673708
O O5 0.823102 0.580616 0.339794
O O6 0.022440 0.868888 0.976517
O O7 0.618757 0.389783 0.643916
O O8 0.614906 0.139772 0.714627
O O9 0.326247 0.133209 0.748690
O O10 0.500000 0.000000 0.000000
O O11 0.294885 0.149235 0.365328
O O12 0.400489 0.001052 0.655591
O O13 0.122453 0.019258 0.654756
O O14 0.418717 0.179266 0.148177
O O15 0.500000 0.500000 0.000000
O O16 0.742046 0.166959 0.516703
O O17 0.897544 0.750125 0.390609
#
# Coordination Sequence:
#
# PCOD9053859 Si02
#       8
#     2   2   2   2   2   2   2   2
#     4   9  17  37  59  79 114 162 189 233 301 352
#     4  11  23  42  63  83 126 164 198 237 303 365
#     4  11  20  38  62  89 116 158 202 248 305 341
#     4   8  18  35  59  80 116 147 190 250 292 342
#     4   9  17  33  56  92 115 146 202 246 290 351
#     4  11  24  42  61  88 120 163 204 244 290 361
#     4   8  16  33  56  78 114 153 189 238 290 346
#     4  11  23  41  61  91 121 153 201 254 301 351
#
# _framework density 21.912883999999998
#
# number of rings (size 3 to 8) (size 9 to 14) (size 15 to 20)
#    0.000    2.250    2.500    2.250    0.000    1.500 
#    9.000    0.625    0.000    0.000    0.000    0.000 
#    0.000    0.000    0.000    0.000    0.000    0.000 
#
# Total GULP energy -89119.254896 kJ/mol
# GULP energy per Si atom -5569.953431 kJ/mol
# Density = 2.186301 g / cm^3
# Si number density = 21.912884 Si / 1000 Ang^3
#
#
#
# Elastic Constant Matrix: (Units=GPa)
#
#
# Indices 1 2 3 4 5 6 
#
# 1 18.1281 -5.7327 4.8933 0.5480 0.2150 6.2810
# 2 -5.7327 93.5956 37.4709 -16.9664 -2.1988 -2.6343
# 3 4.8933 37.4709 103.4052 -26.8231 -3.4230 -13.2160
# 4 0.5480 -16.9664 -26.8231 39.5077 -1.0198 -1.8346
# 5 0.2150 -2.1988 -3.4230 -1.0198 16.2249 -6.5437
# 6 6.2810 -2.6343 -13.2160 -1.8346 -6.5437 21.7153
#
#
#
# Elastic Compliance Matrix: (Units=1/GPa)
#
#
# Indices 1 2 3 4 5 6 
#
# 1 0.073312 0.006766 -0.013280 -0.009175 -0.017333 -0.034464
# 2 0.006766 0.013400 -0.005118 0.002008 -0.000625 -0.003465
# 3 -0.013280 -0.005118 0.017795 0.011217 0.011372 0.018425
# 4 -0.009175 0.002008 0.011217 0.034962 0.011464 0.016132
# 5 -0.017333 -0.000625 0.011372 0.011464 0.079766 0.036864
# 6 -0.034464 -0.003465 0.018425 0.016132 0.036864 0.079284
#
#
# Mechanical properties :
#
#
# Convention : Reuss Voigt Hill
#
# Bulk Modulus (GPa) = 12.30882 32.04354 22.17618
# Shear Modulus (GPa) = 14.33229 27.38940 20.86085
#
# Velocity S-wave (km/s) = 2.56023 3.53926 3.08878
# Velocity P-wave (km/s) = 3.79065 5.59971 4.78151
#
# Compressibility (1/GPa) = 0.08124257
#
# Stress axis : x y z
#
# Youngs Moduli (GPa) = 13.64041 74.62835 56.19626
#
# Poissons Ratio (x) = -0.50497 0.74627
# Poissons Ratio (y) = -0.09230 0.28764
# Poissons Ratio (z) = 0.18114 0.38198
#
# Static dielectric constant tensor:
#      x y z
#    x 1.810070 -0.013730 -0.109880 
#    y -0.013730 1.902090 0.022160 
#    z -0.109880 0.022160 1.559870 
# 
# From -- ./inp_files/424988.got.cif
#   From: 2010.05.17/outbox.cif.g08.bks.cpg/sg2_213_cif.got.tgz:424988.got - 2010.06.03 11:33:40.
