data_PCOD9053711
_publ_section_title
;
Structure prediction by ZEFSAII (Michael W. Deem and Ramdas Pophale) SiO2 
 PCOD9053711
Probable space group: P -1
;
_chemical_formula_sum "Si O2"
_cell_formula_units_Z 16
_cell_length_a 11.816693
_cell_length_b 8.925803
_cell_length_c 13.670801
_cell_angle_alpha 90.146416
_cell_angle_beta 41.410931
_cell_angle_gamma 60.560500
_cell_volume 635.185305
_symmetry_space_group_name_H-M "P -1"
_symmetry_group_IT_number 2
_symmetry_cell_setting 'triclinic'
loop_
_space_group_symop_operation_xyz
x,y,z
-x,-y,-z
loop_
_atom_site_type_symbol
_atom_site_label
_atom_site_fract_x
_atom_site_fract_y
_atom_site_fract_z
Si Si1 0.520313 0.673025 0.168496
Si Si2 0.894998 0.007103 0.936566
Si Si3 0.296570 0.258224 0.784630
Si Si4 0.104290 0.173260 0.753764
Si Si5 0.934104 0.571950 0.371689
Si Si6 0.564775 0.562422 0.658425
Si Si7 0.239616 0.529187 0.673931
Si Si8 0.508746 0.171302 0.015466
O O1 0.549214 0.802212 0.217667
O O2 0.388403 0.617439 0.308343
O O3 0.410084 0.793821 0.135759
O O4 0.809491 0.422791 0.961334
O O5 0.718877 0.191425 0.135054
O O6 0.699025 0.086581 0.978611
O O7 0.076942 0.015208 0.775096
O O8 0.064237 0.753478 0.850016
O O9 0.269948 0.124792 0.738139
O O10 0.390707 0.319035 0.644642
O O11 0.000000 0.500000 0.000000
O O12 0.177419 0.203023 0.603043
O O13 0.751231 0.584887 0.554505
O O14 0.954029 0.453809 0.261274
O O15 0.216550 0.410844 0.229256
O O16 0.607965 0.498755 0.515642
O O17 0.500000 0.000000 0.000000
#
# Coordination Sequence:
#
# PCOD9053711 Si02
#       8
#     2   2   2   2   2   2   2   2
#     4   9  19  34  61  91 117 166 210 239 310 374
#     4  11  21  36  65  91 122 161 205 258 301 360
#     4   9  17  35  66  86 118 171 200 245 311 370
#     4   8  17  34  56  87 117 159 200 242 306 358
#     4   8  17  36  56  80 127 157 195 241 303 364
#     4   9  20  38  58  94 124 158 209 246 309 368
#     4   9  19  38  60  88 124 160 200 250 305 361
#     4  11  20  36  61  91 123 161 210 251 302 374
#
# _framework density 25.189499000000001
#
# number of rings (size 3 to 8) (size 9 to 14) (size 15 to 20)
#    0.750    2.000    1.250    0.750    0.000    5.500 
#    0.000    9.375    0.000    1.500    0.000    0.000 
#    0.000    0.000    0.000    0.000    0.000    0.000 
#
# Total GULP energy -89453.263711 kJ/mol
# GULP energy per Si atom -5590.828982 kJ/mol
# Density = 2.513217 g / cm^3
# Si number density = 25.189499 Si / 1000 Ang^3
#
#
#
# Elastic Constant Matrix: (Units=GPa)
#
#
# Indices 1 2 3 4 5 6 
#
# 1 98.4369 25.8950 24.8764 -4.2533 -0.8471 -1.4537
# 2 25.8950 106.5285 37.4950 -28.9236 -7.3934 9.4827
# 3 24.8764 37.4950 116.5265 -31.2518 -4.2763 -0.7932
# 4 -4.2533 -28.9236 -31.2518 46.4661 3.2585 -0.0902
# 5 -0.8471 -7.3934 -4.2763 3.2585 39.0370 -4.5064
# 6 -1.4537 9.4827 -0.7932 -0.0902 -4.5064 33.8167
#
#
#
# Elastic Compliance Matrix: (Units=1/GPa)
#
#
# Indices 1 2 3 4 5 6 
#
# 1 0.011322 -0.002681 -0.002097 -0.002027 -0.000189 0.001159
# 2 -0.002681 0.012824 -0.001810 0.006427 0.001223 -0.003573
# 3 -0.002097 -0.001810 0.011312 0.006262 0.000415 0.000755
# 4 -0.002027 0.006427 0.006262 0.029601 -0.000816 -0.001772
# 5 -0.000189 0.001223 0.000415 -0.000816 0.026323 0.003164
# 6 0.001159 -0.003573 0.000755 -0.001772 0.003164 0.031058
#
#
# Mechanical properties :
#
#
# Convention : Reuss Voigt Hill
#
# Bulk Modulus (GPa) = 44.87953 55.33608 50.10780
# Shear Modulus (GPa) = 34.95478 39.41233 37.18356
#
# Velocity S-wave (km/s) = 3.72919 3.95984 3.84624
# Velocity P-wave (km/s) = 6.03307 6.55154 6.29764
#
# Compressibility (1/GPa) = 0.02228188
#
# Stress axis : x y z
#
# Youngs Moduli (GPa) = 88.32481 77.98018 88.40538
#
# Poissons Ratio (x) = 0.20904 0.18541
# Poissons Ratio (y) = 0.23677 0.16000
# Poissons Ratio (z) = 0.18524 0.14113
#
# Static dielectric constant tensor:
#      x y z
#    x 1.977430 0.025240 -0.008310 
#    y 0.025240 2.013940 -0.018430 
#    z -0.008310 -0.018430 2.087700 
# 
# From -- ./inp_files/514253.got.cif
#   From: 2010.05.17/outbox.cif.g08.bks.cpg/sg2_258_cif.got.tgz:514253.got - 2010.06.03 11:33:40.
