data_PCOD9053991
_publ_section_title
;
Structure prediction by ZEFSAII (Michael W. Deem and Ramdas Pophale) SiO2 
 PCOD9053991
Probable space group: P -1
;
_chemical_formula_sum "Si O2"
_cell_formula_units_Z 16
_cell_length_a 9.793309
_cell_length_b 11.612833
_cell_length_c 15.035452
_cell_angle_alpha 58.795947
_cell_angle_beta 115.688383
_cell_angle_gamma 65.633058
_cell_volume 741.712239
_symmetry_space_group_name_H-M "P -1"
_symmetry_group_IT_number 2
_symmetry_cell_setting 'triclinic'
loop_
_space_group_symop_operation_xyz
x,y,z
-x,-y,-z
loop_
_atom_site_type_symbol
_atom_site_label
_atom_site_fract_x
_atom_site_fract_y
_atom_site_fract_z
Si Si1 0.796344 0.340152 0.625259
Si Si2 0.103728 0.879045 0.982128
Si Si3 0.935282 0.379751 0.270656
Si Si4 0.682020 0.640150 0.933373
Si Si5 0.687927 0.151783 0.418735
Si Si6 0.191753 0.158988 0.162166
Si Si7 0.315952 0.348516 0.396614
Si Si8 0.258553 0.594298 0.622651
O O1 0.500000 0.500000 0.500000
O O2 0.826264 0.438014 0.665596
O O3 0.797963 0.385237 0.505348
O O4 0.000940 0.067517 0.808694
O O5 0.964819 0.838911 0.938206
O O6 0.423496 0.638555 0.174192
O O7 0.000000 0.000000 0.000000
O O8 0.872284 0.414637 0.343189
O O9 0.110501 0.382725 0.299691
O O10 0.674671 0.583971 0.052324
O O11 0.109313 0.120294 0.401123
O O12 0.455910 0.757574 0.753632
O O13 0.693002 0.794411 0.873821
O O14 0.968840 0.378605 0.079847
O O15 0.453742 0.310510 0.363758
O O16 0.828483 0.191175 0.459100
O O17 0.439717 0.901916 0.381542
#
# Coordination Sequence:
#
# PCOD9053991 Si02
#       8
#     2   2   2   2   2   2   2   2
#     4  12  24  43  73 100 123 174 232 277 324 384
#     4  12  23  42  71  99 125 171 229 279 321 381
#     4  12  28  43  64 102 143 175 211 272 345 394
#     4  11  24  37  65 100 131 175 217 264 330 389
#     4  12  22  44  71  99 133 178 223 267 327 401
#     4  11  20  39  68  98 131 168 227 274 314 388
#     4  12  22  44  73  99 133 174 225 279 320 395
#     4  12  27  46  67 100 138 173 219 277 337 394
#
# _framework density 21.571708000000001
#
# number of rings (size 3 to 8) (size 9 to 14) (size 15 to 20)
#    0.000    0.250    7.500    2.250    1.750    2.000 
#    0.000    0.625    0.000    0.000    0.000    0.000 
#    0.000    0.000    0.000    0.000    0.000    0.000 
#
# Total GULP energy -89562.567372 kJ/mol
# GULP energy per Si atom -5597.660461 kJ/mol
# Density = 2.152261 g / cm^3
# Si number density = 21.571708 Si / 1000 Ang^3
#
#
#
# Elastic Constant Matrix: (Units=GPa)
#
#
# Indices 1 2 3 4 5 6 
#
# 1 53.9195 26.1055 5.6175 13.9309 -14.0302 -7.1689
# 2 26.1055 96.2729 33.6001 9.2077 -11.7634 11.9513
# 3 5.6175 33.6001 102.6460 15.7414 -18.7183 -3.8299
# 4 13.9309 9.2077 15.7414 33.7125 -6.2561 -10.9024
# 5 -14.0302 -11.7634 -18.7183 -6.2561 30.8767 9.1939
# 6 -7.1689 11.9513 -3.8299 -10.9024 9.1939 34.8500
#
#
#
# Elastic Compliance Matrix: (Units=1/GPa)
#
#
# Indices 1 2 3 4 5 6 
#
# 1 0.026443 -0.007072 0.003873 -0.008029 0.009031 0.003396
# 2 -0.007072 0.015214 -0.004285 -0.001480 0.002116 -0.008164
# 3 0.003873 -0.004285 0.012984 -0.005127 0.006878 0.000274
# 4 -0.008029 -0.001480 -0.005127 0.038882 -0.002774 0.011188
# 5 0.009031 0.002116 0.006878 -0.002774 0.044062 -0.010604
# 6 0.003396 -0.008164 0.000274 0.011188 -0.010604 0.038520
#
#
# Mechanical properties :
#
#
# Convention : Reuss Voigt Hill
#
# Bulk Modulus (GPa) = 25.20676 42.60938 33.90807
# Shear Modulus (GPa) = 24.47424 32.38886 28.43155
#
# Velocity S-wave (km/s) = 3.37197 3.87906 3.63437
# Velocity P-wave (km/s) = 5.18369 6.31333 5.77619
#
# Compressibility (1/GPa) = 0.03967189
#
# Stress axis : x y z
#
# Youngs Moduli (GPa) = 37.81778 65.72949 77.01991
#
# Poissons Ratio (x) = 0.46484 -0.29828
# Poissons Ratio (y) = 0.26745 0.33002
# Poissons Ratio (z) = -0.14646 0.28164
#
# Static dielectric constant tensor:
#      x y z
#    x 1.777100 -0.011050 0.010910 
#    y -0.011050 1.803230 -0.007810 
#    z 0.010910 -0.007810 1.901540 
# 
# From -- ./inp_files/399723.got.cif
#   From: 2010.05.17/outbox.cif.g08.bks.cpg/sg2_200_cif.got.tgz:399723.got - 2010.06.03 11:33:40.
