data_PCOD9053804
_publ_section_title
;
Structure prediction by ZEFSAII (Michael W. Deem and Ramdas Pophale) SiO2 
 PCOD9053804
Probable space group: P -1
;
_chemical_formula_sum "Si O2"
_cell_formula_units_Z 12
_cell_length_a 7.824203
_cell_length_b 11.890274
_cell_length_c 9.592747
_cell_angle_alpha 40.261265
_cell_angle_beta 114.170704
_cell_angle_gamma 123.326709
_cell_volume 481.829326
_symmetry_space_group_name_H-M "P -1"
_symmetry_group_IT_number 2
_symmetry_cell_setting 'triclinic'
loop_
_space_group_symop_operation_xyz
x,y,z
-x,-y,-z
loop_
_atom_site_type_symbol
_atom_site_label
_atom_site_fract_x
_atom_site_fract_y
_atom_site_fract_z
Si Si1 0.645112 0.398026 0.687910
Si Si2 0.476970 0.823158 0.406055
Si Si3 0.146726 0.224702 0.310548
Si Si4 0.032087 0.149231 0.061532
Si Si5 0.240109 0.771865 0.880743
Si Si6 0.021650 0.740338 0.371490
O O1 0.500000 0.500000 0.500000
O O2 0.560603 0.210615 0.740146
O O3 0.864192 0.548816 0.567733
O O4 0.658292 0.357552 0.893650
O O5 0.642342 0.736611 0.580109
O O6 0.246192 0.742067 0.460925
O O7 0.582647 0.038262 0.294788
O O8 0.970766 0.305448 0.204615
O O9 0.200518 0.256149 0.133898
O O10 0.000000 0.000000 0.500000
O O11 0.041194 0.242076 0.827012
O O12 0.839960 0.155907 0.075159
O O13 0.017002 0.934929 0.247186
#
# Coordination Sequence:
#
# PCOD9053804 Si02
#       6
#     2   2   2   2   2   2
#     4  12  25  37  58  87 119 154 198 238 290 339
#     4  11  20  37  65  85 113 157 191 239 288 339
#     4   8  18  37  64  82 115 153 198 225 286 351
#     4   9  20  39  61  82 120 152 192 236 289 338
#     4   9  20  40  59  83 116 155 193 231 285 346
#     4  11  23  36  60  91 120 142 199 244 285 340
#
# _framework density 24.905083000000001
#
# number of rings (size 3 to 8) (size 9 to 14) (size 15 to 20)
#    1.000    1.000    1.667    2.000    4.667    0.667 
#    0.000    4.167    0.000    0.000    0.000    0.000 
#    0.000    0.000    0.000    0.000    0.000    0.000 
#
# Total GULP energy -66876.388206 kJ/mol
# GULP energy per Si atom -5573.032350 kJ/mol
# Density = 2.484840 g / cm^3
# Si number density = 24.905083 Si / 1000 Ang^3
#
#
#
# Elastic Constant Matrix: (Units=GPa)
#
#
# Indices 1 2 3 4 5 6 
#
# 1 56.8304 29.5065 24.3144 7.7222 16.6468 33.6416
# 2 29.5065 116.2819 36.1797 32.8314 4.4973 38.5293
# 3 24.3144 36.1797 94.1083 8.1260 23.2770 30.4041
# 4 7.7222 32.8314 8.1260 42.7291 3.0457 13.1012
# 5 16.6468 4.4973 23.2770 3.0457 41.1207 11.6513
# 6 33.6416 38.5293 30.4041 13.1012 11.6513 43.4141
#
#
#
# Elastic Compliance Matrix: (Units=1/GPa)
#
#
# Indices 1 2 3 4 5 6 
#
# 1 0.034580 -0.001287 0.001437 0.002817 -0.007669 -0.025452
# 2 -0.001287 0.014859 -0.002713 -0.008237 0.003521 -0.008749
# 3 0.001437 -0.002713 0.015512 0.001910 -0.006854 -0.008306
# 4 0.002817 -0.008237 0.001910 0.030495 -0.002214 -0.004819
# 5 -0.007669 0.003521 -0.006854 -0.002214 0.031099 -0.000060
# 6 -0.025452 -0.008749 -0.008306 -0.004819 -0.000060 0.057809
#
#
# Mechanical properties :
#
#
# Convention : Reuss Voigt Hill
#
# Bulk Modulus (GPa) = 16.71559 49.69131 33.20345
# Shear Modulus (GPa) = 23.87544 37.26744 30.57144
#
# Velocity S-wave (km/s) = 3.09958 3.87250 3.50740
# Velocity P-wave (km/s) = 4.41997 6.32381 5.45558
#
# Compressibility (1/GPa) = 0.05982439
#
# Stress axis : x y z
#
# Youngs Moduli (GPa) = 28.91852 67.30019 64.46821
#
# Poissons Ratio (x) = 0.08662 -0.09264
# Poissons Ratio (y) = 0.03722 0.17490
# Poissons Ratio (z) = -0.04156 0.18258
#
# Static dielectric constant tensor:
#      x y z
#    x 2.018000 -0.067000 0.091100 
#    y -0.067000 2.020340 -0.003570 
#    z 0.091100 -0.003570 2.125170 
# 
# From -- ./inp_files/145273.got.cif
#   From: 2010.05.17/outbox.cif.g08.bks.cpg/sg2_73_cif.got.tgz:145273.got - 2010.06.03 11:33:40.
