data_PCOD9053706
_publ_section_title
;
Structure prediction by ZEFSAII (Michael W. Deem and Ramdas Pophale) SiO2 
 PCOD9053706
Probable space group: P -1
;
_chemical_formula_sum "Si O2"
_cell_formula_units_Z 13
_cell_length_a 7.306374
_cell_length_b 9.107765
_cell_length_c 15.771460
_cell_angle_alpha 125.855545
_cell_angle_beta 132.349371
_cell_angle_gamma 82.150861
_cell_volume 567.340153
_symmetry_space_group_name_H-M "P -1"
_symmetry_group_IT_number 2
_symmetry_cell_setting 'triclinic'
loop_
_space_group_symop_operation_xyz
x,y,z
-x,-y,-z
loop_
_atom_site_type_symbol
_atom_site_label
_atom_site_fract_x
_atom_site_fract_y
_atom_site_fract_z
Si Si1 0.500000 0.000000 0.000000
Si Si2 0.780237 0.749735 0.098418
Si Si3 0.126394 0.724083 0.711258
Si Si4 0.186970 0.342839 0.569070
Si Si5 0.662608 0.743506 0.814237
Si Si6 0.791028 0.074339 0.844293
Si Si7 0.599471 0.710918 0.212017
O O1 0.843378 0.167971 0.155397
O O2 0.598987 0.862609 0.051137
O O3 0.784751 0.733259 0.195237
O O4 0.073922 0.866098 0.185570
O O5 0.623946 0.522989 0.935850
O O6 0.045311 0.488946 0.604674
O O7 0.468924 0.820716 0.839209
O O8 0.987075 0.773854 0.605188
O O9 0.479370 0.506314 0.679538
O O10 0.238179 0.240904 0.632488
O O11 0.664460 0.846633 0.760963
O O12 0.951655 0.811510 0.972683
O O13 0.561786 0.154764 0.805922
#
# Coordination Sequence:
#
# PCOD9053706 Si02
#       7
#     1   2   2   2   2   2   2
#     4  12  18  38  58  94 116 146 214 252 286 366
#     4  11  23  34  57  94 122 158 203 257 298 351
#     4   9  18  34  65  84 120 158 206 253 295 366
#     4   9  18  39  58  88 119 163 207 241 307 373
#     4   9  18  34  56  91 110 162 207 242 296 361
#     4  11  20  36  59  92 126 156 205 256 295 367
#     4  11  22  36  58  94 125 161 203 248 314 357
#
# _framework density 22.913944999999998
#
# number of rings (size 3 to 8) (size 9 to 14) (size 15 to 20)
#    0.923    0.923    4.615    1.385    2.154    0.000 
#    0.000    3.077    0.000    4.615    0.000    0.000 
#    0.000    0.000    0.000    0.000    0.000    0.000 
#
# Total GULP energy -72380.050814 kJ/mol
# GULP energy per Si atom -5567.696216 kJ/mol
# Density = 2.286179 g / cm^3
# Si number density = 22.913945 Si / 1000 Ang^3
#
#
#
# Elastic Constant Matrix: (Units=GPa)
#
#
# Indices 1 2 3 4 5 6 
#
# 1 72.2133 17.2977 12.6414 -12.1512 -6.4418 19.1316
# 2 17.2977 86.3286 25.8003 -20.7801 -3.8938 16.5632
# 3 12.6414 25.8003 140.1096 -23.9807 -6.8135 6.5580
# 4 -12.1512 -20.7801 -23.9807 35.5500 -4.9826 0.5968
# 5 -6.4418 -3.8938 -6.8135 -4.9826 12.6518 -2.4922
# 6 19.1316 16.5632 6.5580 0.5968 -2.4922 39.4289
#
#
#
# Elastic Compliance Matrix: (Units=1/GPa)
#
#
# Indices 1 2 3 4 5 6 
#
# 1 0.018435 0.000386 0.000745 0.008811 0.011677 -0.008626
# 2 0.000386 0.015642 -0.000534 0.010064 0.007436 -0.006352
# 3 0.000745 -0.000534 0.008771 0.006920 0.007422 -0.001232
# 4 0.008811 0.010064 0.006920 0.045707 0.027617 -0.008600
# 5 0.011677 0.007436 0.007422 0.027617 0.101353 -0.004036
# 6 -0.008626 -0.006352 -0.001232 -0.008600 -0.004036 0.032296
#
#
# Mechanical properties :
#
#
# Convention : Reuss Voigt Hill
#
# Bulk Modulus (GPa) = 22.70478 45.57004 34.13741
# Shear Modulus (GPa) = 21.21429 33.72029 27.46729
#
# Velocity S-wave (km/s) = 3.04604 3.84031 3.46600
# Velocity P-wave (km/s) = 4.72243 6.29243 5.56309
#
# Compressibility (1/GPa) = 0.04404358
#
# Stress axis : x y z
#
# Youngs Moduli (GPa) = 54.24603 63.92866 114.00696
#
# Poissons Ratio (x) = -0.02468 -0.08497
# Poissons Ratio (y) = -0.02095 0.06086
# Poissons Ratio (z) = -0.04043 0.03413
#
# Static dielectric constant tensor:
#      x y z
#    x 1.989490 -0.019070 -0.054100 
#    y -0.019070 1.938050 0.102750 
#    z -0.054100 0.102750 1.940060 
# 
# From -- ./inp_files/491339.got.cif
#   From: 2010.05.17/outbox.cif.g08.bks.cpg/sg2_246_cif.got.tgz:491339.got - 2010.06.03 11:33:40.
