data_PCOD9053815
_publ_section_title
;
Structure prediction by ZEFSAII (Michael W. Deem and Ramdas Pophale) SiO2 
 PCOD9053815
Probable space group: P -1
;
_chemical_formula_sum "Si O2"
_cell_formula_units_Z 16
_cell_length_a 19.977040
_cell_length_b 10.085389
_cell_length_c 13.595738
_cell_angle_alpha 129.355385
_cell_angle_beta 155.813352
_cell_angle_gamma 42.304672
_cell_volume 747.179612
_symmetry_space_group_name_H-M "P -1"
_symmetry_group_IT_number 2
_symmetry_cell_setting 'triclinic'
loop_
_space_group_symop_operation_xyz
x,y,z
-x,-y,-z
loop_
_atom_site_type_symbol
_atom_site_label
_atom_site_fract_x
_atom_site_fract_y
_atom_site_fract_z
Si Si1 0.601766 0.893240 0.877178
Si Si2 0.155174 0.912811 0.783253
Si Si3 0.325753 0.308821 0.323597
Si Si4 0.557949 0.379257 0.810230
Si Si5 0.212407 0.453630 0.878780
Si Si6 0.774360 0.712394 0.400015
Si Si7 0.797961 0.410283 0.446516
Si Si8 0.965206 0.293879 0.809549
O O1 0.588186 0.787802 0.710227
O O2 0.390770 0.059122 0.706203
O O3 0.720667 0.723970 0.037395
O O4 0.718146 0.003922 0.056244
O O5 0.107705 0.792588 0.583987
O O6 0.284327 0.753401 0.962682
O O7 0.985826 0.090392 0.702147
O O8 0.474972 0.257457 0.586256
O O9 0.205374 0.551728 0.278790
O O10 0.163383 0.252993 0.099312
O O11 0.386249 0.554517 0.724314
O O12 0.644739 0.463424 0.888463
O O13 0.228783 0.364160 0.749493
O O14 0.995448 0.634428 0.682738
O O15 0.731380 0.589735 0.366219
O O16 0.931082 0.407821 0.711660
#
# Coordination Sequence:
#
# PCOD9053815 Si02
#       8
#     2   2   2   2   2   2   2   2
#     4  11  23  42  65  92 125 179 211 248 324 384
#     4  11  20  37  66  98 122 159 215 263 320 369
#     4   9  21  41  59  89 129 167 210 256 307 379
#     4  11  22  41  63  91 129 165 205 268 309 367
#     4  11  25  42  62  94 135 163 207 267 323 375
#     4  11  22  42  66  93 132 167 206 261 327 383
#     4  11  20  39  67  95 127 157 210 272 313 372
#     4   9  20  36  60  97 126 160 206 268 317 362
#
# _framework density 21.413861000000001
#
# number of rings (size 3 to 8) (size 9 to 14) (size 15 to 20)
#    0.000    1.500    2.500    3.375    0.000    2.500 
#    9.000    0.625    0.000    0.000    0.000    0.000 
#    0.000    0.000    0.000    0.000    0.000    0.000 
#
# Total GULP energy -89319.825107 kJ/mol
# GULP energy per Si atom -5582.489069 kJ/mol
# Density = 2.136512 g / cm^3
# Si number density = 21.413861 Si / 1000 Ang^3
#
#
#
# Elastic Constant Matrix: (Units=GPa)
#
#
# Indices 1 2 3 4 5 6 
#
# 1 62.2175 29.4175 28.6480 -1.1107 4.0185 -12.0707
# 2 29.4175 61.6545 28.6656 -7.6422 -2.8245 -18.6291
# 3 28.6480 28.6656 64.3128 2.1490 -7.1857 -21.2017
# 4 -1.1107 -7.6422 2.1490 31.8416 -10.9840 0.1640
# 5 4.0185 -2.8245 -7.1857 -10.9840 32.3935 -0.4431
# 6 -12.0707 -18.6291 -21.2017 0.1640 -0.4431 49.2610
#
#
#
# Elastic Compliance Matrix: (Units=1/GPa)
#
#
# Indices 1 2 3 4 5 6 
#
# 1 0.023951 -0.008780 -0.007636 -0.002978 -0.006451 -0.000786
# 2 -0.008780 0.025782 -0.005585 0.007905 0.004850 0.005212
# 3 -0.007636 -0.005585 0.024239 -0.001395 0.005453 0.006503
# 4 -0.002978 0.007905 -0.001395 0.037995 0.013655 0.001656
# 5 -0.006451 0.004850 0.005453 0.013655 0.037973 0.002897
# 6 -0.000786 0.005212 0.006503 0.001656 0.002897 0.024898
#
#
# Mechanical properties :
#
#
# Convention : Reuss Voigt Hill
#
# Bulk Modulus (GPa) = 33.36475 40.18301 36.77388
# Shear Modulus (GPa) = 21.85039 29.46279 25.65659
#
# Velocity S-wave (km/s) = 3.19781 3.71330 3.46516
# Velocity P-wave (km/s) = 5.40827 6.09840 5.76368
#
# Compressibility (1/GPa) = 0.02997175
#
# Stress axis : x y z
#
# Youngs Moduli (GPa) = 41.75233 38.78687 41.25523
#
# Poissons Ratio (x) = 0.34053 0.31502
# Poissons Ratio (y) = 0.36657 0.23039
# Poissons Ratio (z) = 0.31882 0.21661
#
# Static dielectric constant tensor:
#      x y z
#    x 1.770050 -0.015840 0.037650 
#    y -0.015840 1.812950 -0.022280 
#    z 0.037650 -0.022280 1.807790 
# 
# From -- ./inp_files/462371.got.cif
#   From: 2010.05.17/outbox.cif.g08.bks.cpg/sg2_232_cif.got.tgz:462371.got - 2010.06.03 11:33:40.
