data_PCOD9053329
_publ_section_title
;
Structure prediction by ZEFSAII (Michael W. Deem and Ramdas Pophale) SiO2 
 PCOD9053329
Probable space group: P -1
;
_chemical_formula_sum "Si O2"
_cell_formula_units_Z 16
_cell_length_a 14.519686
_cell_length_b 6.673532
_cell_length_c 14.701023
_cell_angle_alpha 46.299097
_cell_angle_beta 127.214397
_cell_angle_gamma 131.886392
_cell_volume 738.929334
_symmetry_space_group_name_H-M "P -1"
_symmetry_group_IT_number 2
_symmetry_cell_setting 'triclinic'
loop_
_space_group_symop_operation_xyz
x,y,z
-x,-y,-z
loop_
_atom_site_type_symbol
_atom_site_label
_atom_site_fract_x
_atom_site_fract_y
_atom_site_fract_z
Si Si1 0.572362 0.258526 0.265535
Si Si2 0.295751 0.408403 0.937618
Si Si3 0.991376 0.782367 0.151882
Si Si4 0.342793 0.845732 0.474238
Si Si5 0.660615 0.165374 0.833051
Si Si6 0.454395 0.673753 0.120431
Si Si7 0.104391 0.283196 0.412068
Si Si8 0.832596 0.827258 0.708159
O O1 0.615261 0.347801 0.159477
O O2 0.663898 0.196729 0.406939
O O3 0.557562 0.542311 0.213859
O O4 0.430401 0.978489 0.262688
O O5 0.157271 0.391361 0.857777
O O6 0.339628 0.465994 0.050485
O O7 0.307416 0.094849 0.021099
O O8 0.046413 0.522831 0.267539
O O9 0.057015 0.004050 0.206527
O O10 0.000000 0.000000 0.000000
O O11 0.241426 0.522931 0.467213
O O12 0.500000 0.000000 0.500000
O O13 0.279450 0.082208 0.351328
O O14 0.582458 0.283401 0.815257
O O15 0.787899 0.463502 0.797961
O O16 0.500000 0.000000 0.000000
O O17 0.130737 0.111157 0.395071
O O18 0.000000 0.000000 0.500000
#
# Coordination Sequence:
#
# PCOD9053329 Si02
#       8
#     2   2   2   2   2   2   2   2
#     4  11  23  37  63  97 131 169 221 281 339 404
#     4  11  23  37  63  97 131 169 221 281 339 404
#     4  11  26  47  69 100 136 180 234 283 343 416
#     4  11  26  47  69 100 136 180 234 283 343 416
#     4  11  21  40  64  95 135 170 219 278 344 401
#     4  11  19  37  58  95 138 165 208 276 345 403
#     4  11  28  49  71 103 143 186 236 289 346 412
#     4  11  26  46  71  94 140 184 223 285 344 406
#
# _framework density 21.652951000000002
#
# number of rings (size 3 to 8) (size 9 to 14) (size 15 to 20)
#    0.000    1.000    2.500    3.750    3.500   12.000 
#    0.000    0.000    0.000    0.000    0.000    0.000 
#    0.000    0.000    0.000    0.000    0.000    0.000 
#
# Total GULP energy -89132.859537 kJ/mol
# GULP energy per Si atom -5570.803721 kJ/mol
# Density = 2.160367 g / cm^3
# Si number density = 21.652951 Si / 1000 Ang^3
#
#
#
# Elastic Constant Matrix: (Units=GPa)
#
#
# Indices 1 2 3 4 5 6 
#
# 1 84.2166 42.8366 5.7113 5.9772 1.8828 -2.5487
# 2 42.8366 104.5423 37.4712 -3.2901 -3.1247 -2.8113
# 3 5.7113 37.4712 70.3171 7.6539 6.1389 0.5853
# 4 5.9772 -3.2901 7.6539 28.9371 6.9929 -5.6563
# 5 1.8828 -3.1247 6.1389 6.9929 33.0120 5.2150
# 6 -2.5487 -2.8113 0.5853 -5.6563 5.2150 30.9937
#
#
#
# Elastic Compliance Matrix: (Units=1/GPa)
#
#
# Indices 1 2 3 4 5 6 
#
# 1 0.016134 -0.008126 0.003673 -0.004946 -0.001299 -0.000164
# 2 -0.008126 0.016370 -0.008888 0.005681 0.002201 0.001651
# 3 0.003673 -0.008888 0.019651 -0.006526 -0.003078 -0.001548
# 4 -0.004946 0.005681 -0.006526 0.041758 -0.008273 0.009244
# 5 -0.001299 0.002201 -0.003078 -0.008273 0.034018 -0.007083
# 6 -0.000164 0.001651 -0.001548 0.009244 -0.007083 0.035309
#
#
# Mechanical properties :
#
#
# Convention : Reuss Voigt Hill
#
# Bulk Modulus (GPa) = 39.25737 47.90159 43.57948
# Shear Modulus (GPa) = 25.20017 30.12570 27.66293
#
# Velocity S-wave (km/s) = 3.41518 3.73406 3.57817
# Velocity P-wave (km/s) = 5.80697 6.38446 6.10255
#
# Compressibility (1/GPa) = 0.02547292
#
# Stress axis : x y z
#
# Youngs Moduli (GPa) = 61.98257 61.08792 50.88810
#
# Poissons Ratio (x) = 0.49642 -0.18692
# Poissons Ratio (y) = 0.50369 0.45227
# Poissons Ratio (z) = -0.22767 0.54292
#
# Static dielectric constant tensor:
#      x y z
#    x 1.867450 0.034030 -0.030270 
#    y 0.034030 1.725100 -0.128830 
#    z -0.030270 -0.128830 1.689680 
# 
# From -- ./inp_files/525519.got.cif
#   From: 2010.05.17/outbox.cif.g08.bks.cpg/sg2_263_cif.got.tgz:525519.got - 2010.06.03 11:33:40.
