data_PCOD9053574
_publ_section_title
;
Structure prediction by ZEFSAII (Michael W. Deem and Ramdas Pophale) SiO2 
 PCOD9053574
Probable space group: P -1
;
_chemical_formula_sum "Si O2"
_cell_formula_units_Z 16
_cell_length_a 13.069243
_cell_length_b 16.230396
_cell_length_c 8.968139
_cell_angle_alpha 132.316085
_cell_angle_beta 109.963036
_cell_angle_gamma 36.594944
_cell_volume 748.179569
_symmetry_space_group_name_H-M "P -1"
_symmetry_group_IT_number 2
_symmetry_cell_setting 'triclinic'
loop_
_space_group_symop_operation_xyz
x,y,z
-x,-y,-z
loop_
_atom_site_type_symbol
_atom_site_label
_atom_site_fract_x
_atom_site_fract_y
_atom_site_fract_z
Si Si1 0.680324 0.517866 0.874878
Si Si2 0.938043 0.165067 0.758077
Si Si3 0.345695 0.237214 0.969649
Si Si4 0.480960 0.257558 0.341881
Si Si5 0.703466 0.382650 0.416104
Si Si6 0.696722 0.033397 0.760401
Si Si7 0.127278 0.990944 0.942705
Si Si8 0.259989 0.059656 0.674307
O O1 0.758563 0.392941 0.612688
O O2 0.737806 0.387257 0.876400
O O3 0.750055 0.587559 0.971763
O O4 0.451339 0.735636 0.026242
O O5 0.966889 0.125245 0.898939
O O6 0.083906 0.139016 0.748731
O O7 0.000000 0.000000 0.500000
O O8 0.565268 0.047411 0.784428
O O9 0.249491 0.199618 0.869855
O O10 0.374756 0.263055 0.181291
O O11 0.344517 0.480272 0.557944
O O12 0.676184 0.134162 0.202526
O O13 0.551553 0.144578 0.392642
O O14 0.500000 0.500000 0.500000
O O15 0.833085 0.168835 0.182023
O O16 0.736044 0.969466 0.533808
O O17 0.873652 0.919858 0.813812
#
# Coordination Sequence:
#
# PCOD9053574 Si02
#       8
#     2   2   2   2   2   2   2   2
#     4   9  18  32  55  76 104 135 174 211 262 306
#     4  11  22  34  54  78 107 138 180 213 255 308
#     4   8  17  34  57  76 105 136 174 214 262 306
#     4   8  16  27  50  84  97 127 177 224 244 301
#     4   9  12  27  52  73  95 135 178 206 252 299
#     4   9  19  34  55  80 103 138 173 213 268 306
#     4   9  16  31  55  70 103 144 170 208 260 314
#     4  11  20  32  54  83 106 134 177 220 254 305
#
# _framework density 21.385241000000001
#
# number of rings (size 3 to 8) (size 9 to 14) (size 15 to 20)
#    0.750    2.000    3.750    0.750    0.000    0.500 
#    0.000    3.125    5.500    0.750    0.000    0.000 
#    0.000    0.000    0.000    0.000    0.000    0.000 
#
# Total GULP energy -89145.595234 kJ/mol
# GULP energy per Si atom -5571.599702 kJ/mol
# Density = 2.133657 g / cm^3
# Si number density = 21.385241 Si / 1000 Ang^3
#
#
#
# Elastic Constant Matrix: (Units=GPa)
#
#
# Indices 1 2 3 4 5 6 
#
# 1 53.6493 2.0286 22.9585 0.3500 17.3019 13.6233
# 2 2.0286 102.2835 32.0802 -7.3884 19.5930 14.0802
# 3 22.9585 32.0802 88.3992 -7.2303 12.8939 14.0657
# 4 0.3500 -7.3884 -7.2303 31.2189 2.2785 -0.9609
# 5 17.3019 19.5930 12.8939 2.2785 24.4084 10.8832
# 6 13.6233 14.0802 14.0657 -0.9609 10.8832 23.0584
#
#
#
# Elastic Compliance Matrix: (Units=1/GPa)
#
#
# Indices 1 2 3 4 5 6 
#
# 1 0.028973 0.005984 -0.005537 0.000911 -0.018697 -0.008531
# 2 0.005984 0.013946 -0.004018 0.003050 -0.011873 -0.003869
# 3 -0.005537 -0.004018 0.014875 0.002399 0.000655 -0.003558
# 4 0.000911 0.003050 0.002399 0.033937 -0.008153 0.001398
# 5 -0.018697 -0.011873 0.000655 -0.008153 0.071357 -0.016122
# 6 -0.008531 -0.003869 -0.003558 0.001398 -0.016122 0.060609
#
#
# Mechanical properties :
#
#
# Convention : Reuss Voigt Hill
#
# Bulk Modulus (GPa) = 19.74288 39.82962 29.78625
# Shear Modulus (GPa) = 20.18374 28.22146 24.20260
#
# Velocity S-wave (km/s) = 3.07549 3.63667 3.36779
# Velocity P-wave (km/s) = 4.67585 6.02487 5.39271
#
# Compressibility (1/GPa) = 0.05065116
#
# Stress axis : x y z
#
# Youngs Moduli (GPa) = 34.51482 71.70749 67.22509
#
# Poissons Ratio (x) = -0.42908 0.37223
# Poissons Ratio (y) = -0.20653 0.27011
# Poissons Ratio (z) = 0.19111 0.28812
#
# Static dielectric constant tensor:
#      x y z
#    x 1.842910 -0.042250 -0.026020 
#    y -0.042250 1.857910 -0.013880 
#    z -0.026020 -0.013880 1.804740 
# 
# From -- ./inp_files/311956.got.cif
#   From: 2010.05.17/outbox.cif.g08.bks.cpg/sg2_156_cif.got.tgz:311956.got - 2010.06.03 11:33:40.
