data_PCOD9053403
_publ_section_title
;
Structure prediction by ZEFSAII (Michael W. Deem and Ramdas Pophale) SiO2 
 PCOD9053403
Probable space group: P -1
;
_chemical_formula_sum "Si O2"
_cell_formula_units_Z 12
_cell_length_a 13.258063
_cell_length_b 17.396531
_cell_length_c 9.260163
_cell_angle_alpha 41.365188
_cell_angle_beta 28.457154
_cell_angle_gamma 29.802168
_cell_volume 505.118189
_symmetry_space_group_name_H-M "P -1"
_symmetry_group_IT_number 2
_symmetry_cell_setting 'triclinic'
loop_
_space_group_symop_operation_xyz
x,y,z
-x,-y,-z
loop_
_atom_site_type_symbol
_atom_site_label
_atom_site_fract_x
_atom_site_fract_y
_atom_site_fract_z
Si Si1 0.199816 0.405886 0.517323
Si Si2 0.152089 0.871061 0.865027
Si Si3 0.591787 0.579095 0.358119
Si Si4 0.970963 0.230509 0.079937
Si Si5 0.904539 0.669050 0.751099
Si Si6 0.807265 0.927356 0.670228
O O1 0.539772 0.282639 0.248283
O O2 0.088763 0.547611 0.563415
O O3 0.000000 0.500000 0.500000
O O4 0.109365 0.307238 0.816034
O O5 0.956518 0.846758 0.061550
O O6 0.196140 0.944834 0.572740
O O7 0.000000 0.000000 0.000000
O O8 0.500000 0.500000 0.500000
O O9 0.370038 0.653510 0.661573
O O10 0.909290 0.429923 0.204942
O O11 0.619811 0.695032 0.084317
O O12 0.026822 0.145803 0.283317
O O13 0.878664 0.815090 0.603423
O O14 0.500000 0.000000 0.000000
#
# Coordination Sequence:
#
# PCOD9053403 Si02
#       6
#     2   2   2   2   2   2
#     4  12  28  47  73 106 149 198 248 306 362 439
#     4  12  30  50  73 110 153 197 244 303 379 441
#     4  11  19  38  72 107 133 175 240 302 353 420
#     4  12  24  47  77 106 142 193 249 300 367 441
#     4  11  23  41  70 106 142 182 244 299 353 435
#     4  12  25  47  77 110 148 190 240 308 369 439
#
# _framework density 23.756817999999999
#
# number of rings (size 3 to 8) (size 9 to 14) (size 15 to 20)
#    0.000    0.333    6.667    2.500    2.333    5.333 
#    0.000    0.000    0.000    0.000    0.000    0.000 
#    0.000    0.000    0.000    0.000    0.000    0.000 
#
# Total GULP energy -66842.676496 kJ/mol
# GULP energy per Si atom -5570.223041 kJ/mol
# Density = 2.370275 g / cm^3
# Si number density = 23.756818 Si / 1000 Ang^3
#
#
#
# Elastic Constant Matrix: (Units=GPa)
#
#
# Indices 1 2 3 4 5 6 
#
# 1 158.6540 56.3014 11.8217 9.7804 -4.6412 21.0459
# 2 56.3014 93.7721 8.0152 7.5508 -6.5564 33.6069
# 3 11.8217 8.0152 35.5373 11.9112 -13.1584 -2.7583
# 4 9.7804 7.5508 11.9112 41.8901 3.7542 6.6588
# 5 -4.6412 -6.5564 -13.1584 3.7542 33.1122 -1.8003
# 6 21.0459 33.6069 -2.7583 6.6588 -1.8003 55.0375
#
#
#
# Elastic Compliance Matrix: (Units=1/GPa)
#
#
# Indices 1 2 3 4 5 6 
#
# 1 0.008124 -0.004604 -0.001667 -0.000505 -0.000396 -0.000331
# 2 -0.004604 0.016801 -0.002468 0.000002 0.001234 -0.008582
# 3 -0.001667 -0.002468 0.040574 -0.013257 0.017249 0.006346
# 4 -0.000505 0.000002 -0.013257 0.029239 -0.008888 -0.004301
# 5 -0.000396 0.001234 0.017249 -0.008888 0.038392 0.002594
# 6 -0.000331 -0.008582 0.006346 -0.004301 0.002594 0.024460
#
#
# Mechanical properties :
#
#
# Convention : Reuss Voigt Hill
#
# Bulk Modulus (GPa) = 20.82410 48.91555 34.86983
# Shear Modulus (GPa) = 26.16758 40.12962 33.14860
#
# Velocity S-wave (km/s) = 3.32245 4.11443 3.73946
# Velocity P-wave (km/s) = 4.84797 6.57314 5.77533
#
# Compressibility (1/GPa) = 0.04802127
#
# Stress axis : x y z
#
# Youngs Moduli (GPa) = 123.08459 59.51969 24.64647
#
# Poissons Ratio (x) = 0.27402 0.04110
# Poissons Ratio (y) = 0.56667 0.06082
# Poissons Ratio (z) = 0.20524 0.14687
#
# Static dielectric constant tensor:
#      x y z
#    x 2.204030 0.205760 -0.083890 
#    y 0.205760 2.302590 -0.164280 
#    z -0.083890 -0.164280 2.182470 
# 
# From -- ./inp_files/271671.got.cif
#   From: 2010.05.17/outbox.cif.g08.bks.cpg/sg2_136_cif.got.tgz:271671.got - 2010.06.03 11:33:40.
