data_PCOD9053702
_publ_section_title
;
Structure prediction by ZEFSAII (Michael W. Deem and Ramdas Pophale) SiO2 
 PCOD9053702
Probable space group: P -1
;
_chemical_formula_sum "Si O2"
_cell_formula_units_Z 16
_cell_length_a 14.067686
_cell_length_b 11.260365
_cell_length_c 20.296722
_cell_angle_alpha 149.292214
_cell_angle_beta 152.607458
_cell_angle_gamma 29.019957
_cell_volume 665.645461
_symmetry_space_group_name_H-M "P -1"
_symmetry_group_IT_number 2
_symmetry_cell_setting 'triclinic'
loop_
_space_group_symop_operation_xyz
x,y,z
-x,-y,-z
loop_
_atom_site_type_symbol
_atom_site_label
_atom_site_fract_x
_atom_site_fract_y
_atom_site_fract_z
Si Si1 0.327169 0.813216 0.541569
Si Si2 0.798468 0.249432 0.129400
Si Si3 0.824302 0.173425 0.403390
Si Si4 0.821378 0.783207 0.558477
Si Si5 0.629427 0.507550 0.936791
Si Si6 0.432875 0.648325 0.309411
Si Si7 0.090358 0.471623 0.770250
Si Si8 0.679389 0.021453 0.824239
O O1 0.500000 0.500000 0.500000
O O2 0.283490 0.888760 0.628150
O O3 0.464407 0.955160 0.662177
O O4 0.060762 0.921011 0.401763
O O5 0.641508 0.292611 0.118220
O O6 0.736224 0.504395 0.165570
O O7 0.048442 0.192665 0.284495
O O8 0.758008 0.059704 0.964167
O O9 0.609579 0.377296 0.324899
O O10 0.947007 0.342460 0.587614
O O11 0.601458 0.737387 0.416563
O O12 0.000000 0.500000 0.500000
O O13 0.723601 0.087501 0.617294
O O14 0.692332 0.431554 0.863699
O O15 0.655185 0.253301 0.871832
O O16 0.777499 0.616543 0.120819
O O17 0.896562 0.765999 0.807055
#
# Coordination Sequence:
#
# PCOD9053702 Si02
#       8
#     2   2   2   2   2   2   2   2
#     4  11  24  44  66  93 121 168 224 270 311 361
#     4  11  20  36  58  96 130 168 205 255 324 386
#     4  11  24  42  68  94 126 166 218 270 309 375
#     4  11  22  36  59  93 137 171 200 248 325 392
#     4  11  22  37  61  98 134 165 198 259 331 393
#     4  11  24  39  60  96 134 168 207 253 323 387
#     4  11  20  37  62  93 128 165 208 264 317 383
#     4  11  22  37  64  92 130 164 215 264 315 382
#
# _framework density 24.036819000000001
#
# number of rings (size 3 to 8) (size 9 to 14) (size 15 to 20)
#    0.000    1.000    3.750    6.000    1.750    1.000 
#    0.000    0.000    0.000    9.750    0.000    0.000 
#    0.000    0.000    0.000    0.000    0.000    0.000 
#
# Total GULP energy -89258.612216 kJ/mol
# GULP energy per Si atom -5578.663263 kJ/mol
# Density = 2.398211 g / cm^3
# Si number density = 24.036819 Si / 1000 Ang^3
#
#
#
# Elastic Constant Matrix: (Units=GPa)
#
#
# Indices 1 2 3 4 5 6 
#
# 1 62.3251 20.1325 18.9629 -0.5705 -8.4399 -10.8366
# 2 20.1325 131.8762 14.8945 8.5034 -17.9888 -13.5394
# 3 18.9629 14.8945 89.6237 -11.6578 -11.0651 -1.8963
# 4 -0.5705 8.5034 -11.6578 38.9953 -2.9905 -10.2559
# 5 -8.4399 -17.9888 -11.0651 -2.9905 31.1364 -1.1572
# 6 -10.8366 -13.5394 -1.8963 -10.2559 -1.1572 35.2367
#
#
#
# Elastic Compliance Matrix: (Units=1/GPa)
#
#
# Indices 1 2 3 4 5 6 
#
# 1 0.018931 -0.001596 -0.003000 0.001466 0.003492 0.005589
# 2 -0.001596 0.008856 -0.000673 -0.001105 0.004439 0.002700
# 3 -0.003000 -0.000673 0.012996 0.004540 0.003888 0.000967
# 4 0.001466 -0.001105 0.004540 0.030026 0.004597 0.009161
# 5 0.003492 0.004439 0.003888 0.004597 0.037658 0.005564
# 6 0.005589 0.002700 0.000967 0.009161 0.005564 0.034037
#
#
# Mechanical properties :
#
#
# Convention : Reuss Voigt Hill
#
# Bulk Modulus (GPa) = 33.06245 43.53385 38.29815
# Shear Modulus (GPa) = 30.65164 36.39602 33.52383
#
# Velocity S-wave (km/s) = 3.57486 3.89547 3.73860
# Velocity P-wave (km/s) = 5.55196 6.19544 5.88251
#
# Compressibility (1/GPa) = 0.03024580
#
# Stress axis : x y z
#
# Youngs Moduli (GPa) = 52.82283 112.91145 76.94948
#
# Poissons Ratio (x) = 0.18016 0.23088
# Poissons Ratio (y) = 0.08428 0.05177
# Poissons Ratio (z) = 0.15849 0.07596
#
# Static dielectric constant tensor:
#      x y z
#    x 1.961200 -0.027960 -0.013420 
#    y -0.027960 2.121050 0.034880 
#    z -0.013420 0.034880 1.925220 
# 
# From -- ./inp_files/598039.got.cif
#   From: 2010.05.17/outbox.cif.g08.bks.cpg/sg2_300_cif.got.tgz:598039.got - 2010.06.03 11:33:40.
