data_PCOD9053228
_publ_section_title
;
Structure prediction by ZEFSAII (Michael W. Deem and Ramdas Pophale) SiO2 
 PCOD9053228
Probable space group: P -1
;
_chemical_formula_sum "Si O2"
_cell_formula_units_Z 16
_cell_length_a 14.765151
_cell_length_b 9.341735
_cell_length_c 11.876367
_cell_angle_alpha 37.954739
_cell_angle_beta 55.414406
_cell_angle_gamma 75.404918
_cell_volume 765.083460
_symmetry_space_group_name_H-M "P -1"
_symmetry_group_IT_number 2
_symmetry_cell_setting 'triclinic'
loop_
_space_group_symop_operation_xyz
x,y,z
-x,-y,-z
loop_
_atom_site_type_symbol
_atom_site_label
_atom_site_fract_x
_atom_site_fract_y
_atom_site_fract_z
Si Si1 0.834589 0.639459 0.141958
Si Si2 0.430901 0.660270 0.393832
Si Si3 0.167335 0.532252 0.084038
Si Si4 0.632570 0.112697 0.907127
Si Si5 0.922720 0.203872 0.338564
Si Si6 0.249851 0.186366 0.122547
Si Si7 0.867419 0.498085 0.607558
Si Si8 0.918375 0.042762 0.188085
O O1 0.703148 0.474099 0.381606
O O2 0.883611 0.432562 0.193575
O O3 0.818406 0.803776 0.949817
O O4 0.942530 0.818033 0.033935
O O5 0.500000 0.500000 0.500000
O O6 0.402529 0.690596 0.263401
O O7 0.526763 0.948553 0.167556
O O8 0.269480 0.455578 0.001104
O O9 0.161750 0.497635 0.242701
O O10 0.045604 0.326573 0.244048
O O11 0.158544 0.801134 0.897670
O O12 0.760593 0.258317 0.781486
O O13 0.650607 0.909126 0.934203
O O14 0.925960 0.072725 0.300428
O O15 0.827032 0.019006 0.605853
O O16 0.000000 0.500000 0.500000
O O17 0.868042 0.746315 0.389774
#
# Coordination Sequence:
#
# PCOD9053228 Si02
#       8
#     2   2   2   2   2   2   2   2
#     4  11  20  35  63  99 122 160 224 276 309 360
#     4  11  24  43  70  88 124 176 230 276 303 369
#     4  11  22  36  64  93 129 177 206 258 321 391
#     4  11  26  44  64 100 128 172 222 266 324 382
#     4  11  19  34  61  98 131 164 220 264 312 382
#     4  12  19  36  67  92 124 164 221 266 312 376
#     4  12  27  41  60  97 149 173 195 259 345 404
#     4  11  22  38  61 100 135 171 211 259 326 395
#
# _framework density 20.912751
#
# number of rings (size 3 to 8) (size 9 to 14) (size 15 to 20)
#    0.000    0.750    6.250    3.375    1.750    1.500 
#    0.000    0.000    0.000    7.500    0.000    0.000 
#    0.000    0.000    0.000    0.000    0.000    0.000 
#
# Total GULP energy -89181.278081 kJ/mol
# GULP energy per Si atom -5573.829880 kJ/mol
# Density = 2.086515 g / cm^3
# Si number density = 20.912751 Si / 1000 Ang^3
#
#
#
# Elastic Constant Matrix: (Units=GPa)
#
#
# Indices 1 2 3 4 5 6 
#
# 1 94.2441 37.5088 41.5068 -2.7349 0.7198 -4.5328
# 2 37.5088 71.7443 30.0012 -0.5307 -0.0070 -6.8042
# 3 41.5068 30.0012 109.8078 -4.1691 2.7227 -0.5200
# 4 -2.7349 -0.5307 -4.1691 30.4607 -5.1244 6.6818
# 5 0.7198 -0.0070 2.7227 -5.1244 49.8597 0.3103
# 6 -4.5328 -6.8042 -0.5200 6.6818 0.3103 21.5097
#
#
#
# Elastic Compliance Matrix: (Units=1/GPa)
#
#
# Indices 1 2 3 4 5 6 
#
# 1 0.014787 -0.005991 -0.003931 0.000478 0.000043 0.000977
# 2 -0.005991 0.018759 -0.002903 -0.001729 0.000038 0.005138
# 3 -0.003931 -0.002903 0.011444 0.001520 -0.000400 -0.001937
# 4 0.000478 -0.001729 0.001520 0.036245 0.003708 -0.011722
# 5 0.000043 0.000038 -0.000400 0.003708 0.020468 -0.001436
# 6 0.000977 0.005138 -0.001937 -0.011722 -0.001436 0.051937
#
#
# Mechanical properties :
#
#
# Convention : Reuss Voigt Hill
#
# Bulk Modulus (GPa) = 51.70442 54.86998 53.28720
# Shear Modulus (GPa) = 26.91992 31.48464 29.20228
#
# Velocity S-wave (km/s) = 3.59172 3.88432 3.74088
# Velocity P-wave (km/s) = 6.47905 6.81262 6.64793
#
# Compressibility (1/GPa) = 0.01934071
#
# Stress axis : x y z
#
# Youngs Moduli (GPa) = 67.62783 53.30804 87.37980
#
# Poissons Ratio (x) = 0.31936 0.34348
# Poissons Ratio (y) = 0.40514 0.25366
# Poissons Ratio (z) = 0.26584 0.15475
#
# Static dielectric constant tensor:
#      x y z
#    x 1.782860 -0.036380 -0.001150 
#    y -0.036380 1.808890 -0.002910 
#    z -0.001150 -0.002910 1.795050 
# 
# From -- ./inp_files/446620.got.cif
#   From: 2010.05.17/outbox.cif.g08.bks.cpg/sg2_224_cif.got.tgz:446620.got - 2010.06.03 11:33:40.
