data_PCOD9053163
_publ_section_title
;
Structure prediction by ZEFSAII (Michael W. Deem and Ramdas Pophale) SiO2 
 PCOD9053163
Probable space group: P -1
;
_chemical_formula_sum "Si O2"
_cell_formula_units_Z 14
_cell_length_a 11.777280
_cell_length_b 19.393049
_cell_length_c 5.836796
_cell_angle_alpha 101.783988
_cell_angle_beta 81.900751
_cell_angle_gamma 32.578208
_cell_volume 565.404187
_symmetry_space_group_name_H-M "P -1"
_symmetry_group_IT_number 2
_symmetry_cell_setting 'triclinic'
loop_
_space_group_symop_operation_xyz
x,y,z
-x,-y,-z
loop_
_atom_site_type_symbol
_atom_site_label
_atom_site_fract_x
_atom_site_fract_y
_atom_site_fract_z
Si Si1 0.006855 0.338196 0.333034
Si Si2 0.368828 0.237136 0.370851
Si Si3 0.901694 0.163279 0.652564
Si Si4 0.743587 0.941430 0.809204
Si Si5 0.494327 0.462935 0.229255
Si Si6 0.762851 0.122809 0.337176
Si Si7 0.313423 0.168663 0.736102
O O1 0.125793 0.349876 0.351347
O O2 0.216074 0.163908 0.250581
O O3 0.744182 0.460358 0.614387
O O4 0.040622 0.300438 0.028783
O O5 0.495784 0.243312 0.374489
O O6 0.257749 0.261529 0.643713
O O7 0.641062 0.040280 0.124031
O O8 0.731012 0.210027 0.559424
O O9 0.003313 0.168285 0.459875
O O10 0.754363 0.273671 0.990159
O O11 0.138025 0.986939 0.570541
O O12 0.509093 0.092313 0.814104
O O13 0.500000 0.500000 0.500000
O O14 0.500000 0.500000 0.000000
O O15 0.000000 0.000000 0.000000
O O16 0.500000 0.000000 0.500000
#
# Coordination Sequence:
#
# PCOD9053163 Si02
#       7
#     2   2   2   2   2   2   2
#     4  11  24  37  60 100 136 178 224 278 352 423
#     4  11  21  36  63  95 132 171 226 289 348 403
#     4  11  25  42  66 102 139 180 239 286 350 416
#     4  11  19  34  59  99 132 166 220 285 353 406
#     4  12  30  47  72 102 148 193 228 284 354 436
#     4  11  24  42  71  96 135 182 239 298 340 410
#     4  11  19  31  58  92 134 169 212 286 346 405
#
# _framework density 24.761046
#
# number of rings (size 3 to 8) (size 9 to 14) (size 15 to 20)
#    0.000    0.857    7.143    0.857    8.000    0.000 
#    0.000    0.714    0.000    1.714    0.000    0.000 
#    0.000    0.000    0.000    0.000    0.000    0.000 
#
# Total GULP energy -77941.250239 kJ/mol
# GULP energy per Si atom -5567.232160 kJ/mol
# Density = 2.470469 g / cm^3
# Si number density = 24.761046 Si / 1000 Ang^3
#
#
#
# Elastic Constant Matrix: (Units=GPa)
#
#
# Indices 1 2 3 4 5 6 
#
# 1 138.5115 -1.8754 55.0835 -5.7519 -7.5134 -19.0420
# 2 -1.8754 14.7084 1.1095 -8.0713 -0.9174 -3.7873
# 3 55.0835 1.1095 138.6829 -7.9313 -20.6992 -2.5738
# 4 -5.7519 -8.0713 -7.9313 25.9141 -0.5070 -3.3523
# 5 -7.5134 -0.9174 -20.6992 -0.5070 41.1232 -3.3686
# 6 -19.0420 -3.7873 -2.5738 -3.3523 -3.3686 27.8874
#
#
#
# Elastic Compliance Matrix: (Units=1/GPa)
#
#
# Indices 1 2 3 4 5 6 
#
# 1 0.009989 0.005809 -0.003508 0.003988 0.000883 0.007872
# 2 0.005809 0.092595 0.000017 0.032973 0.005274 0.021144
# 3 -0.003508 0.000017 0.009303 0.002048 0.004002 -0.000805
# 4 0.003988 0.032973 0.002048 0.052292 0.004303 0.014196
# 5 0.000883 0.005274 0.004002 0.004303 0.027112 0.005481
# 6 0.007872 0.021144 -0.000805 0.014196 0.005481 0.046399
#
#
# Mechanical properties :
#
#
# Convention : Reuss Voigt Hill
#
# Bulk Modulus (GPa) = 8.58190 44.50420 26.54305
# Shear Modulus (GPa) = 18.38937 34.82396 26.60666
#
# Velocity S-wave (km/s) = 2.72816 3.75427 3.28157
# Velocity P-wave (km/s) = 3.66022 6.06673 5.01011
#
# Compressibility (1/GPa) = 0.11652431
#
# Stress axis : x y z
#
# Youngs Moduli (GPa) = 100.10937 10.79967 107.48755
#
# Poissons Ratio (x) = -0.06273 0.37707
# Poissons Ratio (y) = -0.58153 -0.00186
# Poissons Ratio (z) = 0.35119 -0.00019
#
# Static dielectric constant tensor:
#      x y z
#    x 2.442000 -0.089470 0.552550 
#    y -0.089470 2.074310 -0.120170 
#    z 0.552550 -0.120170 2.832460 
# 
# From -- ./inp_files/65922.got.cif
#   From: 2010.05.17/outbox.cif.g08.bks.cpg/sg2_33_cif.got.tgz:65922.got - 2010.06.03 11:33:40.
