data_PCOD9053057
_publ_section_title
;
Structure prediction by ZEFSAII (Michael W. Deem and Ramdas Pophale) SiO2 
 PCOD9053057
Probable space group: P -1
;
_chemical_formula_sum "Si O2"
_cell_formula_units_Z 12
_cell_length_a 7.566301
_cell_length_b 8.518321
_cell_length_c 10.838305
_cell_angle_alpha 42.449932
_cell_angle_beta 76.434272
_cell_angle_gamma 89.956725
_cell_volume 442.241503
_symmetry_space_group_name_H-M "P -1"
_symmetry_group_IT_number 2
_symmetry_cell_setting 'triclinic'
loop_
_space_group_symop_operation_xyz
x,y,z
-x,-y,-z
loop_
_atom_site_type_symbol
_atom_site_label
_atom_site_fract_x
_atom_site_fract_y
_atom_site_fract_z
Si Si1 0.542687 0.294952 0.201924
Si Si2 0.189663 0.224633 0.423824
Si Si3 0.155193 0.867312 0.316068
Si Si4 0.270548 0.286153 0.896094
Si Si5 0.224062 0.378842 0.596276
Si Si6 0.106974 0.635175 0.023925
O O1 0.345657 0.129017 0.379936
O O2 0.642003 0.454701 0.208533
O O3 0.698047 0.199081 0.159002
O O4 0.500000 0.500000 0.000000
O O5 0.283840 0.343005 0.468279
O O6 0.986305 0.065019 0.598019
O O7 0.148749 0.440432 0.224217
O O8 0.243391 0.656211 0.466983
O O9 0.001916 0.738650 0.311941
O O10 0.302653 0.086643 0.101072
O O11 0.316250 0.268910 0.756122
O O12 0.043623 0.243848 0.963838
O O13 0.000000 0.500000 0.000000
#
# Coordination Sequence:
#
# PCOD9053057 Si02
#       6
#     2   2   2   2   2   2
#     4   9  20  35  54  74 112 146 169 222 273 296
#     4   9  17  35  53  76 114 139 163 223 276 297
#     4   9  18  32  56  86 104 135 177 217 263 317
#     4  11  18  33  61  82  98 143 186 207 262 325
#     4   9  18  33  58  79 113 131 170 228 264 311
#     4   9  17  32  54  75 101 145 179 212 255 310
#
# _framework density 27.134494
#
# number of rings (size 3 to 8) (size 9 to 14) (size 15 to 20)
#    1.000    1.667    1.667    0.500    0.000    0.667 
#    0.000    9.167    7.333    0.000    0.000    0.000 
#    0.000    0.000    0.000    0.000    0.000    0.000 
#
# Total GULP energy -67057.845882 kJ/mol
# GULP energy per Si atom -5588.153823 kJ/mol
# Density = 2.707273 g / cm^3
# Si number density = 27.134494 Si / 1000 Ang^3
#
#
#
# Elastic Constant Matrix: (Units=GPa)
#
#
# Indices 1 2 3 4 5 6 
#
# 1 95.3208 34.3136 34.7459 16.5183 -23.1316 -1.4209
# 2 34.3136 69.0418 47.2562 11.2458 -1.0339 4.7809
# 3 34.7459 47.2562 137.0615 22.7735 10.3457 8.6554
# 4 16.5183 11.2458 22.7735 52.5288 1.8009 2.8169
# 5 -23.1316 -1.0339 10.3457 1.8009 24.8948 5.8457
# 6 -1.4209 4.7809 8.6554 2.8169 5.8457 30.5708
#
#
#
# Elastic Compliance Matrix: (Units=1/GPa)
#
#
# Indices 1 2 3 4 5 6 
#
# 1 0.019531 -0.006276 -0.003602 -0.003887 0.019786 -0.000516
# 2 -0.006276 0.021479 -0.005530 -0.000062 -0.002249 -0.001649
# 3 -0.003602 -0.005530 0.011121 -0.002195 -0.007865 -0.000745
# 4 -0.003887 -0.000062 -0.002195 0.021404 -0.004076 -0.000742
# 5 0.019786 -0.002249 -0.007865 -0.004076 0.063987 -0.008362
# 6 -0.000516 -0.001649 -0.000745 -0.000742 -0.008362 0.034823
#
#
# Mechanical properties :
#
#
# Convention : Reuss Voigt Hill
#
# Bulk Modulus (GPa) = 46.91804 59.33950 53.12877
# Shear Modulus (GPa) = 23.77927 33.93946 28.85936
#
# Velocity S-wave (km/s) = 2.96353 3.54048 3.26478
# Velocity P-wave (km/s) = 5.38874 6.21526 5.81670
#
# Compressibility (1/GPa) = 0.02131376
#
# Stress axis : x y z
#
# Youngs Moduli (GPa) = 51.20169 46.55726 89.91603
#
# Poissons Ratio (x) = 0.29218 0.32392
# Poissons Ratio (y) = 0.32133 0.49727
# Poissons Ratio (z) = 0.18445 0.25748
#
# Static dielectric constant tensor:
#      x y z
#    x 2.138750 0.001330 -0.037380 
#    y 0.001330 2.103520 0.017680 
#    z -0.037380 0.017680 2.186050 
# 
# From -- ./inp_files/276746.got.cif
#   From: 2010.05.17/outbox.cif.g08.bks.cpg/sg2_139_cif.got.tgz:276746.got - 2010.06.03 11:33:40.
