data_PCOD9053608
_publ_section_title
;
Structure prediction by ZEFSAII (Michael W. Deem and Ramdas Pophale) SiO2 
 PCOD9053608
Probable space group: P -1
;
_chemical_formula_sum "Si O2"
_cell_formula_units_Z 16
_cell_length_a 20.420796
_cell_length_b 10.652778
_cell_length_c 14.193371
_cell_angle_alpha 29.237969
_cell_angle_beta 32.232919
_cell_angle_gamma 32.184066
_cell_volume 731.675710
_symmetry_space_group_name_H-M "P -1"
_symmetry_group_IT_number 2
_symmetry_cell_setting 'triclinic'
loop_
_space_group_symop_operation_xyz
x,y,z
-x,-y,-z
loop_
_atom_site_type_symbol
_atom_site_label
_atom_site_fract_x
_atom_site_fract_y
_atom_site_fract_z
Si Si1 0.895974 0.361584 0.123511
Si Si2 0.586746 0.954469 0.662276
Si Si3 0.197235 0.523171 0.197923
Si Si4 0.928075 0.343659 0.365336
Si Si5 0.014964 0.242117 0.530060
Si Si6 0.232824 0.779107 0.801248
Si Si7 0.492892 0.750758 0.233028
Si Si8 0.327512 0.398613 0.617116
O O1 0.874178 0.226427 0.140790
O O2 0.761500 0.579396 0.195661
O O3 0.945918 0.090638 0.308258
O O4 0.990950 0.517020 0.885387
O O5 0.713914 0.981733 0.439204
O O6 0.541685 0.154322 0.679178
O O7 0.455547 0.092257 0.664860
O O8 0.654218 0.642171 0.829268
O O9 0.089628 0.657167 0.322949
O O10 0.146029 0.304157 0.352341
O O11 0.195123 0.742684 0.977045
O O12 0.946107 0.401865 0.414607
O O13 0.774808 0.500678 0.412016
O O14 0.000000 0.000000 0.500000
O O15 0.362941 0.500550 0.795591
O O16 0.386916 0.633425 0.402360
O O17 0.500000 0.000000 0.000000
#
# Coordination Sequence:
#
# PCOD9053608 Si02
#       8
#     2   2   2   2   2   2   2   2
#     4  12  22  41  63  96 133 164 209 264 319 380
#     4  11  21  39  61  94 130 158 209 267 316 369
#     4  11  23  41  65  94 127 172 211 265 316 373
#     4  12  27  42  66  94 130 175 211 259 324 385
#     4  11  25  42  63  93 132 167 218 260 312 383
#     4  11  20  34  63  94 126 159 205 265 323 365
#     4  11  20  33  62  95 126 160 203 268 321 369
#     4  11  23  39  60  98 129 164 209 264 322 380
#
# _framework density 21.867612000000001
#
# number of rings (size 3 to 8) (size 9 to 14) (size 15 to 20)
#    0.000    0.750    7.500    1.125    1.750    1.500 
#    0.000    0.625    0.000    3.750    0.000    0.000 
#    0.000    0.000    0.000    0.000    0.000    0.000 
#
# Total GULP energy -89376.364071 kJ/mol
# GULP energy per Si atom -5586.022754 kJ/mol
# Density = 2.181784 g / cm^3
# Si number density = 21.867612 Si / 1000 Ang^3
#
#
#
# Elastic Constant Matrix: (Units=GPa)
#
#
# Indices 1 2 3 4 5 6 
#
# 1 92.5613 25.5333 36.1374 2.1391 12.6163 -41.6739
# 2 25.5333 52.5359 3.2253 4.8332 -6.8650 -22.9353
# 3 36.1374 3.2253 113.8410 5.8644 15.6069 -12.0865
# 4 2.1391 4.8332 5.8644 24.4383 -2.8918 6.6428
# 5 12.6163 -6.8650 15.6069 -2.8918 33.8433 4.8215
# 6 -41.6739 -22.9353 -12.0865 6.6428 4.8215 37.0714
#
#
#
# Elastic Compliance Matrix: (Units=1/GPa)
#
#
# Indices 1 2 3 4 5 6 
#
# 1 0.034272 0.001974 -0.002762 -0.017016 -0.018874 0.044351
# 2 0.001974 0.029220 0.001636 -0.012610 0.000071 0.023081
# 3 -0.002762 0.001636 0.010679 -0.003866 -0.004269 0.002637
# 4 -0.017016 -0.012610 -0.003866 0.058886 0.016424 -0.040879
# 5 -0.018874 0.000071 -0.004269 0.016424 0.044428 -0.031287
# 6 0.044351 0.023081 0.002637 -0.040879 -0.031287 0.103367
#
#
# Mechanical properties :
#
#
# Convention : Reuss Voigt Hill
#
# Bulk Modulus (GPa) = 13.18094 43.19225 28.18659
# Shear Modulus (GPa) = 16.42339 32.00675 24.21507
#
# Velocity S-wave (km/s) = 2.74348 3.82993 3.33129
# Velocity P-wave (km/s) = 4.00952 6.27315 5.26444
#
# Compressibility (1/GPa) = 0.07586715
#
# Stress axis : x y z
#
# Youngs Moduli (GPa) = 29.17870 34.22263 93.64155
#
# Poissons Ratio (x) = -0.06757 0.25865
# Poissons Ratio (y) = -0.05761 -0.15317
# Poissons Ratio (z) = 0.08059 -0.05598
#
# Static dielectric constant tensor:
#      x y z
#    x 1.859530 -0.025800 0.003530 
#    y -0.025800 1.841450 -0.051040 
#    z 0.003530 -0.051040 1.837770 
# 
# From -- ./inp_files/540915.got.cif
#   From: 2010.05.17/outbox.cif.g08.bks.cpg/sg2_271_cif.got.tgz:540915.got - 2010.06.03 11:33:40.
