data_PCOD9053045
_publ_section_title
;
Structure prediction by ZEFSAII (Michael W. Deem and Ramdas Pophale) SiO2 
 PCOD9053045
Probable space group: P -1
;
_chemical_formula_sum "Si O2"
_cell_formula_units_Z 16
_cell_length_a 11.432636
_cell_length_b 14.762159
_cell_length_c 9.540195
_cell_angle_alpha 63.195849
_cell_angle_beta 114.281095
_cell_angle_gamma 147.369389
_cell_volume 773.259438
_symmetry_space_group_name_H-M "P -1"
_symmetry_group_IT_number 2
_symmetry_cell_setting 'triclinic'
loop_
_space_group_symop_operation_xyz
x,y,z
-x,-y,-z
loop_
_atom_site_type_symbol
_atom_site_label
_atom_site_fract_x
_atom_site_fract_y
_atom_site_fract_z
Si Si1 0.668284 0.571427 0.386257
Si Si2 0.729678 0.376820 0.066222
Si Si3 0.260133 0.340632 0.934702
Si Si4 0.695657 0.857502 0.855316
Si Si5 0.141455 0.742595 0.913030
Si Si6 0.168879 0.940432 0.950719
Si Si7 0.289020 0.479979 0.278267
Si Si8 0.035625 0.051658 0.643309
O O1 0.432521 0.472900 0.315362
O O2 0.666049 0.481087 0.561389
O O3 0.816316 0.754389 0.399956
O O4 0.761145 0.611293 0.251565
O O5 0.566904 0.303060 0.161916
O O6 0.730113 0.258776 0.111646
O O7 0.981418 0.573523 0.054715
O O8 0.639366 0.382032 0.882927
O O9 0.231317 0.201517 0.993692
O O10 0.082353 0.256348 0.018492
O O11 0.500000 0.500000 0.000000
O O12 0.818757 0.933667 0.714061
O O13 0.761437 0.986954 0.907909
O O14 0.967709 0.688110 0.762700
O O15 0.272294 0.911838 0.942023
O O16 0.156383 0.033351 0.787493
O O17 0.000000 0.000000 0.500000
#
# Coordination Sequence:
#
# PCOD9053045 Si02
#       8
#     2   2   2   2   2   2   2   2
#     4  11  18  33  53  84 116 141 180 232 292 338
#     4   9  18  37  57  82 111 150 203 232 268 328
#     4  11  19  32  53  82 113 148 186 231 283 340
#     4  11  20  36  54  82 118 145 189 238 277 339
#     4   9  19  35  57  85 108 154 198 233 270 326
#     4  11  19  33  54  82 115 145 189 232 282 339
#     4   9  18  31  55  81 110 144 184 236 280 327
#     4  11  22  34  53  83 122 148 175 229 298 350
#
# _framework density 20.691631999999998
#
# number of rings (size 3 to 8) (size 9 to 14) (size 15 to 20)
#    0.750    1.000    3.750    3.000    0.000    3.500 
#    0.000    0.000    0.000    3.750    3.250    0.000 
#    0.000    0.000    0.000    0.000    0.000    0.000 
#
# Total GULP energy -89164.339423 kJ/mol
# GULP energy per Si atom -5572.771214 kJ/mol
# Density = 2.064454 g / cm^3
# Si number density = 20.691632 Si / 1000 Ang^3
#
#
#
# Elastic Constant Matrix: (Units=GPa)
#
#
# Indices 1 2 3 4 5 6 
#
# 1 105.0219 16.3361 22.0987 -0.9084 -8.6778 -7.2327
# 2 16.3361 43.4599 15.3038 6.2849 -6.4413 -4.5321
# 3 22.0987 15.3038 98.9096 5.3729 -17.5604 0.3289
# 4 -0.9084 6.2849 5.3729 24.1492 -0.0393 -8.0143
# 5 -8.6778 -6.4413 -17.5604 -0.0393 20.8830 -0.3455
# 6 -7.2327 -4.5321 0.3289 -8.0143 -0.3455 36.8273
#
#
#
# Elastic Compliance Matrix: (Units=1/GPa)
#
#
# Indices 1 2 3 4 5 6 
#
# 1 0.010725 -0.003243 -0.001657 0.002369 0.002105 0.002257
# 2 -0.003243 0.026786 -0.002188 -0.006136 0.005086 0.001391
# 3 -0.001657 -0.002188 0.012604 -0.002682 0.009210 -0.001204
# 4 0.002369 -0.006136 -0.002682 0.046983 -0.002911 0.009931
# 5 0.002105 0.005086 0.009210 -0.002911 0.058083 0.000868
# 6 0.002257 0.001391 -0.001204 0.009931 0.000868 0.029948
#
#
# Mechanical properties :
#
#
# Convention : Reuss Voigt Hill
#
# Bulk Modulus (GPa) = 27.82575 39.42985 33.62780
# Shear Modulus (GPa) = 23.66485 29.28210 26.47347
#
# Velocity S-wave (km/s) = 3.38552 3.76595 3.58079
# Velocity P-wave (km/s) = 5.36277 6.16499 5.77782
#
# Compressibility (1/GPa) = 0.03593793
#
# Stress axis : x y z
#
# Youngs Moduli (GPa) = 93.24211 37.33358 79.34096
#
# Poissons Ratio (x) = 0.12108 0.13146
# Poissons Ratio (y) = 0.30239 0.17361
# Poissons Ratio (z) = 0.15449 0.08169
#
# Static dielectric constant tensor:
#      x y z
#    x 1.767120 0.018720 -0.025010 
#    y 0.018720 1.896340 -0.005750 
#    z -0.025010 -0.005750 1.740920 
# 
# From -- ./inp_files/267463.got.cif
#   From: 2010.05.17/outbox.cif.g08.bks.cpg/sg2_134_cif.got.tgz:267463.got - 2010.06.03 11:33:40.
