data_PCOD9053539
_publ_section_title
;
Structure prediction by ZEFSAII (Michael W. Deem and Ramdas Pophale) SiO2 
 PCOD9053539
Probable space group: P -1
;
_chemical_formula_sum "Si O2"
_cell_formula_units_Z 13
_cell_length_a 10.191046
_cell_length_b 9.075693
_cell_length_c 13.178350
_cell_angle_alpha 96.446379
_cell_angle_beta 34.662160
_cell_angle_gamma 107.737430
_cell_volume 638.380494
_symmetry_space_group_name_H-M "P -1"
_symmetry_group_IT_number 2
_symmetry_cell_setting 'triclinic'
loop_
_space_group_symop_operation_xyz
x,y,z
-x,-y,-z
loop_
_atom_site_type_symbol
_atom_site_label
_atom_site_fract_x
_atom_site_fract_y
_atom_site_fract_z
Si Si1 0.212215 0.939191 0.650764
Si Si2 0.425048 0.355293 0.215547
Si Si3 0.916278 0.892437 0.444428
Si Si4 0.704164 0.263603 0.862170
Si Si5 0.022126 0.625266 0.634850
Si Si6 0.531150 0.709672 0.192311
Si Si7 0.000000 0.000000 0.000000
O O1 0.101543 0.749561 0.685840
O O2 0.500000 0.000000 0.500000
O O3 0.175263 0.018722 0.576128
O O4 0.073692 0.984116 0.834024
O O5 0.308144 0.266923 0.386791
O O6 0.579840 0.544467 0.143978
O O7 0.193080 0.346970 0.291329
O O8 0.574895 0.266393 0.051746
O O9 0.148049 0.853012 0.252751
O O10 0.000000 0.000000 0.500000
O O11 0.508043 0.237784 0.892886
O O12 0.906074 0.442887 0.730107
O O13 0.261063 0.660202 0.414141
O O14 0.731829 0.847337 0.138938
#
# Coordination Sequence:
#
# PCOD9053539 Si02
#       7
#     2   2   2   2   2   2   1
#     4  12  26  45  67  99 141 182 218 279 343 416
#     4  11  21  40  70 102 136 172 234 282 339 392
#     4  12  25  43  68 107 138 171 229 290 342 388
#     4  11  22  40  72  99 134 175 234 288 330 393
#     4  11  19  44  69  98 134 183 226 281 339 396
#     4  11  20  40  70  99 138 185 224 280 333 414
#     4  12  26  42  66  98 138 182 228 260 350 414
#
# _framework density 20.364031000000001
#
# number of rings (size 3 to 8) (size 9 to 14) (size 15 to 20)
#    0.000    0.615    6.154    4.615    0.000    1.846 
#    0.000    3.077    0.000    3.692    0.000    0.000 
#    0.000    0.000    0.000    0.000    0.000    0.000 
#
# Total GULP energy -72482.866840 kJ/mol
# GULP energy per Si atom -5575.605142 kJ/mol
# Density = 2.031768 g / cm^3
# Si number density = 20.364031 Si / 1000 Ang^3
#
#
#
# Elastic Constant Matrix: (Units=GPa)
#
#
# Indices 1 2 3 4 5 6 
#
# 1 73.5734 46.2370 19.8553 14.1614 5.0152 15.6858
# 2 46.2370 84.5537 11.4067 14.3605 -18.4586 22.6758
# 3 19.8553 11.4067 107.8338 20.4576 2.1713 -0.3477
# 4 14.1614 14.3605 20.4576 32.5288 9.8997 -3.4423
# 5 5.0152 -18.4586 2.1713 9.8997 26.6119 1.1313
# 6 15.6858 22.6758 -0.3477 -3.4423 1.1313 39.8202
#
#
#
# Elastic Compliance Matrix: (Units=1/GPa)
#
#
# Indices 1 2 3 4 5 6 
#
# 1 0.027666 -0.021264 -0.003653 0.006663 -0.022245 0.002387
# 2 -0.021264 0.042379 0.003642 -0.027191 0.044042 -0.019327
# 3 -0.003653 0.003642 0.011131 -0.008902 0.005680 -0.001468
# 4 0.006663 -0.027191 -0.008902 0.060474 -0.042704 0.019223
# 5 -0.022245 0.044042 0.005680 -0.042704 0.088696 -0.022479
# 6 0.002387 -0.019327 -0.001468 0.019223 -0.022479 0.037466
#
#
# Mechanical properties :
#
#
# Convention : Reuss Voigt Hill
#
# Bulk Modulus (GPa) = 25.88979 46.77320 36.33150
# Shear Modulus (GPa) = 15.46846 32.35630 23.91238
#
# Velocity S-wave (km/s) = 2.75907 3.99042 3.43044
# Velocity P-wave (km/s) = 4.78446 6.65204 5.79399
#
# Compressibility (1/GPa) = 0.03862527
#
# Stress axis : x y z
#
# Youngs Moduli (GPa) = 36.14549 23.59637 89.84236
#
# Poissons Ratio (x) = 0.50175 0.32822
# Poissons Ratio (y) = 0.76859 -0.32719
# Poissons Ratio (z) = 0.13205 -0.08593
#
# Static dielectric constant tensor:
#      x y z
#    x 1.664850 -0.009420 -0.007600 
#    y -0.009420 1.774290 -0.002090 
#    z -0.007600 -0.002090 1.765730 
# 
# From -- ./inp_files/161496.got.cif
#   From: 2010.05.17/outbox.cif.g08.bks.cpg/sg2_81_cif.got.tgz:161496.got - 2010.06.03 11:33:40.
