data_PCOD9053123
_publ_section_title
;
Structure prediction by ZEFSAII (Michael W. Deem and Ramdas Pophale) SiO2 
 PCOD9053123
Probable space group: P -1
;
_chemical_formula_sum "Si O2"
_cell_formula_units_Z 12
_cell_length_a 10.959477
_cell_length_b 10.797056
_cell_length_c 20.916356
_cell_angle_alpha 148.053331
_cell_angle_beta 159.326670
_cell_angle_gamma 38.422425
_cell_volume 461.621069
_symmetry_space_group_name_H-M "P -1"
_symmetry_group_IT_number 2
_symmetry_cell_setting 'triclinic'
loop_
_space_group_symop_operation_xyz
x,y,z
-x,-y,-z
loop_
_atom_site_type_symbol
_atom_site_label
_atom_site_fract_x
_atom_site_fract_y
_atom_site_fract_z
Si Si1 0.605846 0.221446 0.805010
Si Si2 0.163797 0.789958 0.585586
Si Si3 0.650431 0.253881 0.482581
Si Si4 0.250129 0.272038 0.887215
Si Si5 0.035787 0.824383 0.161884
Si Si6 0.246660 0.355502 0.512458
O O1 0.929171 0.247985 0.926535
O O2 0.228982 0.193381 0.573330
O O3 0.613438 0.974698 0.737382
O O4 0.576814 0.474372 0.934467
O O5 0.139124 0.797824 0.501084
O O6 0.298184 0.542139 0.562670
O O7 0.378727 0.020858 0.817688
O O8 0.500000 0.500000 0.500000
O O9 0.891968 0.275796 0.673088
O O10 0.232916 0.253740 0.948396
O O11 0.384072 0.716486 0.312932
O O12 0.060289 0.105600 0.295278
O O13 0.000000 0.500000 0.500000
#
# Coordination Sequence:
#
# PCOD9053123 Si02
#       6
#     2   2   2   2   2   2
#     4  11  23  40  63  92 127 164 207 260 310 370
#     4  11  22  40  64  92 121 164 213 255 312 375
#     4  11  24  42  63  88 124 166 211 260 312 372
#     4  11  23  40  63  92 127 164 207 260 310 370
#     4  11  21  38  64  95 129 164 209 259 308 369
#     4  11  18  38  67  90 124 167 208 255 312 363
#
# _framework density 25.995346999999999
#
# number of rings (size 3 to 8) (size 9 to 14) (size 15 to 20)
#    0.000    1.000    3.333    7.500    0.000    3.333 
#    0.000    8.333    0.000    0.000    0.000    0.000 
#    0.000    0.000    0.000    0.000    0.000    0.000 
#
# Total GULP energy -67000.276195 kJ/mol
# GULP energy per Si atom -5583.356350 kJ/mol
# Density = 2.593618 g / cm^3
# Si number density = 25.995347 Si / 1000 Ang^3
#
#
#
# Elastic Constant Matrix: (Units=GPa)
#
#
# Indices 1 2 3 4 5 6 
#
# 1 115.2409 25.0879 11.0567 6.2433 16.4976 6.8786
# 2 25.0879 226.1016 56.9546 60.5942 7.6598 20.4569
# 3 11.0567 56.9546 102.7040 45.3209 0.1809 10.7750
# 4 6.2433 60.5942 45.3209 66.2318 -1.8585 9.4282
# 5 16.4976 7.6598 0.1809 -1.8585 13.1186 9.3962
# 6 6.8786 20.4569 10.7750 9.4282 9.3962 34.2097
#
#
#
# Elastic Compliance Matrix: (Units=1/GPa)
#
#
# Indices 1 2 3 4 5 6 
#
# 1 0.010989 -0.000516 -0.000785 -0.000881 -0.015713 0.002905
# 2 -0.000516 0.006261 -0.001176 -0.004787 -0.002828 -0.001174
# 3 -0.000785 -0.001176 0.014353 -0.008374 0.001566 -0.001782
# 4 -0.000881 -0.004787 -0.008374 0.026253 0.011022 -0.004586
# 5 -0.015713 -0.002828 0.001566 0.011022 0.122292 -0.032270
# 6 0.002905 -0.001174 -0.001782 -0.004586 -0.032270 0.040038
#
#
# Mechanical properties :
#
#
# Convention : Reuss Voigt Hill
#
# Bulk Modulus (GPa) = 37.52577 70.02721 53.77649
# Shear Modulus (GPa) = 21.36542 46.10849 33.73695
#
# Velocity S-wave (km/s) = 2.86998 4.21613 3.60642
# Velocity P-wave (km/s) = 5.04473 7.12024 6.17038
#
# Compressibility (1/GPa) = 0.02664835
#
# Stress axis : x y z
#
# Youngs Moduli (GPa) = 91.00140 159.71284 69.67311
#
# Poissons Ratio (x) = 0.08240 0.05471
# Poissons Ratio (y) = 0.04695 0.08194
# Poissons Ratio (z) = 0.07146 0.18783
#
# Static dielectric constant tensor:
#      x y z
#    x 2.117810 0.022120 0.000950 
#    y 0.022120 2.030310 0.015270 
#    z 0.000950 0.015270 2.114360 
# 
# From -- ./inp_files/610323.got.cif
#   From: 2010.05.17/outbox.cif.g08.bks.cpg/sg2_306_cif.got.tgz:610323.got - 2010.06.03 11:33:40.
