data_PCOD9053210
_publ_section_title
;
Structure prediction by ZEFSAII (Michael W. Deem and Ramdas Pophale) SiO2 
 PCOD9053210
Probable space group: P -1
;
_chemical_formula_sum "Si O2"
_cell_formula_units_Z 14
_cell_length_a 15.350188
_cell_length_b 6.876162
_cell_length_c 20.862707
_cell_angle_alpha 46.945458
_cell_angle_beta 153.116027
_cell_angle_gamma 135.384223
_cell_volume 691.394158
_symmetry_space_group_name_H-M "P -1"
_symmetry_group_IT_number 2
_symmetry_cell_setting 'triclinic'
loop_
_space_group_symop_operation_xyz
x,y,z
-x,-y,-z
loop_
_atom_site_type_symbol
_atom_site_label
_atom_site_fract_x
_atom_site_fract_y
_atom_site_fract_z
Si Si1 0.322557 0.671489 0.505996
Si Si2 0.551223 0.286451 0.926212
Si Si3 0.014903 0.765226 0.673080
Si Si4 0.626473 0.672815 0.605097
Si Si5 0.080789 0.833163 0.850980
Si Si6 0.286099 0.428311 0.909362
Si Si7 0.133527 0.345750 0.583307
O O1 0.518479 0.611253 0.617824
O O2 0.215781 0.503008 0.536071
O O3 0.162707 0.528069 0.377623
O O4 0.356233 0.997850 0.466720
O O5 0.341621 0.327131 0.757145
O O6 0.719763 0.267585 0.989317
O O7 0.669039 0.541879 0.992457
O O8 0.500000 0.000000 0.000000
O O9 0.057913 0.860824 0.752996
O O10 0.194566 0.677401 0.778086
O O11 0.988259 0.024803 0.558972
O O12 0.500000 0.500000 0.500000
O O13 0.854216 0.654082 0.762641
O O14 0.140857 0.134424 0.856199
O O15 0.500000 0.500000 0.000000
O O16 0.000000 0.500000 0.500000
#
# Coordination Sequence:
#
# PCOD9053210 Si02
#       7
#     2   2   2   2   2   2   2
#     4  11  25  39  64  98 133 170 222 268 334 386
#     4  11  22  39  61  96 130 172 220 259 321 415
#     4  11  21  39  61 100 132 164 212 269 329 406
#     4  11  23  43  68  93 129 177 228 272 317 392
#     4  11  20  39  67  93 126 171 223 268 321 384
#     4  11  19  33  65  91 128 168 216 254 327 387
#     4  12  25  42  64 100 145 170 208 282 341 386
#
# _framework density 20.248940000000001
#
# number of rings (size 3 to 8) (size 9 to 14) (size 15 to 20)
#    0.000    0.857    7.143    1.286    2.000    0.000 
#    2.571    0.714    0.000    1.714    0.000    0.000 
#    0.000    0.000    0.000    0.000    0.000    0.000 
#
# Total GULP energy -77988.444484 kJ/mol
# GULP energy per Si atom -5570.603177 kJ/mol
# Density = 2.020285 g / cm^3
# Si number density = 20.248940 Si / 1000 Ang^3
#
#
#
# Elastic Constant Matrix: (Units=GPa)
#
#
# Indices 1 2 3 4 5 6 
#
# 1 108.8914 25.6758 27.0220 -4.9892 33.9050 -6.1499
# 2 25.6758 128.9232 23.6182 18.6420 1.9061 -30.0521
# 3 27.0220 23.6182 77.8597 5.1890 31.0651 -10.1835
# 4 -4.9892 18.6420 5.1890 30.5422 -4.1286 3.6191
# 5 33.9050 1.9061 31.0651 -4.1286 48.2530 4.0837
# 6 -6.1499 -30.0521 -10.1835 3.6191 4.0837 31.2665
#
#
#
# Elastic Compliance Matrix: (Units=1/GPa)
#
#
# Indices 1 2 3 4 5 6 
#
# 1 0.012632 -0.002491 -0.000316 0.002401 -0.008438 0.000811
# 2 -0.002491 0.012708 -0.000584 -0.009604 -0.000271 0.012682
# 3 -0.000316 -0.000584 0.020238 -0.006036 -0.014020 0.008498
# 4 0.002401 -0.009604 -0.006036 0.043039 0.007675 -0.016709
# 5 -0.008438 -0.000271 -0.014020 0.007675 0.037383 -0.012257
# 6 0.000811 0.012682 0.008498 -0.016709 -0.012257 0.050635
#
#
# Mechanical properties :
#
#
# Convention : Reuss Voigt Hill
#
# Bulk Modulus (GPa) = 25.77513 52.03402 38.90458
# Shear Modulus (GPa) = 25.46490 37.96955 31.71723
#
# Velocity S-wave (km/s) = 3.55010 4.33498 3.96203
# Velocity P-wave (km/s) = 5.43701 7.12805 6.33917
#
# Compressibility (1/GPa) = 0.03879709
#
# Stress axis : x y z
#
# Youngs Moduli (GPa) = 79.16243 78.68775 49.41269
#
# Poissons Ratio (x) = 0.19603 0.01561
# Poissons Ratio (y) = 0.19721 0.02884
# Poissons Ratio (z) = 0.02500 0.04592
#
# Static dielectric constant tensor:
#      x y z
#    x 1.781200 0.003140 0.034750 
#    y 0.003140 1.764210 0.059480 
#    z 0.034750 0.059480 1.820240 
# 
# From -- ./inp_files/436111.got.cif
#   From: 2010.05.17/outbox.cif.g08.bks.cpg/sg2_219_cif.got.tgz:436111.got - 2010.06.03 11:33:40.
