data_PCOD9053153
_publ_section_title
;
Structure prediction by ZEFSAII (Michael W. Deem and Ramdas Pophale) SiO2 
 PCOD9053153
Probable space group: P -1
;
_chemical_formula_sum "Si O2"
_cell_formula_units_Z 14
_cell_length_a 11.082659
_cell_length_b 10.041265
_cell_length_c 7.317185
_cell_angle_alpha 109.138488
_cell_angle_beta 134.400622
_cell_angle_gamma 62.571132
_cell_volume 516.356892
_symmetry_space_group_name_H-M "P -1"
_symmetry_group_IT_number 2
_symmetry_cell_setting 'triclinic'
loop_
_space_group_symop_operation_xyz
x,y,z
-x,-y,-z
loop_
_atom_site_type_symbol
_atom_site_label
_atom_site_fract_x
_atom_site_fract_y
_atom_site_fract_z
Si Si1 0.171019 0.152831 0.653344
Si Si2 0.297535 0.325604 0.583613
Si Si3 0.383853 0.833897 0.778295
Si Si4 0.066334 0.924913 0.229124
Si Si5 0.607749 0.617033 0.663705
Si Si6 0.937587 0.356409 0.017506
Si Si7 0.197449 0.653243 0.743838
O O1 0.303298 0.188324 0.659390
O O2 0.999594 0.307605 0.550067
O O3 0.309925 0.008374 0.841944
O O4 0.037834 0.064548 0.394433
O O5 0.419487 0.298981 0.521390
O O6 0.298555 0.475045 0.750281
O O7 0.101626 0.367455 0.307847
O O8 0.271495 0.840085 0.470958
O O9 0.574457 0.731432 0.850661
O O10 0.316879 0.737278 0.807789
O O11 0.988258 0.790453 0.100226
O O12 0.000000 0.000000 0.000000
O O13 0.500000 0.500000 0.500000
O O14 0.811316 0.502487 0.850879
O O15 0.824738 0.318240 0.049054
#
# Coordination Sequence:
#
# PCOD9053153 Si02
#       7
#     2   2   2   2   2   2   2
#     4   9  20  35  61  87 115 150 200 242 293 340
#     4  11  22  38  62  89 118 157 198 245 296 345
#     4  10  22  37  57  87 119 157 191 241 296 347
#     4  10  17  35  59  88 115 148 203 239 287 344
#     4  12  22  40  58  87 124 156 198 246 293 356
#     4  11  21  37  63  91 115 156 206 242 288 354
#     4  11  20  37  63  88 120 155 196 246 293 351
#
# _framework density 27.113030999999999
#
# number of rings (size 3 to 8) (size 9 to 14) (size 15 to 20)
#    0.857    0.571    5.714    2.571    0.000    1.143 
#    0.000    0.000    3.143    3.429    0.000    0.000 
#    0.000    0.000    0.000    0.000    0.000    0.000 
#
# Total GULP energy -77992.391259 kJ/mol
# GULP energy per Si atom -5570.885090 kJ/mol
# Density = 2.705132 g / cm^3
# Si number density = 27.113031 Si / 1000 Ang^3
#
#
#
# Elastic Constant Matrix: (Units=GPa)
#
#
# Indices 1 2 3 4 5 6 
#
# 1 114.5141 39.7567 -16.6887 -8.4506 -13.9417 29.3250
# 2 39.7567 139.5661 1.3582 2.9302 -6.5032 18.6402
# 3 -16.6887 1.3582 58.2749 -11.2906 -7.5357 4.8654
# 4 -8.4506 2.9302 -11.2906 49.0131 3.6406 -13.2774
# 5 -13.9417 -6.5032 -7.5357 3.6406 31.4696 -13.7636
# 6 29.3250 18.6402 4.8654 -13.2774 -13.7636 51.5577
#
#
#
# Elastic Compliance Matrix: (Units=1/GPa)
#
#
# Indices 1 2 3 4 5 6 
#
# 1 0.012229 -0.002730 0.004790 0.001751 0.003608 -0.005006
# 2 -0.002730 0.008219 -0.001203 -0.001711 -0.000413 -0.001856
# 3 0.004790 -0.001203 0.020323 0.004761 0.005531 -0.001504
# 4 0.001751 -0.001711 0.004761 0.023303 0.001279 0.005516
# 5 0.003608 -0.000413 0.005531 0.001279 0.037985 0.008045
# 6 -0.005006 -0.001856 -0.001504 0.005516 0.008045 0.026624
#
#
# Mechanical properties :
#
#
# Convention : Reuss Voigt Hill
#
# Bulk Modulus (GPa) = 23.53889 40.13419 31.83654
# Shear Modulus (GPa) = 35.42780 45.60334 40.51557
#
# Velocity S-wave (km/s) = 3.61871 4.10563 3.86984
# Velocity P-wave (km/s) = 5.11475 6.10816 5.63340
#
# Compressibility (1/GPa) = 0.04248289
#
# Stress axis : x y z
#
# Youngs Moduli (GPa) = 81.77332 121.66842 49.20545
#
# Poissons Ratio (x) = 0.33217 -0.23567
# Poissons Ratio (y) = 0.22325 0.05922
# Poissons Ratio (z) = -0.39166 0.14642
#
# Static dielectric constant tensor:
#      x y z
#    x 2.322880 -0.066330 0.036590 
#    y -0.066330 2.197050 -0.008170 
#    z 0.036590 -0.008170 2.323050 
# 
# From -- ./inp_files/240011.got.cif
#   From: 2010.05.17/outbox.cif.g08.bks.cpg/sg2_121_cif.got.tgz:240011.got - 2010.06.03 11:33:40.
