data_PCOD9053890
_publ_section_title
;
Structure prediction by ZEFSAII (Michael W. Deem and Ramdas Pophale) SiO2 
 PCOD9053890
Probable space group: P -1
;
_chemical_formula_sum "Si O2"
_cell_formula_units_Z 16
_cell_length_a 5.680718
_cell_length_b 12.026304
_cell_length_c 15.707791
_cell_angle_alpha 45.472618
_cell_angle_beta 97.688539
_cell_angle_gamma 107.902612
_cell_volume 722.695816
_symmetry_space_group_name_H-M "P -1"
_symmetry_group_IT_number 2
_symmetry_cell_setting 'triclinic'
loop_
_space_group_symop_operation_xyz
x,y,z
-x,-y,-z
loop_
_atom_site_type_symbol
_atom_site_label
_atom_site_fract_x
_atom_site_fract_y
_atom_site_fract_z
Si Si1 0.511902 0.393894 0.975766
Si Si2 0.254494 0.445981 0.461027
Si Si3 0.018865 0.710323 0.303645
Si Si4 0.246287 0.936559 0.695224
Si Si5 0.780990 0.962042 0.781160
Si Si6 0.949770 0.607014 0.798590
Si Si7 0.752999 0.507888 0.252906
Si Si8 0.322458 0.226535 0.426780
O O1 0.804065 0.461723 0.931174
O O2 0.397523 0.439917 0.858090
O O3 0.500000 0.500000 0.000000
O O4 0.352134 0.212513 0.089312
O O5 0.500000 0.500000 0.500000
O O6 0.212226 0.614187 0.339244
O O7 0.255264 0.324123 0.450648
O O8 0.049365 0.347626 0.571446
O O9 0.801466 0.631944 0.267426
O O10 0.113578 0.903157 0.213010
O O11 0.535911 0.999718 0.707529
O O12 0.019701 0.957676 0.734666
O O13 0.183672 0.742258 0.778866
O O14 0.253789 0.040959 0.553138
O O15 0.801125 0.728247 0.688704
O O16 0.009151 0.511861 0.772390
O O17 0.612566 0.324094 0.376397
#
# Coordination Sequence:
#
# PCOD9053890 Si02
#       8
#     2   2   2   2   2   2   2   2
#     4  11  25  49  74  98 134 190 246 295 353 419
#     4  11  20  38  66  95 144 189 226 275 347 441
#     4  11  24  40  67 103 141 186 233 286 354 422
#     4  12  27  45  72 108 144 183 238 297 356 425
#     4  12  28  46  73 107 137 191 245 292 350 422
#     4  11  25  45  71 101 141 185 236 300 355 424
#     4  11  25  42  72 104 140 188 237 291 359 422
#     4  11  23  41  67 109 143 183 233 286 365 427
#
# _framework density 22.139327000000002
#
# number of rings (size 3 to 8) (size 9 to 14) (size 15 to 20)
#    0.000    0.750    5.000    1.875    7.000    2.000 
#    0.000    0.625    0.000    0.000    0.000    0.000 
#    0.000    0.000    0.000    0.000    0.000    0.000 
#
# Total GULP energy -89200.860900 kJ/mol
# GULP energy per Si atom -5575.053806 kJ/mol
# Density = 2.208894 g / cm^3
# Si number density = 22.139327 Si / 1000 Ang^3
#
#
#
# Elastic Constant Matrix: (Units=GPa)
#
#
# Indices 1 2 3 4 5 6 
#
# 1 61.9903 4.4107 17.9356 8.3554 -12.4850 3.4088
# 2 4.4107 105.5200 20.3131 -9.6952 -11.4710 2.4439
# 3 17.9356 20.3131 114.1786 -21.6224 -18.6182 1.4396
# 4 8.3554 -9.6952 -21.6224 44.1567 3.6547 -1.7545
# 5 -12.4850 -11.4710 -18.6182 3.6547 40.1432 8.6208
# 6 3.4088 2.4439 1.4396 -1.7545 8.6208 32.4578
#
#
#
# Elastic Compliance Matrix: (Units=1/GPa)
#
#
# Indices 1 2 3 4 5 6 
#
# 1 0.019198 -0.000013 -0.003108 -0.005791 0.005857 -0.003746
# 2 -0.000013 0.010126 -0.001100 0.001425 0.002530 -0.001307
# 3 -0.003108 -0.001100 0.011053 0.005440 0.003504 -0.000718
# 4 -0.005791 0.001425 0.005440 0.026955 -0.001796 0.002194
# 5 0.005857 0.002530 0.003504 -0.001796 0.031254 -0.009359
# 6 -0.003746 -0.001307 -0.000718 0.002194 -0.009359 0.033937
#
#
# Mechanical properties :
#
#
# Convention : Reuss Voigt Hill
#
# Bulk Modulus (GPa) = 31.31414 40.77864 36.04639
# Shear Modulus (GPa) = 32.97956 39.28683 36.13320
#
# Velocity S-wave (km/s) = 3.86377 4.21708 4.04429
# Velocity P-wave (km/s) = 5.83779 6.49391 6.17457
#
# Compressibility (1/GPa) = 0.03193446
#
# Stress axis : x y z
#
# Youngs Moduli (GPa) = 52.08923 98.76031 90.47481
#
# Poissons Ratio (x) = 0.00126 0.28116
# Poissons Ratio (y) = 0.00066 0.09956
# Poissons Ratio (z) = 0.16188 0.10868
#
# Static dielectric constant tensor:
#      x y z
#    x 1.975970 0.065120 -0.001500 
#    y 0.065120 1.843700 -0.015420 
#    z -0.001500 -0.015420 1.902400 
# 
# From -- ./inp_files/69022.got.cif
#   From: 2010.05.17/outbox.cif.g08.bks.cpg/sg2_35_cif.got.tgz:69022.got - 2010.06.03 11:33:40.
