data_PCOD9053828
_publ_section_title
;
Structure prediction by ZEFSAII (Michael W. Deem and Ramdas Pophale) SiO2 
 PCOD9053828
Probable space group: P -1
;
_chemical_formula_sum "Si O2"
_cell_formula_units_Z 16
_cell_length_a 16.451965
_cell_length_b 10.072533
_cell_length_c 16.102324
_cell_angle_alpha 143.384940
_cell_angle_beta 140.976960
_cell_angle_gamma 36.389411
_cell_volume 877.372567
_symmetry_space_group_name_H-M "P -1"
_symmetry_group_IT_number 2
_symmetry_cell_setting 'triclinic'
loop_
_space_group_symop_operation_xyz
x,y,z
-x,-y,-z
loop_
_atom_site_type_symbol
_atom_site_label
_atom_site_fract_x
_atom_site_fract_y
_atom_site_fract_z
Si Si1 0.913576 0.941272 0.474134
Si Si2 0.889470 0.145732 0.115063
Si Si3 0.794705 0.755051 0.791358
Si Si4 0.119900 0.567842 0.591648
Si Si5 0.666920 0.444771 0.622111
Si Si6 0.775323 0.296245 0.820399
Si Si7 0.119012 0.483623 0.852749
Si Si8 0.670478 0.902797 0.586311
O O1 0.846239 0.770423 0.296191
O O2 0.034144 0.774544 0.555867
O O3 0.783667 0.192606 0.538568
O O4 0.000000 0.000000 0.500000
O O5 0.829501 0.321760 0.236481
O O6 0.907848 0.300414 0.129605
O O7 0.051736 0.918513 0.153943
O O8 0.792249 0.014586 0.947093
O O9 0.703056 0.663850 0.729440
O O10 0.736699 0.779308 0.664733
O O11 0.968873 0.556602 0.821204
O O12 0.247074 0.311507 0.524920
O O13 0.000000 0.500000 0.500000
O O14 0.500000 0.500000 0.500000
O O15 0.708792 0.400199 0.729987
O O16 0.698324 0.139764 0.714544
O O17 0.769756 0.503765 0.985675
O O18 0.500000 0.000000 0.500000
#
# Coordination Sequence:
#
# PCOD9053828 Si02
#       8
#     2   2   2   2   2   2   2   2
#     4  12  22  39  63  91 121 161 210 249 298 360
#     4  11  20  37  68  94 121 149 212 268 295 347
#     4  11  21  40  60  90 124 162 201 251 305 360
#     4  12  20  37  61  93 119 156 209 254 293 356
#     4  12  26  42  59  92 132 162 200 251 309 372
#     4  11  21  38  63  91 119 167 197 247 317 352
#     4  11  20  38  67  94 122 149 211 266 297 352
#     4  12  22  38  61  91 126 163 200 244 307 374
#
# _framework density 18.236265
#
# number of rings (size 3 to 8) (size 9 to 14) (size 15 to 20)
#    0.000    0.500    8.750    1.500    0.000    3.000 
#    0.000    2.500    0.000    0.000    0.000    0.000 
#    0.000    0.000    0.000    0.000    0.000    0.000 
#
# Total GULP energy -89358.287694 kJ/mol
# GULP energy per Si atom -5584.892981 kJ/mol
# Density = 1.819476 g / cm^3
# Si number density = 18.236265 Si / 1000 Ang^3
#
#
#
# Elastic Constant Matrix: (Units=GPa)
#
#
# Indices 1 2 3 4 5 6 
#
# 1 -6.2681 130.8656 -50.7757 -67.9550 6.5156 6.5779
# 2 130.8656 -47.9552 106.3657 52.6867 6.0031 2.4718
# 3 -50.7757 106.3657 46.7033 -45.6565 -8.7265 -14.0149
# 4 -67.9550 52.6867 -45.6565 -5.3843 2.3362 -2.9728
# 5 6.5156 6.0031 -8.7265 2.3362 39.4197 0.8061
# 6 6.5779 2.4718 -14.0149 -2.9728 0.8061 40.2113
#
#
#
# Elastic Compliance Matrix: (Units=1/GPa)
#
#
# Indices 1 2 3 4 5 6 
#
# 1 0.007981 0.004606 -0.006159 -0.002656 -0.003147 -0.003868
# 2 0.004606 0.007873 0.000421 0.014165 -0.002707 0.000011
# 3 -0.006159 0.000421 0.010217 -0.005531 0.003460 0.004064
# 4 -0.002656 0.014165 -0.005531 0.031200 -0.004792 0.000039
# 5 -0.003147 -0.002707 0.003460 -0.004792 0.027330 0.000985
# 6 -0.003868 0.000011 0.004064 0.000039 0.000985 0.026901
#
#
# Mechanical properties :
#
#
# Convention : Reuss Voigt Hill
#
# Bulk Modulus (GPa) = 42.00567 40.59902 41.30235
# Shear Modulus (GPa) = 41.08397 1.91763 21.50080
#
# Velocity S-wave (km/s) = 4.75159 1.02656 3.43740
# Velocity P-wave (km/s) = 7.29299 4.86993 6.20096
#
# Compressibility (1/GPa) = 0.02380631
#
# Stress axis : x y z
#
# Youngs Moduli (GPa) = 125.30504 127.00956 97.87498
#
# Poissons Ratio (x) = -0.58500 0.60281
# Poissons Ratio (y) = -0.57715 -0.04117
# Poissons Ratio (z) = 0.77175 -0.05343
#
# Static dielectric constant tensor:
#      x y z
#    x 1.568530 0.013540 -0.009520 
#    y 0.013540 1.635360 0.015330 
#    z -0.009520 0.015330 1.643820 
# 
# From -- ./inp_files/205138.got.cif
#   From: 2010.05.17/outbox.cif.g08.bks.cpg/sg2_103_cif.got.tgz:205138.got - 2010.06.03 11:33:40.
