data_PCOD9053898
_publ_section_title
;
Structure prediction by ZEFSAII (Michael W. Deem and Ramdas Pophale) SiO2 
 PCOD9053898
Probable space group: P -1
;
_chemical_formula_sum "Si O2"
_cell_formula_units_Z 12
_cell_length_a 8.930130
_cell_length_b 13.021896
_cell_length_c 16.291548
_cell_angle_alpha 27.677333
_cell_angle_beta 41.565518
_cell_angle_gamma 31.541491
_cell_volume 460.163939
_symmetry_space_group_name_H-M "P -1"
_symmetry_group_IT_number 2
_symmetry_cell_setting 'triclinic'
loop_
_space_group_symop_operation_xyz
x,y,z
-x,-y,-z
loop_
_atom_site_type_symbol
_atom_site_label
_atom_site_fract_x
_atom_site_fract_y
_atom_site_fract_z
Si Si1 0.422414 0.956650 0.650288
Si Si2 0.806114 0.713523 0.812964
Si Si3 0.622852 0.406074 0.892681
Si Si4 0.469580 0.761452 0.365207
Si Si5 0.777302 0.369601 0.668722
Si Si6 0.161948 0.162869 0.961791
O O1 0.688744 0.848105 0.676135
O O2 0.417882 0.696833 0.819565
O O3 0.500000 0.000000 0.500000
O O4 0.114653 0.205456 0.633817
O O5 0.057939 0.390920 0.916022
O O6 0.819622 0.925515 0.713028
O O7 0.542699 0.725057 0.947734
O O8 0.684654 0.449806 0.744440
O O9 0.911968 0.237325 0.946939
O O10 0.500000 0.500000 0.500000
O O11 0.617556 0.622016 0.491192
O O12 0.634956 0.817768 0.194029
O O13 0.725580 0.138121 0.836582
#
# Coordination Sequence:
#
# PCOD9053898 Si02
#       6
#     2   2   2   2   2   2
#     4  11  21  35  63 104 132 157 198 256 331 395
#     4  11  21  42  65  95 135 159 198 269 322 379
#     4  11  20  38  68 103 130 155 196 261 336 392
#     4  12  29  45  60  90 128 175 228 264 295 359
#     4  12  22  40  68  93 127 169 210 254 322 380
#     4  11  22  43  69  95 130 164 202 261 327 385
#
# _framework density 26.077660999999999
#
# number of rings (size 3 to 8) (size 9 to 14) (size 15 to 20)
#    0.000    0.667    5.000    5.500    0.000    3.333 
#    0.000    0.833    0.000    0.000    0.000    0.000 
#    0.000    0.000    0.000    0.000    0.000    0.000 
#
# Total GULP energy -67158.421090 kJ/mol
# GULP energy per Si atom -5596.535091 kJ/mol
# Density = 2.601831 g / cm^3
# Si number density = 26.077661 Si / 1000 Ang^3
#
#
#
# Elastic Constant Matrix: (Units=GPa)
#
#
# Indices 1 2 3 4 5 6 
#
# 1 60.9771 31.1693 24.3910 -2.6893 -2.5813 22.6549
# 2 31.1693 132.2508 29.2900 -11.6557 -16.7333 40.8165
# 3 24.3910 29.2900 112.4914 9.2395 -12.1643 9.6576
# 4 -2.6893 -11.6557 9.2395 68.2553 23.4484 -13.9018
# 5 -2.5813 -16.7333 -12.1643 23.4484 43.4759 -14.9433
# 6 22.6549 40.8165 9.6576 -13.9018 -14.9433 34.7864
#
#
#
# Elastic Compliance Matrix: (Units=1/GPa)
#
#
# Indices 1 2 3 4 5 6 
#
# 1 0.024239 -0.000340 -0.004357 0.000045 -0.005634 -0.016580
# 2 -0.000340 0.012311 -0.001950 -0.000344 -0.000460 -0.014018
# 3 -0.004357 -0.001950 0.010835 -0.002966 0.004625 0.002919
# 4 0.000045 -0.000344 -0.002966 0.019307 -0.009748 0.004726
# 5 -0.005634 -0.000460 0.004625 -0.009748 0.033681 0.013497
# 6 -0.016580 -0.014018 0.002919 0.004726 0.013497 0.062869
#
#
# Mechanical properties :
#
#
# Convention : Reuss Voigt Hill
#
# Bulk Modulus (GPa) = 29.33158 52.82445 41.07801
# Shear Modulus (GPa) = 26.61008 44.02811 35.31910
#
# Velocity S-wave (km/s) = 3.19786 4.11341 3.68418
# Velocity P-wave (km/s) = 4.99072 6.54681 5.82100
#
# Compressibility (1/GPa) = 0.03409295
#
# Stress axis : x y z
#
# Youngs Moduli (GPa) = 41.25504 81.22802 92.29262
#
# Poissons Ratio (x) = 0.02759 0.40210
# Poissons Ratio (y) = 0.01401 0.17996
# Poissons Ratio (z) = 0.17974 0.15838
#
# Static dielectric constant tensor:
#      x y z
#    x 2.099290 0.044280 -0.068330 
#    y 0.044280 2.062450 -0.080580 
#    z -0.068330 -0.080580 2.099690 
# 
# From -- ./inp_files/195131.got.cif
#   From: 2010.05.17/outbox.cif.g08.bks.cpg/sg2_98_cif.got.tgz:195131.got - 2010.06.03 11:33:40.
