data_PCOD9053730
_publ_section_title
;
Structure prediction by ZEFSAII (Michael W. Deem and Ramdas Pophale) SiO2 
 PCOD9053730
Probable space group: P -1
;
_chemical_formula_sum "Si O2"
_cell_formula_units_Z 16
_cell_length_a 27.415630
_cell_length_b 28.103049
_cell_length_c 19.015824
_cell_angle_alpha 18.469123
_cell_angle_beta 18.421087
_cell_angle_gamma 10.363811
_cell_volume 802.491314
_symmetry_space_group_name_H-M "P -1"
_symmetry_group_IT_number 2
_symmetry_cell_setting 'triclinic'
loop_
_space_group_symop_operation_xyz
x,y,z
-x,-y,-z
loop_
_atom_site_type_symbol
_atom_site_label
_atom_site_fract_x
_atom_site_fract_y
_atom_site_fract_z
Si Si1 0.063350 0.230227 0.144323
Si Si2 0.051427 0.084706 0.607609
Si Si3 0.248637 0.545816 0.892568
Si Si4 0.535705 0.512413 0.817742
Si Si5 0.272037 0.182308 0.371791
Si Si6 0.290390 0.202531 0.150713
Si Si7 0.888740 0.102748 0.656042
Si Si8 0.333964 0.407669 0.333667
O O1 0.913474 0.325679 0.140444
O O2 0.047345 0.090693 0.405334
O O3 0.886013 0.506907 0.035977
O O4 0.380256 0.030019 0.981360
O O5 0.188344 0.138362 0.339807
O O6 0.831137 0.263054 0.723138
O O7 0.897138 0.161672 0.640035
O O8 0.301806 0.766345 0.729254
O O9 0.566781 0.347083 0.728733
O O10 0.281600 0.347195 0.151124
O O11 0.058276 0.808343 0.832860
O O12 0.556593 0.612092 0.714486
O O13 0.445091 0.427845 0.093346
O O14 0.233219 0.219841 0.287648
O O15 0.001983 0.323679 0.577537
O O16 0.543409 0.859269 0.467589
#
# Coordination Sequence:
#
# PCOD9053730 Si02
#       8
#     2   2   2   2   2   2   2   2
#     4  11  23  39  65  89 120 153 211 269 291 340
#     4  12  24  40  61  87 136 162 194 241 302 391
#     4  11  23  41  64  89 118 159 217 257 288 341
#     4  11  22  38  61  95 125 158 192 248 302 375
#     4  11  20  37  63  95 119 152 198 263 305 343
#     4  11  21  37  60  94 123 156 193 251 322 349
#     4  12  25  42  61  87 122 174 205 240 303 358
#     4  11  20  36  65  94 123 149 198 249 312 355
#
# _framework density 19.937909999999999
#
# number of rings (size 3 to 8) (size 9 to 14) (size 15 to 20)
#    0.000    0.750    2.500    7.500    0.000    3.000 
#    0.000    0.000    0.000   15.000    0.000    0.000 
#    0.000    0.000    0.000    0.000    0.000    0.000 
#
# Total GULP energy -89500.283388 kJ/mol
# GULP energy per Si atom -5593.767712 kJ/mol
# Density = 1.989253 g / cm^3
# Si number density = 19.937910 Si / 1000 Ang^3
#
#
#
# Elastic Constant Matrix: (Units=GPa)
#
#
# Indices 1 2 3 4 5 6 
#
# 1 30.6226 -12.6641 23.8649 -17.1448 3.9055 21.6724
# 2 -12.6641 43.5514 -7.3357 -8.8454 -2.2414 31.3293
# 3 23.8649 -7.3357 66.4579 -1.5010 -14.2045 15.6555
# 4 -17.1448 -8.8454 -1.5010 18.9595 32.2312 -3.8458
# 5 3.9055 -2.2414 -14.2045 32.2312 -22.6254 -7.1075
# 6 21.6724 31.3293 15.6555 -3.8458 -7.1075 -4.2712
#
#
#
# Elastic Compliance Matrix: (Units=1/GPa)
#
#
# Indices 1 2 3 4 5 6 
#
# 1 0.026439 -0.006575 -0.012043 0.003524 0.011875 0.018852
# 2 -0.006575 0.007978 -0.001411 0.003891 -0.001415 0.018838
# 3 -0.012043 -0.001411 0.017218 0.003701 -0.007978 0.001599
# 4 0.003524 0.003891 0.003701 0.018842 0.023521 0.003885
# 5 0.011875 -0.001415 -0.007978 0.023521 -0.006961 0.011041
# 6 0.018852 0.018838 0.001599 0.003885 0.011041 -0.016306
#
#
# Mechanical properties :
#
#
# Convention : Reuss Voigt Hill
#
# Bulk Modulus (GPa) = 86.37068 16.48469 51.42768
# Shear Modulus (GPa) = 54.86864 7.53035 31.19950
#
# Velocity S-wave (km/s) = 5.25162 1.94553 3.96009
# Velocity P-wave (km/s) = 8.95469 3.65140 6.83810
#
# Compressibility (1/GPa) = 0.01157800
#
# Stress axis : x y z
#
# Youngs Moduli (GPa) = 37.82275 125.34513 58.07893
#
# Poissons Ratio (x) = 0.82411 0.69946
# Poissons Ratio (y) = 0.24868 0.08192
# Poissons Ratio (z) = 0.45551 0.17681
#
# Static dielectric constant tensor:
#      x y z
#    x 1.681330 0.008000 -0.021220 
#    y 0.008000 1.680480 -0.014770 
#    z -0.021220 -0.014770 1.698040 
# 
# From -- ./inp_files/433911.got.cif
#   From: 2010.05.17/outbox.cif.g08.bks.cpg/sg2_217_cif.got.tgz:433911.got - 2010.06.03 11:33:40.
