data_PCOD9053526
_publ_section_title
;
Structure prediction by ZEFSAII (Michael W. Deem and Ramdas Pophale) SiO2 
 PCOD9053526
Probable space group: P -1
;
_chemical_formula_sum "Si O2"
_cell_formula_units_Z 12
_cell_length_a 8.675007
_cell_length_b 9.656267
_cell_length_c 17.919734
_cell_angle_alpha 121.651560
_cell_angle_beta 32.929657
_cell_angle_gamma 109.955322
_cell_volume 678.500907
_symmetry_space_group_name_H-M "P -1"
_symmetry_group_IT_number 2
_symmetry_cell_setting 'triclinic'
loop_
_space_group_symop_operation_xyz
x,y,z
-x,-y,-z
loop_
_atom_site_type_symbol
_atom_site_label
_atom_site_fract_x
_atom_site_fract_y
_atom_site_fract_z
Si Si1 0.242134 0.335087 0.870981
Si Si2 0.916720 0.828170 0.964440
Si Si3 0.610693 0.507039 0.869470
Si Si4 0.236459 0.491807 0.659393
Si Si5 0.750106 0.838303 0.337572
Si Si6 0.595966 0.123504 0.935282
O O1 0.513659 0.385425 0.815739
O O2 0.291599 0.225434 0.746572
O O3 0.127911 0.238860 0.955601
O O4 0.000000 0.500000 0.000000
O O5 0.141417 0.671657 0.790851
O O6 0.625752 0.864879 0.041523
O O7 0.000000 0.000000 0.000000
O O8 0.951869 0.481369 0.725517
O O9 0.500000 0.500000 0.000000
O O10 0.473967 0.691803 0.949920
O O11 0.500000 0.500000 0.500000
O O12 0.273428 0.324687 0.648606
O O13 0.064482 0.893458 0.230248
O O14 0.500000 0.000000 0.500000
O O15 0.500000 0.000000 0.000000
#
# Coordination Sequence:
#
# PCOD9053526 Si02
#       6
#     2   2   2   2   2   2
#     4  12  20  41  70  91 121 172 221 263 308 386
#     4  11  23  40  67  97 122 169 225 261 309 384
#     4  11  19  43  69  89 120 174 217 260 315 379
#     4  11  24  44  63  93 137 168 204 269 328 373
#     4  12  26  42  63  98 134 167 209 270 330 372
#     4  11  22  40  66  93 129 166 215 265 311 382
#
# _framework density 17.686049000000001
#
# number of rings (size 3 to 8) (size 9 to 14) (size 15 to 20)
#    0.000    0.667    8.333    1.000    7.000    0.000 
#    3.000    2.500    0.000    0.000    0.000    0.000 
#    0.000    0.000    0.000    0.000    0.000    0.000 
#
# Total GULP energy -66816.742774 kJ/mol
# GULP energy per Si atom -5568.061898 kJ/mol
# Density = 1.764580 g / cm^3
# Si number density = 17.686049 Si / 1000 Ang^3
#
#
#
# Elastic Constant Matrix: (Units=GPa)
#
#
# Indices 1 2 3 4 5 6 
#
# 1 97.2795 63.1871 83.8368 0.4872 5.6888 7.6432
# 2 63.1871 167.5754 89.5239 -3.4683 1.5762 -4.6433
# 3 83.8368 89.5239 166.5312 -1.8829 -6.6978 4.5242
# 4 0.4872 -3.4683 -1.8829 39.3856 4.9692 4.9064
# 5 5.6888 1.5762 -6.6978 4.9692 28.0021 0.6283
# 6 7.6432 -4.6433 4.5242 4.9064 0.6283 43.5840
#
#
#
# Elastic Compliance Matrix: (Units=1/GPa)
#
#
# Indices 1 2 3 4 5 6 
#
# 1 0.020422 -0.003004 -0.008828 0.000189 -0.006060 -0.002919
# 2 -0.003004 0.008981 -0.003392 0.000550 -0.000844 0.001786
# 3 -0.008828 -0.003392 0.012476 -0.000205 0.005009 -0.000157
# 4 0.000189 0.000550 -0.000205 0.026379 -0.004736 -0.002855
# 5 -0.006060 -0.000844 0.005009 -0.004736 0.039019 0.000423
# 6 -0.002919 0.001786 -0.000157 -0.002855 0.000423 0.023978
#
#
# Mechanical properties :
#
#
# Convention : Reuss Voigt Hill
#
# Bulk Modulus (GPa) = 87.48538 100.49794 93.99166
# Shear Modulus (GPa) = 30.20872 35.18356 32.69614
#
# Velocity S-wave (km/s) = 4.13734 4.46504 4.30431
# Velocity P-wave (km/s) = 8.50862 9.13941 8.82965
#
# Compressibility (1/GPa) = 0.01143048
#
# Stress axis : x y z
#
# Youngs Moduli (GPa) = 48.96644 111.34484 80.15215
#
# Poissons Ratio (x) = 0.33448 0.70762
# Poissons Ratio (y) = 0.14710 0.27188
# Poissons Ratio (z) = 0.43230 0.37768
#
# Static dielectric constant tensor:
#      x y z
#    x 1.567260 -0.074670 0.019880 
#    y -0.074670 1.545780 0.049710 
#    z 0.019880 0.049710 1.563760 
# 
# From -- ./inp_files/146314.got.cif
#   From: 2010.05.17/outbox.cif.g08.bks.cpg/sg2_74_cif.got.tgz:146314.got - 2010.06.03 11:33:40.
