data_PCOD9053870
_publ_section_title
;
Structure prediction by ZEFSAII (Michael W. Deem and Ramdas Pophale) SiO2 
 PCOD9053870
Probable space group: P -1
;
_chemical_formula_sum "Si O2"
_cell_formula_units_Z 14
_cell_length_a 16.775977
_cell_length_b 11.379747
_cell_length_c 16.441593
_cell_angle_alpha 136.015119
_cell_angle_beta 22.353975
_cell_angle_gamma 147.697121
_cell_volume 607.344274
_symmetry_space_group_name_H-M "P -1"
_symmetry_group_IT_number 2
_symmetry_cell_setting 'triclinic'
loop_
_space_group_symop_operation_xyz
x,y,z
-x,-y,-z
loop_
_atom_site_type_symbol
_atom_site_label
_atom_site_fract_x
_atom_site_fract_y
_atom_site_fract_z
Si Si1 0.599319 0.221989 0.066076
Si Si2 0.765920 0.786506 0.991659
Si Si3 0.532296 0.490787 0.715656
Si Si4 0.120077 0.854456 0.439217
Si Si5 0.274482 0.605777 0.239863
Si Si6 0.208743 0.133865 0.632100
Si Si7 0.790779 0.539086 0.319950
O O1 0.613224 0.404432 0.095505
O O2 0.330126 0.098911 0.318359
O O3 0.898346 0.355317 0.895655
O O4 0.500000 0.000000 0.000000
O O5 0.769085 0.589083 0.866649
O O6 0.660867 0.738013 0.159749
O O7 0.530709 0.732747 0.125122
O O8 0.058645 0.038516 0.813946
O O9 0.628466 0.501546 0.538347
O O10 0.833189 0.666487 0.567363
O O11 0.297248 0.780424 0.247402
O O12 0.048899 0.903676 0.615684
O O13 0.000000 0.500000 0.500000
O O14 0.548095 0.280032 0.384754
O O15 0.175472 0.292985 0.695022
#
# Coordination Sequence:
#
# PCOD9053870 Si02
#       7
#     2   2   2   2   2   2   2
#     4  12  23  40  69  97 127 171 216 273 329 370
#     4  11  23  40  66  98 133 170 214 268 329 383
#     4  12  24  41  67 101 132 162 221 273 320 390
#     4  12  21  41  72  96 127 172 220 272 322 378
#     4  11  20  38  64 100 133 165 216 269 320 385
#     4  11  24  46  67  92 133 178 218 264 324 389
#     4  11  26  47  64  94 135 173 222 267 315 397
#
# _framework density 23.051176000000002
#
# number of rings (size 3 to 8) (size 9 to 14) (size 15 to 20)
#    0.000    0.571    5.714    3.857    0.000    1.143 
#    2.571    0.714    0.000    0.000    0.000    0.000 
#    0.000    0.000    0.000    0.000    0.000    0.000 
#
# Total GULP energy -78238.820683 kJ/mol
# GULP energy per Si atom -5588.487192 kJ/mol
# Density = 2.299871 g / cm^3
# Si number density = 23.051176 Si / 1000 Ang^3
#
#
#
# Elastic Constant Matrix: (Units=GPa)
#
#
# Indices 1 2 3 4 5 6 
#
# 1 100.3633 30.7425 22.5533 -18.9617 5.7306 -26.6460
# 2 30.7425 44.3139 9.9018 -23.2744 -5.8010 -18.4930
# 3 22.5533 9.9018 72.7037 -28.3155 -3.4733 -15.9436
# 4 -18.9617 -23.2744 -28.3155 38.7583 -7.7733 8.0399
# 5 5.7306 -5.8010 -3.4733 -7.7733 51.7868 -0.4268
# 6 -26.6460 -18.4930 -15.9436 8.0399 -0.4268 38.2167
#
#
#
# Elastic Compliance Matrix: (Units=1/GPa)
#
#
# Indices 1 2 3 4 5 6 
#
# 1 0.014449 -0.008843 -0.003224 -0.002232 -0.003100 0.004885
# 2 -0.008843 0.055710 0.015293 0.039207 0.014287 0.019084
# 3 -0.003224 0.015293 0.025215 0.025404 0.007660 0.010413
# 4 -0.002232 0.039207 0.025404 0.067215 0.016548 0.014059
# 5 -0.003100 0.014287 0.007660 0.016548 0.024290 0.004737
# 6 0.004885 0.019084 0.010413 0.014059 0.004737 0.040247
#
#
# Mechanical properties :
#
#
# Convention : Reuss Voigt Hill
#
# Bulk Modulus (GPa) = 9.82055 38.19737 24.00896
# Shear Modulus (GPa) = 19.63736 36.03126 27.83431
#
# Velocity S-wave (km/s) = 2.92190 3.95789 3.47868
# Velocity P-wave (km/s) = 3.95638 6.12317 5.15491
#
# Compressibility (1/GPa) = 0.10182724
#
# Stress axis : x y z
#
# Youngs Moduli (GPa) = 69.20673 17.94996 39.65876
#
# Poissons Ratio (x) = 0.15873 0.12786
# Poissons Ratio (y) = 0.61200 -0.60651
# Poissons Ratio (z) = 0.22312 -0.27451
#
# Static dielectric constant tensor:
#      x y z
#    x 2.020270 -0.029410 0.109340 
#    y -0.029410 1.846640 0.004980 
#    z 0.109340 0.004980 1.884200 
# 
# From -- ./inp_files/67961.got.cif
#   From: 2010.05.17/outbox.cif.g08.bks.cpg/sg2_34_cif.got.tgz:67961.got - 2010.06.03 11:33:40.
