data_PCOD9053877
_publ_section_title
;
Structure prediction by ZEFSAII (Michael W. Deem and Ramdas Pophale) SiO2 
 PCOD9053877
Probable space group: P -1
;
_chemical_formula_sum "Si O2"
_cell_formula_units_Z 16
_cell_length_a 14.420766
_cell_length_b 8.304860
_cell_length_c 14.769748
_cell_angle_alpha 69.251481
_cell_angle_beta 142.505406
_cell_angle_gamma 83.741164
_cell_volume 733.218713
_symmetry_space_group_name_H-M "P -1"
_symmetry_group_IT_number 2
_symmetry_cell_setting 'triclinic'
loop_
_space_group_symop_operation_xyz
x,y,z
-x,-y,-z
loop_
_atom_site_type_symbol
_atom_site_label
_atom_site_fract_x
_atom_site_fract_y
_atom_site_fract_z
Si Si1 0.362676 0.371923 0.484209
Si Si2 0.586672 0.635173 0.996557
Si Si3 0.927017 0.682161 0.826710
Si Si4 0.019924 0.318186 0.488419
Si Si5 0.341523 0.523085 0.110763
Si Si6 0.437498 0.120755 0.772660
Si Si7 0.330730 0.780707 0.411856
Si Si8 0.309801 0.857322 0.906325
O O1 0.225083 0.320826 0.349390
O O2 0.446663 0.239888 0.671452
O O3 0.249975 0.646717 0.356193
O O4 0.547714 0.258355 0.577565
O O5 0.816549 0.420473 0.256068
O O6 0.539243 0.609885 0.863741
O O7 0.414823 0.715995 0.921698
O O8 0.586885 0.841567 0.941317
O O9 0.818652 0.944839 0.726700
O O10 0.000000 0.500000 0.000000
O O11 0.136722 0.568496 0.958109
O O12 0.206619 0.221142 0.583869
O O13 0.000000 0.500000 0.500000
O O14 0.101572 0.110050 0.661466
O O15 0.494150 0.383560 0.341465
O O16 0.261165 0.773465 0.969963
O O17 0.506648 0.164086 0.908264
#
# Coordination Sequence:
#
# PCOD9053877 Si02
#       8
#     2   2   2   2   2   2   2   2
#     4  11  24  48  76 103 140 192 231 289 356 413
#     4  11  23  40  67  96 135 184 225 285 349 410
#     4  12  27  47  71 107 144 180 235 295 349 416
#     4  11  20  38  64  97 134 173 226 283 343 407
#     4  12  26  46  67 103 139 185 231 284 359 407
#     4  11  21  39  67  99 130 179 236 275 345 416
#     4  11  26  49  74 104 143 184 239 289 350 425
#     4  11  23  41  65  97 137 176 231 284 332 422
#
# _framework density 21.821591999999999
#
# number of rings (size 3 to 8) (size 9 to 14) (size 15 to 20)
#    0.000    0.750    5.000    3.000    1.750    4.000 
#    2.250    0.000    0.000    0.000    0.000    0.000 
#    0.000    0.000    0.000    0.000    0.000    0.000 
#
# Total GULP energy -89302.875254 kJ/mol
# GULP energy per Si atom -5581.429703 kJ/mol
# Density = 2.177193 g / cm^3
# Si number density = 21.821592 Si / 1000 Ang^3
#
#
#
# Elastic Constant Matrix: (Units=GPa)
#
#
# Indices 1 2 3 4 5 6 
#
# 1 111.4730 14.2040 34.0026 -6.7423 -31.8795 15.5846
# 2 14.2040 101.6989 25.9997 -4.7691 -7.5511 0.4226
# 3 34.0026 25.9997 86.7791 -15.5521 -22.3103 4.2043
# 4 -6.7423 -4.7691 -15.5521 28.5087 7.7283 -4.0585
# 5 -31.8795 -7.5511 -22.3103 7.7283 35.4229 4.1011
# 6 15.5846 0.4226 4.2043 -4.0585 4.1011 34.2063
#
#
#
# Elastic Compliance Matrix: (Units=1/GPa)
#
#
# Indices 1 2 3 4 5 6 
#
# 1 0.014405 -0.000572 -0.002208 -0.002564 0.012953 -0.008142
# 2 -0.000572 0.010676 -0.003040 0.000137 -0.000247 0.000548
# 3 -0.002208 -0.003040 0.016013 0.005861 0.006286 -0.000983
# 4 -0.002564 0.000137 0.005861 0.040812 -0.008217 0.006273
# 5 0.012953 -0.000247 0.006286 -0.008217 0.047127 -0.013296
# 6 -0.008142 0.000548 -0.000983 0.006273 -0.013296 0.035396
#
#
# Mechanical properties :
#
#
# Convention : Reuss Voigt Hill
#
# Bulk Modulus (GPa) = 33.95028 49.81818 41.88423
# Shear Modulus (GPa) = 26.89823 34.67722 30.78772
#
# Velocity S-wave (km/s) = 3.51471 3.99071 3.76025
# Velocity P-wave (km/s) = 5.66240 6.64181 6.17157
#
# Compressibility (1/GPa) = 0.02945484
#
# Stress axis : x y z
#
# Youngs Moduli (GPa) = 69.42160 93.66964 62.44776
#
# Poissons Ratio (x) = 0.05359 0.13786
# Poissons Ratio (y) = 0.03972 0.18983
# Poissons Ratio (z) = 0.15325 0.28475
#
# Static dielectric constant tensor:
#      x y z
#    x 1.797920 0.086880 0.017490 
#    y 0.086880 2.030450 -0.021300 
#    z 0.017490 -0.021300 1.796020 
# 
# From -- ./inp_files/529558.got.cif
#   From: 2010.05.17/outbox.cif.g08.bks.cpg/sg2_265_cif.got.tgz:529558.got - 2010.06.03 11:33:40.
