data_PCOD9053591
_publ_section_title
;
Structure prediction by ZEFSAII (Michael W. Deem and Ramdas Pophale) SiO2 
 PCOD9053591
Probable space group: P -1
;
_chemical_formula_sum "Si O2"
_cell_formula_units_Z 16
_cell_length_a 12.367048
_cell_length_b 11.756560
_cell_length_c 11.345014
_cell_angle_alpha 63.580516
_cell_angle_beta 73.805707
_cell_angle_gamma 31.911399
_cell_volume 763.675968
_symmetry_space_group_name_H-M "P -1"
_symmetry_group_IT_number 2
_symmetry_cell_setting 'triclinic'
loop_
_space_group_symop_operation_xyz
x,y,z
-x,-y,-z
loop_
_atom_site_type_symbol
_atom_site_label
_atom_site_fract_x
_atom_site_fract_y
_atom_site_fract_z
Si Si1 0.920014 0.187803 0.186609
Si Si2 0.207365 0.388321 0.465598
Si Si3 0.131681 0.734795 0.288815
Si Si4 0.605850 0.881464 0.702393
Si Si5 0.659361 0.880012 0.112119
Si Si6 0.001175 0.393210 0.157146
Si Si7 0.112612 0.086037 0.949996
Si Si8 0.465763 0.553549 0.124271
O O1 0.981257 0.266306 0.182619
O O2 0.685352 0.372681 0.201694
O O3 0.066546 0.926222 0.286358
O O4 0.934444 0.197537 0.036173
O O5 0.160255 0.578608 0.423782
O O6 0.274158 0.315944 0.340315
O O7 0.000000 0.500000 0.500000
O O8 0.414581 0.139207 0.581587
O O9 0.339224 0.566314 0.227087
O O10 0.949610 0.878015 0.182052
O O11 0.784162 0.794762 0.750480
O O12 0.483995 0.933041 0.823815
O O13 0.803164 0.617949 0.196469
O O14 0.836081 0.819419 0.077446
O O15 0.500000 0.000000 0.000000
O O16 0.000000 0.500000 0.000000
O O17 0.317446 0.816465 0.051516
O O18 0.500000 0.500000 0.000000
#
# Coordination Sequence:
#
# PCOD9053591 Si02
#       8
#     2   2   2   2   2   2   2   2
#     4  11  22  38  56  94 139 173 214 273 332 405
#     4  11  26  48  72  98 131 178 236 287 325 401
#     4  11  23  38  61  93 128 173 226 274 334 395
#     4  11  25  44  68  99 134 175 227 284 339 393
#     4  12  23  38  65 101 136 176 219 276 341 406
#     4  12  23  40  65  97 140 179 222 272 342 409
#     4  11  20  33  56  90 133 171 217 268 329 401
#     4  11  20  33  56  89 133 172 209 267 338 405
#
# _framework density 20.951294999999998
#
# number of rings (size 3 to 8) (size 9 to 14) (size 15 to 20)
#    0.000    0.750    5.000    3.750    1.750    3.000 
#    0.000    0.625    0.000    3.750    0.000    0.000 
#    0.000    0.000    0.000    0.000    0.000    0.000 
#
# Total GULP energy -89263.273125 kJ/mol
# GULP energy per Si atom -5578.954570 kJ/mol
# Density = 2.090361 g / cm^3
# Si number density = 20.951295 Si / 1000 Ang^3
#
#
#
# Elastic Constant Matrix: (Units=GPa)
#
#
# Indices 1 2 3 4 5 6 
#
# 1 129.8981 49.1539 31.2383 -19.8909 -12.7193 2.7803
# 2 49.1539 110.2193 15.6206 -3.7417 -6.9027 -11.3709
# 3 31.2383 15.6206 37.2963 -8.6395 -3.0324 -5.7139
# 4 -19.8909 -3.7417 -8.6395 30.2365 -1.4639 2.7617
# 5 -12.7193 -6.9027 -3.0324 -1.4639 26.8785 -9.4157
# 6 2.7803 -11.3709 -5.7139 2.7617 -9.4157 40.3398
#
#
#
# Elastic Compliance Matrix: (Units=1/GPa)
#
#
# Indices 1 2 3 4 5 6 
#
# 1 0.012407 -0.004372 -0.007345 0.005934 0.003273 -0.002770
# 2 -0.004372 0.011635 -0.000862 -0.001952 0.002150 0.004095
# 3 -0.007345 -0.000862 0.035496 0.004819 0.002514 0.005548
# 4 0.005934 -0.001952 0.004819 0.038493 0.004276 -0.001914
# 5 0.003273 0.002150 0.002514 0.004276 0.043537 0.010606
# 6 -0.002770 0.004095 0.005548 -0.001914 0.010606 0.029527
#
#
# Mechanical properties :
#
#
# Convention : Reuss Voigt Hill
#
# Bulk Modulus (GPa) = 29.08501 52.15993 40.62247
# Shear Modulus (GPa) = 24.07176 31.58436 27.82806
#
# Velocity S-wave (km/s) = 3.39328 3.88688 3.64844
# Velocity P-wave (km/s) = 5.40969 6.71518 6.09748
#
# Compressibility (1/GPa) = 0.03438198
#
# Stress axis : x y z
#
# Youngs Moduli (GPa) = 80.59782 85.94498 28.17256
#
# Poissons Ratio (x) = 0.37572 0.20692
# Poissons Ratio (y) = 0.35235 0.02428
# Poissons Ratio (z) = 0.59197 0.07406
#
# Static dielectric constant tensor:
#      x y z
#    x 1.765760 0.036050 -0.044010 
#    y 0.036050 1.898500 0.002340 
#    z -0.044010 0.002340 1.850380 
# 
# From -- ./inp_files/427773.got.cif
#   From: 2010.05.17/outbox.cif.g08.bks.cpg/sg2_214_cif.got.tgz:427773.got - 2010.06.03 11:33:40.
