data_PCOD9053068
_publ_section_title
;
Structure prediction by ZEFSAII (Michael W. Deem and Ramdas Pophale) SiO2 
 PCOD9053068
Probable space group: P -1
;
_chemical_formula_sum "Si O2"
_cell_formula_units_Z 16
_cell_length_a 11.061677
_cell_length_b 18.448674
_cell_length_c 11.888928
_cell_angle_alpha 152.450413
_cell_angle_beta 58.518472
_cell_angle_gamma 128.406625
_cell_volume 876.613804
_symmetry_space_group_name_H-M "P -1"
_symmetry_group_IT_number 2
_symmetry_cell_setting 'triclinic'
loop_
_space_group_symop_operation_xyz
x,y,z
-x,-y,-z
loop_
_atom_site_type_symbol
_atom_site_label
_atom_site_fract_x
_atom_site_fract_y
_atom_site_fract_z
Si Si1 0.214206 0.952319 0.528319
Si Si2 0.171213 0.709863 0.411436
Si Si3 0.971095 0.117815 0.831505
Si Si4 0.981723 0.650647 0.087651
Si Si5 0.281548 0.248934 0.600929
Si Si6 0.512704 0.797342 0.395631
Si Si7 0.528781 0.165219 0.285833
Si Si8 0.877601 0.313572 0.334861
O O1 0.202659 0.879955 0.559572
O O2 0.134218 0.782334 0.256051
O O3 0.108599 0.059310 0.711819
O O4 0.384680 0.071444 0.566436
O O5 0.335995 0.689656 0.300346
O O6 0.123485 0.717619 0.573964
O O7 0.043366 0.543637 0.185538
O O8 0.019757 0.267896 0.922546
O O9 0.836216 0.951458 0.612904
O O10 0.911887 0.177949 0.054590
O O11 0.831172 0.656227 0.231076
O O12 0.383611 0.297805 0.733024
O O13 0.406288 0.252235 0.451062
O O14 0.495545 0.890836 0.647822
O O15 0.704603 0.295157 0.365059
O O16 0.500000 0.000000 0.000000
O O17 0.000000 0.500000 0.500000
#
# Coordination Sequence:
#
# PCOD9053068 Si02
#       8
#     2   2   2   2   2   2   2   2
#     4  11  21  38  55  79 107 146 178 215 264 318
#     4  11  24  34  53  82 114 139 172 219 275 316
#     4  11  18  34  61  77 106 139 185 218 253 319
#     4  11  19  36  56  81 105 138 182 225 256 309
#     4   9  17  32  57  84  96 136 185 220 256 301
#     4   9  18  34  53  78 107 136 176 214 268 313
#     4   9  16  31  53  80 102 132 177 221 253 310
#     4  11  21  34  52  82 109 139 172 219 271 308
#
# _framework density 18.252051999999999
#
# number of rings (size 3 to 8) (size 9 to 14) (size 15 to 20)
#    0.750    1.000    5.000    1.500    0.000    1.000 
#    2.250    0.000    0.000    0.000    0.000    2.625 
#    0.000    0.000    0.000    0.000    0.000    0.000 
#
# Total GULP energy -89080.765302 kJ/mol
# GULP energy per Si atom -5567.547831 kJ/mol
# Density = 1.821051 g / cm^3
# Si number density = 18.252052 Si / 1000 Ang^3
#
#
#
# Elastic Constant Matrix: (Units=GPa)
#
#
# Indices 1 2 3 4 5 6 
#
# 1 32.3217 20.0084 -5.1183 0.5040 2.9927 10.4008
# 2 20.0084 102.0375 19.9631 -5.5903 -0.6066 7.7767
# 3 -5.1183 19.9631 40.1389 -9.8226 3.1688 4.2492
# 4 0.5040 -5.5903 -9.8226 21.2598 1.0354 -3.8648
# 5 2.9927 -0.6066 3.1688 1.0354 14.7838 0.3960
# 6 10.4008 7.7767 4.2492 -3.8648 0.3960 30.1435
#
#
#
# Elastic Compliance Matrix: (Units=1/GPa)
#
#
# Indices 1 2 3 4 5 6 
#
# 1 0.045454 -0.010513 0.013635 0.000382 -0.012188 -0.014684
# 2 -0.010513 0.013457 -0.008562 -0.000153 0.004492 0.001284
# 3 0.013635 -0.008562 0.035715 0.013462 -0.011558 -0.005653
# 4 0.000382 -0.000153 0.013462 0.054469 -0.006920 0.005085
# 5 -0.012188 0.004492 -0.011558 -0.006920 0.073179 0.002828
# 6 -0.014684 0.001284 -0.005653 0.005085 0.002828 0.039322
#
#
# Mechanical properties :
#
#
# Convention : Reuss Voigt Hill
#
# Bulk Modulus (GPa) = 11.94070 27.13383 19.53726
# Shear Modulus (GPa) = 16.64493 22.54709 19.59601
#
# Velocity S-wave (km/s) = 3.02312 3.51852 3.28019
# Velocity P-wave (km/s) = 4.32921 5.60403 5.00735
#
# Compressibility (1/GPa) = 0.08374721
#
# Stress axis : x y z
#
# Youngs Moduli (GPa) = 22.00032 74.30929 27.99908
#
# Poissons Ratio (x) = 0.78121 -0.38176
# Poissons Ratio (y) = 0.23129 0.23971
# Poissons Ratio (z) = -0.29997 0.63620
#
# Static dielectric constant tensor:
#      x y z
#    x 1.683090 0.008640 0.004810 
#    y 0.008640 1.639540 -0.011500 
#    z 0.004810 -0.011500 1.623640 
# 
# From -- ./inp_files/271194.got.cif
#   From: 2010.05.17/outbox.cif.g08.bks.cpg/sg2_136_cif.got.tgz:271194.got - 2010.06.03 11:33:40.
