data_PCOD9053254
_publ_section_title
;
Structure prediction by ZEFSAII (Michael W. Deem and Ramdas Pophale) SiO2 
 PCOD9053254
Probable space group: P -1
;
_chemical_formula_sum "Si O2"
_cell_formula_units_Z 14
_cell_length_a 17.767381
_cell_length_b 14.654272
_cell_length_c 14.354663
_cell_angle_alpha 19.301973
_cell_angle_beta 138.062900
_cell_angle_gamma 147.185785
_cell_volume 643.625251
_symmetry_space_group_name_H-M "P -1"
_symmetry_group_IT_number 2
_symmetry_cell_setting 'triclinic'
loop_
_space_group_symop_operation_xyz
x,y,z
-x,-y,-z
loop_
_atom_site_type_symbol
_atom_site_label
_atom_site_fract_x
_atom_site_fract_y
_atom_site_fract_z
Si Si1 0.014895 0.420698 0.790955
Si Si2 0.926928 0.752158 0.261237
Si Si3 0.973904 0.731016 0.627826
Si Si4 0.556115 0.469318 0.928426
Si Si5 0.338862 0.887641 0.713132
Si Si6 0.629842 0.412625 0.242485
Si Si7 0.836468 0.459746 0.944054
O O1 0.001500 0.593651 0.521404
O O2 0.950624 0.518359 0.718805
O O3 0.181042 0.609428 0.787614
O O4 0.935401 0.011125 0.095536
O O5 0.762599 0.453758 0.367592
O O6 0.000000 0.000000 0.000000
O O7 0.840428 0.535032 0.765661
O O8 0.050338 0.144190 0.288948
O O9 0.095624 0.738008 0.787465
O O10 0.422420 0.428168 0.889015
O O11 0.617767 0.742869 0.636525
O O12 0.545913 0.146243 0.191157
O O13 0.660239 0.599572 0.989720
O O14 0.307505 0.772309 0.903151
O O15 0.500000 0.000000 0.500000
#
# Coordination Sequence:
#
# PCOD9053254 Si02
#       7
#     2   2   2   2   2   2   2
#     4  11  22  36  56  84 123 150 189 233 298 346
#     4  12  26  39  59  85 116 154 194 240 294 345
#     4   9  17  32  50  80 117 160 181 230 286 357
#     4  11  23  36  61  78 112 150 195 244 280 339
#     4  11  19  35  56  90 116 149 185 244 286 341
#     4  11  25  43  61  80 113 156 202 244 287 337
#     4   9  17  29  53  81 119 149 191 227 291 341
#
# _framework density 21.751787
#
# number of rings (size 3 to 8) (size 9 to 14) (size 15 to 20)
#    0.000    1.429    1.429    6.429    4.000    0.000 
#    0.000    0.000    0.000    0.000    0.000    6.000 
#    0.000    0.000    0.000    0.000    0.000    0.000 
#
# Total GULP energy -78130.516692 kJ/mol
# GULP energy per Si atom -5580.751192 kJ/mol
# Density = 2.170228 g / cm^3
# Si number density = 21.751787 Si / 1000 Ang^3
#
#
#
# Elastic Constant Matrix: (Units=GPa)
#
#
# Indices 1 2 3 4 5 6 
#
# 1 103.5529 -3.3014 14.6566 6.7692 -2.4782 -16.9634
# 2 -3.3014 30.1828 4.7045 -5.6960 4.8154 3.1262
# 3 14.6566 4.7045 107.9363 8.9818 7.0760 -2.6979
# 4 6.7692 -5.6960 8.9818 24.4373 -7.1335 0.6396
# 5 -2.4782 4.8154 7.0760 -7.1335 37.4713 7.9410
# 6 -16.9634 3.1262 -2.6979 0.6396 7.9410 24.3757
#
#
#
# Elastic Compliance Matrix: (Units=1/GPa)
#
#
# Indices 1 2 3 4 5 6 
#
# 1 0.011353 0.000119 -0.000954 -0.003426 -0.001508 0.008361
# 2 0.000119 0.035891 -0.002331 0.008864 -0.001520 -0.004516
# 3 -0.000954 -0.002331 0.010152 -0.004940 -0.003018 0.001871
# 4 -0.003426 0.008864 -0.004940 0.049138 0.010803 -0.008876
# 5 -0.001508 -0.001520 -0.003018 0.010803 0.031925 -0.011873
# 6 0.008361 -0.004516 0.001871 -0.008876 -0.011873 0.051730
#
#
# Mechanical properties :
#
#
# Convention : Reuss Voigt Hill
#
# Bulk Modulus (GPa) = 19.58389 30.42130 25.00260
# Shear Modulus (GPa) = 23.41453 32.29767 27.85610
#
# Velocity S-wave (km/s) = 3.28448 3.85753 3.58248
# Velocity P-wave (km/s) = 4.83804 5.81865 5.35086
#
# Compressibility (1/GPa) = 0.05106238
#
# Stress axis : x y z
#
# Youngs Moduli (GPa) = 88.08058 27.86226 98.50720
#
# Poissons Ratio (x) = -0.00330 0.09396
# Poissons Ratio (y) = -0.01045 0.22965
# Poissons Ratio (z) = 0.08402 0.06496
#
# Static dielectric constant tensor:
#      x y z
#    x 1.897630 -0.046860 -0.051260 
#    y -0.046860 1.783890 0.017390 
#    z -0.051260 0.017390 1.805990 
# 
# From -- ./inp_files/538797.got.cif
#   From: 2010.05.17/outbox.cif.g08.bks.cpg/sg2_270_cif.got.tgz:538797.got - 2010.06.03 11:33:40.
