data_PCOD9053119
_publ_section_title
;
Structure prediction by ZEFSAII (Michael W. Deem and Ramdas Pophale) SiO2 
 PCOD9053119
Probable space group: P -1
;
_chemical_formula_sum "Si O2"
_cell_formula_units_Z 16
_cell_length_a 20.061403
_cell_length_b 10.178514
_cell_length_c 8.714101
_cell_angle_alpha 74.830827
_cell_angle_beta 43.621576
_cell_angle_gamma 43.373470
_cell_volume 699.392649
_symmetry_space_group_name_H-M "P -1"
_symmetry_group_IT_number 2
_symmetry_cell_setting 'triclinic'
loop_
_space_group_symop_operation_xyz
x,y,z
-x,-y,-z
loop_
_atom_site_type_symbol
_atom_site_label
_atom_site_fract_x
_atom_site_fract_y
_atom_site_fract_z
Si Si1 0.864413 0.393658 0.897405
Si Si2 0.016081 0.364121 0.141604
Si Si3 0.144129 0.928988 0.708461
Si Si4 0.514724 0.786970 0.950883
Si Si5 0.330662 0.850522 0.707714
Si Si6 0.773491 0.698958 0.708611
Si Si7 0.750052 0.471967 0.405795
Si Si8 0.615962 0.494339 0.129974
O O1 0.827556 0.574941 0.817730
O O2 0.778378 0.482325 0.179852
O O3 0.791701 0.358838 0.917963
O O4 0.052659 0.142060 0.691355
O O5 0.927556 0.519118 0.393681
O O6 0.902420 0.366398 0.275365
O O7 0.000000 0.500000 0.000000
O O8 0.204159 0.100694 0.915126
O O9 0.235379 0.894158 0.707588
O O10 0.249466 0.691709 0.527666
O O11 0.000000 0.000000 0.000000
O O12 0.636338 0.751622 0.850690
O O13 0.583678 0.711101 0.687428
O O14 0.547920 0.610781 0.042047
O O15 0.328862 0.046499 0.189826
O O16 0.497428 0.703505 0.389488
O O17 0.376510 0.673968 0.796861
#
# Coordination Sequence:
#
# PCOD9053119 Si02
#       8
#     2   2   2   2   2   2   2   2
#     4  10  18  36  62  84 112 147 190 234 275 333
#     4  11  21  36  58  82 116 154 185 227 284 338
#     4  10  17  35  59  86 115 144 183 236 282 330
#     4   9  19  36  53  83 117 147 187 236 277 330
#     4  11  20  35  60  87 116 149 186 228 288 339
#     4   9  20  35  55  82 113 151 193 227 272 337
#     4  10  19  35  62  83 109 152 192 225 286 336
#     4  10  20  34  60  86 114 145 188 237 280 327
#
# _framework density 22.876992000000001
#
# number of rings (size 3 to 8) (size 9 to 14) (size 15 to 20)
#    0.000    2.000    5.000    0.750    0.000    2.500 
#    0.000    5.000    2.750    0.000    0.000    0.000 
#    0.000    0.000    0.000    0.000    0.000    0.000 
#
# Total GULP energy -89374.175624 kJ/mol
# GULP energy per Si atom -5585.885976 kJ/mol
# Density = 2.282492 g / cm^3
# Si number density = 22.876992 Si / 1000 Ang^3
#
#
#
# Elastic Constant Matrix: (Units=GPa)
#
#
# Indices 1 2 3 4 5 6 
#
# 1 50.3668 22.3347 19.3382 6.7549 -0.6769 -4.7363
# 2 22.3347 164.5098 68.8586 8.0857 26.7224 -22.8505
# 3 19.3382 68.8586 112.4001 12.9308 22.3116 -0.0556
# 4 6.7549 8.0857 12.9308 35.3514 -0.7061 6.0771
# 5 -0.6769 26.7224 22.3116 -0.7061 35.4298 -2.1393
# 6 -4.7363 -22.8505 -0.0556 6.0771 -2.1393 16.2187
#
#
#
# Elastic Compliance Matrix: (Units=1/GPa)
#
#
# Indices 1 2 3 4 5 6 
#
# 1 0.022971 -0.001020 -0.003628 -0.004001 0.003852 0.007266
# 2 -0.001020 0.011945 -0.005873 -0.003437 -0.004359 0.017224
# 3 -0.003628 -0.005873 0.014360 -0.001716 -0.005281 -0.009338
# 4 -0.004001 -0.003437 -0.001716 0.033660 0.003168 -0.018211
# 5 0.003852 -0.004359 -0.005281 0.003168 0.034877 -0.001621
# 6 0.007266 0.017224 -0.009338 -0.018211 -0.001621 0.094624
#
#
# Mechanical properties :
#
#
# Convention : Reuss Voigt Hill
#
# Bulk Modulus (GPa) = 35.41815 60.92663 48.17239
# Shear Modulus (GPa) = 20.58551 31.84965 26.21758
#
# Velocity S-wave (km/s) = 3.00298 3.73529 3.38897
# Velocity P-wave (km/s) = 5.24780 6.73002 6.03460
#
# Compressibility (1/GPa) = 0.02823411
#
# Stress axis : x y z
#
# Youngs Moduli (GPa) = 43.53268 83.71906 69.63794
#
# Poissons Ratio (x) = 0.08538 0.25265
# Poissons Ratio (y) = 0.04440 0.40898
# Poissons Ratio (z) = 0.15794 0.49168
#
# Static dielectric constant tensor:
#      x y z
#    x 1.881880 0.036690 -0.001950 
#    y 0.036690 1.866610 0.020390 
#    z -0.001950 0.020390 1.879050 
# 
# From -- ./inp_files/345260.got.cif
#   From: 2010.05.17/outbox.cif.g08.bks.cpg/sg2_173_cif.got.tgz:345260.got - 2010.06.03 11:33:40.
