data_PCOD9053188
_publ_section_title
;
Structure prediction by ZEFSAII (Michael W. Deem and Ramdas Pophale) SiO2 
 PCOD9053188
Probable space group: P -1
;
_chemical_formula_sum "Si O2"
_cell_formula_units_Z 16
_cell_length_a 14.711521
_cell_length_b 14.200879
_cell_length_c 11.821845
_cell_angle_alpha 31.534118
_cell_angle_beta 129.524706
_cell_angle_gamma 138.631843
_cell_volume 853.646689
_symmetry_space_group_name_H-M "P -1"
_symmetry_group_IT_number 2
_symmetry_cell_setting 'triclinic'
loop_
_space_group_symop_operation_xyz
x,y,z
-x,-y,-z
loop_
_atom_site_type_symbol
_atom_site_label
_atom_site_fract_x
_atom_site_fract_y
_atom_site_fract_z
Si Si1 0.293742 0.496099 0.372378
Si Si2 0.628986 0.729733 0.165530
Si Si3 0.940614 0.923401 0.154951
Si Si4 0.170289 0.951198 0.685700
Si Si5 0.670828 0.574467 0.765522
Si Si6 0.990415 0.321649 0.367925
Si Si7 0.042883 0.279108 0.060552
Si Si8 0.366212 0.916825 0.055153
O O1 0.357482 0.366476 0.606237
O O2 0.340721 0.563065 0.213212
O O3 0.329558 0.683742 0.295233
O O4 0.130070 0.365173 0.373688
O O5 0.484242 0.550318 0.181926
O O6 0.773353 0.793440 0.155061
O O7 0.626705 0.938078 0.985039
O O8 0.987075 0.120861 0.073417
O O9 0.003504 0.792027 0.396838
O O10 0.000000 0.000000 0.000000
O O11 0.128301 0.821555 0.668548
O O12 0.031565 0.866731 0.738193
O O13 0.268011 0.193359 0.478136
O O14 0.254250 0.897958 0.895953
O O15 0.792933 0.609298 0.908450
O O16 0.991326 0.536491 0.165058
O O17 0.500000 0.000000 0.000000
#
# Coordination Sequence:
#
# PCOD9053188 Si02
#       8
#     2   2   2   2   2   2   2   2
#     4  11  19  33  53  84 125 161 193 228 291 370
#     4  11  23  38  55  87 122 161 203 245 299 355
#     4  11  25  46  67  83 112 161 220 264 293 342
#     4  12  20  35  57  94 132 161 191 236 300 386
#     4  12  21  33  56  88 128 160 186 241 305 365
#     4  11  22  37  63  91 118 159 204 246 304 358
#     4  12  22  39  61  92 124 158 200 247 300 368
#     4  12  21  31  53  87 130 165 188 228 299 372
#
# _framework density 18.743117000000002
#
# number of rings (size 3 to 8) (size 9 to 14) (size 15 to 20)
#    0.000    0.500    7.500    3.375    0.000    0.500 
#    0.000    0.625    0.000    0.750    0.000    0.000 
#    0.000    0.000    0.000    0.000    0.000    0.000 
#
# Total GULP energy -89226.429416 kJ/mol
# GULP energy per Si atom -5576.651838 kJ/mol
# Density = 1.870046 g / cm^3
# Si number density = 18.743117 Si / 1000 Ang^3
#
#
#
# Elastic Constant Matrix: (Units=GPa)
#
#
# Indices 1 2 3 4 5 6 
#
# 1 59.0788 45.9313 41.7276 1.8786 -12.1780 10.0797
# 2 45.9313 104.0377 42.2127 -12.3820 -1.7214 21.7824
# 3 41.7276 42.2127 84.3996 -15.9819 1.3787 -15.6002
# 4 1.8786 -12.3820 -15.9819 27.1908 -7.1829 9.3232
# 5 -12.1780 -1.7214 1.3787 -7.1829 29.7263 -3.8877
# 6 10.0797 21.7824 -15.6002 9.3232 -3.8877 34.3897
#
#
#
# Elastic Compliance Matrix: (Units=1/GPa)
#
#
# Indices 1 2 3 4 5 6 
#
# 1 0.046531 -0.009763 -0.023189 -0.013010 0.014757 -0.012778
# 2 -0.009763 0.021919 -0.007093 0.012088 -0.001798 -0.017720
# 3 -0.023189 -0.007093 0.032772 0.007948 -0.006467 0.023270
# 4 -0.013010 0.012088 0.007948 0.054406 0.006281 -0.014278
# 5 0.014757 -0.001798 -0.006467 0.006281 0.040982 -0.003190
# 6 -0.012778 -0.017720 0.023270 -0.014278 -0.003190 0.058113
#
#
# Mechanical properties :
#
#
# Convention : Reuss Voigt Hill
#
# Bulk Modulus (GPa) = 47.31959 56.36215 51.84087
# Shear Modulus (GPa) = 14.62596 26.10432 20.36514
#
# Velocity S-wave (km/s) = 2.79648 3.73599 3.29985
# Velocity P-wave (km/s) = 5.97731 6.98186 6.49902
#
# Compressibility (1/GPa) = 0.02113290
#
# Stress axis : x y z
#
# Youngs Moduli (GPa) = 21.49104 45.62280 30.51354
#
# Poissons Ratio (x) = 0.44542 0.70757
# Poissons Ratio (y) = 0.20982 0.21643
# Poissons Ratio (z) = 0.49835 0.32360
#
# Static dielectric constant tensor:
#      x y z
#    x 1.677660 0.031160 0.045250 
#    y 0.031160 1.746820 -0.062820 
#    z 0.045250 -0.062820 1.697020 
# 
# From -- ./inp_files/417165.got.cif
#   From: 2010.05.17/outbox.cif.g08.bks.cpg/sg2_209_cif.got.tgz:417165.got - 2010.06.03 11:33:40.
