data_PCOD9053109
_publ_section_title
;
Structure prediction by ZEFSAII (Michael W. Deem and Ramdas Pophale) SiO2 
 PCOD9053109
Probable space group: P -1
;
_chemical_formula_sum "Si O2"
_cell_formula_units_Z 14
_cell_length_a 8.619301
_cell_length_b 10.358632
_cell_length_c 15.364570
_cell_angle_alpha 35.243126
_cell_angle_beta 46.483546
_cell_angle_gamma 57.061384
_cell_volume 573.482047
_symmetry_space_group_name_H-M "P -1"
_symmetry_group_IT_number 2
_symmetry_cell_setting 'triclinic'
loop_
_space_group_symop_operation_xyz
x,y,z
-x,-y,-z
loop_
_atom_site_type_symbol
_atom_site_label
_atom_site_fract_x
_atom_site_fract_y
_atom_site_fract_z
Si Si1 0.165446 0.094165 0.998062
Si Si2 0.994249 0.267080 0.439414
Si Si3 0.646244 0.343176 0.921367
Si Si4 0.247538 0.450046 0.906330
Si Si5 0.739673 0.109711 0.447961
Si Si6 0.670819 0.065353 0.236972
Si Si7 0.282352 0.379444 0.622992
O O1 0.244920 0.846589 0.079170
O O2 0.287574 0.237541 0.945782
O O3 0.181310 0.239554 0.821728
O O4 0.924434 0.108767 0.120693
O O5 0.190364 0.443078 0.242184
O O6 0.842301 0.190504 0.457975
O O7 0.859280 0.425138 0.464360
O O8 0.073470 0.043912 0.575326
O O9 0.416874 0.420940 0.933903
O O10 0.608175 0.206738 0.099637
O O11 0.304231 0.671386 0.707927
O O12 0.000000 0.500000 0.000000
O O13 0.533575 0.938170 0.620658
O O14 0.665228 0.801345 0.366902
O O15 0.500000 0.500000 0.500000
#
# Coordination Sequence:
#
# PCOD9053109 Si02
#       7
#     2   2   2   2   2   2   2
#     4  11  22  44  67  98 130 171 219 270 321 387
#     4  11  22  42  67  97 130 166 225 261 322 382
#     4  11  24  42  70  98 129 171 216 270 328 383
#     4  12  28  46  62  93 139 177 212 266 335 386
#     4  11  26  42  66  97 135 170 216 268 323 390
#     4  11  21  40  74 100 121 167 224 272 317 382
#     4  11  18  36  69  99 127 160 218 275 315 373
#
# _framework density 24.412272999999999
#
# number of rings (size 3 to 8) (size 9 to 14) (size 15 to 20)
#    0.000    0.857    5.714    1.286    6.000    1.143 
#    0.000    2.143    0.000    0.000    0.000    0.000 
#    0.000    0.000    0.000    0.000    0.000    0.000 
#
# Total GULP energy -78121.050289 kJ/mol
# GULP energy per Si atom -5580.075021 kJ/mol
# Density = 2.435671 g / cm^3
# Si number density = 24.412273 Si / 1000 Ang^3
#
#
#
# Elastic Constant Matrix: (Units=GPa)
#
#
# Indices 1 2 3 4 5 6 
#
# 1 80.2095 27.3484 24.5550 5.5280 -7.4881 -19.0605
# 2 27.3484 68.2181 13.5464 -12.4347 -7.1677 -6.3116
# 3 24.5550 13.5464 93.3178 1.5315 -14.9556 -9.9196
# 4 5.5280 -12.4347 1.5315 35.2786 -3.1191 -7.3480
# 5 -7.4881 -7.1677 -14.9556 -3.1191 26.9818 -2.9871
# 6 -19.0605 -6.3116 -9.9196 -7.3480 -2.9871 42.5353
#
#
#
# Elastic Compliance Matrix: (Units=1/GPa)
#
#
# Indices 1 2 3 4 5 6 
#
# 1 0.017177 -0.006264 -0.002650 -0.003435 0.001867 0.005687
# 2 -0.006264 0.019449 -0.000425 0.008613 0.004385 0.001776
# 3 -0.002650 -0.000425 0.012763 0.000776 0.006572 0.002321
# 4 -0.003435 0.008613 0.000776 0.033738 0.006351 0.006194
# 5 0.001867 0.004385 0.006572 0.006351 0.043919 0.007201
# 6 0.005687 0.001776 0.002321 0.006194 0.007201 0.028439
#
#
# Mechanical properties :
#
#
# Convention : Reuss Voigt Hill
#
# Bulk Modulus (GPa) = 32.56206 41.40501 36.98354
# Shear Modulus (GPa) = 27.11503 32.71218 29.91360
#
# Velocity S-wave (km/s) = 3.33635 3.66456 3.50430
# Velocity P-wave (km/s) = 5.31122 5.90786 5.61747
#
# Compressibility (1/GPa) = 0.03071059
#
# Stress axis : x y z
#
# Youngs Moduli (GPa) = 58.21787 51.41579 78.35450
#
# Poissons Ratio (x) = 0.32205 0.20768
# Poissons Ratio (y) = 0.36465 0.03330
# Poissons Ratio (z) = 0.15431 0.02185
#
# Static dielectric constant tensor:
#      x y z
#    x 1.966520 0.034990 -0.074590 
#    y 0.034990 1.986010 0.024880 
#    z -0.074590 0.024880 1.921440 
# 
# From -- ./inp_files/242487.got.cif
#   From: 2010.05.17/outbox.cif.g08.bks.cpg/sg2_122_cif.got.tgz:242487.got - 2010.06.03 11:33:40.
