data_PCOD9053871
_publ_section_title
;
Structure prediction by ZEFSAII (Michael W. Deem and Ramdas Pophale) SiO2 
 PCOD9053871
Probable space group: P -1
;
_chemical_formula_sum "Si O2"
_cell_formula_units_Z 16
_cell_length_a 9.527712
_cell_length_b 13.188782
_cell_length_c 15.638065
_cell_angle_alpha 134.104128
_cell_angle_beta 141.867356
_cell_angle_gamma 43.137676
_cell_volume 794.280493
_symmetry_space_group_name_H-M "P -1"
_symmetry_group_IT_number 2
_symmetry_cell_setting 'triclinic'
loop_
_space_group_symop_operation_xyz
x,y,z
-x,-y,-z
loop_
_atom_site_type_symbol
_atom_site_label
_atom_site_fract_x
_atom_site_fract_y
_atom_site_fract_z
Si Si1 0.912861 0.657863 0.166218
Si Si2 0.707991 0.413146 0.978235
Si Si3 0.896125 0.874874 0.904602
Si Si4 0.556733 0.090657 0.003658
Si Si5 0.019551 0.072561 0.312923
Si Si6 0.313176 0.708549 0.279999
Si Si7 0.893324 0.895165 0.441381
Si Si8 0.366132 0.149686 0.397121
O O1 0.911266 0.756053 0.307557
O O2 0.159961 0.633107 0.216798
O O3 0.866742 0.510059 0.085156
O O4 0.679689 0.763486 0.057176
O O5 0.596883 0.378683 0.817266
O O6 0.500000 0.500000 0.000000
O O7 0.895947 0.252502 0.014078
O O8 0.820740 0.802705 0.744196
O O9 0.656560 0.970342 0.903083
O O10 0.000000 0.000000 0.000000
O O11 0.782387 0.127646 0.169534
O O12 0.500000 0.000000 0.000000
O O13 0.966428 0.148780 0.426072
O O14 0.233233 0.104212 0.384943
O O15 0.122654 0.887178 0.271203
O O16 0.529334 0.727315 0.449252
O O17 0.608344 0.000420 0.393701
O O18 0.000000 0.000000 0.500000
#
# Coordination Sequence:
#
# PCOD9053871 Si02
#       8
#     2   2   2   2   2   2   2   2
#     4  12  24  41  68  97 137 169 216 273 333 390
#     4  12  28  43  65  94 132 178 219 267 336 393
#     4  12  23  44  66  97 130 168 226 270 324 389
#     4  12  21  38  67 100 128 167 222 272 317 385
#     4  11  22  36  65  99 133 163 225 269 327 370
#     4  11  22  44  61  96 132 176 210 271 330 389
#     4  11  20  38  64 103 130 168 214 270 326 392
#     4  11  23  37  69  93 135 166 223 275 323 380
#
# _framework density 20.144017999999999
#
# number of rings (size 3 to 8) (size 9 to 14) (size 15 to 20)
#    0.000    0.500    7.500    2.625    3.500    0.000 
#    0.000    2.500    0.000    0.000    0.000    0.000 
#    0.000    0.000    0.000    0.000    0.000    0.000 
#
# Total GULP energy -89481.293634 kJ/mol
# GULP energy per Si atom -5592.580852 kJ/mol
# Density = 2.009817 g / cm^3
# Si number density = 20.144018 Si / 1000 Ang^3
#
#
#
# Elastic Constant Matrix: (Units=GPa)
#
#
# Indices 1 2 3 4 5 6 
#
# 1 143.4946 27.5089 51.8049 3.6891 -3.1419 19.5580
# 2 27.5089 49.6612 16.5711 8.6717 7.9103 22.3733
# 3 51.8049 16.5711 148.2930 -1.9451 -20.1713 7.3062
# 4 3.6891 8.6717 -1.9451 21.8780 2.2614 1.9061
# 5 -3.1419 7.9103 -20.1713 2.2614 47.5192 4.7319
# 6 19.5580 22.3733 7.3062 1.9061 4.7319 25.6760
#
#
#
# Elastic Compliance Matrix: (Units=1/GPa)
#
#
# Indices 1 2 3 4 5 6 
#
# 1 0.008922 -0.002102 -0.002646 -0.000566 0.000264 -0.004218
# 2 -0.002102 0.038163 -0.002823 -0.012045 -0.004212 -0.029179
# 3 -0.002646 -0.002823 0.008444 0.001827 0.003667 0.001261
# 4 -0.000566 -0.012045 0.001827 0.050186 -0.000316 0.006740
# 5 0.000264 -0.004212 0.003667 -0.000316 0.023522 -0.001886
# 6 -0.004218 -0.029179 0.001261 0.006740 -0.001886 0.067074
#
#
# Mechanical properties :
#
#
# Convention : Reuss Voigt Hill
#
# Bulk Modulus (GPa) = 24.76096 59.24651 42.00374
# Shear Modulus (GPa) = 22.23057 35.38557 28.80807
#
# Velocity S-wave (km/s) = 3.32562 4.19576 3.78578
# Velocity P-wave (km/s) = 5.20241 7.27653 6.32507
#
# Compressibility (1/GPa) = 0.04038615
#
# Stress axis : x y z
#
# Youngs Moduli (GPa) = 112.07787 26.20348 118.43070
#
# Poissons Ratio (x) = 0.05509 0.31334
# Poissons Ratio (y) = 0.23562 0.33437
# Poissons Ratio (z) = 0.29653 0.07398
#
# Static dielectric constant tensor:
#      x y z
#    x 1.714220 -0.015630 0.001860 
#    y -0.015630 1.672930 -0.006130 
#    z 0.001860 -0.006130 1.749120 
# 
# From -- ./inp_files/271271.got.cif
#   From: 2010.05.17/outbox.cif.g08.bks.cpg/sg2_136_cif.got.tgz:271271.got - 2010.06.03 11:33:40.
