data_PCOD9053176
_publ_section_title
;
Structure prediction by ZEFSAII (Michael W. Deem and Ramdas Pophale) SiO2 
 PCOD9053176
Probable space group: P -1
;
_chemical_formula_sum "Si O2"
_cell_formula_units_Z 12
_cell_length_a 10.549235
_cell_length_b 14.917232
_cell_length_c 8.939574
_cell_angle_alpha 69.209528
_cell_angle_beta 150.662942
_cell_angle_gamma 113.110124
_cell_volume 633.680648
_symmetry_space_group_name_H-M "P -1"
_symmetry_group_IT_number 2
_symmetry_cell_setting 'triclinic'
loop_
_space_group_symop_operation_xyz
x,y,z
-x,-y,-z
loop_
_atom_site_type_symbol
_atom_site_label
_atom_site_fract_x
_atom_site_fract_y
_atom_site_fract_z
Si Si1 0.203151 0.961153 0.412027
Si Si2 0.892203 0.754163 0.172275
Si Si3 0.635141 0.256513 0.557788
Si Si4 0.221611 0.450647 0.675565
Si Si5 0.749039 0.057732 0.888791
Si Si6 0.727456 0.470559 0.651379
O O1 0.232305 0.963302 0.258678
O O2 0.030081 0.855606 0.328450
O O3 0.506573 0.984970 0.757212
O O4 0.032354 0.040260 0.243855
O O5 0.821482 0.663825 0.264227
O O6 0.115473 0.728191 0.306129
O O7 0.634723 0.766560 0.803009
O O8 0.675923 0.164579 0.754419
O O9 0.648854 0.355744 0.603006
O O10 0.235147 0.474476 0.500998
O O11 0.000000 0.500000 0.500000
O O12 0.500000 0.500000 0.000000
O O13 0.500000 0.500000 0.500000
O O14 0.000000 0.500000 0.000000
#
# Coordination Sequence:
#
# PCOD9053176 Si02
#       6
#     2   2   2   2   2   2
#     4   9  16  26  44  76 110 134 170 223 277 325
#     4  11  19  32  55  81 108 144 183 228 279 332
#     4  11  20  33  54  78 110 148 184 223 282 331
#     4  12  22  40  60  83 111 152 193 233 286 336
#     4   9  16  27  44  73 110 141 167 218 280 331
#     4  12  25  40  57  83 115 151 193 238 279 335
#
# _framework density 18.936983000000001
#
# number of rings (size 3 to 8) (size 9 to 14) (size 15 to 20)
#    0.000    1.333    3.333    7.000    0.000    0.000 
#    0.000    0.000    0.000    0.000    0.000    7.000 
#    0.000    0.000    0.000    0.000    0.000    0.000 
#
# Total GULP energy -66953.330511 kJ/mol
# GULP energy per Si atom -5579.444209 kJ/mol
# Density = 1.889388 g / cm^3
# Si number density = 18.936983 Si / 1000 Ang^3
#
#
#
# Elastic Constant Matrix: (Units=GPa)
#
#
# Indices 1 2 3 4 5 6 
#
# 1 84.3178 42.8884 53.3798 -4.6260 12.5832 6.8814
# 2 42.8884 155.0974 45.9091 -8.9861 11.4516 15.1923
# 3 53.3798 45.9091 110.0659 1.1226 25.3233 12.1017
# 4 -4.6260 -8.9861 1.1226 28.3577 -2.9656 12.3518
# 5 12.5832 11.4516 25.3233 -2.9656 33.4224 -2.6109
# 6 6.8814 15.1923 12.1017 12.3518 -2.6109 23.6673
#
#
#
# Elastic Compliance Matrix: (Units=1/GPa)
#
#
# Indices 1 2 3 4 5 6 
#
# 1 0.018281 -0.002447 -0.007710 0.003137 -0.000037 -0.001443
# 2 -0.002447 0.008622 -0.001471 0.005317 -0.000990 -0.006955
# 3 -0.007710 -0.001471 0.016242 -0.000867 -0.009422 -0.005706
# 4 0.003137 0.005317 -0.000867 0.050698 -0.000219 -0.030365
# 5 -0.000037 -0.000990 -0.009422 -0.000219 0.038157 0.009787
# 6 -0.001443 -0.006955 -0.005706 -0.030365 0.009787 0.066981
#
#
# Mechanical properties :
#
#
# Convention : Reuss Voigt Hill
#
# Bulk Modulus (GPa) = 50.28046 70.42619 60.35333
# Shear Modulus (GPa) = 21.84663 30.90973 26.37818
#
# Velocity S-wave (km/s) = 3.40023 4.04448 3.73627
# Velocity P-wave (km/s) = 6.48263 7.68641 7.11004
#
# Compressibility (1/GPa) = 0.01988844
#
# Stress axis : x y z
#
# Youngs Moduli (GPa) = 54.70132 115.97973 61.56715
#
# Poissons Ratio (x) = 0.28382 0.47469
# Poissons Ratio (y) = 0.13386 0.09059
# Poissons Ratio (z) = 0.42175 0.17065
#
# Static dielectric constant tensor:
#      x y z
#    x 1.622050 0.010490 0.013120 
#    y 0.010490 1.699060 -0.013400 
#    z 0.013120 -0.013400 1.661540 
# 
# From -- ./inp_files/88660.got.cif
#   From: 2010.05.17/outbox.cif.g08.bks.cpg/sg2_45_cif.got.tgz:88660.got - 2010.06.03 11:33:40.
