data_PCOD9053756
_publ_section_title
;
Structure prediction by ZEFSAII (Michael W. Deem and Ramdas Pophale) SiO2 
 PCOD9053756
Probable space group: P -1
;
_chemical_formula_sum "Si O2"
_cell_formula_units_Z 16
_cell_length_a 7.547151
_cell_length_b 11.975869
_cell_length_c 8.308829
_cell_angle_alpha 98.020712
_cell_angle_beta 54.562647
_cell_angle_gamma 96.264286
_cell_volume 605.507079
_symmetry_space_group_name_H-M "P -1"
_symmetry_group_IT_number 2
_symmetry_cell_setting 'triclinic'
loop_
_space_group_symop_operation_xyz
x,y,z
-x,-y,-z
loop_
_atom_site_type_symbol
_atom_site_label
_atom_site_fract_x
_atom_site_fract_y
_atom_site_fract_z
Si Si1 0.931856 0.140956 0.980720
Si Si2 0.398015 0.109932 0.656812
Si Si3 0.020506 0.564774 0.673923
Si Si4 0.940437 0.328847 0.779854
Si Si5 0.132218 0.045604 0.283557
Si Si6 0.535935 0.791020 0.687636
Si Si7 0.451212 0.378895 0.086282
Si Si8 0.173707 0.773116 0.501060
O O1 0.994883 0.263775 0.898029
O O2 0.174942 0.092147 0.870830
O O3 0.845993 0.059789 0.863952
O O4 0.710495 0.168987 0.193522
O O5 0.360070 0.189911 0.538309
O O6 0.598290 0.168320 0.657430
O O7 0.500000 0.000000 0.500000
O O8 0.206071 0.659959 0.565066
O O9 0.000000 0.500000 0.500000
O O10 0.031616 0.457826 0.762641
O O11 0.802099 0.634567 0.832619
O O12 0.978295 0.265559 0.577973
O O13 0.676055 0.324588 0.907915
O O14 0.345120 0.117151 0.238207
O O15 0.968149 0.135322 0.314705
O O16 0.000000 0.000000 0.500000
O O17 0.551721 0.667177 0.735430
O O18 0.500000 0.500000 0.000000
#
# Coordination Sequence:
#
# PCOD9053756 Si02
#       8
#     2   2   2   2   2   2   2   2
#     4  11  23  40  62  91 121 163 213 258 307 363
#     4  12  25  42  57  85 138 172 201 247 307 388
#     4   9  18  33  61  88 112 149 203 254 307 353
#     4   9  19  36  63  87 116 149 208 269 299 348
#     4  12  19  37  64  89 122 155 215 265 298 360
#     4  11  23  40  65  92 122 168 204 261 313 359
#     4   9  18  36  63  94 117 147 203 269 310 352
#     4  11  20  37  58  89 117 167 200 247 316 366
#
# _framework density 26.424133999999999
#
# number of rings (size 3 to 8) (size 9 to 14) (size 15 to 20)
#    0.000    1.500    5.000    0.375    1.750    0.500 
#    2.250    0.625    0.000    2.250    0.000    0.000 
#    0.000    0.000    0.000    0.000    0.000    0.000 
#
# Total GULP energy -89242.836176 kJ/mol
# GULP energy per Si atom -5577.677261 kJ/mol
# Density = 2.636399 g / cm^3
# Si number density = 26.424134 Si / 1000 Ang^3
#
#
#
# Elastic Constant Matrix: (Units=GPa)
#
#
# Indices 1 2 3 4 5 6 
#
# 1 80.8398 28.2493 14.6277 -7.6497 -21.1064 -4.2293
# 2 28.2493 104.6815 8.7430 -20.6496 0.2161 -12.6323
# 3 14.6277 8.7430 125.4414 -9.4385 -35.5007 6.5652
# 4 -7.6497 -20.6496 -9.4385 40.4332 -7.3740 2.4440
# 5 -21.1064 0.2161 -35.5007 -7.3740 42.5706 -7.7633
# 6 -4.2293 -12.6323 6.5652 2.4440 -7.7633 38.5300
#
#
#
# Elastic Compliance Matrix: (Units=1/GPa)
#
#
# Indices 1 2 3 4 5 6 
#
# 1 0.016543 -0.003672 0.001396 0.003336 0.010373 0.002252
# 2 -0.003672 0.011935 -0.000420 0.004968 -0.000805 0.003104
# 3 0.001396 -0.000420 0.011277 0.004671 0.010906 -0.000005
# 4 0.003336 0.004968 0.004671 0.030935 0.011153 0.001484
# 5 0.010373 -0.000805 0.010906 0.011153 0.040857 0.006541
# 6 0.002252 0.003104 -0.000005 0.001484 0.006541 0.028443
#
#
# Mechanical properties :
#
#
# Convention : Reuss Voigt Hill
#
# Bulk Modulus (GPa) = 29.10306 46.02253 37.56279
# Shear Modulus (GPa) = 31.88015 41.59626 36.73820
#
# Velocity S-wave (km/s) = 3.47721 3.97189 3.73275
# Velocity P-wave (km/s) = 5.21143 6.20397 5.72924
#
# Compressibility (1/GPa) = 0.03436065
#
# Stress axis : x y z
#
# Youngs Moduli (GPa) = 60.44990 83.78606 88.67888
#
# Poissons Ratio (x) = 0.30769 -0.12376
# Poissons Ratio (y) = 0.22199 0.03725
# Poissons Ratio (z) = -0.08436 0.03520
#
# Static dielectric constant tensor:
#      x y z
#    x 2.161200 -0.102560 0.057940 
#    y -0.102560 2.117830 -0.049210 
#    z 0.057940 -0.049210 2.147830 
# 
# From -- ./inp_files/318959.got.cif
#   From: 2010.05.17/outbox.cif.g08.bks.cpg/sg2_160_cif.got.tgz:318959.got - 2010.06.03 11:33:40.
