data_PCOD9053875
_publ_section_title
;
Structure prediction by ZEFSAII (Michael W. Deem and Ramdas Pophale) SiO2 
 PCOD9053875
Probable space group: P -1
;
_chemical_formula_sum "Si O2"
_cell_formula_units_Z 16
_cell_length_a 9.649418
_cell_length_b 12.152393
_cell_length_c 11.899316
_cell_angle_alpha 47.853455
_cell_angle_beta 127.064315
_cell_angle_gamma 97.679001
_cell_volume 733.973222
_symmetry_space_group_name_H-M "P -1"
_symmetry_group_IT_number 2
_symmetry_cell_setting 'triclinic'
loop_
_space_group_symop_operation_xyz
x,y,z
-x,-y,-z
loop_
_atom_site_type_symbol
_atom_site_label
_atom_site_fract_x
_atom_site_fract_y
_atom_site_fract_z
Si Si1 0.788703 0.075145 0.778995
Si Si2 0.934321 0.181962 0.575378
Si Si3 0.517467 0.183267 0.001039
Si Si4 0.105292 0.806733 0.835122
Si Si5 0.955502 0.717239 0.033450
Si Si6 0.567387 0.816135 0.301718
Si Si7 0.997219 0.375343 0.279410
Si Si8 0.094278 0.323934 0.725327
O O1 0.610609 0.157838 0.721148
O O2 0.783568 0.191975 0.592074
O O3 0.792329 0.909182 0.837793
O O4 0.000000 0.000000 0.000000
O O5 0.897335 0.323641 0.368811
O O6 0.104146 0.185967 0.735501
O O7 0.000623 0.006410 0.666209
O O8 0.479130 0.213894 0.827654
O O9 0.312087 0.280897 0.895099
O O10 0.682009 0.235410 0.077181
O O11 0.583497 0.989279 0.189517
O O12 0.001406 0.736520 0.747674
O O13 0.104346 0.727923 0.009848
O O14 0.900325 0.571935 0.070761
O O15 0.027608 0.669653 0.229188
O O16 0.778828 0.678628 0.539395
O O17 0.000000 0.500000 0.500000
#
# Coordination Sequence:
#
# PCOD9053875 Si02
#       8
#     2   2   2   2   2   2   2   2
#     4  11  21  38  64  95 125 162 210 263 317 373
#     4  11  21  38  66  93 122 167 211 263 310 377
#     4  11  20  38  64  96 122 169 217 259 314 379
#     4  11  25  42  66  91 130 173 217 255 314 390
#     4  11  23  41  65  91 132 172 204 263 332 370
#     4  11  21  38  67  95 127 163 216 265 315 375
#     4  12  24  45  64  94 132 172 212 262 320 380
#     4  12  21  40  66  98 131 165 210 272 330 367
#
# _framework density 21.799160000000001
#
# number of rings (size 3 to 8) (size 9 to 14) (size 15 to 20)
#    0.000    0.750    6.250    3.000    0.000    0.000 
#    2.250    6.250    2.750    0.000    0.000    0.000 
#    0.000    0.000    0.000    0.000    0.000    0.000 
#
# Total GULP energy -89321.616884 kJ/mol
# GULP energy per Si atom -5582.601055 kJ/mol
# Density = 2.174954 g / cm^3
# Si number density = 21.799160 Si / 1000 Ang^3
#
#
#
# Elastic Constant Matrix: (Units=GPa)
#
#
# Indices 1 2 3 4 5 6 
#
# 1 123.4361 16.1303 26.4928 -7.2595 -21.8029 1.4723
# 2 16.1303 97.5623 -0.3186 -11.7363 8.0047 -0.9611
# 3 26.4928 -0.3186 29.7340 -11.4712 -7.1161 3.9038
# 4 -7.2595 -11.7363 -11.4712 23.6792 5.1859 -7.7595
# 5 -21.8029 8.0047 -7.1161 5.1859 27.9701 -5.6131
# 6 1.4723 -0.9611 3.9038 -7.7595 -5.6131 24.3257
#
#
#
# Elastic Compliance Matrix: (Units=1/GPa)
#
#
# Indices 1 2 3 4 5 6 
#
# 1 0.012079 -0.003283 -0.010632 -0.004529 0.008776 0.001426
# 2 -0.003283 0.012480 0.005007 0.009464 -0.006321 0.001449
# 3 -0.010632 0.005007 0.052527 0.024923 -0.000949 0.000143
# 4 -0.004529 0.009464 0.024923 0.064516 -0.008810 0.015195
# 5 0.008776 -0.006321 -0.000949 -0.008810 0.047294 0.007474
# 6 0.001426 0.001449 0.000143 0.015195 0.007474 0.047628
#
#
# Mechanical properties :
#
#
# Convention : Reuss Voigt Hill
#
# Bulk Modulus (GPa) = 16.87156 37.26015 27.06585
# Shear Modulus (GPa) = 18.24173 29.09020 23.66597
#
# Velocity S-wave (km/s) = 2.89590 3.65700 3.29847
# Velocity P-wave (km/s) = 4.35178 5.91279 5.19129
#
# Compressibility (1/GPa) = 0.05927136
#
# Stress axis : x y z
#
# Youngs Moduli (GPa) = 82.78904 80.12672 19.03778
#
# Poissons Ratio (x) = 0.26302 0.20240
# Poissons Ratio (y) = 0.27176 -0.09532
# Poissons Ratio (z) = 0.88017 -0.40117
#
# Static dielectric constant tensor:
#      x y z
#    x 1.812720 0.001460 -0.027950 
#    y 0.001460 1.847810 -0.015570 
#    z -0.027950 -0.015570 1.804490 
# 
# From -- ./inp_files/392174.got.cif
#   From: 2010.05.17/outbox.cif.g08.bks.cpg/sg2_197_cif.got.tgz:392174.got - 2010.06.03 11:33:40.
