data_PCOD9053108
_publ_section_title
;
Structure prediction by ZEFSAII (Michael W. Deem and Ramdas Pophale) SiO2 
 PCOD9053108
Probable space group: P -1
;
_chemical_formula_sum "Si O2"
_cell_formula_units_Z 14
_cell_length_a 8.833002
_cell_length_b 18.768518
_cell_length_c 11.864281
_cell_angle_alpha 144.542883
_cell_angle_beta 38.160546
_cell_angle_gamma 139.274258
_cell_volume 666.100395
_symmetry_space_group_name_H-M "P -1"
_symmetry_group_IT_number 2
_symmetry_cell_setting 'triclinic'
loop_
_space_group_symop_operation_xyz
x,y,z
-x,-y,-z
loop_
_atom_site_type_symbol
_atom_site_label
_atom_site_fract_x
_atom_site_fract_y
_atom_site_fract_z
Si Si1 0.083652 0.394773 0.242129
Si Si2 0.610595 0.636676 0.675583
Si Si3 0.344364 0.138928 0.238093
Si Si4 0.672564 0.722822 0.337658
Si Si5 0.146919 0.616320 0.355679
Si Si6 0.343796 0.560276 0.956013
Si Si7 0.105379 0.867299 0.088623
O O1 0.075202 0.460495 0.211211
O O2 0.373402 0.403209 0.106405
O O3 0.000000 0.500000 0.500000
O O4 0.928874 0.244812 0.129356
O O5 0.500000 0.500000 0.500000
O O6 0.663446 0.752997 0.707347
O O7 0.399642 0.619704 0.875740
O O8 0.893066 0.650999 0.581861
O O9 0.362755 0.198930 0.430402
O O10 0.602257 0.107466 0.008411
O O11 0.109390 0.003023 0.207252
O O12 0.405356 0.677794 0.359777
O O13 0.734605 0.596642 0.190488
O O14 0.895366 0.809463 0.234889
O O15 0.191561 0.630200 0.213840
#
# Coordination Sequence:
#
# PCOD9053108 Si02
#       7
#     2   2   2   2   2   2   2
#     4  11  18  36  68  96 119 157 213 271 299 357
#     4  12  25  41  59  95 136 163 205 261 323 383
#     4  11  26  41  63  93 128 178 202 257 325 375
#     4  11  21  40  69  94 121 163 222 265 300 372
#     4  11  22  37  67  97 120 161 213 268 315 359
#     4  11  21  36  65  95 122 160 210 263 316 361
#     4  11  22  43  66  90 128 163 223 257 308 379
#
# _framework density 21.017852999999999
#
# number of rings (size 3 to 8) (size 9 to 14) (size 15 to 20)
#    0.000    0.857    5.714    3.857    0.000    1.714 
#    0.000    1.429    0.000    0.000    0.000    0.000 
#    0.000    0.000    0.000    0.000    0.000    0.000 
#
# Total GULP energy -78016.264293 kJ/mol
# GULP energy per Si atom -5572.590307 kJ/mol
# Density = 2.097002 g / cm^3
# Si number density = 21.017853 Si / 1000 Ang^3
#
#
#
# Elastic Constant Matrix: (Units=GPa)
#
#
# Indices 1 2 3 4 5 6 
#
# 1 55.8128 41.5793 15.1103 3.6894 4.2383 -14.0407
# 2 41.5793 174.7693 44.5680 7.8150 7.5861 -22.2814
# 3 15.1103 44.5680 77.4295 -11.4089 24.8735 -10.5148
# 4 3.6894 7.8150 -11.4089 38.3304 -1.4860 -1.2499
# 5 4.2383 7.5861 24.8735 -1.4860 34.7814 -6.6760
# 6 -14.0407 -22.2814 -10.5148 -1.2499 -6.6760 29.9038
#
#
#
# Elastic Compliance Matrix: (Units=1/GPa)
#
#
# Indices 1 2 3 4 5 6 
#
# 1 0.023367 -0.004173 -0.001563 -0.001603 0.000525 0.007363
# 2 -0.004173 0.008315 -0.004755 -0.002510 0.002571 0.003033
# 3 -0.001563 -0.004755 0.021465 0.006993 -0.013729 0.000498
# 4 -0.001603 -0.002510 0.006993 0.028734 -0.002958 0.000376
# 5 0.000525 0.002571 -0.013729 -0.002958 0.038952 0.005907
# 6 0.007363 0.003033 0.000498 0.000376 0.005907 0.040667
#
#
# Mechanical properties :
#
#
# Convention : Reuss Voigt Hill
#
# Bulk Modulus (GPa) = 31.09051 56.72521 43.90786
# Shear Modulus (GPa) = 25.87927 34.38672 30.13300
#
# Velocity S-wave (km/s) = 3.51279 4.04923 3.79051
# Velocity P-wave (km/s) = 5.59263 6.99352 6.33194
#
# Compressibility (1/GPa) = 0.03216416
#
# Stress axis : x y z
#
# Youngs Moduli (GPa) = 42.79455 120.26988 46.58658
#
# Poissons Ratio (x) = 0.50190 0.07283
# Poissons Ratio (y) = 0.17859 0.22153
# Poissons Ratio (z) = 0.06690 0.57192
#
# Static dielectric constant tensor:
#      x y z
#    x 1.820370 -0.035780 0.053470 
#    y -0.035780 1.842770 -0.050090 
#    z 0.053470 -0.050090 1.820710 
# 
# From -- ./inp_files/272427.got.cif
#   From: 2010.05.17/outbox.cif.g08.bks.cpg/sg2_137_cif.got.tgz:272427.got - 2010.06.03 11:33:40.
