data_PCOD9053061
_publ_section_title
;
Structure prediction by ZEFSAII (Michael W. Deem and Ramdas Pophale) SiO2 
 PCOD9053061
Probable space group: P -1
;
_chemical_formula_sum "Si O2"
_cell_formula_units_Z 14
_cell_length_a 16.918121
_cell_length_b 25.760123
_cell_length_c 14.158171
_cell_angle_alpha 155.692913
_cell_angle_beta 25.170072
_cell_angle_gamma 163.406812
_cell_volume 698.538159
_symmetry_space_group_name_H-M "P -1"
_symmetry_group_IT_number 2
_symmetry_cell_setting 'triclinic'
loop_
_space_group_symop_operation_xyz
x,y,z
-x,-y,-z
loop_
_atom_site_type_symbol
_atom_site_label
_atom_site_fract_x
_atom_site_fract_y
_atom_site_fract_z
Si Si1 0.409746 0.042848 0.005262
Si Si2 0.028545 0.618814 0.745778
Si Si3 0.587145 0.528572 0.196354
Si Si4 0.437396 0.216190 0.448537
Si Si5 0.714394 0.691571 0.679151
Si Si6 0.323073 0.618135 0.855128
Si Si7 0.948811 0.132646 0.586283
O O1 0.348979 0.085002 0.237521
O O2 0.475097 0.180756 0.084820
O O3 0.700028 0.109754 0.811854
O O4 0.156907 0.812718 0.882573
O O5 0.265989 0.688819 0.677529
O O6 0.000000 0.500000 0.500000
O O7 0.745252 0.509726 0.928155
O O8 0.528089 0.623681 0.357704
O O9 0.302464 0.323013 0.213341
O O10 0.815425 0.691713 0.302595
O O11 0.199243 0.066738 0.538286
O O12 0.457481 0.657226 0.876091
O O13 0.671116 0.519226 0.421414
O O14 0.938735 0.834182 0.587322
O O15 0.000000 0.500000 0.000000
#
# Coordination Sequence:
#
# PCOD9053061 Si02
#       7
#     2   2   2   2   2   2   2
#     4  11  19  36  64  89 115 155 194 245 292 338
#     4  11  26  42  56  84 123 157 197 241 287 349
#     4  12  20  35  61  85 120 153 189 242 298 340
#     4  11  22  35  65  89 112 145 204 246 294 337
#     4  11  21  30  52  92 125 143 180 242 306 338
#     4  11  19  30  52  90 126 145 180 235 304 343
#     4  11  18  34  53  97 120 144 180 250 294 342
#
# _framework density 20.041855000000002
#
# number of rings (size 3 to 8) (size 9 to 14) (size 15 to 20)
#    0.000    0.857    8.571    1.286    2.000    0.571 
#    0.000    0.000    0.000    4.286    0.000    0.000 
#    0.000    0.000    0.000    0.000    0.000    0.000 
#
# Total GULP energy -78014.570802 kJ/mol
# GULP energy per Si atom -5572.469343 kJ/mol
# Density = 1.999624 g / cm^3
# Si number density = 20.041855 Si / 1000 Ang^3
#
#
#
# Elastic Constant Matrix: (Units=GPa)
#
#
# Indices 1 2 3 4 5 6 
#
# 1 101.2092 39.2924 42.0113 -1.0310 -19.6241 -50.5906
# 2 39.2924 38.5583 40.4416 -15.8567 6.0093 -35.0329
# 3 42.0113 40.4416 101.6734 -13.0598 2.4487 -22.4151
# 4 -1.0310 -15.8567 -13.0598 31.5118 0.3947 6.9594
# 5 -19.6241 6.0093 2.4487 0.3947 27.1130 -7.8224
# 6 -50.5906 -35.0329 -22.4151 6.9594 -7.8224 37.1132
#
#
#
# Elastic Compliance Matrix: (Units=1/GPa)
#
#
# Indices 1 2 3 4 5 6 
#
# 1 0.007457 -0.117119 0.021597 -0.032185 0.006829 -0.079871
# 2 -0.117119 0.118112 -0.006598 0.075734 -0.139050 -0.095652
# 3 0.021597 -0.006598 0.009990 -0.006792 0.026721 0.036151
# 4 -0.032185 0.075734 -0.006792 0.065850 -0.039613 0.002817
# 5 0.006829 -0.139050 0.026721 -0.039613 0.045171 -0.088860
# 6 -0.079871 -0.095652 0.036151 0.002817 -0.088860 -0.169645
#
#
# Mechanical properties :
#
#
# Convention : Reuss Voigt Hill
#
# Bulk Modulus (GPa) = -14.56018 53.88129 19.66055
# Shear Modulus (GPa) = 19.35890 27.12731 23.24310
#
# Velocity S-wave (km/s) = 3.11130 3.68303 3.40917
# Velocity P-wave (km/s) = 2.37198 6.71037 5.03266
#
# Compressibility (1/GPa) = -0.06868047
#
# Stress axis : x y z
#
# Youngs Moduli (GPa) = 134.10986 8.46654 100.10154
#
# Poissons Ratio (x) = 0.99159 -2.16190
# Poissons Ratio (y) = 15.70676 0.66046
# Poissons Ratio (z) = -2.89637 0.05586
#
# Static dielectric constant tensor:
#      x y z
#    x 1.760990 -0.020290 0.011260 
#    y -0.020290 1.799080 -0.049300 
#    z 0.011260 -0.049300 1.708220 
# 
# From -- ./inp_files/458096.got.cif
#   From: 2010.05.17/outbox.cif.g08.bks.cpg/sg2_230_cif.got.tgz:458096.got - 2010.06.03 11:33:40.
