data_PCOD9053587
_publ_section_title
;
Structure prediction by ZEFSAII (Michael W. Deem and Ramdas Pophale) SiO2 
 PCOD9053587
Probable space group: P -1
;
_chemical_formula_sum "Si O2"
_cell_formula_units_Z 16
_cell_length_a 10.678174
_cell_length_b 15.215398
_cell_length_c 12.367056
_cell_angle_alpha 56.373255
_cell_angle_beta 37.598124
_cell_angle_gamma 38.578467
_cell_volume 753.011612
_symmetry_space_group_name_H-M "P -1"
_symmetry_group_IT_number 2
_symmetry_cell_setting 'triclinic'
loop_
_space_group_symop_operation_xyz
x,y,z
-x,-y,-z
loop_
_atom_site_type_symbol
_atom_site_label
_atom_site_fract_x
_atom_site_fract_y
_atom_site_fract_z
Si Si1 0.218112 0.936790 0.994040
Si Si2 0.822834 0.466604 0.096297
Si Si3 0.769056 0.614552 0.821375
Si Si4 0.663829 0.809008 0.419928
Si Si5 0.908972 0.878380 0.386423
Si Si6 0.251031 0.586420 0.454991
Si Si7 0.402902 0.392272 0.282133
Si Si8 0.959294 0.771416 0.039385
O O1 0.524199 0.787299 0.858489
O O2 0.206656 0.061185 0.956367
O O3 0.104622 0.900545 0.189639
O O4 0.000000 0.000000 0.000000
O O5 0.567428 0.511787 0.311942
O O6 0.705313 0.558529 0.001917
O O7 0.000000 0.500000 0.000000
O O8 0.014928 0.302082 0.039327
O O9 0.759712 0.557362 0.752759
O O10 0.065599 0.569854 0.662390
O O11 0.825959 0.829494 0.377599
O O12 0.607913 0.717760 0.578017
O O13 0.827134 0.744698 0.240201
O O14 0.372628 0.968408 0.487651
O O15 0.066735 0.754445 0.450842
O O16 0.282856 0.517624 0.363298
O O17 0.722395 0.309105 0.095671
#
# Coordination Sequence:
#
# PCOD9053587 Si02
#       8
#     2   2   2   2   2   2   2   2
#     4  12  20  36  58  99 134 160 190 231 312 395
#     4  11  28  48  62  83 117 166 226 268 291 339
#     4  12  22  38  66  91 127 162 195 249 313 371
#     4  11  20  34  56  92 138 160 184 231 304 389
#     4  11  20  33  55  91 136 163 181 232 299 383
#     4  11  24  38  63  91 123 160 201 254 310 366
#     4  11  22  34  56  98 130 155 194 238 313 389
#     4  11  23  38  63  89 129 168 196 245 310 364
#
# _framework density 21.248013
#
# number of rings (size 3 to 8) (size 9 to 14) (size 15 to 20)
#    0.000    0.750    6.250    1.875    1.750    1.500 
#    0.000    0.625    0.000    1.500    0.000    0.000 
#    0.000    0.000    0.000    0.000    0.000    0.000 
#
# Total GULP energy -89498.858413 kJ/mol
# GULP energy per Si atom -5593.678651 kJ/mol
# Density = 2.119965 g / cm^3
# Si number density = 21.248013 Si / 1000 Ang^3
#
#
#
# Elastic Constant Matrix: (Units=GPa)
#
#
# Indices 1 2 3 4 5 6 
#
# 1 41.5199 12.5965 8.5256 -1.2952 -21.1932 14.8195
# 2 12.5965 106.1722 -0.5778 0.2623 -3.8230 12.7724
# 3 8.5256 -0.5778 112.1994 3.6301 -11.1662 5.1439
# 4 -1.2952 0.2623 3.6301 40.7865 -1.3060 -2.7360
# 5 -21.1932 -3.8230 -11.1662 -1.3060 22.2835 -11.9936
# 6 14.8195 12.7724 5.1439 -2.7360 -11.9936 14.9631
#
#
#
# Elastic Compliance Matrix: (Units=1/GPa)
#
#
# Indices 1 2 3 4 5 6 
#
# 1 0.050797 -0.002645 0.000755 0.001739 0.039584 -0.016265
# 2 -0.002645 0.011066 0.000135 -0.001316 -0.007835 -0.013393
# 3 0.000755 0.000135 0.009418 -0.000622 0.005551 0.000235
# 4 0.001739 -0.001316 -0.000622 0.025671 0.008689 0.011274
# 5 0.039584 -0.007835 0.005551 0.008689 0.117480 0.061330
# 6 -0.016265 -0.013393 0.000235 0.011274 0.061330 0.145512
#
#
# Mechanical properties :
#
#
# Convention : Reuss Voigt Hill
#
# Bulk Modulus (GPa) = 14.75560 33.44223 24.09892
# Shear Modulus (GPa) = 12.95192 31.56311 22.25751
#
# Velocity S-wave (km/s) = 2.47160 3.85835 3.24004
# Velocity P-wave (km/s) = 3.88647 5.96844 5.03622
#
# Compressibility (1/GPa) = 0.06777089
#
# Stress axis : x y z
#
# Youngs Moduli (GPa) = 19.68621 90.37082 106.18242
#
# Poissons Ratio (x) = 0.23902 -0.08021
# Poissons Ratio (y) = 0.05207 -0.01431
# Poissons Ratio (z) = -0.01487 -0.01218
#
# Static dielectric constant tensor:
#      x y z
#    x 1.761300 0.002790 -0.009320 
#    y 0.002790 1.790000 0.017470 
#    z -0.009320 0.017470 1.775700 
# 
# From -- ./inp_files/389906.got.cif
#   From: 2010.05.17/outbox.cif.g08.bks.cpg/sg2_195_cif.got.tgz:389906.got - 2010.06.03 11:33:40.
