data_PCOD9053397
_publ_section_title
;
Structure prediction by ZEFSAII (Michael W. Deem and Ramdas Pophale) SiO2 
 PCOD9053397
Probable space group: P -1
;
_chemical_formula_sum "Si O2"
_cell_formula_units_Z 16
_cell_length_a 12.350193
_cell_length_b 24.356196
_cell_length_c 15.048318
_cell_angle_alpha 20.868301
_cell_angle_beta 151.772721
_cell_angle_gamma 158.173777
_cell_volume 596.306876
_symmetry_space_group_name_H-M "P -1"
_symmetry_group_IT_number 2
_symmetry_cell_setting 'triclinic'
loop_
_space_group_symop_operation_xyz
x,y,z
-x,-y,-z
loop_
_atom_site_type_symbol
_atom_site_label
_atom_site_fract_x
_atom_site_fract_y
_atom_site_fract_z
Si Si1 0.495495 0.593733 0.213275
Si Si2 0.022298 0.158114 0.569603
Si Si3 0.797189 0.759543 0.993622
Si Si4 0.104294 0.732832 0.519231
Si Si5 0.557129 0.885628 0.944101
Si Si6 0.754698 0.515191 0.081141
Si Si7 0.308401 0.938035 0.863049
Si Si8 0.258695 0.693669 0.442505
O O1 0.239996 0.360984 0.367697
O O2 0.401683 0.699108 0.046653
O O3 0.763559 0.618340 0.419963
O O4 0.646458 0.709089 0.056992
O O5 0.209037 0.127033 0.818314
O O6 0.840589 0.184775 0.465986
O O7 0.849129 0.953859 0.699770
O O8 0.564554 0.568362 0.055213
O O9 0.100457 0.795871 0.169770
O O10 0.142165 0.564541 0.798199
O O11 0.290261 0.922588 0.300006
O O12 0.375809 0.881652 0.901196
O O13 0.722239 0.375445 0.345477
O O14 0.982375 0.738671 0.941094
O O15 0.500000 0.000000 0.000000
O O16 0.418159 0.155717 0.591836
O O17 0.000000 0.500000 0.500000
#
# Coordination Sequence:
#
# PCOD9053397 Si02
#       8
#     2   2   2   2   2   2   2   2
#     4  11  20  38  67 102 140 185 231 276 340 418
#     4  11  20  36  67  99 140 191 225 275 343 411
#     4  12  26  44  70 109 142 178 232 286 343 419
#     4  11  19  39  67  98 143 186 228 277 341 413
#     4  11  19  38  69  99 136 188 237 278 339 417
#     4  12  26  44  72 106 144 174 235 290 342 408
#     4  12  24  44  73 102 132 185 238 287 346 411
#     4  12  26  50  74  97 137 190 231 286 353 404
#
# _framework density 26.831823
#
# number of rings (size 3 to 8) (size 9 to 14) (size 15 to 20)
#    0.000    0.500    7.500    3.750    0.000    2.000 
#    0.000    1.875    0.000    0.000    0.000    0.000 
#    0.000    0.000    0.000    0.000    0.000    0.000 
#
# Total GULP energy -89377.475026 kJ/mol
# GULP energy per Si atom -5586.092189 kJ/mol
# Density = 2.677075 g / cm^3
# Si number density = 26.831823 Si / 1000 Ang^3
#
#
#
# Elastic Constant Matrix: (Units=GPa)
#
#
# Indices 1 2 3 4 5 6 
#
# 1 82.8967 0.3723 20.0340 -17.1478 -0.0395 9.9479
# 2 0.3723 109.9493 53.5112 -33.5008 -11.4707 -14.1912
# 3 20.0340 53.5112 96.3164 -44.8126 1.4467 4.4053
# 4 -17.1478 -33.5008 -44.8126 70.7525 -1.3362 0.4205
# 5 -0.0395 -11.4707 1.4467 -1.3362 40.1538 -14.9327
# 6 9.9479 -14.1912 4.4053 0.4205 -14.9327 29.9569
#
#
#
# Elastic Compliance Matrix: (Units=1/GPa)
#
#
# Indices 1 2 3 4 5 6 
#
# 1 0.013583 0.001010 -0.002005 0.002504 -0.001160 -0.004351
# 2 0.001010 0.017661 -0.009655 0.002612 0.011026 0.014910
# 3 -0.002005 -0.009655 0.020372 0.007773 -0.007173 -0.010588
# 4 0.002504 0.002612 0.007773 0.020922 0.000959 -0.000553
# 5 -0.001160 0.011026 -0.007173 0.000959 0.037829 0.025507
# 6 -0.004351 0.014910 -0.010588 -0.000553 0.025507 0.056168
#
#
# Mechanical properties :
#
#
# Convention : Reuss Voigt Hill
#
# Bulk Modulus (GPa) = 32.98436 48.55527 40.76982
# Shear Modulus (GPa) = 25.26024 42.52228 33.89126
#
# Velocity S-wave (km/s) = 3.07160 3.98524 3.55787
# Velocity P-wave (km/s) = 4.98992 6.26989 5.66617
#
# Compressibility (1/GPa) = 0.03031740
#
# Stress axis : x y z
#
# Youngs Moduli (GPa) = 73.62252 56.62176 49.08713
#
# Poissons Ratio (x) = -0.05720 0.09841
# Poissons Ratio (y) = -0.07437 0.47391
# Poissons Ratio (z) = 0.14760 0.54666
#
# Static dielectric constant tensor:
#      x y z
#    x 2.217810 -0.013940 0.105350 
#    y -0.013940 2.172430 -0.069220 
#    z 0.105350 -0.069220 2.149980 
# 
# From -- ./inp_files/574595.got.cif
#   From: 2010.05.17/outbox.cif.g08.bks.cpg/sg2_288_cif.got.tgz:574595.got - 2010.06.03 11:33:40.
