data_PCOD9053089
_publ_section_title
;
Structure prediction by ZEFSAII (Michael W. Deem and Ramdas Pophale) SiO2 
 PCOD9053089
Probable space group: P -1
;
_chemical_formula_sum "Si O2"
_cell_formula_units_Z 16
_cell_length_a 12.320509
_cell_length_b 9.201924
_cell_length_c 13.760159
_cell_angle_alpha 39.721731
_cell_angle_beta 127.508079
_cell_angle_gamma 106.902669
_cell_volume 740.741836
_symmetry_space_group_name_H-M "P -1"
_symmetry_group_IT_number 2
_symmetry_cell_setting 'triclinic'
loop_
_space_group_symop_operation_xyz
x,y,z
-x,-y,-z
loop_
_atom_site_type_symbol
_atom_site_label
_atom_site_fract_x
_atom_site_fract_y
_atom_site_fract_z
Si Si1 0.109181 0.473839 0.769642
Si Si2 0.968567 0.788788 0.835251
Si Si3 0.097714 0.003464 0.955323
Si Si4 0.361029 0.684828 0.771393
Si Si5 0.515947 0.671900 0.658576
Si Si6 0.178856 0.210167 0.442301
Si Si7 0.711776 0.871410 0.779561
Si Si8 0.640435 0.422246 0.682803
O O1 0.223199 0.596664 0.736312
O O2 0.950179 0.659336 0.618962
O O3 0.081333 0.278152 0.784177
O O4 0.199423 0.300681 0.997247
O O5 0.916328 0.847958 0.667077
O O6 0.832865 0.936168 0.753425
O O7 0.086006 0.862487 0.922011
O O8 0.000000 0.500000 0.000000
O O9 0.259308 0.843053 0.159313
O O10 0.000000 0.000000 0.000000
O O11 0.416614 0.694778 0.686881
O O12 0.304066 0.946991 0.659378
O O13 0.500000 0.500000 0.000000
O O14 0.659299 0.704553 0.764065
O O15 0.575447 0.433086 0.750023
O O16 0.432718 0.887302 0.425687
O O17 0.262015 0.401011 0.365134
O O18 0.500000 0.500000 0.500000
#
# Coordination Sequence:
#
# PCOD9053089 Si02
#       8
#     2   2   2   2   2   2   2   2
#     4  12  25  43  69 105 143 179 230 288 351 412
#     4  12  19  37  70 101 133 167 230 290 342 400
#     4  12  23  40  67 106 139 174 220 296 353 398
#     4  12  27  44  70  97 146 192 230 275 348 431
#     4  11  22  39  63 105 136 179 232 276 344 405
#     4  12  24  45  70 105 133 185 237 287 346 412
#     4  11  18  35  69  94 133 168 230 286 329 391
#     4  12  25  39  73 106 141 171 235 297 348 396
#
# _framework density 21.599968000000001
#
# number of rings (size 3 to 8) (size 9 to 14) (size 15 to 20)
#    0.000    0.250    8.750    1.875    1.750    0.000 
#    0.000    1.250    2.750    0.000    0.000    0.000 
#    0.000    0.000    0.000    0.000    0.000    0.000 
#
# Total GULP energy -89115.259948 kJ/mol
# GULP energy per Si atom -5569.703747 kJ/mol
# Density = 2.155081 g / cm^3
# Si number density = 21.599968 Si / 1000 Ang^3
#
#
#
# Elastic Constant Matrix: (Units=GPa)
#
#
# Indices 1 2 3 4 5 6 
#
# 1 83.8278 13.4224 21.9807 -10.4283 21.0739 6.5548
# 2 13.4224 88.3236 21.1978 -8.8441 2.9438 -2.6323
# 3 21.9807 21.1978 112.4175 -12.7778 24.8328 -10.8908
# 4 -10.4283 -8.8441 -12.7778 38.1849 -1.3997 2.7987
# 5 21.0739 2.9438 24.8328 -1.3997 29.3255 -5.0678
# 6 6.5548 -2.6323 -10.8908 2.7987 -5.0678 29.5125
#
#
#
# Elastic Compliance Matrix: (Units=1/GPa)
#
#
# Indices 1 2 3 4 5 6 
#
# 1 0.016367 -0.001794 -0.000332 0.003964 -0.012216 -0.006391
# 2 -0.001794 0.012231 -0.002149 0.001635 0.002116 0.000904
# 3 -0.000332 -0.002149 0.011941 0.002894 -0.009096 0.002452
# 4 0.003964 0.001635 0.002894 0.028681 -0.004645 -0.003184
# 5 -0.012216 0.002116 -0.009096 -0.004645 0.051678 0.008860
# 6 -0.006391 0.000904 0.002452 -0.003184 0.008860 0.038113
#
#
# Mechanical properties :
#
#
# Convention : Reuss Voigt Hill
#
# Bulk Modulus (GPa) = 31.26150 44.19677 37.72913
# Shear Modulus (GPa) = 28.05445 34.60245 31.32845
#
# Velocity S-wave (km/s) = 3.60782 4.00680 3.81253
# Velocity P-wave (km/s) = 5.64443 6.47394 6.07336
#
# Compressibility (1/GPa) = 0.03198823
#
# Stress axis : x y z
#
# Youngs Moduli (GPa) = 61.09677 81.76190 83.74219
#
# Poissons Ratio (x) = 0.14668 0.02782
# Poissons Ratio (y) = 0.10961 0.18000
# Poissons Ratio (z) = 0.02029 0.17574
#
# Static dielectric constant tensor:
#      x y z
#    x 1.803400 0.009400 0.001240 
#    y 0.009400 1.914770 0.053810 
#    z 0.001240 0.053810 1.936210 
# 
# From -- ./inp_files/184396.got.cif
#   From: 2010.05.17/outbox.cif.g08.bks.cpg/sg2_93_cif.got.tgz:184396.got - 2010.06.03 11:33:40.
