data_PCOD9053406
_publ_section_title
;
Structure prediction by ZEFSAII (Michael W. Deem and Ramdas Pophale) SiO2 
 PCOD9053406
Probable space group: P -1
;
_chemical_formula_sum "Si O2"
_cell_formula_units_Z 13
_cell_length_a 18.792766
_cell_length_b 5.091566
_cell_length_c 5.062645
_cell_angle_alpha 86.176363
_cell_angle_beta 117.221489
_cell_angle_gamma 87.757959
_cell_volume 428.481279
_symmetry_space_group_name_H-M "P -1"
_symmetry_group_IT_number 2
_symmetry_cell_setting 'triclinic'
loop_
_space_group_symop_operation_xyz
x,y,z
-x,-y,-z
loop_
_atom_site_type_symbol
_atom_site_label
_atom_site_fract_x
_atom_site_fract_y
_atom_site_fract_z
Si Si1 0.711171 0.126318 0.143126
Si Si2 0.072559 0.510070 0.317250
Si Si3 0.856217 0.046913 0.239307
Si Si4 0.570337 0.798887 0.734414
Si Si5 0.784375 0.753776 0.675256
Si Si6 0.000000 0.000000 0.500000
Si Si7 0.383275 0.466817 0.671649
O O1 0.648772 0.962813 0.890055
O O2 0.802437 0.854269 0.982704
O O3 0.774013 0.286425 0.073284
O O4 0.655977 0.277255 0.261606
O O5 0.072838 0.769531 0.483735
O O6 0.155075 0.476730 0.305405
O O7 0.068662 0.236469 0.501378
O O8 0.000000 0.500000 0.000000
O O9 0.930574 0.052477 0.138257
O O10 0.791446 0.975558 0.434830
O O11 0.584575 0.555582 0.569103
O O12 0.500000 0.000000 0.500000
O O13 0.556443 0.685115 0.008689
O O14 0.693354 0.703015 0.470759
#
# Coordination Sequence:
#
# PCOD9053406 Si02
#       7
#     2   2   2   2   2   1   2
#     4  11  25  39  67  97 127 177 223 269 335 404
#     4  10  17  35  60  87 123 173 215 284 333 388
#     4  10  19  38  59  87 125 166 220 273 325 398
#     4  11  26  45  70 105 137 173 220 272 333 401
#     4  11  21  38  63  90 130 168 226 274 329 393
#     4   8  18  30  62  80 124 166 218 278 330 394
#     4  11  24  43  71  98 137 179 217 276 332 393
#
# _framework density 30.339714000000001
#
# number of rings (size 3 to 8) (size 9 to 14) (size 15 to 20)
#    0.923    0.615    4.615    0.462    2.154    1.231 
#    0.000    3.846    0.000    0.000    0.000    0.000 
#    0.000    0.000    0.000    0.000    0.000    0.000 
#
# Total GULP energy -72575.817121 kJ/mol
# GULP energy per Si atom -5582.755163 kJ/mol
# Density = 3.027066 g / cm^3
# Si number density = 30.339714 Si / 1000 Ang^3
#
#
#
# Elastic Constant Matrix: (Units=GPa)
#
#
# Indices 1 2 3 4 5 6 
#
# 1 197.2993 53.4363 62.7530 11.5022 31.7506 -0.8284
# 2 53.4363 191.8507 90.1523 29.9293 5.4080 -16.1389
# 3 62.7530 90.1523 225.1862 15.4933 12.0068 -13.2166
# 4 11.5022 29.9293 15.4933 58.7755 -15.8940 -5.5586
# 5 31.7506 5.4080 12.0068 -15.8940 59.9705 -1.3893
# 6 -0.8284 -16.1389 -13.2166 -5.5586 -1.3893 58.0854
#
#
#
# Elastic Compliance Matrix: (Units=1/GPa)
#
#
# Indices 1 2 3 4 5 6 
#
# 1 0.006323 -0.000963 -0.001133 -0.001438 -0.003430 -0.000655
# 2 -0.000963 0.007107 -0.002294 -0.002823 -0.000393 0.001160
# 3 -0.001133 -0.002294 0.005743 -0.000165 -0.000372 0.000629
# 4 -0.001438 -0.002823 -0.000165 0.020672 0.006557 0.001293
# 5 -0.003430 -0.000393 -0.000372 0.006557 0.020359 0.000872
# 6 -0.000655 0.001160 0.000629 0.001293 0.000872 0.017816
#
#
# Mechanical properties :
#
#
# Convention : Reuss Voigt Hill
#
# Bulk Modulus (GPa) = 96.21279 114.11327 105.16303
# Shear Modulus (GPa) = 55.39290 62.56593 58.97941
#
# Velocity S-wave (km/s) = 4.27752 4.54605 4.41383
# Velocity P-wave (km/s) = 7.49513 8.07768 7.79185
#
# Compressibility (1/GPa) = 0.01039363
#
# Stress axis : x y z
#
# Youngs Moduli (GPa) = 158.16202 140.69735 174.12437
#
# Poissons Ratio (x) = 0.13544 0.19731
# Poissons Ratio (y) = 0.15225 0.39943
# Poissons Ratio (z) = 0.17922 0.32275
#
# Static dielectric constant tensor:
#      x y z
#    x 2.541170 0.004110 -0.092050 
#    y 0.004110 2.625270 -0.157160 
#    z -0.092050 -0.157160 2.393320 
# 
# From -- ./inp_files/9394.got.cif
#   From: 2010.05.17/outbox.cif.g08.bks.cpg/sg2_5_cif.got.tgz:9394.got - 2010.06.03 11:33:40.
