data_PCOD9053855
_publ_section_title
;
Structure prediction by ZEFSAII (Michael W. Deem and Ramdas Pophale) SiO2 
 PCOD9053855
Probable space group: P -1
;
_chemical_formula_sum "Si O2"
_cell_formula_units_Z 16
_cell_length_a 19.076502
_cell_length_b 7.848284
_cell_length_c 16.114595
_cell_angle_alpha 134.045243
_cell_angle_beta 30.305059
_cell_angle_gamma 115.524223
_cell_volume 773.858552
_symmetry_space_group_name_H-M "P -1"
_symmetry_group_IT_number 2
_symmetry_cell_setting 'triclinic'
loop_
_space_group_symop_operation_xyz
x,y,z
-x,-y,-z
loop_
_atom_site_type_symbol
_atom_site_label
_atom_site_fract_x
_atom_site_fract_y
_atom_site_fract_z
Si Si1 0.694849 0.876417 0.318458
Si Si2 0.647056 0.696227 0.145983
Si Si3 0.184255 0.183691 0.117362
Si Si4 0.839107 0.781165 0.306229
Si Si5 0.187020 0.636498 0.895122
Si Si6 0.185268 0.878042 0.285037
Si Si7 0.318959 0.689173 0.264601
Si Si8 0.162574 0.360234 0.387121
O O1 0.733408 0.808075 0.159902
O O2 0.818115 0.865337 0.257872
O O3 0.681470 0.609237 0.270263
O O4 0.533884 0.143675 0.588061
O O5 0.674772 0.782001 0.055721
O O6 0.721015 0.376674 0.957175
O O7 0.175613 0.215268 0.235974
O O8 0.019084 0.428404 0.338923
O O9 0.202638 0.900938 0.972819
O O10 0.814057 0.517751 0.240867
O O11 0.711845 0.031898 0.568978
O O12 0.012086 0.717110 0.136649
O O13 0.225388 0.770135 0.300972
O O14 0.224443 0.121860 0.309664
O O15 0.000000 0.000000 0.500000
O O16 0.251634 0.536634 0.341223
O O17 0.500000 0.500000 0.000000
#
# Coordination Sequence:
#
# PCOD9053855 Si02
#       8
#     2   2   2   2   2   2   2   2
#     4   9  21  38  58  88 121 174 209 264 323 387
#     4  11  21  37  61  92 132 164 216 274 330 377
#     4  11  20  38  61  98 131 163 225 276 328 384
#     4   9  20  38  62  84 122 171 214 249 331 389
#     4   9  19  36  62  83 116 171 209 265 310 393
#     4  12  24  40  69 101 129 176 224 276 329 390
#     4  12  25  44  69  95 139 177 215 275 341 398
#     4  11  23  39  64 100 133 169 221 280 323 394
#
# _framework density 20.675613999999999
#
# number of rings (size 3 to 8) (size 9 to 14) (size 15 to 20)
#    0.750    0.750    3.750    2.250    1.750    1.000 
#    0.000    4.375    0.000    0.000    0.000    0.000 
#    0.000    0.000    0.000    0.000    0.000    0.000 
#
# Total GULP energy -89125.595779 kJ/mol
# GULP energy per Si atom -5570.349736 kJ/mol
# Density = 2.062856 g / cm^3
# Si number density = 20.675614 Si / 1000 Ang^3
#
#
#
# Elastic Constant Matrix: (Units=GPa)
#
#
# Indices 1 2 3 4 5 6 
#
# 1 48.0311 -4.8798 15.6749 6.3092 -2.0919 -3.3584
# 2 -4.8798 72.4453 26.4220 26.2043 7.8968 -0.5471
# 3 15.6749 26.4220 122.1530 34.9462 6.7260 2.0471
# 4 6.3092 26.2043 34.9462 34.9513 5.5816 6.3160
# 5 -2.0919 7.8968 6.7260 5.5816 31.5917 7.1001
# 6 -3.3584 -0.5471 2.0471 6.3160 7.1001 22.4234
#
#
#
# Elastic Compliance Matrix: (Units=1/GPa)
#
#
# Indices 1 2 3 4 5 6 
#
# 1 0.023322 0.004742 -0.002262 -0.006611 0.000789 0.005427
# 2 0.004742 0.020756 -0.000169 -0.016983 -0.003434 0.007103
# 3 -0.002262 -0.000169 0.011830 -0.011511 -0.001078 0.002161
# 4 -0.006611 -0.016983 -0.011511 0.057027 -0.000138 -0.016373
# 5 0.000789 -0.003434 -0.001078 -0.000138 0.035291 -0.011003
# 6 0.005427 0.007103 0.002161 -0.016373 -0.011003 0.053481
#
#
# Mechanical properties :
#
#
# Convention : Reuss Voigt Hill
#
# Bulk Modulus (GPa) = 16.52100 35.22930 25.87515
# Shear Modulus (GPa) = 23.01380 31.48743 27.25062
#
# Velocity S-wave (km/s) = 3.33992 3.90670 3.63438
# Velocity P-wave (km/s) = 4.78344 6.11766 5.49123
#
# Compressibility (1/GPa) = 0.06052901
#
# Stress axis : x y z
#
# Youngs Moduli (GPa) = 42.87823 48.17970 84.53405
#
# Poissons Ratio (x) = -0.22846 0.19118
# Poissons Ratio (y) = -0.20332 0.01431
# Poissons Ratio (z) = 0.09697 0.00816
#
# Static dielectric constant tensor:
#      x y z
#    x 1.817270 0.004120 0.022600 
#    y 0.004120 1.750440 0.012120 
#    z 0.022600 0.012120 1.737700 
# 
# From -- ./inp_files/577152.got.cif
#   From: 2010.05.17/outbox.cif.g08.bks.cpg/sg2_289_cif.got.tgz:577152.got - 2010.06.03 11:33:40.
