data_PCOD9053267
_publ_section_title
;
Structure prediction by ZEFSAII (Michael W. Deem and Ramdas Pophale) SiO2 
 PCOD9053267
Probable space group: P -1
;
_chemical_formula_sum "Si O2"
_cell_formula_units_Z 14
_cell_length_a 18.506649
_cell_length_b 8.272659
_cell_length_c 10.872047
_cell_angle_alpha 133.034027
_cell_angle_beta 43.881646
_cell_angle_gamma 148.763692
_cell_volume 588.099414
_symmetry_space_group_name_H-M "P -1"
_symmetry_group_IT_number 2
_symmetry_cell_setting 'triclinic'
loop_
_space_group_symop_operation_xyz
x,y,z
-x,-y,-z
loop_
_atom_site_type_symbol
_atom_site_label
_atom_site_fract_x
_atom_site_fract_y
_atom_site_fract_z
Si Si1 0.387804 0.200111 0.766372
Si Si2 0.220158 0.339394 0.679805
Si Si3 0.063272 0.803516 0.009154
Si Si4 0.796114 0.418327 0.669204
Si Si5 0.034293 0.712311 0.706889
Si Si6 0.517338 0.310761 0.294896
Si Si7 0.337359 0.636643 0.422254
O O1 0.445429 0.506593 0.783466
O O2 0.509601 0.263725 0.733801
O O3 0.240318 0.057550 0.941755
O O4 0.351170 0.927132 0.579832
O O5 0.345085 0.609716 0.765671
O O6 0.281646 0.455315 0.527032
O O7 0.174455 0.033699 0.631054
O O8 0.057207 0.200115 0.805226
O O9 0.048152 0.770686 0.863534
O O10 0.000000 0.500000 0.000000
O O11 0.877099 0.571414 0.779927
O O12 0.761158 0.542401 0.670868
O O13 0.931811 0.488885 0.472076
O O14 0.634139 0.062233 0.711563
O O15 0.500000 0.500000 0.500000
#
# Coordination Sequence:
#
# PCOD9053267 Si02
#       7
#     2   2   2   2   2   2   2
#     4  11  20  34  61  91 117 145 213 247 291 336
#     4  12  22  36  66  89 122 156 209 243 297 358
#     4  12  23  40  62  91 121 157 201 253 297 364
#     4  11  22  38  62  89 130 150 203 251 299 356
#     4  11  23  40  58  93 123 163 190 252 311 348
#     4  12  18  36  62  92 114 159 207 248 286 355
#     4  11  19  35  60  96 113 156 198 257 289 345
#
# _framework density 23.805498
#
# number of rings (size 3 to 8) (size 9 to 14) (size 15 to 20)
#    0.000    0.571    8.571    1.286    0.000    0.571 
#    0.000    2.143    0.000    1.714    0.000    0.000 
#    0.000    0.000    0.000    0.000    0.000    0.000 
#
# Total GULP energy -78043.014674 kJ/mol
# GULP energy per Si atom -5574.501048 kJ/mol
# Density = 2.375132 g / cm^3
# Si number density = 23.805498 Si / 1000 Ang^3
#
#
#
# Elastic Constant Matrix: (Units=GPa)
#
#
# Indices 1 2 3 4 5 6 
#
# 1 170.3291 50.5372 35.8232 -24.6151 -5.2069 20.4879
# 2 50.5372 92.9099 17.3572 -28.8663 14.8436 10.4946
# 3 35.8232 17.3572 49.0910 -20.9663 -16.4755 11.1421
# 4 -24.6151 -28.8663 -20.9663 30.6381 4.4901 -4.7250
# 5 -5.2069 14.8436 -16.4755 4.4901 37.8710 -25.4980
# 6 20.4879 10.4946 11.1421 -4.7250 -25.4980 46.6411
#
#
#
# Elastic Compliance Matrix: (Units=1/GPa)
#
#
# Indices 1 2 3 4 5 6 
#
# 1 0.008001 -0.002774 -0.004598 0.000503 -0.001653 -0.002645
# 2 -0.002774 0.024175 -0.002390 0.020078 -0.022732 -0.014043
# 3 -0.004598 -0.002390 0.036793 0.017437 0.017782 0.005256
# 4 0.000503 0.020078 0.017437 0.064458 -0.014963 -0.010554
# 5 -0.001653 -0.022732 0.017782 -0.014963 0.070657 0.038704
# 6 -0.002645 -0.014043 0.005256 -0.010554 0.038704 0.044596
#
#
# Mechanical properties :
#
#
# Convention : Reuss Voigt Hill
#
# Bulk Modulus (GPa) = 20.22439 57.75169 38.98804
# Shear Modulus (GPa) = 17.56330 36.93753 27.25041
#
# Velocity S-wave (km/s) = 2.71916 3.94336 3.38703
# Velocity P-wave (km/s) = 4.28633 6.71162 5.63110
#
# Compressibility (1/GPa) = 0.04944525
#
# Stress axis : x y z
#
# Youngs Moduli (GPa) = 124.97878 41.36582 27.17937
#
# Poissons Ratio (x) = 0.11476 0.12496
# Poissons Ratio (y) = 0.34672 0.06495
# Poissons Ratio (z) = 0.57462 0.09885
#
# Static dielectric constant tensor:
#      x y z
#    x 1.922410 -0.012430 -0.071870 
#    y -0.012430 2.081590 0.145340 
#    z -0.071870 0.145340 1.992140 
# 
# From -- ./inp_files/238015.got.cif
#   From: 2010.05.17/outbox.cif.g08.bks.cpg/sg2_120_cif.got.tgz:238015.got - 2010.06.03 11:33:40.
