data_PCOD9053407
_publ_section_title
;
Structure prediction by ZEFSAII (Michael W. Deem and Ramdas Pophale) SiO2 
 PCOD9053407
Probable space group: P -1
;
_chemical_formula_sum "Si O2"
_cell_formula_units_Z 16
_cell_length_a 18.770111
_cell_length_b 11.910238
_cell_length_c 15.861107
_cell_angle_alpha 42.156257
_cell_angle_beta 21.688605
_cell_angle_gamma 30.449507
_cell_volume 629.411877
_symmetry_space_group_name_H-M "P -1"
_symmetry_group_IT_number 2
_symmetry_cell_setting 'triclinic'
loop_
_space_group_symop_operation_xyz
x,y,z
-x,-y,-z
loop_
_atom_site_type_symbol
_atom_site_label
_atom_site_fract_x
_atom_site_fract_y
_atom_site_fract_z
Si Si1 0.623436 0.938749 0.522419
Si Si2 0.276655 0.219936 0.064037
Si Si3 0.323344 0.433584 0.400454
Si Si4 0.791635 0.386782 0.910164
Si Si5 0.395437 0.724919 0.397942
Si Si6 0.490923 0.151213 0.123178
Si Si7 0.136271 0.771134 0.271762
Si Si8 0.725147 0.574398 0.291094
O O1 0.548065 0.826898 0.609502
O O2 0.631392 0.864050 0.652203
O O3 0.931310 0.797006 0.242120
O O4 0.419492 0.216803 0.598617
O O5 0.965994 0.394009 0.332581
O O6 0.366309 0.358540 0.878417
O O7 0.500000 0.000000 0.000000
O O8 0.333060 0.088052 0.988515
O O9 0.246969 0.549498 0.326477
O O10 0.537843 0.437799 0.196089
O O11 0.713739 0.625455 0.838233
O O12 0.847851 0.268838 0.822300
O O13 0.523036 0.668665 0.381737
O O14 0.262534 0.626207 0.581952
O O15 0.161083 0.004474 0.495717
O O16 0.684600 0.179399 0.927743
O O17 0.000000 0.500000 0.000000
#
# Coordination Sequence:
#
# PCOD9053407 Si02
#       8
#     2   2   2   2   2   2   2   2
#     4  12  21  40  67  93 124 169 222 274 327 375
#     4  12  24  43  62  98 144 179 209 263 333 403
#     4  11  24  38  61  99 137 170 211 265 331 398
#     4  11  21  34  61  97 133 167 213 270 327 385
#     4  11  24  42  66  97 135 169 218 278 322 383
#     4  11  21  36  64  94 135 178 211 261 330 393
#     4  11  19  39  63  97 133 166 215 273 324 389
#     4  11  25  43  70  99 122 171 231 281 318 369
#
# _framework density 25.420556000000001
#
# number of rings (size 3 to 8) (size 9 to 14) (size 15 to 20)
#    0.000    0.750    6.250    2.625    0.000    2.000 
#    2.250    0.625    0.000    1.500    0.000    0.000 
#    0.000    0.000    0.000    0.000    0.000    0.000 
#
# Total GULP energy -89641.173518 kJ/mol
# GULP energy per Si atom -5602.573345 kJ/mol
# Density = 2.536270 g / cm^3
# Si number density = 25.420556 Si / 1000 Ang^3
#
#
#
# Elastic Constant Matrix: (Units=GPa)
#
#
# Indices 1 2 3 4 5 6 
#
# 1 61.6649 22.9237 19.1926 -3.7753 -10.8206 19.4318
# 2 22.9237 139.0584 42.6328 -2.8851 1.0210 31.5748
# 3 19.1926 42.6328 177.1193 6.6277 -5.0372 23.2549
# 4 -3.7753 -2.8851 6.6277 42.3036 3.9545 -5.2942
# 5 -10.8206 1.0210 -5.0372 3.9545 34.2830 1.2905
# 6 19.4318 31.5748 23.2549 -5.2942 1.2905 40.6773
#
#
#
# Elastic Compliance Matrix: (Units=1/GPa)
#
#
# Indices 1 2 3 4 5 6 
#
# 1 0.020878 -0.001303 -0.000600 0.000123 0.006858 -0.008821
# 2 -0.001303 0.009104 -0.001329 0.000068 -0.000673 -0.005654
# 3 -0.000600 -0.001329 0.006465 -0.001586 0.001081 -0.002618
# 4 0.000123 0.000068 -0.001586 0.024717 -0.003202 0.004113
# 5 0.006858 -0.000673 0.001081 -0.003202 0.032063 -0.004806
# 6 -0.008821 -0.005654 -0.002618 0.004113 -0.004806 0.035371
#
#
# Mechanical properties :
#
#
# Convention : Reuss Voigt Hill
#
# Bulk Modulus (GPa) = 33.35318 60.81564 47.08441
# Shear Modulus (GPa) = 34.46943 42.99234 38.73089
#
# Velocity S-wave (km/s) = 3.68634 4.11693 3.90757
# Velocity P-wave (km/s) = 5.59177 6.82456 6.23869
#
# Compressibility (1/GPa) = 0.02998215
#
# Stress axis : x y z
#
# Youngs Moduli (GPa) = 47.89637 109.84531 154.68469
#
# Poissons Ratio (x) = 0.14309 0.09285
# Poissons Ratio (y) = 0.06239 0.20565
# Poissons Ratio (z) = 0.02875 0.14603
#
# Static dielectric constant tensor:
#      x y z
#    x 2.057930 -0.034090 0.027120 
#    y -0.034090 2.004630 -0.020300 
#    z 0.027120 -0.020300 1.990470 
# 
# From -- ./inp_files/451304.got.cif
#   From: 2010.05.17/outbox.cif.g08.bks.cpg/sg2_226_cif.got.tgz:451304.got - 2010.06.03 11:33:40.
