data_PCOD9053854
_publ_section_title
;
Structure prediction by ZEFSAII (Michael W. Deem and Ramdas Pophale) SiO2 
 PCOD9053854
Probable space group: P -1
;
_chemical_formula_sum "Si O2"
_cell_formula_units_Z 11
_cell_length_a 7.401180
_cell_length_b 11.733656
_cell_length_c 5.510745
_cell_angle_alpha 104.564929
_cell_angle_beta 90.725354
_cell_angle_gamma 124.313854
_cell_volume 375.371170
_symmetry_space_group_name_H-M "P -1"
_symmetry_group_IT_number 2
_symmetry_cell_setting 'triclinic'
loop_
_space_group_symop_operation_xyz
x,y,z
-x,-y,-z
loop_
_atom_site_type_symbol
_atom_site_label
_atom_site_fract_x
_atom_site_fract_y
_atom_site_fract_z
Si Si1 0.280181 0.761229 0.085255
Si Si2 0.275772 0.812112 0.614301
Si Si3 0.821039 0.505554 0.322063
Si Si4 0.500000 0.500000 0.500000
Si Si5 0.789938 0.691204 0.060217
Si Si6 0.131959 0.027437 0.764698
O O1 0.402502 0.839604 0.881199
O O2 0.195773 0.597244 0.941792
O O3 0.053246 0.755576 0.094749
O O4 0.397169 0.835524 0.377076
O O5 0.060446 0.638075 0.498451
O O6 0.191437 0.913141 0.688269
O O7 0.621872 0.413143 0.455518
O O8 0.713960 0.588022 0.246674
O O9 0.696978 0.617037 0.762499
O O10 0.715765 0.796879 0.144298
O O11 0.000000 0.000000 0.500000
O O12 0.000000 0.000000 0.000000
#
# Coordination Sequence:
#
# PCOD9053854 Si02
#       6
#     2   2   2   1   2   2
#     4  11  22  37  65  92 121 152 212 255 308 347
#     4  11  20  38  61  97 115 156 201 262 304 350
#     4  11  23  38  61  92 121 162 203 258 306 361
#     4  12  24  40  58  88 136 162 204 240 318 378
#     4  11  23  39  61  96 121 165 201 255 310 364
#     4  12  20  37  63  93 125 154 205 260 303 358
#
# _framework density 29.304326
#
# number of rings (size 3 to 8) (size 9 to 14) (size 15 to 20)
#    0.000    0.727    7.273    3.273    2.545    0.000 
#    0.000    0.000    0.000    2.182    0.000    0.000 
#    0.000    0.000    0.000    0.000    0.000    0.000 
#
# Total GULP energy -61354.890942 kJ/mol
# GULP energy per Si atom -5577.717358 kJ/mol
# Density = 2.923763 g / cm^3
# Si number density = 29.304326 Si / 1000 Ang^3
#
#
#
# Elastic Constant Matrix: (Units=GPa)
#
#
# Indices 1 2 3 4 5 6 
#
# 1 96.5784 -0.8342 11.6875 0.2043 -29.4690 -3.2627
# 2 -0.8342 77.4619 31.8044 6.0916 -12.5429 -14.1478
# 3 11.6875 31.8044 236.8095 -12.7526 -30.8413 -10.9316
# 4 0.2043 6.0916 -12.7526 54.5592 -18.5988 2.8228
# 5 -29.4690 -12.5429 -30.8413 -18.5988 58.5289 16.1319
# 6 -3.2627 -14.1478 -10.9316 2.8228 16.1319 48.1848
#
#
#
# Elastic Compliance Matrix: (Units=1/GPa)
#
#
# Indices 1 2 3 4 5 6 
#
# 1 0.012739 0.000755 0.000407 0.002836 0.008166 -0.001724
# 2 0.000755 0.014649 -0.001818 -0.001948 0.000909 0.003750
# 3 0.000407 -0.001818 0.005006 0.002587 0.003463 -0.000682
# 4 0.002836 -0.001948 0.002587 0.023167 0.011075 -0.004858
# 5 0.008166 0.000909 0.003463 0.011075 0.029163 -0.008807
# 6 -0.001724 0.003750 -0.000682 -0.004858 -0.008807 0.024816
#
#
# Mechanical properties :
#
#
# Convention : Reuss Voigt Hill
#
# Bulk Modulus (GPa) = 32.17417 55.12945 43.65181
# Shear Modulus (GPa) = 41.24917 56.80072 49.02494
#
# Velocity S-wave (km/s) = 3.75589 4.40739 4.09462
# Velocity P-wave (km/s) = 5.46004 6.68982 6.10597
#
# Compressibility (1/GPa) = 0.03108083
#
# Stress axis : x y z
#
# Youngs Moduli (GPa) = 78.49785 68.26235 199.76947
#
# Poissons Ratio (x) = -0.05152 -0.08124
# Poissons Ratio (y) = -0.05924 0.36320
# Poissons Ratio (z) = -0.03192 0.12411
#
# Static dielectric constant tensor:
#      x y z
#    x 1.757590 -0.513660 0.708360 
#    y -0.513660 2.179770 0.467360 
#    z 0.708360 0.467360 1.249820 
# 
# From -- ./inp_files/20967.got.cif
#   From: 2010.05.17/outbox.cif.g08.bks.cpg/sg2_11_cif.got.tgz:20967.got - 2010.06.03 11:33:40.
