data_PCOD9053365
_publ_section_title
;
Structure prediction by ZEFSAII (Michael W. Deem and Ramdas Pophale) SiO2 
 PCOD9053365
Probable space group: P -1
;
_chemical_formula_sum "Si O2"
_cell_formula_units_Z 14
_cell_length_a 5.501402
_cell_length_b 14.397497
_cell_length_c 15.070598
_cell_angle_alpha 143.129745
_cell_angle_beta 113.773276
_cell_angle_gamma 51.818382
_cell_volume 552.313698
_symmetry_space_group_name_H-M "P -1"
_symmetry_group_IT_number 2
_symmetry_cell_setting 'triclinic'
loop_
_space_group_symop_operation_xyz
x,y,z
-x,-y,-z
loop_
_atom_site_type_symbol
_atom_site_label
_atom_site_fract_x
_atom_site_fract_y
_atom_site_fract_z
Si Si1 0.468662 0.864167 0.455421
Si Si2 0.972309 0.228536 0.752394
Si Si3 0.743602 0.515671 0.795843
Si Si4 0.037891 0.721936 0.896776
Si Si5 0.773491 0.971602 0.203375
Si Si6 0.104791 0.731418 0.526669
Si Si7 0.946750 0.699009 0.658491
O O1 0.363937 0.745109 0.296641
O O2 0.782512 0.743641 0.465558
O O3 0.500000 0.000000 0.500000
O O4 0.205559 0.016168 0.596913
O O5 0.979357 0.367311 0.790442
O O6 0.081114 0.214714 0.858691
O O7 0.412582 0.641513 0.894437
O O8 0.681339 0.403164 0.623638
O O9 0.889090 0.615515 0.840804
O O10 0.987466 0.728775 0.789425
O O11 0.853995 0.913774 0.068898
O O12 0.955763 0.067934 0.335245
O O13 0.405795 0.125614 0.279403
O O14 0.180290 0.690929 0.610561
O O15 0.000000 0.500000 0.500000
#
# Coordination Sequence:
#
# PCOD9053365 Si02
#       7
#     2   2   2   2   2   2   2
#     4  11  19  37  68 111 148 186 242 319 367 436
#     4  11  23  40  73 109 155 193 250 307 381 448
#     4  12  27  49  77 112 152 205 250 313 368 453
#     4  12  31  51  74 111 162 200 254 307 380 452
#     4  12  28  47  74 115 150 203 246 316 384 451
#     4  12  24  43  81 109 147 193 262 309 380 436
#     4  12  27  49  80 109 147 200 259 317 370 447
#
# _framework density 25.347911
#
# number of rings (size 3 to 8) (size 9 to 14) (size 15 to 20)
#    0.000    0.286    5.714    3.000    4.000    2.857 
#    0.000    0.000    0.000    0.000    0.000    0.000 
#    0.000    0.000    0.000    0.000    0.000    0.000 
#
# Total GULP energy -78206.564625 kJ/mol
# GULP energy per Si atom -5586.183187 kJ/mol
# Density = 2.529022 g / cm^3
# Si number density = 25.347911 Si / 1000 Ang^3
#
#
#
# Elastic Constant Matrix: (Units=GPa)
#
#
# Indices 1 2 3 4 5 6 
#
# 1 92.6249 36.2749 19.9346 4.6655 -12.8230 9.8007
# 2 36.2749 114.6087 20.2332 -18.8620 -10.9794 15.6104
# 3 19.9346 20.2332 125.1158 -11.8061 -28.5250 1.6884
# 4 4.6655 -18.8620 -11.8061 39.0229 4.5800 -11.1794
# 5 -12.8230 -10.9794 -28.5250 4.5800 37.8369 -0.8739
# 6 9.8007 15.6104 1.6884 -11.1794 -0.8739 54.6005
#
#
#
# Elastic Compliance Matrix: (Units=1/GPa)
#
#
# Indices 1 2 3 4 5 6 
#
# 1 0.013673 -0.004365 -0.001240 -0.005091 0.002999 -0.002162
# 2 -0.004365 0.011327 -0.000426 0.005394 0.000803 -0.001324
# 3 -0.001240 -0.000426 0.010008 0.002359 0.006729 0.000626
# 4 -0.005091 0.005394 0.002359 0.031430 -0.002054 0.005701
# 5 0.002999 0.000803 0.006729 -0.002054 0.032980 -0.000869
# 6 -0.002162 -0.001324 0.000626 0.005701 -0.000869 0.020216
#
#
# Mechanical properties :
#
#
# Convention : Reuss Voigt Hill
#
# Bulk Modulus (GPa) = 43.58300 53.91497 48.74898
# Shear Modulus (GPa) = 35.88219 43.35251 39.61735
#
# Velocity S-wave (km/s) = 3.76651 4.14006 3.95770
# Velocity P-wave (km/s) = 6.01221 6.64603 6.33705
#
# Compressibility (1/GPa) = 0.02294473
#
# Stress axis : x y z
#
# Youngs Moduli (GPa) = 73.13746 88.28317 99.92414
#
# Poissons Ratio (x) = 0.38533 0.12393
# Poissons Ratio (y) = 0.31923 0.04262
# Poissons Ratio (z) = 0.09071 0.03765
#
# Static dielectric constant tensor:
#      x y z
#    x 2.098690 -0.003410 -0.019250 
#    y -0.003410 2.142920 -0.039960 
#    z -0.019250 -0.039960 1.998880 
# 
# From -- ./inp_files/97645.got.cif
#   From: 2010.05.17/outbox.cif.g08.bks.cpg/sg2_49_cif.got.tgz:97645.got - 2010.06.03 11:33:40.
