data_PCOD9053451
_publ_section_title
;
Structure prediction by ZEFSAII (Michael W. Deem and Ramdas Pophale) SiO2 
 PCOD9053451
Probable space group: P -1
;
_chemical_formula_sum "Si O2"
_cell_formula_units_Z 16
_cell_length_a 14.462280
_cell_length_b 13.356696
_cell_length_c 6.496312
_cell_angle_alpha 106.422100
_cell_angle_beta 125.087282
_cell_angle_gamma 39.395453
_cell_volume 619.390497
_symmetry_space_group_name_H-M "P -1"
_symmetry_group_IT_number 2
_symmetry_cell_setting 'triclinic'
loop_
_space_group_symop_operation_xyz
x,y,z
-x,-y,-z
loop_
_atom_site_type_symbol
_atom_site_label
_atom_site_fract_x
_atom_site_fract_y
_atom_site_fract_z
Si Si1 0.149328 0.688233 0.815716
Si Si2 0.358636 0.508906 0.605370
Si Si3 0.690279 0.822700 0.060677
Si Si4 0.130436 0.000875 0.613426
Si Si5 0.092217 0.298257 0.332900
Si Si6 0.678051 0.009462 0.823010
Si Si7 0.722803 0.660957 0.651300
Si Si8 0.720236 0.247075 0.670473
O O1 0.333347 0.550524 0.840240
O O2 0.099431 0.619085 0.832137
O O3 0.145621 0.789965 0.023099
O O4 0.998648 0.814842 0.523295
O O5 0.244482 0.484729 0.416406
O O6 0.551156 0.345244 0.657213
O O7 0.305522 0.645838 0.476835
O O8 0.831346 0.718479 0.362172
O O9 0.684377 0.719320 0.870680
O O10 0.500000 0.000000 0.000000
O O11 0.725919 0.883101 0.968962
O O12 0.239886 0.883726 0.486799
O O13 0.242365 0.949140 0.929167
O O14 0.000000 0.000000 0.500000
O O15 0.124553 0.373117 0.267810
O O16 0.219230 0.109247 0.313189
O O17 0.465588 0.174139 0.609966
#
# Coordination Sequence:
#
# PCOD9053451 Si02
#       8
#     2   2   2   2   2   2   2   2
#     4  12  26  47  72 101 143 181 230 289 353 404
#     4  11  28  48  68 102 138 190 231 281 339 429
#     4  11  19  40  64 102 140 174 227 284 342 403
#     4  12  25  43  74 107 135 178 233 293 343 400
#     4  11  23  41  70 104 141 178 222 296 343 405
#     4  11  23  39  67 107 141 172 234 284 346 408
#     4  11  25  40  70 103 142 184 230 277 345 419
#     4  11  27  50  72  98 142 184 234 288 342 407
#
# _framework density 25.831845999999999
#
# number of rings (size 3 to 8) (size 9 to 14) (size 15 to 20)
#    0.000    0.750    5.000    2.250    5.250    3.500 
#    0.000    1.250    0.000    0.000    0.000    0.000 
#    0.000    0.000    0.000    0.000    0.000    0.000 
#
# Total GULP energy -89570.328944 kJ/mol
# GULP energy per Si atom -5598.145559 kJ/mol
# Density = 2.577305 g / cm^3
# Si number density = 25.831846 Si / 1000 Ang^3
#
#
#
# Elastic Constant Matrix: (Units=GPa)
#
#
# Indices 1 2 3 4 5 6 
#
# 1 145.9430 35.9422 16.0480 4.0448 2.5992 3.3191
# 2 35.9422 97.6600 35.0152 20.9062 -1.4793 -4.2592
# 3 16.0480 35.0152 135.6018 25.3590 6.8061 -5.5050
# 4 4.0448 20.9062 25.3590 44.0217 8.6905 -6.0176
# 5 2.5992 -1.4793 6.8061 8.6905 32.2695 1.9711
# 6 3.3191 -4.2592 -5.5050 -6.0176 1.9711 41.9020
#
#
#
# Elastic Compliance Matrix: (Units=1/GPa)
#
#
# Indices 1 2 3 4 5 6 
#
# 1 0.007617 -0.002943 -0.000304 0.000945 -0.000892 -0.000765
# 2 -0.002943 0.013302 -0.002225 -0.005242 0.002703 0.000413
# 3 -0.000304 -0.002225 0.008744 -0.003701 -0.000953 0.000460
# 4 0.000945 -0.005242 -0.003701 0.029228 -0.007619 0.003462
# 5 -0.000892 0.002703 -0.000953 -0.007619 0.033587 -0.002454
# 6 -0.000765 0.000413 0.000460 0.003462 -0.002454 0.024641
#
#
# Mechanical properties :
#
#
# Convention : Reuss Voigt Hill
#
# Bulk Modulus (GPa) = 53.42679 61.46841 57.44760
# Shear Modulus (GPa) = 37.22888 43.11860 40.17374
#
# Velocity S-wave (km/s) = 3.80043 4.09002 3.94788
# Velocity P-wave (km/s) = 6.32338 6.79350 6.56265
#
# Compressibility (1/GPa) = 0.01871720
#
# Stress axis : x y z
#
# Youngs Moduli (GPa) = 131.27722 75.17789 114.36688
#
# Poissons Ratio (x) = 0.22129 0.03481
# Poissons Ratio (y) = 0.38641 0.25447
# Poissons Ratio (z) = 0.03996 0.16727
#
# Static dielectric constant tensor:
#      x y z
#    x 2.107070 -0.039040 -0.031520 
#    y -0.039040 2.111340 0.060260 
#    z -0.031520 0.060260 2.046500 
# 
# From -- ./inp_files/98523.got.cif
#   From: 2010.05.17/outbox.cif.g08.bks.cpg/sg2_50_cif.got.tgz:98523.got - 2010.06.03 11:33:40.
