data_PCOD9053173
_publ_section_title
;
Structure prediction by ZEFSAII (Michael W. Deem and Ramdas Pophale) SiO2 
 PCOD9053173
Probable space group: P -1
;
_chemical_formula_sum "Si O2"
_cell_formula_units_Z 14
_cell_length_a 9.718501
_cell_length_b 11.800319
_cell_length_c 22.413971
_cell_angle_alpha 151.376832
_cell_angle_beta 153.277275
_cell_angle_gamma 34.627856
_cell_volume 544.648120
_symmetry_space_group_name_H-M "P -1"
_symmetry_group_IT_number 2
_symmetry_cell_setting 'triclinic'
loop_
_space_group_symop_operation_xyz
x,y,z
-x,-y,-z
loop_
_atom_site_type_symbol
_atom_site_label
_atom_site_fract_x
_atom_site_fract_y
_atom_site_fract_z
Si Si1 0.979052 0.679056 0.401428
Si Si2 0.513156 0.591105 0.882057
Si Si3 0.403649 0.631356 0.644308
Si Si4 0.012173 0.821086 0.867791
Si Si5 0.406919 0.079994 0.360744
Si Si6 0.851401 0.006731 0.659588
Si Si7 0.106654 0.456102 0.110119
O O1 0.294701 0.711299 0.571289
O O2 0.753580 0.928823 0.418513
O O3 0.763636 0.554533 0.307101
O O4 0.006766 0.466906 0.264287
O O5 0.336017 0.812123 0.953349
O O6 0.751475 0.439446 0.951387
O O7 0.686114 0.641076 0.912482
O O8 0.414344 0.346572 0.511004
O O9 0.717872 0.643133 0.808090
O O10 0.119213 0.786618 0.643171
O O11 0.750582 0.909650 0.759244
O O12 0.000000 0.000000 0.000000
O O13 0.187133 0.986172 0.281125
O O14 0.916605 0.254424 0.771626
O O15 0.500000 0.000000 0.500000
#
# Coordination Sequence:
#
# PCOD9053173 Si02
#       7
#     2   2   2   2   2   2   2
#     4   9  19  35  52  79 106 135 188 218 259 319
#     4   9  20  37  49  79 115 142 178 215 268 331
#     4  11  20  30  52  78 107 146 179 215 259 318
#     4   9  20  37  57  77 103 141 188 230 263 307
#     4  11  19  32  55  78 107 135 185 229 256 311
#     4  12  19  29  51  82 110 146 178 210 264 328
#     4  11  20  34  51  78 123 146 164 215 274 330
#
# _framework density 25.70467
#
# number of rings (size 3 to 8) (size 9 to 14) (size 15 to 20)
#    0.857    0.857    4.286    1.286    0.000    0.571 
#    2.571    2.143    0.000    3.429    0.000    6.000 
#    0.000    0.000    0.000    0.000    0.000    0.000 
#
# Total GULP energy -78186.030244 kJ/mol
# GULP energy per Si atom -5584.716446 kJ/mol
# Density = 2.564617 g / cm^3
# Si number density = 25.704670 Si / 1000 Ang^3
#
#
#
# Elastic Constant Matrix: (Units=GPa)
#
#
# Indices 1 2 3 4 5 6 
#
# 1 74.3968 44.3928 42.0807 -4.6838 -7.6018 -16.0822
# 2 44.3928 203.5030 89.3477 13.0720 -24.0332 -19.5136
# 3 42.0807 89.3477 156.9444 -5.1154 -34.3271 -14.4099
# 4 -4.6838 13.0720 -5.1154 50.9594 -10.0378 2.6628
# 5 -7.6018 -24.0332 -34.3271 -10.0378 32.9196 10.9014
# 6 -16.0822 -19.5136 -14.4099 2.6628 10.9014 20.8138
#
#
#
# Elastic Compliance Matrix: (Units=1/GPa)
#
#
# Indices 1 2 3 4 5 6 
#
# 1 0.019096 -0.001746 -0.004125 0.000016 -0.005516 0.013149
# 2 -0.001746 0.007338 -0.003666 -0.002813 -0.001012 0.003882
# 3 -0.004125 -0.003666 0.011788 0.004313 0.011677 -0.005130
# 4 0.000016 -0.002813 0.004313 0.023794 0.012813 -0.009395
# 5 -0.005516 -0.001012 0.011677 0.012813 0.053281 -0.026672
# 6 0.013149 0.003882 -0.005130 -0.009395 -0.026672 0.073464
#
#
# Mechanical properties :
#
#
# Convention : Reuss Voigt Hill
#
# Bulk Modulus (GPa) = 52.22268 87.38740 69.80504
# Shear Modulus (GPa) = 23.34080 38.20676 30.77378
#
# Velocity S-wave (km/s) = 3.01664 3.85953 3.46382
# Velocity P-wave (km/s) = 5.70035 7.34383 6.57365
#
# Compressibility (1/GPa) = 0.01914877
#
# Stress axis : x y z
#
# Youngs Moduli (GPa) = 52.36616 136.28214 84.83148
#
# Poissons Ratio (x) = 0.23800 0.34990
# Poissons Ratio (y) = 0.09145 0.31096
# Poissons Ratio (z) = 0.21599 0.49957
#
# Static dielectric constant tensor:
#      x y z
#    x 2.066310 0.040620 0.003000 
#    y 0.040620 2.071120 0.025050 
#    z 0.003000 0.025050 2.049630 
# 
# From -- ./inp_files/595408.got.cif
#   From: 2010.05.17/outbox.cif.g08.bks.cpg/sg2_298_cif.got.tgz:595408.got - 2010.06.03 11:33:40.
