data_PCOD9053418
_publ_section_title
;
Structure prediction by ZEFSAII (Michael W. Deem and Ramdas Pophale) SiO2 
 PCOD9053418
Probable space group: P -1
;
_chemical_formula_sum "Si O2"
_cell_formula_units_Z 16
_cell_length_a 9.193194
_cell_length_b 13.728121
_cell_length_c 11.633864
_cell_angle_alpha 148.469022
_cell_angle_beta 65.169326
_cell_angle_gamma 102.776979
_cell_volume 667.287393
_symmetry_space_group_name_H-M "P -1"
_symmetry_group_IT_number 2
_symmetry_cell_setting 'triclinic'
loop_
_space_group_symop_operation_xyz
x,y,z
-x,-y,-z
loop_
_atom_site_type_symbol
_atom_site_label
_atom_site_fract_x
_atom_site_fract_y
_atom_site_fract_z
Si Si1 0.356067 0.903889 0.434243
Si Si2 0.249965 0.658685 0.350959
Si Si3 0.060293 0.177116 0.860737
Si Si4 0.954763 0.557117 0.441544
Si Si5 0.475277 0.483707 0.706213
Si Si6 0.277776 0.891201 0.180886
Si Si7 0.812523 0.565976 0.078340
Si Si8 0.386851 0.187050 0.290798
O O1 0.416103 0.706999 0.287983
O O2 0.314704 0.874980 0.288113
O O3 0.500000 0.000000 0.500000
O O4 0.191092 0.969375 0.642176
O O5 0.359816 0.529833 0.289163
O O6 0.065340 0.699376 0.512582
O O7 0.200001 0.568047 0.158627
O O8 0.185852 0.230569 0.778911
O O9 0.904394 0.130098 0.807381
O O10 0.007038 0.353976 0.145027
O O11 0.762894 0.670511 0.589446
O O12 0.000000 0.500000 0.500000
O O13 0.316537 0.455236 0.803512
O O14 0.500039 0.311034 0.433042
O O15 0.408004 0.698793 0.892156
O O16 0.301218 0.087900 0.319656
O O17 0.000000 0.500000 0.000000
O O18 0.500000 0.000000 0.000000
#
# Coordination Sequence:
#
# PCOD9053418 Si02
#       8
#     2   2   2   2   2   2   2   2
#     4  12  25  40  69 115 151 184 237 295 363 443
#     4  11  24  41  70 107 149 189 241 296 366 434
#     4  11  23  42  70 100 146 188 234 291 362 433
#     4  11  27  50  75 102 143 196 248 307 369 427
#     4  12  24  45  72 108 147 192 239 299 368 431
#     4  12  25  45  76 104 147 191 237 292 374 433
#     4  11  19  39  67 103 143 189 227 286 360 441
#     4  12  29  51  75 106 141 190 258 306 358 438
#
# _framework density 23.977675000000001
#
# number of rings (size 3 to 8) (size 9 to 14) (size 15 to 20)
#    0.000    0.500    3.750    4.500    5.250    2.500 
#    0.000    1.875    0.000    0.000    0.000    0.000 
#    0.000    0.000    0.000    0.000    0.000    0.000 
#
# Total GULP energy -89210.299326 kJ/mol
# GULP energy per Si atom -5575.643708 kJ/mol
# Density = 2.392310 g / cm^3
# Si number density = 23.977675 Si / 1000 Ang^3
#
#
#
# Elastic Constant Matrix: (Units=GPa)
#
#
# Indices 1 2 3 4 5 6 
#
# 1 135.9524 33.6983 37.7482 48.6423 -30.1905 -12.9451
# 2 33.6983 -127.3272 -215.2251 -470.3184 294.1169 46.2880
# 3 37.7482 -215.2251 -109.9866 -478.8343 276.3397 30.7503
# 4 48.6423 -470.3184 -478.8343 -984.8454 596.5628 92.4619
# 5 -30.1905 294.1169 276.3397 596.5628 -305.9756 -41.5218
# 6 -12.9451 46.2880 30.7503 92.4619 -41.5218 30.0614
#
#
#
# Elastic Compliance Matrix: (Units=1/GPa)
#
#
# Indices 1 2 3 4 5 6 
#
# 1 0.007438 -0.000714 -0.000636 0.000953 -0.000345 0.001544
# 2 -0.000714 0.010749 -0.001377 -0.005763 -0.002010 -0.000499
# 3 -0.000636 -0.001377 0.008853 -0.002380 0.001751 0.002530
# 4 0.000953 -0.005763 -0.002380 0.009952 0.011945 -0.002393
# 5 -0.000345 -0.002010 0.001751 0.011945 0.020661 -0.007048
# 6 0.001544 -0.000499 0.002530 -0.002393 -0.007048 0.029736
#
#
# Mechanical properties :
#
#
# Convention : Reuss Voigt Hill
#
# Bulk Modulus (GPa) = 46.32196 -43.21319 1.55439
# Shear Modulus (GPa) = 49.98084 -249.32412 -99.67164
#
# Velocity S-wave (km/s) = 4.57056 -10.20821 -6.45436
# Velocity P-wave (km/s) = 6.87125 12.53015 7.40914
#
# Compressibility (1/GPa) = 0.02158803
#
# Stress axis : x y z
#
# Youngs Moduli (GPa) = 134.44033 93.03464 112.95053
#
# Poissons Ratio (x) = 0.06641 0.07179
# Poissons Ratio (y) = 0.09596 0.15551
# Poissons Ratio (z) = 0.08545 0.12809
#
# Static dielectric constant tensor:
#      x y z
#    x 1.849190 -0.090670 -0.189020 
#    y -0.090670 1.859450 0.013990 
#    z -0.189020 0.013990 2.094630 
# 
# From -- ./inp_files/399949.got.cif
#   From: 2010.05.17/outbox.cif.g08.bks.cpg/sg2_200_cif.got.tgz:399949.got - 2010.06.03 11:33:40.
