data_PCOD9053240
_publ_section_title
;
Structure prediction by ZEFSAII (Michael W. Deem and Ramdas Pophale) SiO2 
 PCOD9053240
Probable space group: P -1
;
_chemical_formula_sum "Si O2"
_cell_formula_units_Z 16
_cell_length_a 9.148260
_cell_length_b 11.454776
_cell_length_c 14.751346
_cell_angle_alpha 107.503962
_cell_angle_beta 41.317124
_cell_angle_gamma 128.317706
_cell_volume 759.076620
_symmetry_space_group_name_H-M "P -1"
_symmetry_group_IT_number 2
_symmetry_cell_setting 'triclinic'
loop_
_space_group_symop_operation_xyz
x,y,z
-x,-y,-z
loop_
_atom_site_type_symbol
_atom_site_label
_atom_site_fract_x
_atom_site_fract_y
_atom_site_fract_z
Si Si1 0.950641 0.764100 0.311681
Si Si2 0.870793 0.927807 0.140118
Si Si3 0.288805 0.392265 0.808432
Si Si4 0.174463 0.720382 0.865726
Si Si5 0.881735 0.029817 0.401685
Si Si6 0.758172 0.132881 0.312641
Si Si7 0.562822 0.970819 0.062763
Si Si8 0.320503 0.301426 0.388925
O O1 0.850662 0.670480 0.241688
O O2 0.748859 0.679607 0.472757
O O3 0.262414 0.819517 0.202517
O O4 0.972182 0.919207 0.323539
O O5 0.713642 0.745654 0.182699
O O6 0.679997 0.973033 0.270163
O O7 0.000000 0.000000 0.000000
O O8 0.173141 0.027310 0.073941
O O9 0.587595 0.557045 0.687085
O O10 0.094093 0.399471 0.972345
O O11 0.090653 0.741281 0.809716
O O12 0.406057 0.694169 0.740314
O O13 0.327713 0.884400 0.887582
O O14 0.919962 0.144462 0.330408
O O15 0.048698 0.137663 0.436279
O O16 0.539767 0.904750 0.539341
O O17 0.500000 0.000000 0.000000
#
# Coordination Sequence:
#
# PCOD9053240 Si02
#       8
#     2   2   2   2   2   2   2   2
#     4  12  21  40  65  94 123 164 211 258 302 365
#     4  11  21  37  65  87 123 159 206 252 304 366
#     4  11  24  40  62  92 130 162 201 258 315 365
#     4  11  21  39  64  92 124 162 207 257 307 365
#     4  11  23  38  66  91 124 160 211 259 298 366
#     4  11  21  39  64  92 117 163 211 254 303 360
#     4  11  19  34  64  97 117 153 213 263 294 344
#     4  12  25  40  61  94 128 164 206 255 313 366
#
# _framework density 21.078241999999999
#
# number of rings (size 3 to 8) (size 9 to 14) (size 15 to 20)
#    0.000    0.750    8.750    1.875    0.000    0.000 
#    0.000    1.250    2.750    0.000    0.000    0.000 
#    0.000    0.000    0.000    0.000    0.000    0.000 
#
# Total GULP energy -89189.295980 kJ/mol
# GULP energy per Si atom -5574.330999 kJ/mol
# Density = 2.103027 g / cm^3
# Si number density = 21.078242 Si / 1000 Ang^3
#
#
#
# Elastic Constant Matrix: (Units=GPa)
#
#
# Indices 1 2 3 4 5 6 
#
# 1 77.8265 5.2133 16.0221 -9.7376 26.9163 -9.9357
# 2 5.2133 33.9454 10.0037 -10.1030 2.8604 -6.8768
# 3 16.0221 10.0037 104.1675 -9.8772 31.1167 -9.8294
# 4 -9.7376 -10.1030 -9.8772 22.6903 -7.2558 0.4154
# 5 26.9163 2.8604 31.1167 -7.2558 39.6739 0.7575
# 6 -9.9357 -6.8768 -9.8294 0.4154 0.7575 26.9435
#
#
#
# Elastic Compliance Matrix: (Units=1/GPa)
#
#
# Indices 1 2 3 4 5 6 
#
# 1 0.018814 0.000686 0.002476 0.004817 -0.014034 0.008336
# 2 0.000686 0.036209 -0.001513 0.015870 0.000847 0.008674
# 3 0.002476 -0.001513 0.013732 0.002419 -0.012010 0.005837
# 4 0.004817 0.015870 0.002419 0.055336 0.003701 0.005752
# 5 -0.014034 0.000847 -0.012010 0.003701 0.044965 -0.010661
# 6 0.008336 0.008674 0.005837 0.005752 -0.010661 0.044743
#
#
# Mechanical properties :
#
#
# Convention : Reuss Voigt Hill
#
# Bulk Modulus (GPa) = 13.87863 30.93530 22.40696
# Shear Modulus (GPa) = 21.32024 30.17488 25.74756
#
# Velocity S-wave (km/s) = 3.18383 3.78771 3.49882
# Velocity P-wave (km/s) = 4.48490 5.81698 5.19382
#
# Compressibility (1/GPa) = 0.07205325
#
# Stress axis : x y z
#
# Youngs Moduli (GPa) = 53.15216 27.61766 72.82188
#
# Poissons Ratio (x) = -0.01894 -0.18029
# Poissons Ratio (y) = -0.03646 0.11014
# Poissons Ratio (z) = -0.13159 0.04177
#
# Static dielectric constant tensor:
#      x y z
#    x 1.928600 -0.020410 0.034230 
#    y -0.020410 1.749340 -0.000350 
#    z 0.034230 -0.000350 1.825260 
# 
# From -- ./inp_files/306838.got.cif
#   From: 2010.05.17/outbox.cif.g08.bks.cpg/sg2_154_cif.got.tgz:306838.got - 2010.06.03 11:33:40.
