data_PCOD9053005
_publ_section_title
;
Structure prediction by ZEFSAII (Michael W. Deem and Ramdas Pophale) SiO2 
 PCOD9053005
Probable space group: P -1
;
_chemical_formula_sum "Si O2"
_cell_formula_units_Z 16
_cell_length_a 13.843279
_cell_length_b 11.753753
_cell_length_c 7.868110
_cell_angle_alpha 52.394910
_cell_angle_beta 138.465233
_cell_angle_gamma 137.019142
_cell_volume 573.156217
_symmetry_space_group_name_H-M "P -1"
_symmetry_group_IT_number 2
_symmetry_cell_setting 'triclinic'
loop_
_space_group_symop_operation_xyz
x,y,z
-x,-y,-z
loop_
_atom_site_type_symbol
_atom_site_label
_atom_site_fract_x
_atom_site_fract_y
_atom_site_fract_z
Si Si1 0.950338 0.187173 0.907838
Si Si2 0.044937 0.749188 0.755360
Si Si3 0.303580 0.407074 0.082274
Si Si4 0.683229 0.310272 0.948101
Si Si5 0.681932 0.908916 0.270133
Si Si6 0.321358 0.379595 0.661797
Si Si7 0.377821 0.126463 0.163106
Si Si8 0.256595 0.674489 0.602554
O O1 0.911817 0.334122 0.675808
O O2 0.772402 0.015051 0.792472
O O3 0.966772 0.191669 0.127060
O O4 0.129074 0.229314 0.027182
O O5 0.167975 0.675408 0.983031
O O6 0.852952 0.623948 0.557667
O O7 0.143416 0.920194 0.614605
O O8 0.496769 0.450391 0.281969
O O9 0.307271 0.516129 0.154510
O O10 0.273449 0.512665 0.800872
O O11 0.719810 0.263482 0.227177
O O12 0.490223 0.165311 0.780391
O O13 0.699142 0.749307 0.399604
O O14 0.637883 0.942103 0.989539
O O15 0.341031 0.276438 0.939003
O O16 0.575022 0.201229 0.399420
#
# Coordination Sequence:
#
# PCOD9053005 Si02
#       8
#     2   2   2   2   2   2   2   2
#     4  11  18  25  50  77  88 113 162 195 218 262
#     4  11  18  25  50  77  88 117 155 195 225 264
#     4   8  18  33  47  65  92 130 150 181 226 283
#     4   8  17  31  45  66  98 122 146 183 239 272
#     4   7  14  28  45  66  92 118 153 181 220 275
#     4   8  16  32  45  68  94 124 151 186 223 276
#     4   7  15  28  47  71  90 112 155 198 214 255
#     4   8  16  33  47  65  95 123 148 187 231 272
#
# _framework density 27.915602
#
# number of rings (size 3 to 8) (size 9 to 14) (size 15 to 20)
#    1.500    2.000    0.000    1.500    0.000    1.000 
#    0.000    0.000    0.000    1.500   13.000    0.000 
#    0.000    0.000    0.000    0.000    0.000    0.000 
#
# Total GULP energy -89343.232034 kJ/mol
# GULP energy per Si atom -5583.952002 kJ/mol
# Density = 2.785206 g / cm^3
# Si number density = 27.915602 Si / 1000 Ang^3
#
#
#
# Elastic Constant Matrix: (Units=GPa)
#
#
# Indices 1 2 3 4 5 6 
#
# 1 72.1475 49.0534 32.8994 18.8403 26.6109 11.4718
# 2 49.0534 139.2810 54.7280 26.0052 24.9322 48.7641
# 3 32.8994 54.7280 113.8982 27.2741 26.4608 21.2071
# 4 18.8403 26.0052 27.2741 50.4221 13.8773 20.8544
# 5 26.6109 24.9322 26.4608 13.8773 24.6683 8.3310
# 6 11.4718 48.7641 21.2071 20.8544 8.3310 41.1417
#
#
#
# Elastic Compliance Matrix: (Units=1/GPa)
#
#
# Indices 1 2 3 4 5 6 
#
# 1 0.026724 -0.007636 0.000535 -0.003290 -0.022374 0.007522
# 2 -0.007636 0.016958 -0.003119 0.003617 -0.001552 -0.017882
# 3 0.000535 -0.003119 0.013085 -0.003118 -0.009834 0.000374
# 4 -0.003290 0.003617 -0.003118 0.029333 -0.008209 -0.014970
# 5 -0.022374 -0.001552 -0.009834 -0.008209 0.081111 0.000884
# 6 0.007522 -0.017882 0.000374 -0.014970 0.000884 0.050620
#
#
# Mechanical properties :
#
#
# Convention : Reuss Voigt Hill
#
# Bulk Modulus (GPa) = 27.52728 66.52093 47.02411
# Shear Modulus (GPa) = 19.96967 35.82281 27.89624
#
# Velocity S-wave (km/s) = 2.67752 3.58614 3.16461
# Velocity P-wave (km/s) = 4.40921 6.40533 5.49861
#
# Compressibility (1/GPa) = 0.03632760
#
# Stress axis : x y z
#
# Youngs Moduli (GPa) = 37.41955 58.97022 76.42232
#
# Poissons Ratio (x) = 0.45032 -0.04091
# Poissons Ratio (y) = 0.28575 0.23832
# Poissons Ratio (z) = -0.02003 0.18390
#
# Static dielectric constant tensor:
#      x y z
#    x 2.252650 -0.029740 -0.025850 
#    y -0.029740 2.239120 -0.031060 
#    z -0.025850 -0.031060 2.120900 
# 
# From -- ./inp_files/466436.got.cif
#   From: 2010.05.17/outbox.cif.g08.bks.cpg/sg2_234_cif.got.tgz:466436.got - 2010.06.03 11:33:40.
