data_PCOD9053307
_publ_section_title
;
Structure prediction by ZEFSAII (Michael W. Deem and Ramdas Pophale) SiO2 
 PCOD9053307
Probable space group: P -1
;
_chemical_formula_sum "Si O2"
_cell_formula_units_Z 14
_cell_length_a 12.086147
_cell_length_b 8.467880
_cell_length_c 12.603810
_cell_angle_alpha 113.983232
_cell_angle_beta 36.520013
_cell_angle_gamma 122.653865
_cell_volume 645.360557
_symmetry_space_group_name_H-M "P -1"
_symmetry_group_IT_number 2
_symmetry_cell_setting 'triclinic'
loop_
_space_group_symop_operation_xyz
x,y,z
-x,-y,-z
loop_
_atom_site_type_symbol
_atom_site_label
_atom_site_fract_x
_atom_site_fract_y
_atom_site_fract_z
Si Si1 0.770350 0.466082 0.150970
Si Si2 0.682681 0.278302 0.703971
Si Si3 0.260532 0.457238 0.568809
Si Si4 0.616541 0.865593 0.391239
Si Si5 0.259802 0.263006 0.929526
Si Si6 0.375377 0.127647 0.370390
Si Si7 0.974511 0.593084 0.707477
O O1 0.729516 0.558212 0.315941
O O2 0.730395 0.557108 0.099454
O O3 0.615900 0.250480 0.216167
O O4 0.000000 0.500000 0.000000
O O5 0.467208 0.273494 0.828310
O O6 0.778674 0.440913 0.760400
O O7 0.847370 0.330091 0.495857
O O8 0.666643 0.074225 0.701413
O O9 0.443573 0.654663 0.456178
O O10 0.283323 0.279065 0.446445
O O11 0.061747 0.485940 0.694521
O O12 0.771534 0.886527 0.182062
O O13 0.691137 0.905539 0.464529
O O14 0.500000 0.000000 0.500000
O O15 0.092692 0.254029 0.142594
#
# Coordination Sequence:
#
# PCOD9053307 Si02
#       7
#     2   2   2   2   2   2   2
#     4  11  21  37  63  94 125 158 202 264 321 378
#     4  11  25  45  62  90 132 171 214 261 307 377
#     4  11  20  38  63  92 128 167 202 258 329 369
#     4  11  19  36  63  92 124 164 200 259 325 369
#     4  12  21  41  68  92 125 165 214 264 316 377
#     4  11  21  39  64  91 129 171 199 256 337 365
#     4  11  24  43  67  89 124 176 219 254 309 375
#
# _framework density 21.693300000000001
#
# number of rings (size 3 to 8) (size 9 to 14) (size 15 to 20)
#    0.000    0.857    7.143    1.286    0.000    0.571 
#    2.571    4.286    0.000    0.000    0.000    0.000 
#    0.000    0.000    0.000    0.000    0.000    0.000 
#
# Total GULP energy -78080.123347 kJ/mol
# GULP energy per Si atom -5577.151668 kJ/mol
# Density = 2.164392 g / cm^3
# Si number density = 21.693300 Si / 1000 Ang^3
#
#
#
# Elastic Constant Matrix: (Units=GPa)
#
#
# Indices 1 2 3 4 5 6 
#
# 1 62.5694 19.6809 20.4551 3.0955 -18.0019 -1.5517
# 2 19.6809 89.2075 24.8583 21.5097 -13.7815 -4.5745
# 3 20.4551 24.8583 124.3154 14.2823 -22.5444 -2.2181
# 4 3.0955 21.5097 14.2823 25.1158 -3.2737 -3.8086
# 5 -18.0019 -13.7815 -22.5444 -3.2737 34.4886 6.9756
# 6 -1.5517 -4.5745 -2.2181 -3.8086 6.9756 26.4349
#
#
#
# Elastic Compliance Matrix: (Units=1/GPa)
#
#
# Indices 1 2 3 4 5 6 
#
# 1 0.019779 -0.003209 -0.001287 0.001946 0.008692 -0.001516
# 2 -0.003209 0.015470 -0.000638 -0.012119 0.002958 -0.000091
# 3 -0.001287 -0.000638 0.009838 -0.004403 0.005372 -0.001412
# 4 0.001946 -0.012119 -0.004403 0.052998 -0.002898 0.006048
# 5 0.008692 0.002958 0.005372 -0.002898 0.039864 -0.009464
# 6 -0.001516 -0.000091 -0.001412 0.006048 -0.009464 0.040974
#
#
# Mechanical properties :
#
#
# Convention : Reuss Voigt Hill
#
# Bulk Modulus (GPa) = 28.72058 45.12010 36.92034
# Shear Modulus (GPa) = 24.90049 31.28106 28.09078
#
# Velocity S-wave (km/s) = 3.39166 3.80145 3.60238
# Velocity P-wave (km/s) = 5.34845 6.33342 5.86166
#
# Compressibility (1/GPa) = 0.03481824
#
# Stress axis : x y z
#
# Youngs Moduli (GPa) = 50.55795 64.64144 101.64296
#
# Poissons Ratio (x) = 0.20744 0.13083
# Poissons Ratio (y) = 0.16225 0.06489
# Poissons Ratio (z) = 0.06508 0.04127
#
# Static dielectric constant tensor:
#      x y z
#    x 1.801530 -0.035140 0.001810 
#    y -0.035140 1.820750 -0.016170 
#    z 0.001810 -0.016170 1.894270 
# 
# From -- ./inp_files/406463.got.cif
#   From: 2010.05.17/outbox.cif.g08.bks.cpg/sg2_204_cif.got.tgz:406463.got - 2010.06.03 11:33:40.
