data_PCOD9053270
_publ_section_title
;
Structure prediction by ZEFSAII (Michael W. Deem and Ramdas Pophale) SiO2 
 PCOD9053270
Probable space group: P -1
;
_chemical_formula_sum "Si O2"
_cell_formula_units_Z 16
_cell_length_a 21.758651
_cell_length_b 8.867674
_cell_length_c 8.416080
_cell_angle_alpha 63.717113
_cell_angle_beta 45.709756
_cell_angle_gamma 33.887276
_cell_volume 608.795245
_symmetry_space_group_name_H-M "P -1"
_symmetry_group_IT_number 2
_symmetry_cell_setting 'triclinic'
loop_
_space_group_symop_operation_xyz
x,y,z
-x,-y,-z
loop_
_atom_site_type_symbol
_atom_site_label
_atom_site_fract_x
_atom_site_fract_y
_atom_site_fract_z
Si Si1 0.907914 0.478604 0.806474
Si Si2 0.105161 0.759935 0.290285
Si Si3 0.601813 0.569644 0.687218
Si Si4 0.751299 0.641739 0.507702
Si Si5 0.384650 0.275865 0.704833
Si Si6 0.979843 0.877235 0.968709
Si Si7 0.438661 0.762652 0.394831
Si Si8 0.312475 0.912335 0.192895
O O1 0.755708 0.618357 0.062742
O O2 0.016625 0.295527 0.846604
O O3 0.979368 0.239612 0.664114
O O4 0.839668 0.751939 0.723144
O O5 0.214021 0.461268 0.325507
O O6 0.000000 0.000000 0.500000
O O7 0.140256 0.861336 0.061888
O O8 0.626115 0.703688 0.670595
O O9 0.656511 0.504291 0.440056
O O10 0.693311 0.276285 0.737892
O O11 0.432792 0.787981 0.907866
O O12 0.881738 0.378700 0.277623
O O13 0.704858 0.907158 0.434537
O O14 0.446218 0.269686 0.754055
O O15 0.500000 0.000000 0.500000
O O16 0.000000 0.000000 0.000000
O O17 0.500000 0.500000 0.500000
O O18 0.391764 0.809145 0.272604
#
# Coordination Sequence:
#
# PCOD9053270 Si02
#       8
#     2   2   2   2   2   2   2   2
#     4  11  19  35  62  85 114 159 195 244 305 348
#     4   9  20  35  57  91 111 144 207 258 291 347
#     4  11  23  38  57  86 127 161 201 236 293 370
#     4  11  20  37  62  86 121 159 193 250 299 346
#     4  12  21  36  57  86 122 158 200 239 291 368
#     4   9  19  35  61  91 109 146 206 257 294 349
#     4  12  24  36  57  90 127 160 195 238 296 367
#     4  11  24  37  55  89 124 163 197 239 298 365
#
# _framework density 26.281413000000001
#
# number of rings (size 3 to 8) (size 9 to 14) (size 15 to 20)
#    0.000    1.250    6.250    0.000    1.750    1.000 
#    0.000    0.000    0.000    7.500   13.000    0.000 
#    0.000    0.000    0.000    0.000    0.000    0.000 
#
# Total GULP energy -89135.923856 kJ/mol
# GULP energy per Si atom -5570.995241 kJ/mol
# Density = 2.622160 g / cm^3
# Si number density = 26.281413 Si / 1000 Ang^3
#
#
#
# Elastic Constant Matrix: (Units=GPa)
#
#
# Indices 1 2 3 4 5 6 
#
# 1 64.1657 32.2119 35.3706 -16.9046 7.2742 -6.0132
# 2 32.2119 228.2000 42.4301 -20.4607 16.3647 0.1855
# 3 35.3706 42.4301 86.8266 -2.6154 15.2189 3.8037
# 4 -16.9046 -20.4607 -2.6154 60.6141 -17.4139 12.8368
# 5 7.2742 16.3647 15.2189 -17.4139 37.3307 -9.1910
# 6 -6.0132 0.1855 3.8037 12.8368 -9.1910 38.8585
#
#
#
# Elastic Compliance Matrix: (Units=1/GPa)
#
#
# Indices 1 2 3 4 5 6 
#
# 1 0.022742 -0.001219 -0.009233 0.005805 0.003391 0.003313
# 2 -0.001219 0.005049 -0.001755 0.001173 -0.000869 -0.000634
# 3 -0.009233 -0.001755 0.017436 -0.003710 -0.007155 -0.003594
# 4 0.005805 0.001173 -0.003710 0.021765 0.009088 -0.003785
# 5 0.003391 -0.000869 -0.007155 0.009088 0.035282 0.006572
# 6 0.003313 -0.000634 -0.003594 -0.003785 0.006572 0.029407
#
#
# Mechanical properties :
#
#
# Convention : Reuss Voigt Hill
#
# Bulk Modulus (GPa) = 48.04954 66.57972 57.31463
# Shear Modulus (GPa) = 30.66876 45.30597 37.98737
#
# Velocity S-wave (km/s) = 3.41975 4.15647 3.80598
# Velocity P-wave (km/s) = 5.82369 6.95869 6.41633
#
# Compressibility (1/GPa) = 0.02081185
#
# Stress axis : x y z
#
# Youngs Moduli (GPa) = 43.97207 198.07793 57.35199
#
# Poissons Ratio (x) = 0.24140 0.52955
# Poissons Ratio (y) = 0.05359 0.10066
# Poissons Ratio (z) = 0.40601 0.34767
#
# Static dielectric constant tensor:
#      x y z
#    x 2.152460 -0.142440 0.025770 
#    y -0.142440 2.304760 -0.076600 
#    z 0.025770 -0.076600 2.165880 
# 
# From -- ./inp_files/216833.got.cif
#   From: 2010.05.17/outbox.cif.g08.bks.cpg/sg2_109_cif.got.tgz:216833.got - 2010.06.03 11:33:40.
