data_PCOD9053540
_publ_section_title
;
Structure prediction by ZEFSAII (Michael W. Deem and Ramdas Pophale) SiO2 
 PCOD9053540
Probable space group: P -1
;
_chemical_formula_sum "Si O2"
_cell_formula_units_Z 12
_cell_length_a 14.778017
_cell_length_b 8.654600
_cell_length_c 16.151368
_cell_angle_alpha 144.267256
_cell_angle_beta 28.670872
_cell_angle_gamma 148.916280
_cell_volume 496.274747
_symmetry_space_group_name_H-M "P -1"
_symmetry_group_IT_number 2
_symmetry_cell_setting 'triclinic'
loop_
_space_group_symop_operation_xyz
x,y,z
-x,-y,-z
loop_
_atom_site_type_symbol
_atom_site_label
_atom_site_fract_x
_atom_site_fract_y
_atom_site_fract_z
Si Si1 0.733181 0.164786 0.433956
Si Si2 0.234547 0.027357 0.338539
Si Si3 0.602192 0.625637 0.795133
Si Si4 0.722179 0.816281 0.454137
Si Si5 0.090169 0.668536 0.088852
Si Si6 0.863035 0.609994 0.917633
O O1 0.748206 0.463608 0.599068
O O2 0.925490 0.231640 0.242670
O O3 0.500000 0.000000 0.500000
O O4 0.747487 0.968899 0.412270
O O5 0.411872 0.311339 0.264734
O O6 0.279748 0.997498 0.384036
O O7 0.228337 0.746252 0.178066
O O8 0.000000 0.000000 0.500000
O O9 0.709623 0.961250 0.902731
O O10 0.356091 0.375839 0.915012
O O11 0.500000 0.500000 0.500000
O O12 0.899672 0.726005 0.296694
O O13 0.086990 0.397424 0.028872
O O14 0.000000 0.500000 0.000000
#
# Coordination Sequence:
#
# PCOD9053540 Si02
#       6
#     2   2   2   2   2   2
#     4  12  27  49  72 105 151 191 245 310 364 425
#     4  11  19  44  74 100 139 186 237 294 356 430
#     4  11  24  47  75 107 148 190 240 298 366 429
#     4  12  26  44  76 101 137 196 246 301 367 434
#     4  11  24  44  72 110 147 187 245 292 351 442
#     4  11  24  46  75 103 148 191 238 303 365 426
#
# _framework density 24.180154999999999
#
# number of rings (size 3 to 8) (size 9 to 14) (size 15 to 20)
#    0.000    0.667    5.000    4.000    7.000    3.333 
#    3.000    1.667    0.000    0.000    0.000    0.000 
#    0.000    0.000    0.000    0.000    0.000    0.000 
#
# Total GULP energy -66826.587338 kJ/mol
# GULP energy per Si atom -5568.882278 kJ/mol
# Density = 2.412512 g / cm^3
# Si number density = 24.180155 Si / 1000 Ang^3
#
#
#
# Elastic Constant Matrix: (Units=GPa)
#
#
# Indices 1 2 3 4 5 6 
#
# 1 98.1703 26.6400 29.2616 -21.4544 22.2653 4.1435
# 2 26.6400 89.6426 48.0190 -17.2763 -2.2667 -4.0237
# 3 29.2616 48.0190 99.9966 -27.6245 0.9647 10.3652
# 4 -21.4544 -17.2763 -27.6245 61.3443 7.3648 0.9193
# 5 22.2653 -2.2667 0.9647 7.3648 45.8640 0.8589
# 6 4.1435 -4.0237 10.3652 0.9193 0.8589 29.0873
#
#
#
# Elastic Compliance Matrix: (Units=1/GPa)
#
#
# Indices 1 2 3 4 5 6 
#
# 1 0.014165 -0.002980 -0.001189 0.004532 -0.007691 -0.001923
# 2 -0.002980 0.016388 -0.007638 -0.000229 0.002354 0.005351
# 3 -0.001189 -0.007638 0.016067 0.004865 -0.000793 -0.006743
# 4 0.004532 -0.000229 0.004865 0.020727 -0.005588 -0.002901
# 5 -0.007691 0.002354 -0.000793 -0.005588 0.026547 0.001097
# 6 -0.001923 0.005351 -0.006743 -0.002901 0.001097 0.037856
#
#
# Mechanical properties :
#
#
# Convention : Reuss Voigt Hill
#
# Bulk Modulus (GPa) = 43.46799 55.07230 49.27015
# Shear Modulus (GPa) = 30.66877 39.51837 35.09357
#
# Velocity S-wave (km/s) = 3.56525 4.04707 3.81378
# Velocity P-wave (km/s) = 5.91301 6.68309 6.30981
#
# Compressibility (1/GPa) = 0.02300544
#
# Stress axis : x y z
#
# Youngs Moduli (GPa) = 70.59556 61.01909 62.24087
#
# Poissons Ratio (x) = 0.18186 0.07398
# Poissons Ratio (y) = 0.21040 0.47542
# Poissons Ratio (z) = 0.08391 0.46609
#
# Static dielectric constant tensor:
#      x y z
#    x 2.029380 0.113360 0.231280 
#    y 0.113360 1.967840 0.267290 
#    z 0.231280 0.267290 1.967830 
# 
# From -- ./inp_files/320257.got.cif
#   From: 2010.05.17/outbox.cif.g08.bks.cpg/sg2_161_cif.got.tgz:320257.got - 2010.06.03 11:33:40.
