data_PCOD9053073
_publ_section_title
;
Structure prediction by ZEFSAII (Michael W. Deem and Ramdas Pophale) SiO2 
 PCOD9053073
Probable space group: P -1
;
_chemical_formula_sum "Si O2"
_cell_formula_units_Z 12
_cell_length_a 7.285798
_cell_length_b 9.022583
_cell_length_c 10.572319
_cell_angle_alpha 54.001711
_cell_angle_beta 73.567151
_cell_angle_gamma 50.151051
_cell_volume 426.732667
_symmetry_space_group_name_H-M "P -1"
_symmetry_group_IT_number 2
_symmetry_cell_setting 'triclinic'
loop_
_space_group_symop_operation_xyz
x,y,z
-x,-y,-z
loop_
_atom_site_type_symbol
_atom_site_label
_atom_site_fract_x
_atom_site_fract_y
_atom_site_fract_z
Si Si1 0.055303 0.911516 0.332225
Si Si2 0.060020 0.297559 0.227204
Si Si3 0.709504 0.383843 0.800683
Si Si4 0.602572 0.756540 0.030599
Si Si5 0.841654 0.730552 0.329908
Si Si6 0.398160 0.835810 0.489589
O O1 0.256182 0.742378 0.275557
O O2 0.205341 0.803038 0.487345
O O3 0.837117 0.917724 0.321406
O O4 0.989711 0.161697 0.223679
O O5 0.809426 0.541646 0.185138
O O6 0.228525 0.114466 0.396714
O O7 0.243021 0.297189 0.099657
O O8 0.593647 0.284783 0.949296
O O9 0.538766 0.654975 0.664962
O O10 0.982269 0.304392 0.802365
O O11 0.500000 0.000000 0.000000
O O12 0.581339 0.790351 0.364398
O O13 0.000000 0.500000 0.500000
#
# Coordination Sequence:
#
# PCOD9053073 Si02
#       6
#     2   2   2   2   2   2
#     4   8  16  30  48  81  99 138 172 206 258 311
#     4   9  21  31  55  78 104 143 173 218 268 305
#     4   9  17  28  54  76 106 139 167 218 260 302
#     4  11  18  35  53  78 106 139 180 217 264 317
#     4   8  15  26  51  79 107 141 163 213 271 303
#     4   9  16  32  51  83 104 134 180 211 260 321
#
# _framework density 28.120649
#
# number of rings (size 3 to 8) (size 9 to 14) (size 15 to 20)
#    2.000    1.000    1.667    0.500    0.000    0.667 
#    0.000    0.833    0.000   17.000    0.000    0.000 
#    0.000    0.000    0.000    0.000    0.000    0.000 
#
# Total GULP energy -66839.802428 kJ/mol
# GULP energy per Si atom -5569.983536 kJ/mol
# Density = 2.805665 g / cm^3
# Si number density = 28.120649 Si / 1000 Ang^3
#
#
#
# Elastic Constant Matrix: (Units=GPa)
#
#
# Indices 1 2 3 4 5 6 
#
# 1 112.7062 28.0460 42.6555 -3.6304 -45.1909 -11.9101
# 2 28.0460 151.2262 63.7715 -20.9328 -7.6768 -42.7255
# 3 42.6555 63.7715 116.8078 -15.9553 -26.7472 -15.7226
# 4 -3.6304 -20.9328 -15.9553 62.0878 -14.0759 -6.5675
# 5 -45.1909 -7.6768 -26.7472 -14.0759 51.1886 -3.4966
# 6 -11.9101 -42.7255 -15.7226 -6.5675 -3.4966 37.8893
#
#
#
# Elastic Compliance Matrix: (Units=1/GPa)
#
#
# Indices 1 2 3 4 5 6 
#
# 1 0.016787 0.001677 -0.001126 0.006045 0.016781 0.009297
# 2 0.001677 0.013449 -0.004101 0.006140 0.004097 0.015434
# 3 -0.001126 -0.004101 0.013473 0.003702 0.006576 0.001861
# 4 0.006045 0.006140 0.003702 0.024846 0.016128 0.016155
# 5 0.016781 0.004097 0.006576 0.016128 0.044167 0.019495
# 6 0.009297 0.015434 0.001861 0.016155 0.019495 0.052090
#
#
# Mechanical properties :
#
#
# Convention : Reuss Voigt Hill
#
# Bulk Modulus (GPa) = 27.31534 72.18735 49.75135
# Shear Modulus (GPa) = 27.15682 46.65095 36.90389
#
# Velocity S-wave (km/s) = 3.11098 4.07745 3.62656
# Velocity P-wave (km/s) = 4.75805 6.92053 5.93855
#
# Compressibility (1/GPa) = 0.03660947
#
# Stress axis : x y z
#
# Youngs Moduli (GPa) = 59.56956 74.35375 74.22300
#
# Poissons Ratio (x) = -0.12468 0.08358
# Poissons Ratio (y) = -0.09989 0.30436
# Poissons Ratio (z) = 0.06708 0.30490
#
# Static dielectric constant tensor:
#      x y z
#    x 2.239080 0.028120 0.048290 
#    y 0.028120 2.222590 0.070230 
#    z 0.048290 0.070230 2.348670 
# 
# From -- ./inp_files/558336.got.cif
#   From: 2010.05.17/outbox.cif.g08.bks.cpg/sg2_280_cif.got.tgz:558336.got - 2010.06.03 11:33:40.
