data_PCOD9053521
_publ_section_title
;
Structure prediction by ZEFSAII (Michael W. Deem and Ramdas Pophale) SiO2 
 PCOD9053521
Probable space group: P -1
;
_chemical_formula_sum "Si O2"
_cell_formula_units_Z 16
_cell_length_a 21.389420
_cell_length_b 10.774021
_cell_length_c 15.662093
_cell_angle_alpha 36.772143
_cell_angle_beta 150.796116
_cell_angle_gamma 154.372943
_cell_volume 760.000707
_symmetry_space_group_name_H-M "P -1"
_symmetry_group_IT_number 2
_symmetry_cell_setting 'triclinic'
loop_
_space_group_symop_operation_xyz
x,y,z
-x,-y,-z
loop_
_atom_site_type_symbol
_atom_site_label
_atom_site_fract_x
_atom_site_fract_y
_atom_site_fract_z
Si Si1 0.347252 0.459006 0.033942
Si Si2 0.485955 0.244102 0.096151
Si Si3 0.812113 0.133340 0.920470
Si Si4 0.254390 0.771435 0.491009
Si Si5 0.534888 0.379446 0.408947
Si Si6 0.846149 0.559665 0.598926
Si Si7 0.903838 0.808693 0.690108
Si Si8 0.002409 0.718632 0.333821
O O1 0.492667 0.722499 0.998706
O O2 0.177212 0.418103 0.853787
O O3 0.433091 0.477381 0.213858
O O4 0.274446 0.161202 0.069585
O O5 0.648447 0.284969 0.301297
O O6 0.310960 0.966434 0.088377
O O7 0.500000 0.500000 0.000000
O O8 0.822099 0.336245 0.756778
O O9 0.004654 0.274357 0.103494
O O10 0.117283 0.492225 0.420946
O O11 0.160289 0.856280 0.379603
O O12 0.403956 0.047493 0.458952
O O13 0.652586 0.453327 0.424735
O O14 0.690484 0.569711 0.559957
O O15 0.962025 0.844541 0.639492
O O16 0.964042 0.075745 0.666017
O O17 0.000000 0.500000 0.500000
#
# Coordination Sequence:
#
# PCOD9053521 Si02
#       8
#     2   2   2   2   2   2   2   2
#     4  10  20  38  60  88 119 164 206 247 293 366
#     4  10  19  31  61  90 118 156 209 234 298 359
#     4  10  17  35  60  92 122 158 196 248 304 362
#     4  12  21  37  67  91 118 166 201 247 301 368
#     4  10  21  38  63  92 125 148 206 256 306 342
#     4  10  19  35  62  94 122 146 202 255 305 340
#     4   9  23  38  61  88 131 156 191 260 304 348
#     4  11  24  44  62  83 122 169 209 238 300 373
#
# _framework density 21.052613000000001
#
# number of rings (size 3 to 8) (size 9 to 14) (size 15 to 20)
#    0.750    1.000    3.750    2.250    0.000    1.000 
#    0.000    3.125    2.750    0.000    0.000    0.000 
#    0.000    0.000    0.000    0.000    0.000    0.000 
#
# Total GULP energy -89141.838733 kJ/mol
# GULP energy per Si atom -5571.364921 kJ/mol
# Density = 2.100470 g / cm^3
# Si number density = 21.052613 Si / 1000 Ang^3
#
#
#
# Elastic Constant Matrix: (Units=GPa)
#
#
# Indices 1 2 3 4 5 6 
#
# 1 46.7730 14.8095 22.6644 2.1443 7.0137 -7.8902
# 2 14.8095 41.7605 34.6533 2.6842 -0.7199 -6.3204
# 3 22.6644 34.6533 169.6034 5.4230 14.4463 -4.4507
# 4 2.1443 2.6842 5.4230 29.5140 -2.1332 3.0739
# 5 7.0137 -0.7199 14.4463 -2.1332 29.4949 0.2452
# 6 -7.8902 -6.3204 -4.4507 3.0739 0.2452 17.5954
#
#
#
# Elastic Compliance Matrix: (Units=1/GPa)
#
#
# Indices 1 2 3 4 5 6 
#
# 1 0.026900 -0.006908 -0.001318 -0.002549 -0.006185 0.009779
# 2 -0.006908 0.032638 -0.005935 -0.001770 0.005157 0.007362
# 3 -0.001318 -0.005935 0.007609 -0.000964 -0.003623 -0.000579
# 4 -0.002549 -0.001770 -0.000964 0.035534 0.003674 -0.008282
# 5 -0.006185 0.005157 -0.003623 0.003674 0.037566 -0.003003
# 6 0.009779 0.007362 -0.000579 -0.008282 -0.003003 0.065205
#
#
# Mechanical properties :
#
#
# Convention : Reuss Voigt Hill
#
# Bulk Modulus (GPa) = 25.75727 44.71014 35.23370
# Shear Modulus (GPa) = 20.26625 27.72150 23.99388
#
# Velocity S-wave (km/s) = 3.10602 3.63267 3.37962
# Velocity P-wave (km/s) = 5.01243 6.23526 5.65699
#
# Compressibility (1/GPa) = 0.03882399
#
# Stress axis : x y z
#
# Youngs Moduli (GPa) = 37.17466 30.63950 131.42179
#
# Poissons Ratio (x) = 0.21167 0.17324
# Poissons Ratio (y) = 0.25682 0.77996
# Poissons Ratio (z) = 0.04900 0.18184
#
# Static dielectric constant tensor:
#      x y z
#    x 1.901370 0.001160 0.012030 
#    y 0.001160 1.808100 0.023080 
#    z 0.012030 0.023080 1.771940 
# 
# From -- ./inp_files/540952.got.cif
#   From: 2010.05.17/outbox.cif.g08.bks.cpg/sg2_271_cif.got.tgz:540952.got - 2010.06.03 11:33:40.
