data_PCOD9053201
_publ_section_title
;
Structure prediction by ZEFSAII (Michael W. Deem and Ramdas Pophale) SiO2 
 PCOD9053201
Probable space group: P -1
;
_chemical_formula_sum "Si O2"
_cell_formula_units_Z 14
_cell_length_a 9.626968
_cell_length_b 9.847751
_cell_length_c 8.650627
_cell_angle_alpha 98.686303
_cell_angle_beta 92.596653
_cell_angle_gamma 125.754914
_cell_volume 648.727269
_symmetry_space_group_name_H-M "P -1"
_symmetry_group_IT_number 2
_symmetry_cell_setting 'triclinic'
loop_
_space_group_symop_operation_xyz
x,y,z
-x,-y,-z
loop_
_atom_site_type_symbol
_atom_site_label
_atom_site_fract_x
_atom_site_fract_y
_atom_site_fract_z
Si Si1 0.797863 0.654223 0.350342
Si Si2 0.698798 0.894148 0.326538
Si Si3 0.102227 0.410846 0.337762
Si Si4 0.046049 0.111275 0.173500
Si Si5 0.732186 0.329308 0.371280
Si Si6 0.175962 0.934233 0.308695
Si Si7 0.463931 0.955966 0.170991
O O1 0.688756 0.726866 0.336292
O O2 0.870336 0.678306 0.532296
O O3 0.703820 0.452651 0.293682
O O4 0.974101 0.774897 0.283975
O O5 0.740116 0.000631 0.505535
O O6 0.534578 0.853909 0.219381
O O7 0.867070 0.014622 0.246128
O O8 0.111501 0.306542 0.183032
O O9 0.237184 0.607212 0.436799
O O10 0.914493 0.371105 0.331995
O O11 0.179531 0.088976 0.263342
O O12 0.000000 0.000000 0.000000
O O13 0.580879 0.135542 0.300391
O O14 0.271368 0.881228 0.197453
O O15 0.500000 0.000000 0.000000
#
# Coordination Sequence:
#
# PCOD9053201 Si02
#       7
#     2   2   2   2   2   2   2
#     4   9  17  36  64  83 109 149 211 242 275 334
#     4  11  19  38  59  83 118 159 203 243 280 366
#     4   9  16  34  63  87 113 151 207 234 287 347
#     4  11  19  33  61  93 119 151 199 251 291 347
#     4   9  18  37  62  84 121 159 192 246 288 363
#     4  11  20  35  61  88 114 157 202 244 287 355
#     4  12  25  38  57  90 126 155 195 248 311 350
#
# _framework density 21.580718000000001
#
# number of rings (size 3 to 8) (size 9 to 14) (size 15 to 20)
#    0.857    0.857    4.286    2.143    0.000    0.000 
#    0.000    4.286    0.000    0.000    0.000    0.000 
#    0.000    0.000    0.000    0.000    0.000    0.000 
#
# Total GULP energy -78029.965155 kJ/mol
# GULP energy per Si atom -5573.568940 kJ/mol
# Density = 2.153160 g / cm^3
# Si number density = 21.580718 Si / 1000 Ang^3
#
#
#
# Elastic Constant Matrix: (Units=GPa)
#
#
# Indices 1 2 3 4 5 6 
#
# 1 106.7853 7.3434 19.5154 -16.1928 -10.5650 -26.4200
# 2 7.3434 44.2534 -1.0218 13.5507 0.9858 -21.8372
# 3 19.5154 -1.0218 95.5032 1.3994 -16.0590 -1.2709
# 4 -16.1928 13.5507 1.3994 28.8308 -1.4160 -0.5713
# 5 -10.5650 0.9858 -16.0590 -1.4160 20.9829 1.0422
# 6 -26.4200 -21.8372 -1.2709 -0.5713 1.0422 30.1609
#
#
#
# Elastic Compliance Matrix: (Units=1/GPa)
#
#
# Indices 1 2 3 4 5 6 
#
# 1 0.014959 0.001945 -0.001998 0.008152 0.005748 0.014384
# 2 0.001945 0.045345 0.000149 -0.019747 -0.004074 0.034307
# 3 -0.001998 0.000149 0.012289 -0.001406 0.008369 -0.001440
# 4 0.008152 -0.019747 -0.001406 0.048856 0.007579 -0.006552
# 5 0.005748 -0.004074 0.008369 0.007579 0.057631 0.000590
# 6 0.014384 0.034307 -0.001440 -0.006552 0.000590 0.070390
#
#
# Mechanical properties :
#
#
# Convention : Reuss Voigt Hill
#
# Bulk Modulus (GPa) = 13.73901 33.13511 23.43706
# Shear Modulus (GPa) = 18.27891 30.70858 24.49375
#
# Velocity S-wave (km/s) = 2.91349 3.77631 3.37261
# Velocity P-wave (km/s) = 4.20690 5.86527 5.10389
#
# Compressibility (1/GPa) = 0.07278545
#
# Stress axis : x y z
#
# Youngs Moduli (GPa) = 66.84721 22.05338 81.37100
#
# Poissons Ratio (x) = -0.04290 0.16255
# Poissons Ratio (y) = -0.13003 -0.01208
# Poissons Ratio (z) = 0.13354 -0.00327
#
# Static dielectric constant tensor:
#      x y z
#    x 1.825240 -0.041970 -0.013020 
#    y -0.041970 1.864010 0.033300 
#    z -0.013020 0.033300 1.851010 
# 
# From -- ./inp_files/172192.got.cif
#   From: 2010.05.17/outbox.cif.g08.bks.cpg/sg2_87_cif.got.tgz:172192.got - 2010.06.03 11:33:40.
