data_PCOD9053285
_publ_section_title
;
Structure prediction by ZEFSAII (Michael W. Deem and Ramdas Pophale) SiO2 
 PCOD9053285
Probable space group: P -1
;
_chemical_formula_sum "Si O2"
_cell_formula_units_Z 12
_cell_length_a 7.263824
_cell_length_b 9.783414
_cell_length_c 9.627604
_cell_angle_alpha 61.702923
_cell_angle_beta 46.036284
_cell_angle_gamma 71.156051
_cell_volume 433.594277
_symmetry_space_group_name_H-M "P -1"
_symmetry_group_IT_number 2
_symmetry_cell_setting 'triclinic'
loop_
_space_group_symop_operation_xyz
x,y,z
-x,-y,-z
loop_
_atom_site_type_symbol
_atom_site_label
_atom_site_fract_x
_atom_site_fract_y
_atom_site_fract_z
Si Si1 0.496021 0.789283 0.362669
Si Si2 0.526861 0.864744 0.757404
Si Si3 0.859064 0.398588 0.240061
Si Si4 0.231603 0.589641 0.126691
Si Si5 0.182836 0.134954 0.097600
Si Si6 0.051662 0.794071 0.369361
O O1 0.706264 0.777900 0.137187
O O2 0.240527 0.801033 0.397747
O O3 0.440632 0.638130 0.559147
O O4 0.534838 0.957211 0.330867
O O5 0.500000 0.500000 0.000000
O O6 0.289641 0.746553 0.932870
O O7 0.622902 0.863672 0.871191
O O8 0.004858 0.475516 0.255878
O O9 0.948636 0.227073 0.236021
O O10 0.000000 0.500000 0.000000
O O11 0.146729 0.656925 0.287095
O O12 0.238071 0.198324 0.427136
O O13 0.106235 0.959951 0.186896
#
# Coordination Sequence:
#
# PCOD9053285 Si02
#       6
#     2   2   2   2   2   2
#     4  11  19  38  67  91 123 167 205 251 310 375
#     4  11  19  36  67  99 119 156 207 260 310 364
#     4  12  27  43  59  90 132 168 204 253 314 370
#     4  12  23  40  62 102 128 147 208 274 306 351
#     4  11  19  39  65  92 124 163 205 251 310 380
#     4  11  19  35  69  98 120 156 207 263 312 358
#
# _framework density 27.675643000000001
#
# number of rings (size 3 to 8) (size 9 to 14) (size 15 to 20)
#    0.000    0.667    8.333    2.000    0.000    4.667 
#    0.000    1.667    0.000    0.000    0.000    0.000 
#    0.000    0.000    0.000    0.000    0.000    0.000 
#
# Total GULP energy -67158.698095 kJ/mol
# GULP energy per Si atom -5596.558175 kJ/mol
# Density = 2.761265 g / cm^3
# Si number density = 27.675643 Si / 1000 Ang^3
#
#
#
# Elastic Constant Matrix: (Units=GPa)
#
#
# Indices 1 2 3 4 5 6 
#
# 1 68.4705 31.3709 16.8517 6.1455 -7.7847 12.7134
# 2 31.3709 199.7140 66.2977 20.3790 -0.7479 7.7355
# 3 16.8517 66.2977 221.1584 7.0155 -20.9342 6.9464
# 4 6.1455 20.3790 7.0155 64.6276 3.9460 -10.4720
# 5 -7.7847 -0.7479 -20.9342 3.9460 28.0722 4.5976
# 6 12.7134 7.7355 6.9464 -10.4720 4.5976 22.7228
#
#
#
# Elastic Compliance Matrix: (Units=1/GPa)
#
#
# Indices 1 2 3 4 5 6 
#
# 1 0.019394 -0.002266 0.000571 -0.003952 0.008560 -0.013807
# 2 -0.002266 0.006116 -0.001723 -0.001556 -0.001413 -0.000719
# 3 0.000571 -0.001723 0.005570 -0.000868 0.004849 -0.002817
# 4 -0.003952 -0.001556 -0.000868 0.018955 -0.006591 0.013075
# 5 0.008560 -0.001413 0.004849 -0.006591 0.045453 -0.018025
# 6 -0.013807 -0.000719 -0.002817 0.013075 -0.018025 0.062513
#
#
# Mechanical properties :
#
#
# Convention : Reuss Voigt Hill
#
# Bulk Modulus (GPa) = 41.24638 79.82037 60.53337
# Shear Modulus (GPa) = 28.91544 48.07270 38.49407
#
# Velocity S-wave (km/s) = 3.23584 4.17226 3.73352
# Velocity P-wave (km/s) = 5.37557 7.21903 6.36439
#
# Compressibility (1/GPa) = 0.02424455
#
# Stress axis : x y z
#
# Youngs Moduli (GPa) = 51.56203 163.49690 179.54634
#
# Poissons Ratio (x) = 0.37045 -0.10248
# Poissons Ratio (y) = 0.11683 0.30931
# Poissons Ratio (z) = -0.02943 0.28166
#
# Static dielectric constant tensor:
#      x y z
#    x 2.251960 0.001770 0.204940 
#    y 0.001770 2.101850 -0.038870 
#    z 0.204940 -0.038870 2.297380 
# 
# From -- ./inp_files/148212.got.cif
#   From: 2010.05.17/outbox.cif.g08.bks.cpg/sg2_75_cif.got.tgz:148212.got - 2010.06.03 11:33:40.
