data_PCOD9053316
_publ_section_title
;
Structure prediction by ZEFSAII (Michael W. Deem and Ramdas Pophale) SiO2 
 PCOD9053316
Probable space group: P -1
;
_chemical_formula_sum "Si O2"
_cell_formula_units_Z 16
_cell_length_a 12.615142
_cell_length_b 11.049702
_cell_length_c 13.404174
_cell_angle_alpha 53.632396
_cell_angle_beta 33.543007
_cell_angle_gamma 44.574542
_cell_volume 724.602092
_symmetry_space_group_name_H-M "P -1"
_symmetry_group_IT_number 2
_symmetry_cell_setting 'triclinic'
loop_
_space_group_symop_operation_xyz
x,y,z
-x,-y,-z
loop_
_atom_site_type_symbol
_atom_site_label
_atom_site_fract_x
_atom_site_fract_y
_atom_site_fract_z
Si Si1 0.220522 0.414976 0.957555
Si Si2 0.433719 0.142884 0.064396
Si Si3 0.374739 0.642710 0.943287
Si Si4 0.061845 0.323449 0.808687
Si Si5 0.822228 0.516238 0.544336
Si Si6 0.814790 0.992284 0.998347
Si Si7 0.094751 0.711019 0.778114
Si Si8 0.955560 0.199511 0.448815
O O1 0.413674 0.302015 0.937446
O O2 0.985916 0.537854 0.135725
O O3 0.142080 0.287391 0.033536
O O4 0.258865 0.538072 0.793342
O O5 0.601755 0.075655 0.054396
O O6 0.193908 0.187849 0.266594
O O7 0.500000 0.000000 0.000000
O O8 0.577404 0.621575 0.728950
O O9 0.213504 0.834760 0.016058
O O10 0.500000 0.500000 0.000000
O O11 0.192795 0.618005 0.040911
O O12 0.155901 0.370198 0.616708
O O13 0.181955 0.135796 0.855421
O O14 0.000000 0.500000 0.500000
O O15 0.852857 0.336579 0.555839
O O16 0.029801 0.879069 0.815824
O O17 0.152568 0.725690 0.611852
O O18 0.000000 0.000000 0.500000
#
# Coordination Sequence:
#
# PCOD9053316 Si02
#       8
#     2   2   2   2   2   2   2   2
#     4   9  17  35  64  95 127 166 224 267 335 405
#     4  11  19  36  66  98 126 177 225 268 341 413
#     4  12  26  43  71 101 135 184 235 275 346 417
#     4  11  23  45  71  98 138 180 230 287 341 410
#     4  12  25  47  71  98 142 187 225 287 344 416
#     4  11  23  41  68 104 134 176 231 289 340 413
#     4   9  18  36  65  92 127 174 215 276 339 397
#     4  11  24  40  64 105 143 171 228 294 349 401
#
# _framework density 22.081084000000001
#
# number of rings (size 3 to 8) (size 9 to 14) (size 15 to 20)
#    0.000    1.250    6.250    1.875    1.750    1.500 
#    0.000    2.500    0.000    4.500    0.000    0.000 
#    0.000    0.000    0.000    0.000    0.000    0.000 
#
# Total GULP energy -89068.099764 kJ/mol
# GULP energy per Si atom -5566.756235 kJ/mol
# Density = 2.203083 g / cm^3
# Si number density = 22.081084 Si / 1000 Ang^3
#
#
#
# Elastic Constant Matrix: (Units=GPa)
#
#
# Indices 1 2 3 4 5 6 
#
# 1 89.0052 54.6945 35.0094 -15.7714 20.6645 -21.2638
# 2 54.6945 154.4498 -4.7099 -14.5715 17.9333 -7.2754
# 3 35.0094 -4.7099 45.2931 -2.1131 5.2116 -8.3815
# 4 -15.7714 -14.5715 -2.1131 31.7704 -6.2190 18.9605
# 5 20.6645 17.9333 5.2116 -6.2190 33.5423 -1.8256
# 6 -21.2638 -7.2754 -8.3815 18.9605 -1.8256 54.8289
#
#
#
# Elastic Compliance Matrix: (Units=1/GPa)
#
#
# Indices 1 2 3 4 5 6 
#
# 1 0.029617 -0.009505 -0.021721 0.004081 -0.008750 0.005202
# 2 -0.009505 0.010229 0.008272 0.001295 -0.000742 -0.001537
# 3 -0.021721 0.008272 0.039326 -0.004055 0.002106 0.000158
# 4 0.004081 0.001295 -0.004055 0.042794 0.004622 -0.013510
# 5 -0.008750 -0.000742 0.002106 0.004622 0.035936 -0.003572
# 6 0.005202 -0.001537 0.000158 -0.013510 -0.003572 0.024629
#
#
# Mechanical properties :
#
#
# Convention : Reuss Voigt Hill
#
# Bulk Modulus (GPa) = 30.06332 50.97068 40.51700
# Shear Modulus (GPa) = 20.87455 37.61193 29.24324
#
# Velocity S-wave (km/s) = 3.07800 4.13165 3.64312
# Velocity P-wave (km/s) = 5.12608 6.77453 6.00712
#
# Compressibility (1/GPa) = 0.03326313
#
# Stress axis : x y z
#
# Youngs Moduli (GPa) = 33.76407 97.76538 25.42864
#
# Poissons Ratio (x) = 0.92921 0.55234
# Poissons Ratio (y) = 0.32091 -0.21033
# Poissons Ratio (z) = 0.73340 -0.80867
#
# Static dielectric constant tensor:
#      x y z
#    x 1.873150 0.035920 0.059220 
#    y 0.035920 1.912720 -0.010220 
#    z 0.059220 -0.010220 1.767440 
# 
# From -- ./inp_files/532381.got.cif
#   From: 2010.05.17/outbox.cif.g08.bks.cpg/sg2_267_cif.got.tgz:532381.got - 2010.06.03 11:33:40.
