data_PCOD9053998
_publ_section_title
;
Structure prediction by ZEFSAII (Michael W. Deem and Ramdas Pophale) SiO2 
 PCOD9053998
Probable space group: P -1
;
_chemical_formula_sum "Si O2"
_cell_formula_units_Z 14
_cell_length_a 10.556940
_cell_length_b 19.599133
_cell_length_c 7.957645
_cell_angle_alpha 40.137117
_cell_angle_beta 135.341281
_cell_angle_gamma 148.422296
_cell_volume 546.934965
_symmetry_space_group_name_H-M "P -1"
_symmetry_group_IT_number 2
_symmetry_cell_setting 'triclinic'
loop_
_space_group_symop_operation_xyz
x,y,z
-x,-y,-z
loop_
_atom_site_type_symbol
_atom_site_label
_atom_site_fract_x
_atom_site_fract_y
_atom_site_fract_z
Si Si1 0.788787 0.130042 0.773134
Si Si2 0.778851 0.403174 0.838755
Si Si3 0.507402 0.533242 0.683863
Si Si4 0.723869 0.732503 0.840094
Si Si5 0.706122 0.890347 0.968633
Si Si6 0.676745 0.949892 0.463088
Si Si7 0.962025 0.253155 0.321273
O O1 0.582659 0.107593 0.726661
O O2 0.857829 0.195496 0.522825
O O3 0.685544 0.972247 0.933053
O O4 0.017510 0.204953 0.967623
O O5 0.742987 0.498415 0.524450
O O6 0.488622 0.276228 0.851571
O O7 0.853733 0.315196 0.013106
O O8 0.000000 0.500000 0.000000
O O9 0.625426 0.640197 0.753655
O O10 0.743367 0.621432 0.618073
O O11 0.451193 0.389151 0.952731
O O12 0.739144 0.865377 0.591210
O O13 0.605841 0.886050 0.704636
O O14 0.000000 0.000000 0.000000
O O15 0.880375 0.119845 0.380259
#
# Coordination Sequence:
#
# PCOD9053998 Si02
#       7
#     2   2   2   2   2   2   2
#     4  11  21  41  72 103 135 174 228 285 348 405
#     4  12  25  43  70 108 141 176 230 296 354 403
#     4  11  29  47  65  99 144 184 233 284 345 427
#     4  11  27  48  66  95 140 195 226 275 355 424
#     4  11  20  39  69 108 139 172 228 289 343 413
#     4  11  22  41  71 101 136 179 227 286 348 406
#     4  11  24  42  73 107 134 173 235 295 340 407
#
# _framework density 25.597192
#
# number of rings (size 3 to 8) (size 9 to 14) (size 15 to 20)
#    0.000    0.857    4.286    3.429    2.000    2.857 
#    0.000    4.286    0.000    0.000    0.000    0.000 
#    0.000    0.000    0.000    0.000    0.000    0.000 
#
# Total GULP energy -78085.674583 kJ/mol
# GULP energy per Si atom -5577.548185 kJ/mol
# Density = 2.553893 g / cm^3
# Si number density = 25.597192 Si / 1000 Ang^3
#
#
#
# Elastic Constant Matrix: (Units=GPa)
#
#
# Indices 1 2 3 4 5 6 
#
# 1 83.5840 -20.2675 -35.1330 -30.3199 13.9276 -7.5187
# 2 -20.2675 167.1669 139.5373 31.3911 37.1524 17.6394
# 3 -35.1330 139.5373 331.2538 72.8630 56.7589 43.1806
# 4 -30.3199 31.3911 72.8630 68.0686 5.2913 21.1671
# 5 13.9276 37.1524 56.7589 5.2913 45.9091 12.6870
# 6 -7.5187 17.6394 43.1806 21.1671 12.6870 58.5785
#
#
#
# Elastic Compliance Matrix: (Units=1/GPa)
#
#
# Indices 1 2 3 4 5 6 
#
# 1 0.016483 0.001858 0.001107 0.005813 -0.008688 0.000521
# 2 0.001858 0.009909 -0.003218 -0.000148 -0.004785 0.000717
# 3 0.001107 -0.003218 0.006367 -0.004139 -0.004839 -0.001038
# 4 0.005813 -0.000148 -0.004139 0.023165 0.002186 -0.005002
# 5 -0.008688 -0.004785 -0.004839 0.002186 0.035275 -0.004537
# 6 0.000521 0.000717 -0.001038 -0.005002 -0.004537 0.020478
#
#
# Mechanical properties :
#
#
# Convention : Reuss Voigt Hill
#
# Bulk Modulus (GPa) = 31.00311 83.36427 57.18369
# Shear Modulus (GPa) = 40.67273 67.70244 54.18758
#
# Velocity S-wave (km/s) = 3.99049 5.14845 4.60601
# Velocity P-wave (km/s) = 5.77670 8.24503 7.11867
#
# Compressibility (1/GPa) = 0.03225483
#
# Stress axis : x y z
#
# Youngs Moduli (GPa) = 60.66770 100.91704 157.06720
#
# Poissons Ratio (x) = -0.18753 -0.17395
# Poissons Ratio (y) = -0.11273 0.50542
# Poissons Ratio (z) = -0.06719 0.32474
#
# Static dielectric constant tensor:
#      x y z
#    x 2.100230 0.088440 0.025100 
#    y 0.088440 1.942480 0.162040 
#    z 0.025100 0.162040 1.846990 
# 
# From -- ./inp_files/281558.got.cif
#   From: 2010.05.17/outbox.cif.g08.bks.cpg/sg2_141_cif.got.tgz:281558.got - 2010.06.03 11:33:40.
