data_PCOD9053642
_publ_section_title
;
Structure prediction by ZEFSAII (Michael W. Deem and Ramdas Pophale) SiO2 
 PCOD9053642
Probable space group: P -1
;
_chemical_formula_sum "Si O2"
_cell_formula_units_Z 14
_cell_length_a 14.210288
_cell_length_b 5.928709
_cell_length_c 9.062436
_cell_angle_alpha 117.792320
_cell_angle_beta 55.904563
_cell_angle_gamma 96.296653
_cell_volume 547.198002
_symmetry_space_group_name_H-M "P -1"
_symmetry_group_IT_number 2
_symmetry_cell_setting 'triclinic'
loop_
_space_group_symop_operation_xyz
x,y,z
-x,-y,-z
loop_
_atom_site_type_symbol
_atom_site_label
_atom_site_fract_x
_atom_site_fract_y
_atom_site_fract_z
Si Si1 0.517018 0.330480 0.208056
Si Si2 0.596078 0.132294 0.383881
Si Si3 0.110650 0.466867 0.290268
Si Si4 0.867729 0.925366 0.112390
Si Si5 0.280480 0.278190 0.307715
Si Si6 0.238670 0.737476 0.066101
Si Si7 0.152207 0.511318 0.784171
O O1 0.576002 0.136333 0.226865
O O2 0.439689 0.576222 0.434346
O O3 0.418270 0.235810 0.174310
O O4 0.628036 0.403651 0.052064
O O5 0.500000 0.000000 0.500000
O O6 0.726305 0.007695 0.280240
O O7 0.218014 0.487732 0.308864
O O8 0.121845 0.681931 0.225838
O O9 0.000000 0.500000 0.500000
O O10 0.121526 0.214189 0.099764
O O11 0.902329 0.707574 0.146109
O O12 0.908353 0.205673 0.151762
O O13 0.225932 0.354768 0.539137
O O14 0.239995 0.026501 0.204125
O O15 0.226680 0.624406 0.878235
#
# Coordination Sequence:
#
# PCOD9053642 Si02
#       7
#     2   2   2   2   2   2   2
#     4  11  21  37  63 108 144 187 240 286 368 442
#     4  11  20  34  65  99 149 194 232 289 363 441
#     4  11  27  49  73 101 142 196 251 311 370 427
#     4  11  22  46  70 102 149 188 238 303 362 433
#     4  12  24  42  72 107 147 189 245 298 362 450
#     4  11  24  45  69 104 150 192 236 303 370 434
#     4  11  23  44  74 104 148 193 241 299 364 442
#
# _framework density 25.584887999999999
#
# number of rings (size 3 to 8) (size 9 to 14) (size 15 to 20)
#    0.000    0.857    4.286    3.857    2.000    2.286 
#    0.000    3.571    0.000    0.000    0.000    0.000 
#    0.000    0.000    0.000    0.000    0.000    0.000 
#
# Total GULP energy -78167.206055 kJ/mol
# GULP energy per Si atom -5583.371861 kJ/mol
# Density = 2.552666 g / cm^3
# Si number density = 25.584888 Si / 1000 Ang^3
#
#
#
# Elastic Constant Matrix: (Units=GPa)
#
#
# Indices 1 2 3 4 5 6 
#
# 1 90.9628 51.0252 14.0156 -18.8607 13.4141 -3.1482
# 2 51.0252 107.5503 48.6664 -3.0157 -6.3935 9.5975
# 3 14.0156 48.6664 166.8367 -12.9184 4.9125 0.5833
# 4 -18.8607 -3.0157 -12.9184 38.5072 6.7774 -7.2686
# 5 13.4141 -6.3935 4.9125 6.7774 31.3221 11.7398
# 6 -3.1482 9.5975 0.5833 -7.2686 11.7398 38.3542
#
#
#
# Elastic Compliance Matrix: (Units=1/GPa)
#
#
# Indices 1 2 3 4 5 6 
#
# 1 0.036106 -0.024204 0.007360 0.029848 -0.037814 0.026139
# 2 -0.024204 0.027890 -0.008643 -0.022189 0.030615 -0.022410
# 3 0.007360 -0.008643 0.008930 0.009399 -0.011301 0.007872
# 4 0.029848 -0.022189 0.009399 0.055414 -0.042539 0.031382
# 5 -0.037814 0.030615 -0.011301 -0.042539 0.081713 -0.043666
# 6 0.026139 -0.022410 0.007872 0.031382 -0.043666 0.053019
#
#
# Mechanical properties :
#
#
# Convention : Reuss Voigt Hill
#
# Bulk Modulus (GPa) = 45.55441 65.86270 55.70855
# Shear Modulus (GPa) = 15.55863 38.41289 26.98576
#
# Velocity S-wave (km/s) = 2.46868 3.87898 3.25122
# Velocity P-wave (km/s) = 5.09605 6.77205 5.99293
#
# Compressibility (1/GPa) = 0.02195177
#
# Stress axis : x y z
#
# Youngs Moduli (GPa) = 27.69585 35.85515 111.98397
#
# Poissons Ratio (x) = 0.86785 -0.82424
# Poissons Ratio (y) = 0.67036 0.96793
# Poissons Ratio (z) = -0.20385 0.30991
#
# Static dielectric constant tensor:
#      x y z
#    x 2.112560 -0.063960 -0.080780 
#    y -0.063960 2.161270 -0.008000 
#    z -0.080780 -0.008000 2.024160 
# 
# From -- ./inp_files/324051.got.cif
#   From: 2010.05.17/outbox.cif.g08.bks.cpg/sg2_163_cif.got.tgz:324051.got - 2010.06.03 11:33:40.
