data_PCOD9053222
_publ_section_title
;
Structure prediction by ZEFSAII (Michael W. Deem and Ramdas Pophale) SiO2 
 PCOD9053222
Probable space group: P -1
;
_chemical_formula_sum "Si O2"
_cell_formula_units_Z 12
_cell_length_a 11.901307
_cell_length_b 9.620561
_cell_length_c 8.102986
_cell_angle_alpha 114.097355
_cell_angle_beta 99.781697
_cell_angle_gamma 129.833843
_cell_volume 512.586044
_symmetry_space_group_name_H-M "P -1"
_symmetry_group_IT_number 2
_symmetry_cell_setting 'triclinic'
loop_
_space_group_symop_operation_xyz
x,y,z
-x,-y,-z
loop_
_atom_site_type_symbol
_atom_site_label
_atom_site_fract_x
_atom_site_fract_y
_atom_site_fract_z
Si Si1 0.968543 0.918090 0.641097
Si Si2 0.951949 0.219794 0.910671
Si Si3 0.388762 0.352242 0.071987
Si Si4 0.733355 0.284576 0.948109
Si Si5 0.626448 0.332673 0.265703
Si Si6 0.339399 0.623776 0.342816
O O1 0.819727 0.629145 0.468423
O O2 0.000000 0.000000 0.500000
O O3 0.888138 0.982832 0.744350
O O4 0.171626 0.100746 0.855112
O O5 0.797725 0.180270 0.889947
O O6 0.072412 0.412970 0.879640
O O7 0.113361 0.385312 0.168736
O O8 0.475866 0.297398 0.152774
O O9 0.404057 0.520322 0.269155
O O10 0.500000 0.500000 0.000000
O O11 0.618574 0.233962 0.741754
O O12 0.653393 0.238915 0.083160
O O13 0.594072 0.245217 0.402012
#
# Coordination Sequence:
#
# PCOD9053222 Si02
#       6
#     2   2   2   2   2   2
#     4  11  19  34  59  86 106 144 183 222 277 321
#     4   8  17  34  51  79 116 136 185 226 258 328
#     4  11  19  35  53  81 118 138 176 234 267 319
#     4   9  17  35  54  79 113 143 182 225 261 330
#     4  12  21  34  61  82 110 145 179 225 278 319
#     4   9  19  33  54  83 107 145 182 220 275 322
#
# _framework density 23.410705
#
# number of rings (size 3 to 8) (size 9 to 14) (size 15 to 20)
#    1.000    1.000    5.000    0.500    0.000    3.333 
#    0.000    0.000    0.000    8.000    0.000    8.167 
#    0.000    0.000    0.000    0.000    0.000    0.000 
#
# Total GULP energy -67112.207614 kJ/mol
# GULP energy per Si atom -5592.683968 kJ/mol
# Density = 2.335742 g / cm^3
# Si number density = 23.410705 Si / 1000 Ang^3
#
#
#
# Elastic Constant Matrix: (Units=GPa)
#
#
# Indices 1 2 3 4 5 6 
#
# 1 151.5882 29.3673 56.0416 -22.2536 -15.8736 8.8671
# 2 29.3673 110.0156 40.1496 -12.3970 -4.3171 14.9357
# 3 56.0416 40.1496 126.8384 -31.1251 -14.5036 13.4896
# 4 -22.2536 -12.3970 -31.1251 46.5266 6.8162 7.3005
# 5 -15.8736 -4.3171 -14.5036 6.8162 26.3960 1.7662
# 6 8.8671 14.9357 13.4896 7.3005 1.7662 12.1792
#
#
#
# Elastic Compliance Matrix: (Units=1/GPa)
#
#
# Indices 1 2 3 4 5 6 
#
# 1 0.008554 -0.000233 -0.001776 0.003318 0.003708 -0.006502
# 2 -0.000233 0.012457 -0.000337 0.005641 0.001482 -0.018330
# 3 -0.001776 -0.000337 0.014553 0.011470 0.005388 -0.022070
# 4 0.003318 0.005641 0.011470 0.039125 0.002182 -0.045807
# 5 0.003708 0.001482 0.005388 0.002182 0.043970 -0.018170
# 6 -0.006502 -0.018330 -0.022070 -0.045807 -0.018170 0.163858
#
#
# Mechanical properties :
#
#
# Convention : Reuss Voigt Hill
#
# Bulk Modulus (GPa) = 32.39105 71.06214 51.72659
# Shear Modulus (GPa) = 16.80669 34.54592 25.67630
#
# Velocity S-wave (km/s) = 2.68228 3.84558 3.31535
# Velocity P-wave (km/s) = 4.84344 7.08085 6.06619
#
# Compressibility (1/GPa) = 0.03087273
#
# Stress axis : x y z
#
# Youngs Moduli (GPa) = 116.89958 80.27493 68.71210
#
# Poissons Ratio (x) = 0.01872 0.12203
# Poissons Ratio (y) = 0.02726 0.02315
# Poissons Ratio (z) = 0.20761 0.02705
#
# Static dielectric constant tensor:
#      x y z
#    x 1.811540 0.032970 0.011570 
#    y 0.032970 2.005170 0.015980 
#    z 0.011570 0.015980 1.864430 
# 
# From -- ./inp_files/250763.got.cif
#   From: 2010.05.17/outbox.cif.g08.bks.cpg/sg2_126_cif.got.tgz:250763.got - 2010.06.03 11:33:40.
