data_PCOD9053518
_publ_section_title
;
Structure prediction by ZEFSAII (Michael W. Deem and Ramdas Pophale) SiO2 
 PCOD9053518
Probable space group: P -1
;
_chemical_formula_sum "Si O2"
_cell_formula_units_Z 16
_cell_length_a 10.543059
_cell_length_b 11.558216
_cell_length_c 9.048877
_cell_angle_alpha 57.447568
_cell_angle_beta 130.691170
_cell_angle_gamma 104.455755
_cell_volume 695.856826
_symmetry_space_group_name_H-M "P -1"
_symmetry_group_IT_number 2
_symmetry_cell_setting 'triclinic'
loop_
_space_group_symop_operation_xyz
x,y,z
-x,-y,-z
loop_
_atom_site_type_symbol
_atom_site_label
_atom_site_fract_x
_atom_site_fract_y
_atom_site_fract_z
Si Si1 0.414492 0.715732 0.473026
Si Si2 0.294012 0.481098 0.047611
Si Si3 0.866081 0.394091 0.857535
Si Si4 0.077513 0.117846 0.780519
Si Si5 0.006776 0.588396 0.592719
Si Si6 0.538475 0.024097 0.842001
Si Si7 0.846886 0.792475 0.911746
Si Si8 0.705525 0.074504 0.500226
O O1 0.518068 0.573413 0.717259
O O2 0.276976 0.669479 0.292879
O O3 0.344602 0.808100 0.496640
O O4 0.506577 0.819197 0.367722
O O5 0.200253 0.534964 0.090807
O O6 0.246515 0.338430 0.040957
O O7 0.204506 0.592071 0.784499
O O8 0.926532 0.506744 0.716491
O O9 0.022909 0.267381 0.077013
O O10 0.092285 0.258243 0.607847
O O11 0.907048 0.068850 0.624825
O O12 0.256822 0.017444 0.987498
O O13 0.049439 0.166896 0.896450
O O14 0.000000 0.500000 0.500000
O O15 0.427672 0.927028 0.732115
O O16 0.500000 0.000000 0.000000
O O17 0.710720 0.924663 0.683600
#
# Coordination Sequence:
#
# PCOD9053518 Si02
#       8
#     2   2   2   2   2   2   2   2
#     4  12  23  47  70 101 137 178 243 278 344 422
#     4  11  24  40  66  96 138 183 221 284 338 411
#     4  11  24  41  68 100 132 187 230 280 344 410
#     4  12  24  44  72 104 143 177 233 293 347 409
#     4  11  22  41  63  97 133 179 228 279 340 403
#     4  12  29  44  69 109 143 177 222 301 360 404
#     4  11  19  42  71  99 129 177 241 277 335 412
#     4  12  24  46  77 104 132 191 235 288 342 418
#
# _framework density 22.993234999999999
#
# number of rings (size 3 to 8) (size 9 to 14) (size 15 to 20)
#    0.000    0.500    6.250    4.125    1.750    2.500 
#    2.250    1.250    0.000    0.000    0.000    0.000 
#    0.000    0.000    0.000    0.000    0.000    0.000 
#
# Total GULP energy -89300.700830 kJ/mol
# GULP energy per Si atom -5581.293802 kJ/mol
# Density = 2.294090 g / cm^3
# Si number density = 22.993235 Si / 1000 Ang^3
#
#
#
# Elastic Constant Matrix: (Units=GPa)
#
#
# Indices 1 2 3 4 5 6 
#
# 1 63.1950 23.0437 22.0530 18.0519 4.7571 -11.0240
# 2 23.0437 80.2182 33.2108 24.1912 -4.8340 -0.3217
# 3 22.0530 33.2108 106.4331 18.0035 0.2618 -14.0393
# 4 18.0519 24.1912 18.0035 50.0846 0.9443 12.1830
# 5 4.7571 -4.8340 0.2618 0.9443 27.8040 2.7165
# 6 -11.0240 -0.3217 -14.0393 12.1830 2.7165 32.8234
#
#
#
# Elastic Compliance Matrix: (Units=1/GPa)
#
#
# Indices 1 2 3 4 5 6 
#
# 1 0.022075 -0.003860 -0.000522 -0.008411 -0.005203 0.010705
# 2 -0.003860 0.016944 -0.003757 -0.005245 0.003929 -0.001115
# 3 -0.000522 -0.003757 0.012219 -0.003969 -0.001188 0.006586
# 4 -0.008411 -0.005245 -0.003969 0.030858 0.001091 -0.016118
# 5 -0.005203 0.003929 -0.001188 0.001091 0.038078 -0.005773
# 6 0.010705 -0.001115 0.006586 -0.016118 -0.005773 0.043328
#
#
# Mechanical properties :
#
#
# Convention : Reuss Voigt Hill
#
# Bulk Modulus (GPa) = 28.60300 45.16236 36.88268
# Shear Modulus (GPa) = 26.11884 33.57831 29.84858
#
# Velocity S-wave (km/s) = 3.37402 3.82561 3.60689
# Velocity P-wave (km/s) = 5.25789 6.26082 5.78115
#
# Compressibility (1/GPa) = 0.03496137
#
# Stress axis : x y z
#
# Youngs Moduli (GPa) = 45.29947 59.01716 81.83946
#
# Poissons Ratio (x) = 0.22778 0.04273
# Poissons Ratio (y) = 0.17483 0.30747
# Poissons Ratio (z) = 0.02365 0.22173
#
# Static dielectric constant tensor:
#      x y z
#    x 1.919770 0.049950 0.050310 
#    y 0.049950 1.858220 -0.028750 
#    z 0.050310 -0.028750 1.936580 
# 
# From -- ./inp_files/262147.got.cif
#   From: 2010.05.17/outbox.cif.g08.bks.cpg/sg2_132_cif.got.tgz:262147.got - 2010.06.03 11:33:40.
