data_PCOD9053029
_publ_section_title
;
Structure prediction by ZEFSAII (Michael W. Deem and Ramdas Pophale) SiO2 
 PCOD9053029
Probable space group: P -1
;
_chemical_formula_sum "Si O2"
_cell_formula_units_Z 16
_cell_length_a 14.451889
_cell_length_b 7.207090
_cell_length_c 16.462278
_cell_angle_alpha 90.697372
_cell_angle_beta 29.492967
_cell_angle_gamma 71.505032
_cell_volume 629.714051
_symmetry_space_group_name_H-M "P -1"
_symmetry_group_IT_number 2
_symmetry_cell_setting 'triclinic'
loop_
_space_group_symop_operation_xyz
x,y,z
-x,-y,-z
loop_
_atom_site_type_symbol
_atom_site_label
_atom_site_fract_x
_atom_site_fract_y
_atom_site_fract_z
Si Si1 0.365609 0.877344 0.529674
Si Si2 0.513172 0.262139 0.733591
Si Si3 0.950453 0.397952 0.326078
Si Si4 0.066163 0.843990 0.367174
Si Si5 0.276157 0.032795 0.942385
Si Si6 0.225030 0.474664 0.365871
Si Si7 0.586012 0.128748 0.330449
Si Si8 0.170819 0.648039 0.123806
O O1 0.446350 0.699971 0.389601
O O2 0.369672 0.801136 0.617512
O O3 0.556258 0.929139 0.375620
O O4 0.083961 0.136875 0.729214
O O5 0.319739 0.219086 0.886024
O O6 0.398460 0.485429 0.884742
O O7 0.777297 0.998209 0.559024
O O8 0.124956 0.470409 0.196013
O O9 0.900454 0.355654 0.454919
O O10 0.686137 0.640294 0.495019
O O11 0.063269 0.181704 0.173745
O O12 0.259939 0.578839 0.261874
O O13 0.189228 0.781044 0.184159
O O14 0.000000 0.000000 0.500000
O O15 0.530461 0.793958 0.790815
O O16 0.237419 0.961803 0.884095
O O17 0.000000 0.500000 0.500000
#
# Coordination Sequence:
#
# PCOD9053029 Si02
#       8
#     2   2   2   2   2   2   2   2
#     4   8  14  25  42  65  96 131 150 181 231 283
#     4   9  17  30  46  67  93 123 159 193 229 277
#     4   9  17  28  46  70  94 121 156 194 229 273
#     4  11  22  34  47  67  95 125 158 198 236 270
#     4   9  17  28  46  70  94 121 156 194 229 273
#     4  11  18  32  49  67  91 125 161 192 230 281
#     4   8  14  25  40  66 102 124 149 185 231 278
#     4   9  17  30  46  67  93 123 159 193 229 277
#
# _framework density 25.408356999999999
#
# number of rings (size 3 to 8) (size 9 to 14) (size 15 to 20)
#    0.000    2.750    2.500    1.500    0.000    3.000 
#    0.000    5.000    0.000    0.000    0.000   14.000 
#    0.000   16.000    0.000    0.000    0.000    0.000 
#
# Total GULP energy -89214.679656 kJ/mol
# GULP energy per Si atom -5575.917478 kJ/mol
# Density = 2.535053 g / cm^3
# Si number density = 25.408357 Si / 1000 Ang^3
#
#
#
# Elastic Constant Matrix: (Units=GPa)
#
#
# Indices 1 2 3 4 5 6 
#
# 1 128.7339 26.5219 48.1834 -15.1784 57.3288 -39.4470
# 2 26.5219 53.5589 6.8620 -20.1238 18.3966 -10.7833
# 3 48.1834 6.8620 154.6237 -12.1446 56.7818 -11.8785
# 4 -15.1784 -20.1238 -12.1446 22.6262 -1.1662 9.0413
# 5 57.3288 18.3966 56.7818 -1.1662 50.6876 -16.8280
# 6 -39.4470 -10.7833 -11.8785 9.0413 -16.8280 42.4697
#
#
#
# Elastic Compliance Matrix: (Units=1/GPa)
#
#
# Indices 1 2 3 4 5 6 
#
# 1 0.024956 0.011463 0.008742 0.026673 -0.039123 0.007355
# 2 0.011463 0.049978 0.017160 0.060664 -0.050525 -0.004798
# 3 0.008742 0.017160 0.019102 0.030960 -0.038084 -0.003862
# 4 0.026673 0.060664 0.030960 0.134023 -0.088713 -0.014846
# 5 -0.039123 -0.050525 -0.038084 -0.088713 0.125911 0.008957
# 6 0.007355 -0.004798 -0.003862 -0.014846 0.008957 0.034789
#
#
# Mechanical properties :
#
#
# Convention : Reuss Voigt Hill
#
# Bulk Modulus (GPa) = 5.92538 55.56124 30.74331
# Shear Modulus (GPa) = 13.50317 40.17997 26.84157
#
# Velocity S-wave (km/s) = 2.30781 3.98096 3.25377
# Velocity P-wave (km/s) = 3.07221 6.56090 5.12269
#
# Compressibility (1/GPa) = 0.16876564
#
# Stress axis : x y z
#
# Youngs Moduli (GPa) = 40.07112 20.00883 52.35046
#
# Poissons Ratio (x) = -0.22937 -0.45764
# Poissons Ratio (y) = -0.45934 -0.89833
# Poissons Ratio (z) = -0.35029 -0.34335
#
# Static dielectric constant tensor:
#      x y z
#    x 2.077330 0.148730 0.054440 
#    y 0.148730 2.063460 0.031230 
#    z 0.054440 0.031230 1.884960 
# 
# From -- ./inp_files/216591.got.cif
#   From: 2010.05.17/outbox.cif.g08.bks.cpg/sg2_109_cif.got.tgz:216591.got - 2010.06.03 11:33:40.
