data_PCOD9053148
_publ_section_title
;
Structure prediction by ZEFSAII (Michael W. Deem and Ramdas Pophale) SiO2 
 PCOD9053148
Probable space group: P -1
;
_chemical_formula_sum "Si O2"
_cell_formula_units_Z 16
_cell_length_a 7.359809
_cell_length_b 11.158719
_cell_length_c 15.888378
_cell_angle_alpha 65.371179
_cell_angle_beta 35.003280
_cell_angle_gamma 64.695781
_cell_volume 671.067135
_symmetry_space_group_name_H-M "P -1"
_symmetry_group_IT_number 2
_symmetry_cell_setting 'triclinic'
loop_
_space_group_symop_operation_xyz
x,y,z
-x,-y,-z
loop_
_atom_site_type_symbol
_atom_site_label
_atom_site_fract_x
_atom_site_fract_y
_atom_site_fract_z
Si Si1 0.454405 0.310760 0.072872
Si Si2 0.368293 0.123464 0.951171
Si Si3 0.913324 0.281843 0.759841
Si Si4 0.898410 0.835266 0.526367
Si Si5 0.132486 0.697999 0.800486
Si Si6 0.561963 0.978839 0.758377
Si Si7 0.265055 0.420994 0.285944
Si Si8 0.551315 0.848202 0.495062
O O1 0.434599 0.398044 0.137763
O O2 0.155151 0.367722 0.109141
O O3 0.410622 0.160233 0.160020
O O4 0.778543 0.295693 0.901406
O O5 0.642627 0.215923 0.831978
O O6 0.333574 0.074738 0.882554
O O7 0.040156 0.201328 0.092071
O O8 0.500000 0.000000 0.000000
O O9 0.922063 0.430310 0.680221
O O10 0.263524 0.189912 0.649857
O O11 0.964373 0.693234 0.590186
O O12 0.814152 0.786870 0.481327
O O13 0.146039 0.935862 0.387259
O O14 0.589850 0.917443 0.670086
O O15 0.442083 0.608052 0.749900
O O16 0.251168 0.781448 0.653332
O O17 0.500000 0.000000 0.500000
#
# Coordination Sequence:
#
# PCOD9053148 Si02
#       8
#     2   2   2   2   2   2   2   2
#     4  10  21  40  67  88 126 164 203 260 304 360
#     4  11  19  36  62  92 118 163 210 252 308 364
#     4  11  22  38  66  86 124 169 194 256 315 362
#     4   9  20  34  57  87 121 163 192 261 298 359
#     4  10  22  37  63  89 121 166 202 255 300 364
#     4  10  17  35  59  87 121 158 209 245 313 353
#     4  10  23  42  60  93 128 159 211 244 311 373
#     4  11  21  37  59  91 122 157 212 252 304 370
#
# _framework density 23.842623
#
# number of rings (size 3 to 8) (size 9 to 14) (size 15 to 20)
#    0.000    1.750    3.750    1.875    0.000    4.000 
#    2.250    2.500    0.000    0.000    0.000    0.000 
#    0.000    0.000    0.000    0.000    0.000    0.000 
#
# Total GULP energy -89131.353782 kJ/mol
# GULP energy per Si atom -5570.709611 kJ/mol
# Density = 2.378836 g / cm^3
# Si number density = 23.842623 Si / 1000 Ang^3
#
#
#
# Elastic Constant Matrix: (Units=GPa)
#
#
# Indices 1 2 3 4 5 6 
#
# 1 32.1466 3.7443 3.3401 -4.1998 8.4868 4.0682
# 2 3.7443 135.1779 40.7822 -8.5156 1.5905 -1.5072
# 3 3.3401 40.7822 120.7344 3.3031 4.4583 -1.0417
# 4 -4.1998 -8.5156 3.3031 26.1898 4.5881 -2.0611
# 5 8.4868 1.5905 4.4583 4.5881 18.3304 2.6305
# 6 4.0682 -1.5072 -1.0417 -2.0611 2.6305 27.4596
#
#
#
# Elastic Compliance Matrix: (Units=1/GPa)
#
#
# Indices 1 2 3 4 5 6 
#
# 1 0.037860 -0.000099 -0.000583 0.009241 -0.019247 -0.003099
# 2 -0.000099 0.008511 -0.002924 0.003337 -0.000919 0.000709
# 3 -0.000583 -0.002924 0.009391 -0.001980 -0.001302 0.000258
# 4 0.009241 0.003337 -0.001980 0.044013 -0.015610 0.003538
# 5 -0.019247 -0.000919 -0.001302 -0.015610 0.068484 -0.004980
# 6 -0.003099 0.000709 0.000258 0.003538 -0.004980 0.037668
#
#
# Mechanical properties :
#
#
# Convention : Reuss Voigt Hill
#
# Bulk Modulus (GPa) = 20.59649 42.64358 31.62003
# Shear Modulus (GPa) = 21.80351 30.40877 26.10614
#
# Velocity S-wave (km/s) = 3.02731 3.57514 3.31257
# Velocity P-wave (km/s) = 4.56911 5.91324 5.28409
#
# Compressibility (1/GPa) = 0.04855197
#
# Stress axis : x y z
#
# Youngs Moduli (GPa) = 26.41290 117.49024 106.48763
#
# Poissons Ratio (x) = 0.01161 0.06207
# Poissons Ratio (y) = 0.00261 0.31132
# Poissons Ratio (z) = 0.01540 0.34349
#
# Static dielectric constant tensor:
#      x y z
#    x 1.971180 -0.057050 0.044540 
#    y -0.057050 1.933230 -0.023590 
#    z 0.044540 -0.023590 2.012080 
# 
# From -- ./inp_files/559069.got.cif
#   From: 2010.05.17/outbox.cif.g08.bks.cpg/sg2_280_cif.got.tgz:559069.got - 2010.06.03 11:33:40.
