data_PCOD9053157
_publ_section_title
;
Structure prediction by ZEFSAII (Michael W. Deem and Ramdas Pophale) SiO2 
 PCOD9053157
Probable space group: P -1
;
_chemical_formula_sum "Si O2"
_cell_formula_units_Z 16
_cell_length_a 13.751391
_cell_length_b 8.582496
_cell_length_c 11.743483
_cell_angle_alpha 146.664626
_cell_angle_beta 65.491441
_cell_angle_gamma 127.248970
_cell_volume 593.059858
_symmetry_space_group_name_H-M "P -1"
_symmetry_group_IT_number 2
_symmetry_cell_setting 'triclinic'
loop_
_space_group_symop_operation_xyz
x,y,z
-x,-y,-z
loop_
_atom_site_type_symbol
_atom_site_label
_atom_site_fract_x
_atom_site_fract_y
_atom_site_fract_z
Si Si1 0.959074 0.381450 0.299638
Si Si2 0.187143 0.704671 0.995418
Si Si3 0.178355 0.322187 0.536399
Si Si4 0.991589 0.094141 0.873073
Si Si5 0.709274 0.942603 0.278260
Si Si6 0.559312 0.118142 0.322546
Si Si7 0.311014 0.113330 0.497393
Si Si8 0.595887 0.279649 0.021282
O O1 0.013420 0.242915 0.288591
O O2 0.813176 0.134971 0.252068
O O3 0.946769 0.709394 0.481034
O O4 0.998252 0.277075 0.101396
O O5 0.182796 0.545921 0.778939
O O6 0.103833 0.381686 0.918650
O O7 0.327313 0.890237 0.086611
O O8 0.128988 0.936601 0.151812
O O9 0.312404 0.535052 0.537642
O O10 0.201568 0.054794 0.428693
O O11 0.749102 0.077600 0.470483
O O12 0.674917 0.567457 0.066572
O O13 0.585406 0.941126 0.304644
O O14 0.426571 0.087047 0.382929
O O15 0.537426 0.931316 0.098796
O O16 0.387459 0.492418 0.739587
#
# Coordination Sequence:
#
# PCOD9053157 Si02
#       8
#     2   2   2   2   2   2   2   2
#     4   9  15  26  47  74  94 124 161 197 242 287
#     4   9  16  29  43  70 102 121 155 207 237 280
#     4   9  18  29  45  68 101 127 158 200 232 280
#     4   9  15  25  47  72  98 120 159 201 244 288
#     4   9  18  32  46  70 103 124 160 202 231 280
#     4  11  19  31  50  70  97 138 159 189 239 279
#     4   9  19  32  46  68 100 132 163 193 230 282
#     4   9  19  31  49  70 102 126 160 198 231 283
#
# _framework density 26.978725000000001
#
# number of rings (size 3 to 8) (size 9 to 14) (size 15 to 20)
#    0.750    2.000    1.250    1.125    0.000    2.000 
#    0.000    0.000    0.000    0.000    0.000   33.250 
#    0.000    0.000    0.000    0.000    0.000    0.000 
#
# Total GULP energy -89173.106564 kJ/mol
# GULP energy per Si atom -5573.319160 kJ/mol
# Density = 2.691732 g / cm^3
# Si number density = 26.978725 Si / 1000 Ang^3
#
#
#
# Elastic Constant Matrix: (Units=GPa)
#
#
# Indices 1 2 3 4 5 6 
#
# 1 174.5752 32.5733 33.4038 11.9641 -19.0357 -57.2328
# 2 32.5733 120.9470 22.4362 -5.4006 -10.5480 -10.4905
# 3 33.4038 22.4362 82.5366 16.9656 -35.8991 -6.2555
# 4 11.9641 -5.4006 16.9656 33.3338 -2.3943 -1.6662
# 5 -19.0357 -10.5480 -35.8991 -2.3943 53.2839 5.4591
# 6 -57.2328 -10.4905 -6.2555 -1.6662 5.4591 49.6355
#
#
#
# Elastic Compliance Matrix: (Units=1/GPa)
#
#
# Indices 1 2 3 4 5 6 
#
# 1 0.010291 -0.001441 -0.002177 -0.002214 0.000684 0.011138
# 2 -0.001441 0.009308 -0.002838 0.003444 -0.000441 0.000112
# 3 -0.002177 -0.002838 0.021084 -0.009609 0.012655 -0.002167
# 4 -0.002214 0.003444 -0.009609 0.035830 -0.004839 -0.001300
# 5 0.000684 -0.000441 0.012655 -0.004839 0.027323 -0.000877
# 6 0.011138 0.000112 -0.002167 -0.001300 -0.000877 0.032793
#
#
# Mechanical properties :
#
#
# Convention : Reuss Voigt Hill
#
# Bulk Modulus (GPa) = 36.00862 61.65394 48.83128
# Shear Modulus (GPa) = 31.48668 46.56035 39.02352
#
# Velocity S-wave (km/s) = 3.41998 4.15880 3.80736
# Velocity P-wave (km/s) = 5.38248 6.77962 6.12104
#
# Compressibility (1/GPa) = 0.02777113
#
# Stress axis : x y z
#
# Youngs Moduli (GPa) = 97.16880 107.43825 47.43039
#
# Poissons Ratio (x) = 0.15482 0.10323
# Poissons Ratio (y) = 0.14002 0.13462
# Poissons Ratio (z) = 0.21149 0.30493
#
# Static dielectric constant tensor:
#      x y z
#    x 2.139100 -0.119150 -0.027290 
#    y -0.119150 2.161810 -0.027180 
#    z -0.027290 -0.027180 2.209310 
# 
# From -- ./inp_files/527922.got.cif
#   From: 2010.05.17/outbox.cif.g08.bks.cpg/sg2_264_cif.got.tgz:527922.got - 2010.06.03 11:33:40.
