data_PCOD9053224
_publ_section_title
;
Structure prediction by ZEFSAII (Michael W. Deem and Ramdas Pophale) SiO2 
 PCOD9053224
Probable space group: P -1
;
_chemical_formula_sum "Si O2"
_cell_formula_units_Z 14
_cell_length_a 7.962693
_cell_length_b 17.101833
_cell_length_c 12.473346
_cell_angle_alpha 23.347012
_cell_angle_beta 107.968885
_cell_angle_gamma 108.096698
_cell_volume 638.620416
_symmetry_space_group_name_H-M "P -1"
_symmetry_group_IT_number 2
_symmetry_cell_setting 'triclinic'
loop_
_space_group_symop_operation_xyz
x,y,z
-x,-y,-z
loop_
_atom_site_type_symbol
_atom_site_label
_atom_site_fract_x
_atom_site_fract_y
_atom_site_fract_z
Si Si1 0.484738 0.454808 0.227990
Si Si2 0.154380 0.993469 0.206377
Si Si3 0.804246 0.558087 0.303333
Si Si4 0.674651 0.395646 0.698736
Si Si5 0.505438 0.979426 0.154791
Si Si6 0.046508 0.386450 0.385505
Si Si7 0.243508 0.639408 0.790552
O O1 0.606329 0.558877 0.213183
O O2 0.427888 0.231828 0.534273
O O3 0.621239 0.426270 0.192071
O O4 0.326353 0.571200 0.002328
O O5 0.307315 0.987929 0.153435
O O6 0.980634 0.852742 0.317695
O O7 0.229764 0.874176 0.473151
O O8 0.126898 0.216995 0.945466
O O9 0.793186 0.437558 0.563061
O O10 0.083300 0.547094 0.629980
O O11 0.500000 0.500000 0.500000
O O12 0.769045 0.506871 0.677706
O O13 0.624446 0.164347 0.993249
O O14 0.500000 0.000000 0.000000
O O15 0.950399 0.445455 0.182150
#
# Coordination Sequence:
#
# PCOD9053224 Si02
#       7
#     2   2   2   2   2   2   2
#     4   9  16  32  59  81 115 146 189 236 276 333
#     4   9  19  36  57  84 110 150 194 230 284 329
#     4  11  19  34  60  87 111 152 189 231 288 335
#     4  12  23  36  55  83 119 152 187 233 292 341
#     4  11  19  35  54  85 118 153 186 229 288 341
#     4   9  21  40  55  81 120 145 192 241 273 340
#     4   7  16  35  55  81 111 147 189 237 276 321
#
# _framework density 21.922255
#
# number of rings (size 3 to 8) (size 9 to 14) (size 15 to 20)
#    0.857    1.429    4.286    0.429    0.000    1.143 
#    2.571    0.714    0.000    0.857    0.000    0.000 
#    0.000    0.000    0.000    0.000    0.000    0.000 
#
# Total GULP energy -78149.117548 kJ/mol
# GULP energy per Si atom -5582.079825 kJ/mol
# Density = 2.187236 g / cm^3
# Si number density = 21.922255 Si / 1000 Ang^3
#
#
#
# Elastic Constant Matrix: (Units=GPa)
#
#
# Indices 1 2 3 4 5 6 
#
# 1 50.5256 32.4595 26.2391 -1.3063 -3.7421 17.0596
# 2 32.4595 147.3136 79.7777 -8.2349 -11.6985 34.6565
# 3 26.2391 79.7777 116.6859 -5.2871 -1.9440 21.0580
# 4 -1.3063 -8.2349 -5.2871 54.0367 1.4480 -2.1002
# 5 -3.7421 -11.6985 -1.9440 1.4480 19.3285 -1.7506
# 6 17.0596 34.6565 21.0580 -2.1002 -1.7506 41.9643
#
#
#
# Elastic Compliance Matrix: (Units=1/GPa)
#
#
# Indices 1 2 3 4 5 6 
#
# 1 0.025216 -0.002155 -0.002921 -0.000345 0.002684 -0.006911
# 2 -0.002155 0.013173 -0.007289 0.000841 0.006212 -0.006044
# 3 -0.002921 -0.007289 0.014171 0.000299 -0.003578 -0.000038
# 4 -0.000345 0.000841 0.000299 0.018687 -0.000910 0.000193
# 5 0.002684 0.006212 -0.003578 -0.000910 0.055530 -0.002155
# 6 -0.006911 -0.006044 -0.000038 0.000193 -0.002155 0.031570
#
#
# Mechanical properties :
#
#
# Convention : Reuss Voigt Hill
#
# Bulk Modulus (GPa) = 35.93151 65.71972 50.82561
# Shear Modulus (GPa) = 25.99381 34.80249 30.39815
#
# Velocity S-wave (km/s) = 3.44717 3.98872 3.72779
# Velocity P-wave (km/s) = 5.68067 7.15938 6.46246
#
# Compressibility (1/GPa) = 0.02783073
#
# Stress axis : x y z
#
# Youngs Moduli (GPa) = 39.65658 75.91476 70.56481
#
# Poissons Ratio (x) = 0.16357 0.20612
# Poissons Ratio (y) = 0.08545 0.51437
# Poissons Ratio (z) = 0.11583 0.55337
#
# Static dielectric constant tensor:
#      x y z
#    x 1.912960 0.031980 -0.001270 
#    y 0.031980 1.815830 0.007680 
#    z -0.001270 0.007680 1.771990 
# 
# From -- ./inp_files/523543.got.cif
#   From: 2010.05.17/outbox.cif.g08.bks.cpg/sg2_262_cif.got.tgz:523543.got - 2010.06.03 11:33:40.
