data_PCOD9053066
_publ_section_title
;
Structure prediction by ZEFSAII (Michael W. Deem and Ramdas Pophale) SiO2 
 PCOD9053066
Probable space group: P -1
;
_chemical_formula_sum "Si O2"
_cell_formula_units_Z 16
_cell_length_a 7.735375
_cell_length_b 9.470067
_cell_length_c 12.091769
_cell_angle_alpha 72.724391
_cell_angle_beta 96.747644
_cell_angle_gamma 56.532842
_cell_volume 660.134603
_symmetry_space_group_name_H-M "P -1"
_symmetry_group_IT_number 2
_symmetry_cell_setting 'triclinic'
loop_
_space_group_symop_operation_xyz
x,y,z
-x,-y,-z
loop_
_atom_site_type_symbol
_atom_site_label
_atom_site_fract_x
_atom_site_fract_y
_atom_site_fract_z
Si Si1 0.172444 0.320516 0.979748
Si Si2 0.148112 0.415602 0.278999
Si Si3 0.411719 0.201735 0.725403
Si Si4 0.837645 0.023048 0.889448
Si Si5 0.453005 0.848147 0.805944
Si Si6 0.991069 0.052495 0.651855
Si Si7 0.704848 0.959528 0.592082
Si Si8 0.731001 0.473410 0.517334
O O1 0.154396 0.159576 0.053946
O O2 0.415667 0.252035 0.046742
O O3 0.000000 0.500000 0.000000
O O4 0.072713 0.396810 0.832635
O O5 0.347308 0.288725 0.234335
O O6 0.111335 0.263794 0.338913
O O7 0.236220 0.458767 0.380075
O O8 0.269351 0.401827 0.607713
O O9 0.572521 0.189814 0.831574
O O10 0.345954 0.066992 0.776075
O O11 0.585340 0.063075 0.673131
O O12 0.917777 0.052765 0.773183
O O13 0.000000 0.000000 0.000000
O O14 0.248266 0.879131 0.722661
O O15 0.929248 0.252887 0.573263
O O16 0.839531 0.036083 0.561306
O O17 0.500000 0.000000 0.500000
O O18 0.500000 0.500000 0.500000
#
# Coordination Sequence:
#
# PCOD9053066 Si02
#       8
#     2   2   2   2   2   2   2   2
#     4   9  18  36  58  81 109 156 196 231 281 353
#     4  10  20  37  64  83 114 156 202 227 287 356
#     4   9  19  35  57  79 121 153 189 236 287 349
#     4  10  19  35  57  84 110 151 195 233 288 349
#     4   9  21  39  58  86 120 154 186 246 305 334
#     4  11  22  36  62  89 118 146 195 249 295 333
#     4  10  17  35  59  84 112 154 193 226 283 352
#     4  12  20  35  61  90 111 153 206 239 271 353
#
# _framework density 24.237479
#
# number of rings (size 3 to 8) (size 9 to 14) (size 15 to 20)
#    0.000    2.000    3.750    3.000    0.000    0.500 
#    0.000   16.875    2.750    0.000    0.000    0.000 
#    0.000    0.000    0.000    0.000    0.000    0.000 
#
# Total GULP energy -89157.438577 kJ/mol
# GULP energy per Si atom -5572.339911 kJ/mol
# Density = 2.418231 g / cm^3
# Si number density = 24.237479 Si / 1000 Ang^3
#
#
#
# Elastic Constant Matrix: (Units=GPa)
#
#
# Indices 1 2 3 4 5 6 
#
# 1 21.5745 13.4710 30.0537 1.3797 15.0256 -3.8471
# 2 13.4710 94.6832 44.9359 -8.9406 1.8070 6.8360
# 3 30.0537 44.9359 192.4349 -5.2330 21.5315 10.2731
# 4 1.3797 -8.9406 -5.2330 52.0385 8.6628 1.4433
# 5 15.0256 1.8070 21.5315 8.6628 47.0667 1.8049
# 6 -3.8471 6.8360 10.2731 1.4433 1.8049 24.7875
#
#
#
# Elastic Compliance Matrix: (Units=1/GPa)
#
#
# Indices 1 2 3 4 5 6 
#
# 1 0.085628 -0.008722 -0.009958 -0.001542 -0.022989 0.021586
# 2 -0.008722 0.013077 -0.001717 0.001952 0.002884 -0.004572
# 3 -0.009958 -0.001717 0.007416 0.000855 -0.000144 -0.004185
# 4 -0.001542 0.001952 0.000855 0.020341 -0.003639 -0.002051
# 5 -0.022989 0.002884 -0.000144 -0.003639 0.029450 -0.006236
# 6 0.021586 -0.004572 -0.004185 -0.002051 -0.006236 0.047262
#
#
# Mechanical properties :
#
#
# Convention : Reuss Voigt Hill
#
# Bulk Modulus (GPa) = 15.30790 53.95709 34.63249
# Shear Modulus (GPa) = 18.81518 39.46066 29.13792
#
# Velocity S-wave (km/s) = 2.78921 4.03933 3.47101
# Velocity P-wave (km/s) = 4.08686 6.63815 5.51215
#
# Compressibility (1/GPa) = 0.06532576
#
# Stress axis : x y z
#
# Youngs Moduli (GPa) = 11.67844 76.47213 134.85232
#
# Poissons Ratio (x) = 0.66698 1.34291
# Poissons Ratio (y) = 0.10186 0.23153
# Poissons Ratio (z) = 0.11630 0.13130
#
# Static dielectric constant tensor:
#      x y z
#    x 2.088890 0.013010 -0.055970 
#    y 0.013010 1.919660 0.033580 
#    z -0.055970 0.033580 2.106000 
# 
# From -- ./inp_files/216668.got.cif
#   From: 2010.05.17/outbox.cif.g08.bks.cpg/sg2_109_cif.got.tgz:216668.got - 2010.06.03 11:33:40.
