data_PCOD9053523
_publ_section_title
;
Structure prediction by ZEFSAII (Michael W. Deem and Ramdas Pophale) SiO2 
 PCOD9053523
Probable space group: P -1
;
_chemical_formula_sum "Si O2"
_cell_formula_units_Z 14
_cell_length_a 20.670101
_cell_length_b 12.383741
_cell_length_c 10.555114
_cell_angle_alpha 130.967923
_cell_angle_beta 39.540799
_cell_angle_gamma 158.525384
_cell_volume 607.003689
_symmetry_space_group_name_H-M "P -1"
_symmetry_group_IT_number 2
_symmetry_cell_setting 'triclinic'
loop_
_space_group_symop_operation_xyz
x,y,z
-x,-y,-z
loop_
_atom_site_type_symbol
_atom_site_label
_atom_site_fract_x
_atom_site_fract_y
_atom_site_fract_z
Si Si1 0.325742 0.801179 0.997733
Si Si2 0.823931 0.780839 0.470000
Si Si3 0.152213 0.895107 0.777675
Si Si4 0.482952 0.870416 0.544906
Si Si5 0.218574 0.225624 0.769290
Si Si6 0.710398 0.703028 0.908069
Si Si7 0.576291 0.766908 0.831782
O O1 0.406891 0.849166 0.774644
O O2 0.103438 0.446833 0.096595
O O3 0.500000 0.000000 0.000000
O O4 0.283472 0.917860 0.142515
O O5 0.683628 0.470111 0.489197
O O6 0.799373 0.753820 0.332058
O O7 0.719198 0.805174 0.675751
O O8 0.084171 0.083912 0.322585
O O9 0.285925 0.917821 0.616350
O O10 0.225876 0.066143 0.669504
O O11 0.216487 0.083996 0.939188
O O12 0.500000 0.000000 0.500000
O O13 0.432064 0.559167 0.765656
O O14 0.000000 0.000000 0.000000
O O15 0.500000 0.500000 0.000000
O O16 0.612430 0.451474 0.944547
#
# Coordination Sequence:
#
# PCOD9053523 Si02
#       7
#     2   2   2   2   2   2   2
#     4  12  28  48  74 115 158 197 247 316 387 444
#     4  12  23  46  77 105 143 201 251 314 376 449
#     4  11  25  48  73 110 152 199 247 320 377 453
#     4  12  28  49  76 109 155 208 249 306 389 454
#     4  11  19  42  78 103 145 190 253 314 377 436
#     4  11  25  45  76 104 145 192 260 305 364 455
#     4  11  25  41  71 112 139 191 252 311 365 451
#
# _framework density 23.064108999999998
#
# number of rings (size 3 to 8) (size 9 to 14) (size 15 to 20)
#    0.000    0.571    7.143    2.143    4.000    4.000 
#    0.000    0.000    0.000    0.000    0.000    0.000 
#    0.000    0.000    0.000    0.000    0.000    0.000 
#
# Total GULP energy -78356.697713 kJ/mol
# GULP energy per Si atom -5596.906979 kJ/mol
# Density = 2.301161 g / cm^3
# Si number density = 23.064109 Si / 1000 Ang^3
#
#
#
# Elastic Constant Matrix: (Units=GPa)
#
#
# Indices 1 2 3 4 5 6 
#
# 1 107.6564 48.2386 37.1180 -0.5439 -15.2681 -10.5994
# 2 48.2386 148.0689 31.3348 -7.2293 -4.2432 -2.9053
# 3 37.1180 31.3348 112.3044 -15.4235 -6.3695 -6.8654
# 4 -0.5439 -7.2293 -15.4235 34.0223 -5.1328 -12.3682
# 5 -15.2681 -4.2432 -6.3695 -5.1328 41.4682 -11.4254
# 6 -10.5994 -2.9053 -6.8654 -12.3682 -11.4254 46.4262
#
#
#
# Elastic Compliance Matrix: (Units=1/GPa)
#
#
# Indices 1 2 3 4 5 6 
#
# 1 0.012807 -0.003362 -0.002748 0.000311 0.004984 0.003617
# 2 -0.003362 0.008101 -0.001057 0.001009 -0.000523 -0.000277
# 3 -0.002748 -0.001057 0.011314 0.006389 0.002304 0.003249
# 4 0.000311 0.001009 0.006389 0.039054 0.009866 0.013911
# 5 0.004984 -0.000523 0.002304 0.009866 0.030674 0.011623
# 6 0.003617 -0.000277 0.003249 0.013911 0.011623 0.029395
#
#
# Mechanical properties :
#
#
# Convention : Reuss Voigt Hill
#
# Bulk Modulus (GPa) = 55.90299 66.82360 61.36330
# Shear Modulus (GPa) = 32.97204 41.13924 37.05564
#
# Velocity S-wave (km/s) = 3.78508 4.22796 4.01264
# Velocity P-wave (km/s) = 6.58735 7.27118 6.93770
#
# Compressibility (1/GPa) = 0.01788813
#
# Stress axis : x y z
#
# Youngs Moduli (GPa) = 78.08027 123.43475 88.38243
#
# Poissons Ratio (x) = 0.41496 0.24291
# Poissons Ratio (y) = 0.26249 0.09345
# Poissons Ratio (z) = 0.21460 0.13051
#
# Static dielectric constant tensor:
#      x y z
#    x 1.912120 0.021220 0.038020 
#    y 0.021220 1.827850 0.029930 
#    z 0.038020 0.029930 1.927100 
# 
# From -- ./inp_files/471223.got.cif
#   From: 2010.05.17/outbox.cif.g08.bks.cpg/sg2_236_cif.got.tgz:471223.got - 2010.06.03 11:33:40.
