data_PCOD9053723
_publ_section_title
;
Structure prediction by ZEFSAII (Michael W. Deem and Ramdas Pophale) SiO2 
 PCOD9053723
Probable space group: P -1
;
_chemical_formula_sum "Si O2"
_cell_formula_units_Z 16
_cell_length_a 17.501090
_cell_length_b 8.350270
_cell_length_c 11.966195
_cell_angle_alpha 65.109273
_cell_angle_beta 148.950412
_cell_angle_gamma 104.348313
_cell_volume 794.055607
_symmetry_space_group_name_H-M "P -1"
_symmetry_group_IT_number 2
_symmetry_cell_setting 'triclinic'
loop_
_space_group_symop_operation_xyz
x,y,z
-x,-y,-z
loop_
_atom_site_type_symbol
_atom_site_label
_atom_site_fract_x
_atom_site_fract_y
_atom_site_fract_z
Si Si1 0.834276 0.995844 0.467892
Si Si2 0.403128 0.017314 0.640794
Si Si3 0.253279 0.588241 0.690484
Si Si4 0.457812 0.534952 0.752873
Si Si5 0.255064 0.180824 0.820339
Si Si6 0.819614 0.109302 0.035351
Si Si7 0.466989 0.651022 0.317505
Si Si8 0.615332 0.113423 0.566528
O O1 0.829124 0.210570 0.425110
O O2 0.708462 0.948535 0.405463
O O3 0.792651 0.928059 0.313490
O O4 0.005460 0.888494 0.743041
O O5 0.464965 0.179295 0.617511
O O6 0.312075 0.964364 0.437221
O O7 0.558688 0.871435 0.918567
O O8 0.312436 0.593167 0.634964
O O9 0.194886 0.400376 0.677275
O O10 0.401974 0.541427 0.968966
O O11 0.457907 0.391950 0.697459
O O12 0.484667 0.695441 0.659986
O O13 0.196395 0.084948 0.880135
O O14 0.714973 0.265097 0.936945
O O15 0.737845 0.135566 0.804917
O O16 0.500000 0.500000 0.500000
O O17 0.500000 0.000000 0.500000
#
# Coordination Sequence:
#
# PCOD9053723 Si02
#       8
#     2   2   2   2   2   2   2   2
#     4  12  25  42  63 100 139 167 210 270 341 386
#     4  11  21  39  65  96 123 171 219 269 317 380
#     4  11  21  39  65  95 126 169 214 267 326 373
#     4  11  20  36  63  95 119 157 223 273 302 375
#     4  11  22  42  66  94 132 172 226 262 310 394
#     4  11  25  41  64  96 136 172 205 273 336 384
#     4  11  21  39  66  91 122 170 221 266 315 382
#     4  12  19  40  65  89 126 161 220 263 310 388
#
# _framework density 20.149723999999999
#
# number of rings (size 3 to 8) (size 9 to 14) (size 15 to 20)
#    0.000    0.750    6.250    3.750    0.000    1.000 
#    0.000    3.125    0.000    0.000    0.000    0.000 
#    0.000    0.000    0.000    0.000    0.000    0.000 
#
# Total GULP energy -89069.369858 kJ/mol
# GULP energy per Si atom -5566.835616 kJ/mol
# Density = 2.010386 g / cm^3
# Si number density = 20.149724 Si / 1000 Ang^3
#
#
#
# Elastic Constant Matrix: (Units=GPa)
#
#
# Indices 1 2 3 4 5 6 
#
# 1 38.0655 18.0110 38.2994 4.1743 -16.8193 -10.4280
# 2 18.0110 84.8858 16.7010 -18.3208 -7.8539 -5.4667
# 3 38.2994 16.7010 44.2013 -5.1245 -18.0211 25.0317
# 4 4.1743 -18.3208 -5.1245 26.6482 -7.3678 -6.7804
# 5 -16.8193 -7.8539 -18.0211 -7.3678 32.1518 17.0341
# 6 -10.4280 -5.4667 25.0317 -6.7804 17.0341 26.3764
#
#
#
# Elastic Compliance Matrix: (Units=1/GPa)
#
#
# Indices 1 2 3 4 5 6 
#
# 1 0.020296 -0.007147 0.015911 -0.003706 0.033410 -0.031087
# 2 -0.007147 0.016795 -0.000762 0.013862 0.000753 0.004455
# 3 0.015911 -0.000762 -0.014199 -0.002719 -0.015903 0.029179
# 4 -0.003706 0.013862 -0.002719 0.051979 0.004017 0.014756
# 5 0.033410 0.000753 -0.015903 0.004017 0.038226 0.004803
# 6 -0.031087 0.004455 0.029179 0.014756 0.004803 -0.000455
#
#
# Mechanical properties :
#
#
# Convention : Reuss Voigt Hill
#
# Bulk Modulus (GPa) = 25.70903 34.79726 30.25315
# Shear Modulus (GPa) = 45.61908 23.31137 34.46522
#
# Velocity S-wave (km/s) = 4.76332 3.40502 4.14025
# Velocity P-wave (km/s) = 6.56041 5.72414 6.15649
#
# Compressibility (1/GPa) = 0.03889684
#
# Stress axis : x y z
#
# Youngs Moduli (GPa) = 49.27130 59.54056 -70.42813
#
# Poissons Ratio (x) = 0.42556 1.12061
# Poissons Ratio (y) = 0.35216 -0.05364
# Poissons Ratio (z) = -0.78398 0.04535
#
# Static dielectric constant tensor:
#      x y z
#    x 1.794150 -0.153900 -0.021550 
#    y -0.153900 1.999710 0.005250 
#    z -0.021550 0.005250 1.687840 
# 
# From -- ./inp_files/261536.got.cif
#   From: 2010.05.17/outbox.cif.g08.bks.cpg/sg2_131_cif.got.tgz:261536.got - 2010.06.03 11:33:40.
