data_PCOD9053861
_publ_section_title
;
Structure prediction by ZEFSAII (Michael W. Deem and Ramdas Pophale) SiO2 
 PCOD9053861
Probable space group: P -1
;
_chemical_formula_sum "Si O2"
_cell_formula_units_Z 16
_cell_length_a 8.190434
_cell_length_b 8.420187
_cell_length_c 23.354068
_cell_angle_alpha 64.257196
_cell_angle_beta 31.318361
_cell_angle_gamma 56.165080
_cell_volume 692.209115
_symmetry_space_group_name_H-M "P -1"
_symmetry_group_IT_number 2
_symmetry_cell_setting 'triclinic'
loop_
_space_group_symop_operation_xyz
x,y,z
-x,-y,-z
loop_
_atom_site_type_symbol
_atom_site_label
_atom_site_fract_x
_atom_site_fract_y
_atom_site_fract_z
Si Si1 0.131072 0.080953 0.247028
Si Si2 0.272402 0.582955 0.612186
Si Si3 0.771044 0.077750 0.124991
Si Si4 0.517878 0.835251 0.974901
Si Si5 0.869926 0.335299 0.543880
Si Si6 0.385817 0.698646 0.260387
Si Si7 0.118265 0.562343 0.014420
Si Si8 0.679924 0.693482 0.688361
O O1 0.474676 0.032989 0.190000
O O2 0.191097 0.183439 0.156556
O O3 0.810427 0.216366 0.359963
O O4 0.170172 0.866027 0.254335
O O5 0.500000 0.500000 0.500000
O O6 0.486868 0.429916 0.618522
O O7 0.906602 0.619766 0.689657
O O8 0.656860 0.137055 0.215421
O O9 0.777286 0.266092 0.062619
O O10 0.152154 0.917884 0.039690
O O11 0.605699 0.629804 0.010125
O O12 0.500000 0.000000 0.000000
O O13 0.823086 0.223858 0.630146
O O14 0.000000 0.500000 0.500000
O O15 0.122653 0.240646 0.430046
O O16 0.370416 0.493121 0.287848
O O17 0.787672 0.644287 0.141562
O O18 0.000000 0.500000 0.000000
#
# Coordination Sequence:
#
# PCOD9053861 Si02
#       8
#     2   2   2   2   2   2   2   2
#     4  11  24  41  63  94 134 164 217 276 312 390
#     4   9  19  40  62  85 120 166 209 259 323 373
#     4  11  23  43  61  94 135 169 216 268 316 385
#     4  12  23  39  64  94 129 175 213 261 325 381
#     4   9  19  37  63  89 118 161 210 257 322 377
#     4  11  20  38  62  92 124 165 213 269 320 374
#     4  12  22  39  65  92 131 174 213 266 323 387
#     4   9  19  38  65  83 127 171 207 266 321 377
#
# _framework density 23.1144
#
# number of rings (size 3 to 8) (size 9 to 14) (size 15 to 20)
#    0.000    1.500    3.750    1.125    0.000    1.500 
#    4.500   11.250    2.750    0.000    0.000    0.000 
#    0.000    0.000    0.000    0.000    0.000    0.000 
#
# Total GULP energy -89201.147166 kJ/mol
# GULP energy per Si atom -5575.071698 kJ/mol
# Density = 2.306179 g / cm^3
# Si number density = 23.114400 Si / 1000 Ang^3
#
#
#
# Elastic Constant Matrix: (Units=GPa)
#
#
# Indices 1 2 3 4 5 6 
#
# 1 48.4710 4.2415 11.3907 -0.0735 14.0137 -1.2901
# 2 4.2415 84.8388 36.8177 11.3943 10.8067 -20.4463
# 3 11.3907 36.8177 127.6159 11.2810 21.1530 0.0002
# 4 -0.0735 11.3943 11.2810 37.8226 5.0247 8.6361
# 5 14.0137 10.8067 21.1530 5.0247 23.9311 1.2317
# 6 -1.2901 -20.4463 0.0002 8.6361 1.2317 30.8580
#
#
#
# Elastic Compliance Matrix: (Units=1/GPa)
#
#
# Indices 1 2 3 4 5 6 
#
# 1 0.025089 0.001054 -0.000100 0.001363 -0.015467 0.001983
# 2 0.001054 0.018519 -0.004038 -0.007057 -0.004674 0.014476
# 3 -0.000100 -0.004038 0.010192 -0.000378 -0.006929 -0.002298
# 4 0.001363 -0.007057 -0.000378 0.032207 -0.003345 -0.013499
# 5 -0.015467 -0.004674 -0.006929 -0.003345 0.060049 -0.005204
# 6 0.001983 0.014476 -0.002298 -0.013499 -0.005204 0.046067
#
#
# Mechanical properties :
#
#
# Convention : Reuss Voigt Hill
#
# Bulk Modulus (GPa) = 20.99461 40.64727 30.82094
# Shear Modulus (GPa) = 23.34611 32.42073 27.88342
#
# Velocity S-wave (km/s) = 3.18154 3.74922 3.47698
# Velocity P-wave (km/s) = 4.75383 6.03039 5.42976
#
# Compressibility (1/GPa) = 0.04763128
#
# Stress axis : x y z
#
# Youngs Moduli (GPa) = 39.85823 53.99938 98.11646
#
# Poissons Ratio (x) = -0.05694 0.00983
# Poissons Ratio (y) = -0.04203 0.39623
# Poissons Ratio (z) = 0.00400 0.21807
#
# Static dielectric constant tensor:
#      x y z
#    x 1.920120 0.052080 0.023750 
#    y 0.052080 1.891920 0.062630 
#    z 0.023750 0.062630 1.945670 
# 
# From -- ./inp_files/271360.got.cif
#   From: 2010.05.17/outbox.cif.g08.bks.cpg/sg2_136_cif.got.tgz:271360.got - 2010.06.03 11:33:40.
