data_PCOD9053424
_publ_section_title
;
Structure prediction by ZEFSAII (Michael W. Deem and Ramdas Pophale) SiO2 
 PCOD9053424
Probable space group: P -1
;
_chemical_formula_sum "Si O2"
_cell_formula_units_Z 16
_cell_length_a 10.928608
_cell_length_b 9.033211
_cell_length_c 13.169686
_cell_angle_alpha 38.054575
_cell_angle_beta 122.492184
_cell_angle_gamma 104.825394
_cell_volume 640.088300
_symmetry_space_group_name_H-M "P -1"
_symmetry_group_IT_number 2
_symmetry_cell_setting 'triclinic'
loop_
_space_group_symop_operation_xyz
x,y,z
-x,-y,-z
loop_
_atom_site_type_symbol
_atom_site_label
_atom_site_fract_x
_atom_site_fract_y
_atom_site_fract_z
Si Si1 0.983244 0.042206 0.204815
Si Si2 0.728554 0.349663 0.048304
Si Si3 0.918717 0.612424 0.084438
Si Si4 0.765810 0.632551 0.559356
Si Si5 0.556529 0.754572 0.584932
Si Si6 0.537654 0.855761 0.987098
Si Si7 0.771343 0.068782 0.912703
Si Si8 0.725448 0.450247 0.428058
O O1 0.892314 0.138144 0.215375
O O2 0.121680 0.783006 0.398451
O O3 0.037981 0.273833 0.062333
O O4 0.848924 0.018330 0.084320
O O5 0.768892 0.530106 0.050249
O O6 0.668197 0.525158 0.826701
O O7 0.600104 0.220772 0.080692
O O8 0.062247 0.397425 0.312461
O O9 0.881336 0.860464 0.002744
O O10 0.648427 0.792444 0.505758
O O11 0.744602 0.639045 0.424395
O O12 0.757014 0.350069 0.726138
O O13 0.410829 0.663952 0.542339
O O14 0.500000 0.000000 0.500000
O O15 0.670986 0.601190 0.217883
O O16 0.608553 0.027985 0.859856
O O17 0.500000 0.000000 0.000000
#
# Coordination Sequence:
#
# PCOD9053424 Si02
#       8
#     2   2   2   2   2   2   2   2
#     4  11  19  39  67  97 121 165 214 267 318 369
#     4  11  23  40  62  94 131 175 205 262 325 385
#     4  11  21  36  68  98 129 160 214 267 329 365
#     4  11  21  41  65 101 125 164 214 274 314 370
#     4  11  23  36  57  95 136 165 206 262 327 373
#     4  11  24  45  63  90 132 179 210 251 323 393
#     4  11  20  40  69  91 131 165 214 261 316 387
#     4  11  23  39  67  96 125 162 222 265 315 376
#
# _framework density 24.996551
#
# number of rings (size 3 to 8) (size 9 to 14) (size 15 to 20)
#    0.000    1.000    6.250    3.000    1.750    1.000 
#    0.000    0.000    0.000    1.500    0.000    0.000 
#    0.000    0.000    0.000    0.000    0.000    0.000 
#
# Total GULP energy -89573.739488 kJ/mol
# GULP energy per Si atom -5598.358718 kJ/mol
# Density = 2.493966 g / cm^3
# Si number density = 24.996551 Si / 1000 Ang^3
#
#
#
# Elastic Constant Matrix: (Units=GPa)
#
#
# Indices 1 2 3 4 5 6 
#
# 1 56.8171 27.2238 22.9966 1.8541 12.0664 9.8729
# 2 27.2238 136.6449 28.3936 2.9598 16.5832 15.8516
# 3 22.9966 28.3936 85.7181 6.0478 17.1289 -9.2299
# 4 1.8541 2.9598 6.0478 31.4349 -2.9140 15.1749
# 5 12.0664 16.5832 17.1289 -2.9140 31.7033 -8.9539
# 6 9.8729 15.8516 -9.2299 15.1749 -8.9539 51.8160
#
#
#
# Elastic Compliance Matrix: (Units=1/GPa)
#
#
# Indices 1 2 3 4 5 6 
#
# 1 0.023083 -0.002042 -0.005061 0.002329 -0.006604 -0.006498
# 2 -0.002042 0.009041 -0.002188 0.001154 -0.003722 -0.003748
# 3 -0.005061 -0.002188 0.015567 -0.005425 -0.004358 0.005242
# 4 0.002329 0.001154 -0.005425 0.038985 0.001368 -0.012944
# 5 -0.006604 -0.003722 -0.004358 0.001368 0.040820 0.008274
# 6 -0.006498 -0.003748 0.005242 -0.012944 0.008274 0.027838
#
#
# Mechanical properties :
#
#
# Convention : Reuss Voigt Hill
#
# Bulk Modulus (GPa) = 34.35408 48.48981 41.42194
# Shear Modulus (GPa) = 27.23033 36.36191 31.79612
#
# Velocity S-wave (km/s) = 3.30413 3.81816 3.57041
# Velocity P-wave (km/s) = 5.32257 6.23526 5.79691
#
# Compressibility (1/GPa) = 0.02910862
#
# Stress axis : x y z
#
# Youngs Moduli (GPa) = 43.32221 110.60358 64.23981
#
# Poissons Ratio (x) = 0.22590 0.32509
# Poissons Ratio (y) = 0.08848 0.14057
# Poissons Ratio (z) = 0.21923 0.24202
#
# Static dielectric constant tensor:
#      x y z
#    x 2.019950 -0.028800 -0.019610 
#    y -0.028800 1.981860 -0.008840 
#    z -0.019610 -0.008840 2.029210 
# 
# From -- ./inp_files/225954.got.cif
#   From: 2010.05.17/outbox.cif.g08.bks.cpg/sg2_113_cif.got.tgz:225954.got - 2010.06.03 11:33:40.
