data_PCOD9053023
_publ_section_title
;
Structure prediction by ZEFSAII (Michael W. Deem and Ramdas Pophale) SiO2 
 PCOD9053023
Probable space group: P -1
;
_chemical_formula_sum "Si O2"
_cell_formula_units_Z 16
_cell_length_a 14.085301
_cell_length_b 31.183237
_cell_length_c 14.440417
_cell_angle_alpha 16.438257
_cell_angle_beta 150.406656
_cell_angle_gamma 156.710114
_cell_volume 705.943921
_symmetry_space_group_name_H-M "P -1"
_symmetry_group_IT_number 2
_symmetry_cell_setting 'triclinic'
loop_
_space_group_symop_operation_xyz
x,y,z
-x,-y,-z
loop_
_atom_site_type_symbol
_atom_site_label
_atom_site_fract_x
_atom_site_fract_y
_atom_site_fract_z
Si Si1 0.268944 0.303233 0.607699
Si Si2 0.896946 0.230709 0.881419
Si Si3 0.959540 0.671197 0.818068
Si Si4 0.659794 0.900220 0.768154
Si Si5 0.856508 0.721220 0.827994
Si Si6 0.515756 0.772842 0.537143
Si Si7 0.227125 0.549129 0.203390
Si Si8 0.234111 0.178159 0.172678
O O1 0.171017 0.394207 0.400772
O O2 0.560915 0.426256 0.606281
O O3 0.190299 0.306041 0.432326
O O4 0.209605 0.118715 0.994411
O O5 0.738351 0.287275 0.587728
O O6 0.031899 0.323131 0.901483
O O7 0.091957 0.259692 0.914354
O O8 0.706246 0.003129 0.209487
O O9 0.846335 0.637673 0.892871
O O10 0.218848 0.883617 0.601236
O O11 0.018636 0.531321 0.120715
O O12 0.691838 0.806279 0.901920
O O13 0.376749 0.755758 0.850407
O O14 0.619867 0.691958 0.726770
O O15 0.045363 0.950603 0.500005
O O16 0.548718 0.741075 0.737759
#
# Coordination Sequence:
#
# PCOD9053023 Si02
#       8
#     2   2   2   2   2   2   2   2
#     4   9  20  35  49  67  99 133 163 195 235 290
#     4   8  13  24  40  60  91 124 148 182 236 288
#     4  11  18  31  52  74  97 128 161 199 245 277
#     4   9  18  33  48  74 103 122 157 211 237 269
#     4   8  16  24  39  66  95 117 149 194 233 277
#     4   8  13  24  40  60  91 124 148 182 236 288
#     4   9  20  35  49  67  99 133 163 195 235 290
#     4   8  14  26  39  64  95 119 149 190 237 275
#
# _framework density 22.66469
#
# number of rings (size 3 to 8) (size 9 to 14) (size 15 to 20)
#    0.750    2.500    0.000    2.625    0.000    1.000 
#    2.250    2.500    0.000    0.000    0.000    7.000 
#    0.000    0.000    0.000    0.000    0.000    0.000 
#
# Total GULP energy -89258.949636 kJ/mol
# GULP energy per Si atom -5578.684352 kJ/mol
# Density = 2.261310 g / cm^3
# Si number density = 22.664690 Si / 1000 Ang^3
#
#
#
# Elastic Constant Matrix: (Units=GPa)
#
#
# Indices 1 2 3 4 5 6 
#
# 1 138.8806 39.8415 30.1293 32.6741 15.1914 -18.5832
# 2 39.8415 68.1270 29.9090 32.6325 13.6169 -16.8922
# 3 30.1293 29.9090 76.0288 18.5640 3.2026 -1.0867
# 4 32.6741 32.6325 18.5640 45.8359 10.4332 -4.0180
# 5 15.1914 13.6169 3.2026 10.4332 20.7835 -2.8716
# 6 -18.5832 -16.8922 -1.0867 -4.0180 -2.8716 28.9577
#
#
#
# Elastic Compliance Matrix: (Units=1/GPa)
#
#
# Indices 1 2 3 4 5 6 
#
# 1 0.010019 -0.000790 -0.002370 -0.004377 -0.003563 0.004919
# 2 -0.000790 0.031144 -0.007642 -0.015198 -0.009035 0.014369
# 3 -0.002370 -0.007642 0.017143 -0.001165 0.003978 -0.005103
# 4 -0.004377 -0.015198 -0.001165 0.037019 -0.006241 -0.007201
# 5 -0.003563 -0.009035 0.003978 -0.006241 0.058822 -0.002441
# 6 0.004919 0.014369 -0.005103 -0.007201 -0.002441 0.044639
#
#
# Mechanical properties :
#
#
# Convention : Reuss Voigt Hill
#
# Bulk Modulus (GPa) = 27.24694 53.64400 40.44547
# Shear Modulus (GPa) = 21.49387 31.32586 26.40987
#
# Velocity S-wave (km/s) = 3.08286 3.72175 3.41727
# Velocity P-wave (km/s) = 4.97191 6.49527 5.78396
#
# Compressibility (1/GPa) = 0.03670137
#
# Stress axis : x y z
#
# Youngs Moduli (GPa) = 99.80873 32.10896 58.33438
#
# Poissons Ratio (x) = 0.02536 0.13828
# Poissons Ratio (y) = 0.07885 0.44577
# Poissons Ratio (z) = 0.23659 0.24537
#
# Static dielectric constant tensor:
#      x y z
#    x 1.825030 0.027270 -0.038820 
#    y 0.027270 1.875640 -0.062360 
#    z -0.038820 -0.062360 1.864980 
# 
# From -- ./inp_files/535803.got.cif
#   From: 2010.05.17/outbox.cif.g08.bks.cpg/sg2_268_cif.got.tgz:535803.got - 2010.06.03 11:33:40.
