data_PCOD9053136
_publ_section_title
;
Structure prediction by ZEFSAII (Michael W. Deem and Ramdas Pophale) SiO2 
 PCOD9053136
Probable space group: P -1
;
_chemical_formula_sum "Si O2"
_cell_formula_units_Z 12
_cell_length_a 12.444763
_cell_length_b 7.002864
_cell_length_c 6.708415
_cell_angle_alpha 115.128848
_cell_angle_beta 114.698566
_cell_angle_gamma 96.786240
_cell_volume 448.750453
_symmetry_space_group_name_H-M "P -1"
_symmetry_group_IT_number 2
_symmetry_cell_setting 'triclinic'
loop_
_space_group_symop_operation_xyz
x,y,z
-x,-y,-z
loop_
_atom_site_type_symbol
_atom_site_label
_atom_site_fract_x
_atom_site_fract_y
_atom_site_fract_z
Si Si1 0.304461 0.643443 0.846863
Si Si2 0.613733 0.665362 0.534974
Si Si3 0.178274 0.678616 0.401662
Si Si4 0.983522 0.829361 0.094394
Si Si5 0.576547 0.953465 0.296787
Si Si6 0.749563 0.749489 0.075735
O O1 0.339552 0.470719 0.652367
O O2 0.191865 0.688468 0.659614
O O3 0.342426 0.157974 0.829095
O O4 0.432547 0.862261 0.066391
O O5 0.500000 0.500000 0.500000
O O6 0.573575 0.844234 0.461711
O O7 0.715335 0.769718 0.828655
O O8 0.112809 0.824204 0.290165
O O9 0.095998 0.423413 0.163567
O O10 0.328368 0.788433 0.511544
O O11 0.729042 0.500493 0.039839
O O12 0.899515 0.868672 0.227103
O O13 0.000000 0.000000 0.000000
#
# Coordination Sequence:
#
# PCOD9053136 Si02
#       6
#     2   2   2   2   2   2
#     4  11  22  41  69 108 146 172 227 290 349 422
#     4  11  18  39  69 103 144 188 221 266 349 425
#     4  11  26  46  70 105 141 178 240 291 341 413
#     4  11  26  52  74  93 139 195 238 286 343 408
#     4  11  23  41  70 111 143 176 228 290 350 419
#     4  11  22  42  74 102 136 194 229 278 355 408
#
# _framework density 26.740921
#
# number of rings (size 3 to 8) (size 9 to 14) (size 15 to 20)
#    0.000    1.000    5.000    2.500    2.333    1.333 
#    9.000    1.667    0.000    0.000    0.000    0.000 
#    0.000    0.000    0.000    0.000    0.000    0.000 
#
# Total GULP energy -67166.730113 kJ/mol
# GULP energy per Si atom -5597.227509 kJ/mol
# Density = 2.668006 g / cm^3
# Si number density = 26.740921 Si / 1000 Ang^3
#
#
#
# Elastic Constant Matrix: (Units=GPa)
#
#
# Indices 1 2 3 4 5 6 
#
# 1 84.0573 39.1057 34.2372 -9.1226 11.9647 1.5086
# 2 39.1057 227.0888 62.8310 -13.5010 17.5288 -8.0169
# 3 34.2372 62.8310 180.4474 -30.9699 19.9453 -3.5494
# 4 -9.1226 -13.5010 -30.9699 49.3599 -1.3963 12.8246
# 5 11.9647 17.5288 19.9453 -1.3963 44.7241 -5.8575
# 6 1.5086 -8.0169 -3.5494 12.8246 -5.8575 45.7317
#
#
#
# Elastic Compliance Matrix: (Units=1/GPa)
#
#
# Indices 1 2 3 4 5 6 
#
# 1 0.013876 -0.001742 -0.001526 0.001480 -0.002515 -0.001619
# 2 -0.001742 0.005173 -0.001357 0.000024 -0.000858 0.000742
# 3 -0.001526 -0.001357 0.007241 0.004103 -0.002301 -0.001071
# 4 0.001480 0.000024 0.004103 0.024867 -0.002376 -0.007004
# 5 -0.002515 -0.000858 -0.002301 -0.002376 0.024791 0.003596
# 6 -0.001619 0.000742 -0.001071 -0.007004 0.003596 0.024392
#
#
# Mechanical properties :
#
#
# Convention : Reuss Voigt Hill
#
# Bulk Modulus (GPa) = 58.68559 84.88236 71.78398
# Shear Modulus (GPa) = 43.37589 51.65780 47.51684
#
# Velocity S-wave (km/s) = 4.03187 4.39998 4.21994
# Velocity P-wave (km/s) = 6.60820 7.59108 7.11663
#
# Compressibility (1/GPa) = 0.01703996
#
# Stress axis : x y z
#
# Youngs Moduli (GPa) = 72.06465 193.31316 138.09486
#
# Poissons Ratio (x) = 0.33683 0.21074
# Poissons Ratio (y) = 0.12557 0.18739
# Poissons Ratio (z) = 0.10997 0.26232
#
# Static dielectric constant tensor:
#      x y z
#    x 2.178810 -0.078830 -0.032230 
#    y -0.078830 2.150010 -0.038660 
#    z -0.032230 -0.038660 2.238620 
# 
# From -- ./inp_files/458695.got.cif
#   From: 2010.05.17/outbox.cif.g08.bks.cpg/sg2_230_cif.got.tgz:458695.got - 2010.06.03 11:33:40.
