data_PCOD9053446
_publ_section_title
;
Structure prediction by ZEFSAII (Michael W. Deem and Ramdas Pophale) SiO2 
 PCOD9053446
Probable space group: P -1
;
_chemical_formula_sum "Si O2"
_cell_formula_units_Z 16
_cell_length_a 23.979267
_cell_length_b 9.242798
_cell_length_c 16.975977
_cell_angle_alpha 36.868197
_cell_angle_beta 161.250712
_cell_angle_gamma 143.246709
_cell_volume 706.754990
_symmetry_space_group_name_H-M "P -1"
_symmetry_group_IT_number 2
_symmetry_cell_setting 'triclinic'
loop_
_space_group_symop_operation_xyz
x,y,z
-x,-y,-z
loop_
_atom_site_type_symbol
_atom_site_label
_atom_site_fract_x
_atom_site_fract_y
_atom_site_fract_z
Si Si1 0.433892 0.990382 0.327314
Si Si2 0.884120 0.947830 0.054141
Si Si3 0.904912 0.914285 0.328518
Si Si4 0.122513 0.265686 0.339318
Si Si5 0.492469 0.999470 0.237614
Si Si6 0.674960 0.594121 0.601778
Si Si7 0.942772 0.280473 0.853550
Si Si8 0.842930 0.334808 0.514449
O O1 0.374818 0.700216 0.349798
O O2 0.500000 0.000000 0.500000
O O3 0.547960 0.093124 0.359914
O O4 0.281673 0.145513 0.070370
O O5 0.031078 0.789082 0.317925
O O6 0.963295 0.214844 0.084209
O O7 0.853254 0.022747 0.890396
O O8 0.864350 0.619492 0.399592
O O9 0.715949 0.998138 0.042684
O O10 0.000000 0.000000 0.500000
O O11 0.044368 0.041589 0.392225
O O12 0.283628 0.295785 0.480005
O O13 0.137353 0.506207 0.306564
O O14 0.636836 0.189433 0.296310
O O15 0.529589 0.731773 0.382929
O O16 0.848796 0.666467 0.860848
O O17 0.915794 0.299644 0.716028
#
# Coordination Sequence:
#
# PCOD9053446 Si02
#       8
#     2   2   2   2   2   2   2   2
#     4  12  25  39  67 109 147 171 219 288 356 408
#     4  11  21  41  66 103 130 174 219 281 347 400
#     4  12  27  48  70  93 133 195 240 274 329 406
#     4  11  20  44  71  92 131 184 226 270 333 408
#     4  12  26  46  66 104 142 177 229 287 341 400
#     4  11  23  43  70 103 139 178 220 286 352 408
#     4  11  19  39  75  97 135 173 223 270 350 405
#     4  12  26  42  71 101 140 181 234 276 334 410
#
# _framework density 22.638680000000001
#
# number of rings (size 3 to 8) (size 9 to 14) (size 15 to 20)
#    0.000    0.500    7.500    2.625    1.750    1.500 
#    0.000    0.625    0.000    0.000    0.000    0.000 
#    0.000    0.000    0.000    0.000    0.000    0.000 
#
# Total GULP energy -89186.297334 kJ/mol
# GULP energy per Si atom -5574.143583 kJ/mol
# Density = 2.258715 g / cm^3
# Si number density = 22.638680 Si / 1000 Ang^3
#
#
#
# Elastic Constant Matrix: (Units=GPa)
#
#
# Indices 1 2 3 4 5 6 
#
# 1 143.0317 32.8336 54.7917 -14.0795 26.3026 -4.4118
# 2 32.8336 85.1835 30.9068 -23.9189 17.1684 6.4076
# 3 54.7917 30.9068 91.6429 -12.5289 22.9613 -8.2332
# 4 -14.0795 -23.9189 -12.5289 26.9077 -12.9554 -3.3176
# 5 26.3026 17.1684 22.9613 -12.9554 44.6984 -1.3276
# 6 -4.4118 6.4076 -8.2332 -3.3176 -1.3276 42.7937
#
#
#
# Elastic Compliance Matrix: (Units=1/GPa)
#
#
# Indices 1 2 3 4 5 6 
#
# 1 0.009580 -0.001435 -0.004499 0.000402 -0.002650 0.000286
# 2 -0.001435 0.017316 -0.003357 0.012527 -0.000524 -0.002432
# 3 -0.004499 -0.003357 0.016110 0.000575 -0.004081 0.003056
# 4 0.000402 0.012527 0.000575 0.054146 0.010433 0.002798
# 5 -0.002650 -0.000524 -0.004081 0.010433 0.029275 0.000737
# 6 0.000286 -0.002432 0.003056 0.002798 0.000737 0.024589
#
#
# Mechanical properties :
#
#
# Convention : Reuss Voigt Hill
#
# Bulk Modulus (GPa) = 40.94234 61.88025 51.41130
# Shear Modulus (GPa) = 28.13104 36.30168 32.21636
#
# Velocity S-wave (km/s) = 3.52889 4.00875 3.77645
# Velocity P-wave (km/s) = 5.89309 6.98713 6.46330
#
# Compressibility (1/GPa) = 0.02442459
#
# Stress axis : x y z
#
# Youngs Moduli (GPa) = 104.38335 57.74904 62.07419
#
# Poissons Ratio (x) = 0.08285 0.27929
# Poissons Ratio (y) = 0.14976 0.20837
# Poissons Ratio (z) = 0.46965 0.19385
#
# Static dielectric constant tensor:
#      x y z
#    x 1.895920 0.053960 0.019160 
#    y 0.053960 1.870140 0.084390 
#    z 0.019160 0.084390 1.972990 
# 
# From -- ./inp_files/579050.got.cif
#   From: 2010.05.17/outbox.cif.g08.bks.cpg/sg2_290_cif.got.tgz:579050.got - 2010.06.03 11:33:40.
