data_PCOD9053355
_publ_section_title
;
Structure prediction by ZEFSAII (Michael W. Deem and Ramdas Pophale) SiO2 
 PCOD9053355
Probable space group: P -1
;
_chemical_formula_sum "Si O2"
_cell_formula_units_Z 16
_cell_length_a 5.674278
_cell_length_b 23.437702
_cell_length_c 15.333882
_cell_angle_alpha 25.212751
_cell_angle_beta 104.448075
_cell_angle_gamma 89.731392
_cell_volume 697.749743
_symmetry_space_group_name_H-M "P -1"
_symmetry_group_IT_number 2
_symmetry_cell_setting 'triclinic'
loop_
_space_group_symop_operation_xyz
x,y,z
-x,-y,-z
loop_
_atom_site_type_symbol
_atom_site_label
_atom_site_fract_x
_atom_site_fract_y
_atom_site_fract_z
Si Si1 0.997289 0.672893 0.940473
Si Si2 0.561635 0.010699 0.616290
Si Si3 0.560908 0.279382 0.803189
Si Si4 0.136828 0.743742 0.315968
Si Si5 0.203216 0.838327 0.830176
Si Si6 0.548890 0.996720 0.834043
Si Si7 0.362191 0.312565 0.458135
Si Si8 0.959261 0.523886 0.627870
O O1 0.693342 0.805945 0.685035
O O2 0.192079 0.745279 0.873902
O O3 0.176291 0.497946 0.152436
O O4 0.944530 0.631688 0.091618
O O5 0.651775 0.994857 0.747626
O O6 0.387585 0.919197 0.720427
O O7 0.854990 0.952333 0.667946
O O8 0.751646 0.269378 0.754214
O O9 0.235622 0.432822 0.535943
O O10 0.653321 0.279225 0.910140
O O11 0.579694 0.112303 0.031208
O O12 0.300291 0.755689 0.397584
O O13 0.189277 0.568757 0.572554
O O14 0.809757 0.900894 0.060317
O O15 0.338295 0.182227 0.585729
O O16 0.251854 0.336068 0.515078
#
# Coordination Sequence:
#
# PCOD9053355 Si02
#       8
#     2   2   2   2   2   2   2   2
#     4  10  23  42  59  87 123 157 200 249 303 368
#     4  11  24  42  67  90 117 162 207 253 301 352
#     4   9  19  36  58  86 119 152 201 249 298 350
#     4  10  17  35  60  86 120 156 203 244 299 363
#     4  11  23  43  67  91 116 159 209 255 301 354
#     4  10  20  36  60  88 123 154 205 251 295 363
#     4   9  21  36  55  90 122 158 195 243 314 353
#     4   8  20  36  53  89 119 156 194 240 308 357
#
# _framework density 22.930858000000001
#
# number of rings (size 3 to 8) (size 9 to 14) (size 15 to 20)
#    0.750    1.500    1.250    1.125    0.000    8.500 
#    0.000    0.625    0.000    3.000    0.000    0.000 
#    0.000    0.000    0.000    0.000    0.000    0.000 
#
# Total GULP energy -89135.762855 kJ/mol
# GULP energy per Si atom -5570.985178 kJ/mol
# Density = 2.287867 g / cm^3
# Si number density = 22.930858 Si / 1000 Ang^3
#
#
#
# Elastic Constant Matrix: (Units=GPa)
#
#
# Indices 1 2 3 4 5 6 
#
# 1 49.3346 4.7858 33.7847 -9.4105 2.9481 8.2837
# 2 4.7858 19.0526 28.0988 -1.9397 4.6710 4.3338
# 3 33.7847 28.0988 113.9813 -6.3578 -3.4210 14.6063
# 4 -9.4105 -1.9397 -6.3578 36.4127 -6.2451 4.8439
# 5 2.9481 4.6710 -3.4210 -6.2451 23.4949 4.7830
# 6 8.2837 4.3338 14.6063 4.8439 4.7830 20.0012
#
#
#
# Elastic Compliance Matrix: (Units=1/GPa)
#
#
# Indices 1 2 3 4 5 6 
#
# 1 0.028849 0.010875 -0.009995 0.006641 -0.003909 -0.007679
# 2 0.010875 0.097100 -0.028204 -0.001514 -0.025486 0.001515
# 3 -0.009995 -0.028204 0.020230 0.002600 0.012138 -0.008055
# 4 0.006641 -0.001514 0.002600 0.033631 0.011903 -0.015313
# 5 -0.003909 -0.025486 0.012138 0.011903 0.056751 -0.018177
# 6 -0.007679 0.001515 -0.008055 -0.015313 -0.018177 0.066787
#
#
# Mechanical properties :
#
#
# Convention : Reuss Voigt Hill
#
# Bulk Modulus (GPa) = 10.92525 35.07858 23.00192
# Shear Modulus (GPa) = 12.86978 23.69505 18.28242
#
# Velocity S-wave (km/s) = 2.37163 3.21803 2.82669
# Velocity P-wave (km/s) = 3.50346 5.39799 4.55042
#
# Compressibility (1/GPa) = 0.09153108
#
# Stress axis : x y z
#
# Youngs Moduli (GPa) = 34.66321 10.29870 49.43062
#
# Poissons Ratio (x) = -0.11200 0.49404
# Poissons Ratio (y) = -0.37695 1.39414
# Poissons Ratio (z) = 0.34645 0.29046
#
# Static dielectric constant tensor:
#      x y z
#    x 2.052040 0.028440 0.035070 
#    y 0.028440 1.841470 -0.029050 
#    z 0.035070 -0.029050 1.893620 
# 
# From -- ./inp_files/464257.got.cif
#   From: 2010.05.17/outbox.cif.g08.bks.cpg/sg2_233_cif.got.tgz:464257.got - 2010.06.03 11:33:40.
