data_PCOD9053743
_publ_section_title
;
Structure prediction by ZEFSAII (Michael W. Deem and Ramdas Pophale) SiO2 
 PCOD9053743
Probable space group: P -1
;
_chemical_formula_sum "Si O2"
_cell_formula_units_Z 14
_cell_length_a 14.432545
_cell_length_b 22.513949
_cell_length_c 8.981260
_cell_angle_alpha 40.733310
_cell_angle_beta 41.580922
_cell_angle_gamma 21.566856
_cell_volume 688.492164
_symmetry_space_group_name_H-M "P -1"
_symmetry_group_IT_number 2
_symmetry_cell_setting 'triclinic'
loop_
_space_group_symop_operation_xyz
x,y,z
-x,-y,-z
loop_
_atom_site_type_symbol
_atom_site_label
_atom_site_fract_x
_atom_site_fract_y
_atom_site_fract_z
Si Si1 0.847475 0.299162 0.838099
Si Si2 0.720778 0.154890 0.963974
Si Si3 0.071255 0.951228 0.676166
Si Si4 0.918120 0.755979 0.043089
Si Si5 0.323124 0.025190 0.582063
Si Si6 0.568970 0.507860 0.243831
Si Si7 0.426627 0.922736 0.321604
O O1 0.572631 0.463970 0.779218
O O2 0.949065 0.306618 0.835922
O O3 0.867655 0.185473 0.093259
O O4 0.040997 0.196348 0.660590
O O5 0.549457 0.326407 0.913461
O O6 0.606088 0.117160 0.187882
O O7 0.815139 0.123556 0.743721
O O8 0.000000 0.000000 0.000000
O O9 0.311725 0.885041 0.546530
O O10 0.000000 0.000000 0.500000
O O11 0.730661 0.771306 0.228313
O O12 0.136235 0.644660 0.867222
O O13 0.721986 0.946711 0.883202
O O14 0.349053 0.015681 0.391983
O O15 0.500000 0.000000 0.500000
O O16 0.500000 0.500000 0.500000
#
# Coordination Sequence:
#
# PCOD9053743 Si02
#       7
#     2   2   2   2   2   2   2
#     4  11  21  39  62  99 122 165 223 257 312 391
#     4  11  21  39  65  91 118 166 218 255 307 390
#     4  11  20  36  67  94 122 162 215 267 311 374
#     4  11  24  36  62  94 129 165 209 263 315 388
#     4  11  20  37  67  94 123 166 211 262 314 371
#     4  12  24  42  65  93 134 170 214 266 320 374
#     4  11  21  39  62  95 126 167 212 256 330 374
#
# _framework density 20.334288999999998
#
# number of rings (size 3 to 8) (size 9 to 14) (size 15 to 20)
#    0.000    0.857    7.143    2.143    0.000    0.000 
#    0.000    2.857    0.000    2.571    0.000    0.000 
#    0.000    0.000    0.000    0.000    0.000    0.000 
#
# Total GULP energy -78183.021676 kJ/mol
# GULP energy per Si atom -5584.501548 kJ/mol
# Density = 2.028801 g / cm^3
# Si number density = 20.334289 Si / 1000 Ang^3
#
#
#
# Elastic Constant Matrix: (Units=GPa)
#
#
# Indices 1 2 3 4 5 6 
#
# 1 116.0867 26.2987 37.0860 7.4946 0.2928 -21.2012
# 2 26.2987 83.2260 26.0749 21.7388 -3.8312 -14.9498
# 3 37.0860 26.0749 78.4030 23.2959 0.1226 -16.0864
# 4 7.4946 21.7388 23.2959 30.0571 2.9784 -1.5042
# 5 0.2928 -3.8312 0.1226 2.9784 53.4338 7.1466
# 6 -21.2012 -14.9498 -16.0864 -1.5042 7.1466 27.3174
#
#
#
# Elastic Compliance Matrix: (Units=1/GPa)
#
#
# Indices 1 2 3 4 5 6 
#
# 1 0.011270 -0.001843 -0.004198 0.002165 -0.001062 0.005663
# 2 -0.001843 0.016887 0.000141 -0.011604 0.000930 0.007012
# 3 -0.004198 0.000141 0.020771 -0.014707 -0.000308 0.008322
# 4 0.002165 -0.011604 -0.014707 0.052269 -0.002410 -0.009822
# 5 -0.001062 0.000930 -0.000308 -0.002410 0.019696 -0.005782
# 6 0.005663 0.007012 0.008322 -0.009822 -0.005782 0.050712
#
#
# Mechanical properties :
#
#
# Convention : Reuss Voigt Hill
#
# Bulk Modulus (GPa) = 26.93351 50.73722 38.83536
# Shear Modulus (GPa) = 25.53880 34.71207 30.12543
#
# Velocity S-wave (km/s) = 3.54778 4.13615 3.85321
# Velocity P-wave (km/s) = 5.48238 6.91492 6.23989
#
# Compressibility (1/GPa) = 0.03712847
#
# Stress axis : x y z
#
# Youngs Moduli (GPa) = 88.73096 59.21632 48.14397
#
# Poissons Ratio (x) = 0.10915 0.20209
# Poissons Ratio (y) = 0.16355 -0.00678
# Poissons Ratio (z) = 0.37245 -0.00834
#
# Static dielectric constant tensor:
#      x y z
#    x 1.778820 0.016830 0.030500 
#    y 0.016830 1.759980 0.045850 
#    z 0.030500 0.045850 1.770910 
# 
# From -- ./inp_files/174471.got.cif
#   From: 2010.05.17/outbox.cif.g08.bks.cpg/sg2_88_cif.got.tgz:174471.got - 2010.06.03 11:33:40.
