data_PCOD9053696
_publ_section_title
;
Structure prediction by ZEFSAII (Michael W. Deem and Ramdas Pophale) SiO2 
 PCOD9053696
Probable space group: P -1
;
_chemical_formula_sum "Si O2"
_cell_formula_units_Z 12
_cell_length_a 9.476415
_cell_length_b 15.153527
_cell_length_c 11.342332
_cell_angle_alpha 29.351683
_cell_angle_beta 142.431271
_cell_angle_gamma 125.222283
_cell_volume 449.891573
_symmetry_space_group_name_H-M "P -1"
_symmetry_group_IT_number 2
_symmetry_cell_setting 'triclinic'
loop_
_space_group_symop_operation_xyz
x,y,z
-x,-y,-z
loop_
_atom_site_type_symbol
_atom_site_label
_atom_site_fract_x
_atom_site_fract_y
_atom_site_fract_z
Si Si1 0.289649 0.973276 0.114714
Si Si2 0.349420 0.315925 0.875515
Si Si3 0.822533 0.356179 0.162544
Si Si4 0.634085 0.739765 0.425721
Si Si5 0.141203 0.735772 0.123202
Si Si6 0.672335 0.674796 0.871623
O O1 0.515981 0.914537 0.237014
O O2 0.097422 0.904235 0.996289
O O3 0.233240 0.181117 0.889826
O O4 0.409975 0.822214 0.476789
O O5 0.652122 0.236672 0.157548
O O6 0.243382 0.529595 0.499922
O O7 0.300136 0.323601 0.972705
O O8 0.726984 0.464515 0.097243
O O9 0.121036 0.253536 0.480559
O O10 0.740983 0.537290 0.805923
O O11 0.378620 0.735380 0.203815
O O12 0.892941 0.740744 0.891308
#
# Coordination Sequence:
#
# PCOD9053696 Si02
#       6
#     2   2   2   2   2   2
#     4   9  21  38  55  81 109 142 180 223 265 318
#     4  11  20  36  57  82 110 144 176 221 272 317
#     4   9  17  32  59  77 105 146 180 214 266 326
#     4   7  16  36  52  79 105 141 180 218 270 305
#     4   9  21  38  55  81 109 142 180 223 265 318
#     4  11  20  36  57  82 110 144 176 221 272 317
#
# _framework density 26.673093000000001
#
# number of rings (size 3 to 8) (size 9 to 14) (size 15 to 20)
#    1.000    1.667    1.667    1.500    0.000    2.000 
#    3.000    0.000    0.000    2.000    0.000    0.000 
#    0.000    0.000    0.000    0.000    0.000    0.000 
#
# Total GULP energy -67113.555331 kJ/mol
# GULP energy per Si atom -5592.796278 kJ/mol
# Density = 2.661238 g / cm^3
# Si number density = 26.673093 Si / 1000 Ang^3
#
#
#
# Elastic Constant Matrix: (Units=GPa)
#
#
# Indices 1 2 3 4 5 6 
#
# 1 60.2595 3.0535 14.9824 -5.1970 9.6274 4.4124
# 2 3.0535 140.1317 21.4760 -4.0228 -0.9515 3.5796
# 3 14.9824 21.4760 62.6564 6.8273 -7.1261 14.6664
# 4 -5.1970 -4.0228 6.8273 47.2834 7.9227 5.7160
# 5 9.6274 -0.9515 -7.1261 7.9227 31.7877 8.8186
# 6 4.4124 3.5796 14.6664 5.7160 8.8186 38.1993
#
#
#
# Elastic Compliance Matrix: (Units=1/GPa)
#
#
# Indices 1 2 3 4 5 6 
#
# 1 0.020044 0.000658 -0.006982 0.004606 -0.009250 0.001750
# 2 0.000658 0.007623 -0.003157 0.001309 -0.001141 0.000489
# 3 -0.006982 -0.003157 0.022705 -0.005016 0.010967 -0.009396
# 4 0.004606 0.001309 -0.005016 0.023935 -0.008339 -0.000385
# 5 -0.009250 -0.001141 0.010967 -0.008339 0.041945 -0.011471
# 6 0.001750 0.000489 -0.009396 -0.000385 -0.011471 0.032244
#
#
# Mechanical properties :
#
#
# Convention : Reuss Voigt Hill
#
# Bulk Modulus (GPa) = 31.83674 38.00794 34.92234
# Shear Modulus (GPa) = 28.10125 38.35648 33.22887
#
# Velocity S-wave (km/s) = 3.24935 3.79624 3.53339
# Velocity P-wave (km/s) = 5.10290 5.78755 5.45597
#
# Compressibility (1/GPa) = 0.03141026
#
# Stress axis : x y z
#
# Youngs Moduli (GPa) = 49.88953 131.18251 44.04312
#
# Poissons Ratio (x) = -0.08631 0.30751
# Poissons Ratio (y) = -0.03283 0.13905
# Poissons Ratio (z) = 0.34832 0.41415
#
# Static dielectric constant tensor:
#      x y z
#    x 2.129870 0.038720 0.016730 
#    y 0.038720 1.986800 0.002890 
#    z 0.016730 0.002890 2.100460 
# 
# From -- ./inp_files/210471.got.cif
#   From: 2010.05.17/outbox.cif.g08.bks.cpg/sg2_106_cif.got.tgz:210471.got - 2010.06.03 11:33:40.
