data_PCOD9053977
_publ_section_title
;
Structure prediction by ZEFSAII (Michael W. Deem and Ramdas Pophale) SiO2 
 PCOD9053977
Probable space group: P -1
;
_chemical_formula_sum "Si O2"
_cell_formula_units_Z 16
_cell_length_a 19.776964
_cell_length_b 7.595306
_cell_length_c 9.081713
_cell_angle_alpha 66.323202
_cell_angle_beta 45.990088
_cell_angle_gamma 52.137841
_cell_volume 773.863079
_symmetry_space_group_name_H-M "P -1"
_symmetry_group_IT_number 2
_symmetry_cell_setting 'triclinic'
loop_
_space_group_symop_operation_xyz
x,y,z
-x,-y,-z
loop_
_atom_site_type_symbol
_atom_site_label
_atom_site_fract_x
_atom_site_fract_y
_atom_site_fract_z
Si Si1 0.961480 0.818593 0.097230
Si Si2 0.147473 0.321113 0.915253
Si Si3 0.263296 0.483800 0.469259
Si Si4 0.221028 0.931452 0.482551
Si Si5 0.591016 0.491885 0.981403
Si Si6 0.308793 0.009018 0.025960
Si Si7 0.534072 0.919710 0.637236
Si Si8 0.562127 0.294800 0.590621
O O1 0.058559 0.560892 0.036989
O O2 0.876245 0.881275 0.338518
O O3 0.902623 0.822757 0.029753
O O4 0.000000 0.000000 0.000000
O O5 0.234487 0.189755 0.956170
O O6 0.195968 0.382083 0.678022
O O7 0.197226 0.746854 0.509988
O O8 0.320148 0.447158 0.235158
O O9 0.380524 0.341012 0.420582
O O10 0.257643 0.026030 0.258577
O O11 0.321059 0.774741 0.493225
O O12 0.661214 0.231956 0.002984
O O13 0.500000 0.500000 0.000000
O O14 0.522153 0.639998 0.170000
O O15 0.426621 0.985833 0.870343
O O16 0.586194 0.059712 0.569198
O O17 0.500000 0.000000 0.500000
O O18 0.500000 0.500000 0.500000
#
# Coordination Sequence:
#
# PCOD9053977 Si02
#       8
#     2   2   2   2   2   2   2   2
#     4  11  25  47  73  95 125 167 231 285 337 395
#     4  11  25  44  73  97 125 176 224 277 338 397
#     4  11  20  39  67  92 134 172 212 265 327 385
#     4  11  23  43  67  94 134 173 217 279 329 388
#     4  11  21  41  62  94 142 175 212 261 324 396
#     4  11  23  42  64  98 138 170 215 270 330 394
#     4  12  22  35  60  96 136 171 216 261 307 401
#     4  12  25  37  63  98 134 182 222 258 329 400
#
# _framework density 20.675491999999998
#
# number of rings (size 3 to 8) (size 9 to 14) (size 15 to 20)
#    0.000    0.750    6.250    2.250    1.750    3.500 
#    0.000    0.625    0.000    0.000    0.000    0.000 
#    0.000    0.000    0.000    0.000    0.000    0.000 
#
# Total GULP energy -89134.065698 kJ/mol
# GULP energy per Si atom -5570.879106 kJ/mol
# Density = 2.062843 g / cm^3
# Si number density = 20.675492 Si / 1000 Ang^3
#
#
#
# Elastic Constant Matrix: (Units=GPa)
#
#
# Indices 1 2 3 4 5 6 
#
# 1 52.7105 20.5683 18.5183 -0.9091 -3.6410 14.9104
# 2 20.5683 87.1054 47.7718 16.3906 -1.3162 6.3552
# 3 18.5183 47.7718 115.5257 15.9555 1.0392 12.0164
# 4 -0.9091 16.3906 15.9555 42.4754 4.2206 3.2248
# 5 -3.6410 -1.3162 1.0392 4.2206 22.8096 3.6855
# 6 14.9104 6.3552 12.0164 3.2248 3.6855 30.3180
#
#
#
# Elastic Compliance Matrix: (Units=1/GPa)
#
#
# Indices 1 2 3 4 5 6 
#
# 1 0.025067 -0.004911 -0.001265 0.003296 0.005066 -0.011764
# 2 -0.004911 0.016451 -0.005550 -0.004586 0.001019 0.001531
# 3 -0.001265 -0.005550 0.011712 -0.002062 -0.000253 -0.002607
# 4 0.003296 -0.004586 -0.002062 0.026744 -0.004242 -0.002172
# 5 0.005066 0.001019 -0.000253 -0.004242 0.046772 -0.007840
# 6 -0.011764 0.001531 -0.002607 -0.002172 -0.007840 0.040665
#
#
# Mechanical properties :
#
#
# Convention : Reuss Voigt Hill
#
# Bulk Modulus (GPa) = 33.58237 47.67315 40.62776
# Shear Modulus (GPa) = 24.90184 30.35281 27.62733
#
# Velocity S-wave (km/s) = 3.47423 3.83568 3.65942
# Velocity P-wave (km/s) = 5.68960 6.53639 6.12764
#
# Compressibility (1/GPa) = 0.02977753
#
# Stress axis : x y z
#
# Youngs Moduli (GPa) = 39.89381 60.78784 85.38154
#
# Poissons Ratio (x) = 0.29852 0.10797
# Poissons Ratio (y) = 0.19591 0.47391
# Poissons Ratio (z) = 0.05045 0.33740
#
# Static dielectric constant tensor:
#      x y z
#    x 1.843520 -0.354370 0.324380 
#    y -0.354370 3.183010 -1.376760 
#    z 0.324380 -1.376760 3.062590 
# 
# From -- ./inp_files/343395.got.cif
#   From: 2010.05.17/outbox.cif.g08.bks.cpg/sg2_172_cif.got.tgz:343395.got - 2010.06.03 11:33:40.
