data_PCOD9053636
_publ_section_title
;
Structure prediction by ZEFSAII (Michael W. Deem and Ramdas Pophale) SiO2 
 PCOD9053636
Probable space group: P -1
;
_chemical_formula_sum "Si O2"
_cell_formula_units_Z 12
_cell_length_a 12.827431
_cell_length_b 11.827812
_cell_length_c 7.327612
_cell_angle_alpha 58.245004
_cell_angle_beta 84.275372
_cell_angle_gamma 131.758523
_cell_volume 496.693313
_symmetry_space_group_name_H-M "P -1"
_symmetry_group_IT_number 2
_symmetry_cell_setting 'triclinic'
loop_
_space_group_symop_operation_xyz
x,y,z
-x,-y,-z
loop_
_atom_site_type_symbol
_atom_site_label
_atom_site_fract_x
_atom_site_fract_y
_atom_site_fract_z
Si Si1 0.185283 0.619245 0.284885
Si Si2 0.963446 0.821528 0.473400
Si Si3 0.579145 0.100879 0.628979
Si Si4 0.382907 0.166666 0.176987
Si Si5 0.308609 0.507737 0.866122
Si Si6 0.338449 0.433836 0.523360
O O1 0.324087 0.751296 0.323389
O O2 0.098877 0.390226 0.415872
O O3 0.000000 0.500000 0.500000
O O4 0.340484 0.850129 0.916618
O O5 0.856784 0.806570 0.361917
O O6 0.534793 0.342141 0.832971
O O7 0.867507 0.725253 0.772173
O O8 0.197891 0.059827 0.252358
O O9 0.657856 0.296564 0.310070
O O10 0.654776 0.032643 0.634193
O O11 0.492323 0.329271 0.205497
O O12 0.279983 0.432805 0.728207
O O13 0.500000 0.500000 0.500000
#
# Coordination Sequence:
#
# PCOD9053636 Si02
#       6
#     2   2   2   2   2   2
#     4  11  20  34  61  92 132 172 205 249 303 379
#     4  11  24  41  62  99 128 164 213 260 314 374
#     4  11  20  38  62  93 133 170 201 245 315 379
#     4  11  24  41  65  98 131 162 209 262 313 379
#     4  11  24  41  63  97 129 164 209 259 316 379
#     4  11  25  48  69  86 122 172 216 265 320 369
#
# _framework density 24.159775
#
# number of rings (size 3 to 8) (size 9 to 14) (size 15 to 20)
#    0.000    1.000    6.667    1.500    0.000    6.667 
#    0.000    1.667    0.000    0.000    0.000    0.000 
#    0.000    0.000    0.000    0.000    0.000    0.000 
#
# Total GULP energy -67048.724473 kJ/mol
# GULP energy per Si atom -5587.393706 kJ/mol
# Density = 2.410479 g / cm^3
# Si number density = 24.159775 Si / 1000 Ang^3
#
#
#
# Elastic Constant Matrix: (Units=GPa)
#
#
# Indices 1 2 3 4 5 6 
#
# 1 94.7240 12.1213 32.4833 0.9160 -14.8576 22.1693
# 2 12.1213 153.6372 52.7519 20.9920 -17.5961 19.4124
# 3 32.4833 52.7519 98.1595 3.7841 -17.7066 16.0410
# 4 0.9160 20.9920 3.7841 43.5935 5.8630 -9.7403
# 5 -14.8576 -17.5961 -17.7066 5.8630 45.8843 -1.7299
# 6 22.1693 19.4124 16.0410 -9.7403 -1.7299 40.8691
#
#
#
# Elastic Compliance Matrix: (Units=1/GPa)
#
#
# Indices 1 2 3 4 5 6 
#
# 1 0.014010 0.002011 -0.003600 -0.003223 0.004039 -0.007739
# 2 0.002011 0.009640 -0.004151 -0.005958 0.003307 -0.005321
# 3 -0.003600 -0.004151 0.014349 0.000115 0.002706 -0.001566
# 4 -0.003223 -0.005958 0.000115 0.029262 -0.006600 0.011228
# 5 0.004039 0.003307 0.002706 -0.006600 0.026058 -0.005294
# 6 -0.007739 -0.005321 -0.001566 0.011228 -0.005294 0.034260
#
#
# Mechanical properties :
#
#
# Convention : Reuss Voigt Hill
#
# Bulk Modulus (GPa) = 37.70515 60.13708 48.92112
# Shear Modulus (GPa) = 33.80698 42.68032 38.24365
#
# Velocity S-wave (km/s) = 3.74479 4.20764 3.98294
# Velocity P-wave (km/s) = 5.85990 6.96786 6.43776
#
# Compressibility (1/GPa) = 0.02652158
#
# Stress axis : x y z
#
# Youngs Moduli (GPa) = 71.37758 103.72941 69.69153
#
# Poissons Ratio (x) = -0.20865 0.25087
# Poissons Ratio (y) = -0.14357 0.28927
# Poissons Ratio (z) = 0.25694 0.43055
#
# Static dielectric constant tensor:
#      x y z
#    x 1.990470 -0.011510 0.046490 
#    y -0.011510 1.949550 -0.028530 
#    z 0.046490 -0.028530 1.922750 
# 
# From -- ./inp_files/264278.got.cif
#   From: 2010.05.17/outbox.cif.g08.bks.cpg/sg2_133_cif.got.tgz:264278.got - 2010.06.03 11:33:40.
