data_PCOD9053129
_publ_section_title
;
Structure prediction by ZEFSAII (Michael W. Deem and Ramdas Pophale) SiO2 
 PCOD9053129
Probable space group: P -1
;
_chemical_formula_sum "Si O2"
_cell_formula_units_Z 16
_cell_length_a 10.072059
_cell_length_b 7.559909
_cell_length_c 14.952708
_cell_angle_alpha 109.490996
_cell_angle_beta 132.926077
_cell_angle_gamma 46.867395
_cell_volume 589.557786
_symmetry_space_group_name_H-M "P -1"
_symmetry_group_IT_number 2
_symmetry_cell_setting 'triclinic'
loop_
_space_group_symop_operation_xyz
x,y,z
-x,-y,-z
loop_
_atom_site_type_symbol
_atom_site_label
_atom_site_fract_x
_atom_site_fract_y
_atom_site_fract_z
Si Si1 0.352847 0.666668 0.672516
Si Si2 0.977232 0.857395 0.300936
Si Si3 0.298923 0.288099 0.761394
Si Si4 0.223123 0.572506 0.046917
Si Si5 0.411611 0.745011 0.414029
Si Si6 0.468380 0.116666 0.334516
Si Si7 0.984429 0.771487 0.798604
Si Si8 0.230741 0.121933 0.976494
O O1 0.101635 0.906252 0.638506
O O2 0.366145 0.488497 0.579217
O O3 0.465093 0.768744 0.687425
O O4 0.541653 0.504201 0.811472
O O5 0.888773 0.742365 0.297163
O O6 0.258560 0.680719 0.378333
O O7 0.831260 0.940047 0.154630
O O8 0.152144 0.575042 0.764578
O O9 0.391152 0.162013 0.685232
O O10 0.533435 0.110853 0.902876
O O11 0.153461 0.722743 0.948456
O O12 0.001359 0.736396 0.041931
O O13 0.267745 0.319505 0.008150
O O14 0.460491 0.865700 0.531488
O O15 0.215013 0.959809 0.290451
O O16 0.183394 0.269013 0.234411
#
# Coordination Sequence:
#
# PCOD9053129 Si02
#       8
#     2   2   2   2   2   2   2   2
#     4  11  23  43  70  96 125 165 212 274 314 370
#     4  11  22  40  65  98 126 163 212 266 318 367
#     4  11  22  39  73  97 119 163 223 270 309 366
#     4  11  19  38  72  97 124 161 211 265 324 364
#     4  12  28  43  60  93 141 172 205 257 323 388
#     4  11  24  46  68  92 119 175 229 261 300 368
#     4  12  25  42  66  96 130 170 208 262 324 387
#     4  11  18  38  70 101 124 154 220 277 300 375
#
# _framework density 27.138987
#
# number of rings (size 3 to 8) (size 9 to 14) (size 15 to 20)
#    0.000    0.750    6.250    3.375    0.000    5.000 
#    0.000    1.250    0.000    0.000    0.000    0.000 
#    0.000    0.000    0.000    0.000    0.000    0.000 
#
# Total GULP energy -89835.954753 kJ/mol
# GULP energy per Si atom -5614.747172 kJ/mol
# Density = 2.707722 g / cm^3
# Si number density = 27.138987 Si / 1000 Ang^3
#
#
#
# Elastic Constant Matrix: (Units=GPa)
#
#
# Indices 1 2 3 4 5 6 
#
# 1 93.6446 35.4211 19.1273 6.5055 2.5045 -12.6157
# 2 35.4211 144.7568 21.2211 27.8357 -18.0377 -43.2252
# 3 19.1273 21.2211 114.2627 25.3504 -16.6367 4.9883
# 4 6.5055 27.8357 25.3504 45.4441 -11.4109 -13.0256
# 5 2.5045 -18.0377 -16.6367 -11.4109 38.5124 -5.6937
# 6 -12.6157 -43.2252 4.9883 -13.0256 -5.6937 44.9270
#
#
#
# Elastic Compliance Matrix: (Units=1/GPa)
#
#
# Indices 1 2 3 4 5 6 
#
# 1 0.012362 -0.003006 -0.002113 0.000738 -0.002806 0.000672
# 2 -0.003006 0.012408 -0.000959 -0.001592 0.006836 0.011605
# 3 -0.002113 -0.000959 0.011100 -0.005988 0.002085 -0.004221
# 4 0.000738 -0.001592 -0.005988 0.030588 0.007028 0.009100
# 5 -0.002806 0.006836 0.002085 0.007028 0.034095 0.011916
# 6 0.000672 0.011605 -0.004221 0.009100 0.011916 0.038229
#
#
# Mechanical properties :
#
#
# Convention : Reuss Voigt Hill
#
# Bulk Modulus (GPa) = 42.17123 56.02257 49.09690
# Shear Modulus (GPa) = 31.47799 44.23635 37.85717
#
# Velocity S-wave (km/s) = 3.40940 4.04170 3.73894
# Velocity P-wave (km/s) = 5.57417 6.51675 6.06380
#
# Compressibility (1/GPa) = 0.02371285
#
# Stress axis : x y z
#
# Youngs Moduli (GPa) = 80.89596 80.59623 90.09067
#
# Poissons Ratio (x) = 0.24228 0.19034
# Poissons Ratio (y) = 0.24318 0.08642
# Poissons Ratio (z) = 0.17091 0.07731
#
# Static dielectric constant tensor:
#      x y z
#    x 2.127240 0.090480 -0.034370 
#    y 0.090480 2.121570 0.026640 
#    z -0.034370 0.026640 2.063830 
# 
# From -- ./inp_files/515969.got.cif
#   From: 2010.05.17/outbox.cif.g08.bks.cpg/sg2_258_cif.got.tgz:515969.got - 2010.06.03 11:33:40.
