data_PCOD9053125
_publ_section_title
;
Structure prediction by ZEFSAII (Michael W. Deem and Ramdas Pophale) SiO2 
 PCOD9053125
Probable space group: P -1
;
_chemical_formula_sum "Si O2"
_cell_formula_units_Z 14
_cell_length_a 11.229948
_cell_length_b 9.246083
_cell_length_c 12.166774
_cell_angle_alpha 139.241732
_cell_angle_beta 128.559569
_cell_angle_gamma 63.604054
_cell_volume 644.001930
_symmetry_space_group_name_H-M "P -1"
_symmetry_group_IT_number 2
_symmetry_cell_setting 'triclinic'
loop_
_space_group_symop_operation_xyz
x,y,z
-x,-y,-z
loop_
_atom_site_type_symbol
_atom_site_label
_atom_site_fract_x
_atom_site_fract_y
_atom_site_fract_z
Si Si1 0.103959 0.574774 0.205214
Si Si2 0.042656 0.004087 0.688725
Si Si3 0.456295 0.135762 0.297487
Si Si4 0.662997 0.769044 0.130230
Si Si5 0.446580 0.462119 0.283574
Si Si6 0.118868 0.944519 0.943509
Si Si7 0.094132 0.468517 0.729995
O O1 0.273318 0.509607 0.244781
O O2 0.028722 0.477364 0.215813
O O3 0.081824 0.838872 0.344433
O O4 0.000000 0.500000 0.000000
O O5 0.068289 0.037257 0.851462
O O6 0.980695 0.753205 0.493931
O O7 0.202639 0.081818 0.768377
O O8 0.502777 0.284774 0.302082
O O9 0.467408 0.301333 0.503619
O O10 0.563743 0.929369 0.237866
O O11 0.284785 0.044307 0.128105
O O12 0.752877 0.596370 0.155731
O O13 0.563157 0.641266 0.903479
O O14 0.123487 0.677206 0.789023
O O15 0.000000 0.000000 0.000000
#
# Coordination Sequence:
#
# PCOD9053125 Si02
#       7
#     2   2   2   2   2   2   2
#     4  11  18  38  68  95 126 160 212 266 309 365
#     4  11  22  40  67  96 123 167 215 264 316 373
#     4  11  24  42  63  97 128 167 214 263 322 377
#     4  11  22  42  69  96 127 160 215 271 312 375
#     4  11  21  38  68  96 124 166 210 267 315 366
#     4  12  26  44  62  90 132 169 210 262 321 389
#     4  11  23  39  64  96 128 168 209 261 322 380
#
# _framework density 21.739063999999999
#
# number of rings (size 3 to 8) (size 9 to 14) (size 15 to 20)
#    0.000    0.857    4.286    6.000    0.000    1.714 
#    2.571    0.714    0.000    0.000    0.000    0.000 
#    0.000    0.000    0.000    0.000    0.000    0.000 
#
# Total GULP energy -78322.616892 kJ/mol
# GULP energy per Si atom -5594.472635 kJ/mol
# Density = 2.168959 g / cm^3
# Si number density = 21.739064 Si / 1000 Ang^3
#
#
#
# Elastic Constant Matrix: (Units=GPa)
#
#
# Indices 1 2 3 4 5 6 
#
# 1 34.9458 11.2203 -1.8015 3.9204 -6.7072 -2.9213
# 2 11.2203 86.8582 13.9834 12.2736 4.3725 7.7012
# 3 -1.8015 13.9834 127.5115 12.7697 -6.9875 7.3072
# 4 3.9204 12.2736 12.7697 37.8661 0.2505 -2.8303
# 5 -6.7072 4.3725 -6.9875 0.2505 11.6634 3.9874
# 6 -2.9213 7.7012 7.3072 -2.8303 3.9874 22.7353
#
#
#
# Elastic Compliance Matrix: (Units=1/GPa)
#
#
# Indices 1 2 3 4 5 6 
#
# 1 0.035687 -0.005970 0.002680 -0.002733 0.024017 0.001194
# 2 -0.005970 0.013787 -0.001444 -0.003611 -0.008016 -0.004017
# 3 0.002680 -0.001444 0.009088 -0.003238 0.008987 -0.004067
# 4 -0.002733 -0.003611 -0.003238 0.029470 -0.004999 0.006458
# 5 0.024017 -0.008016 0.008987 -0.004999 0.114105 -0.017722
# 6 0.001194 -0.004017 -0.004067 0.006458 -0.017722 0.050718
#
#
# Mechanical properties :
#
#
# Convention : Reuss Voigt Hill
#
# Bulk Modulus (GPa) = 20.36880 32.90218 26.63549
# Shear Modulus (GPa) = 17.94131 29.51384 23.72757
#
# Velocity S-wave (km/s) = 2.87593 3.68861 3.30733
# Velocity P-wave (km/s) = 4.51862 5.77140 5.18300
#
# Compressibility (1/GPa) = 0.04909470
#
# Stress axis : x y z
#
# Youngs Moduli (GPa) = 28.02154 72.53433 110.02993
#
# Poissons Ratio (x) = 0.43304 -0.29491
# Poissons Ratio (y) = 0.16729 0.15885
# Poissons Ratio (z) = -0.07511 0.10472
#
# Static dielectric constant tensor:
#      x y z
#    x 1.760980 -0.054540 -0.042620 
#    y -0.054540 1.848660 0.071730 
#    z -0.042620 0.071730 1.869030 
# 
# From -- ./inp_files/158991.got.cif
#   From: 2010.05.17/outbox.cif.g08.bks.cpg/sg2_80_cif.got.tgz:158991.got - 2010.06.03 11:33:40.
