data_PCOD9053603
_publ_section_title
;
Structure prediction by ZEFSAII (Michael W. Deem and Ramdas Pophale) SiO2 
 PCOD9053603
Probable space group: P -1
;
_chemical_formula_sum "Si O2"
_cell_formula_units_Z 14
_cell_length_a 10.239016
_cell_length_b 6.544258
_cell_length_c 11.506930
_cell_angle_alpha 110.587105
_cell_angle_beta 59.407958
_cell_angle_gamma 120.682842
_cell_volume 566.386415
_symmetry_space_group_name_H-M "P -1"
_symmetry_group_IT_number 2
_symmetry_cell_setting 'triclinic'
loop_
_space_group_symop_operation_xyz
x,y,z
-x,-y,-z
loop_
_atom_site_type_symbol
_atom_site_label
_atom_site_fract_x
_atom_site_fract_y
_atom_site_fract_z
Si Si1 0.399901 0.272757 0.128148
Si Si2 0.922634 0.987523 0.660798
Si Si3 0.612674 0.274386 0.722162
Si Si4 0.661604 0.139316 0.100882
Si Si5 0.825172 0.216899 0.440227
Si Si6 0.409790 0.311850 0.602398
Si Si7 0.129359 0.487761 0.753128
O O1 0.386643 0.519122 0.150000
O O2 0.577732 0.279077 0.087603
O O3 0.272041 0.167485 0.273328
O O4 0.323278 0.066983 0.025346
O O5 0.966538 0.248805 0.749374
O O6 0.000000 0.000000 0.500000
O O7 0.016296 0.845792 0.656313
O O8 0.793138 0.307748 0.598955
O O9 0.525524 0.330385 0.661093
O O10 0.486238 0.016687 0.773914
O O11 0.829206 0.305635 0.126797
O O12 0.821160 0.378804 0.366854
O O13 0.667964 0.961619 0.456331
O O14 0.500000 0.500000 0.500000
O O15 0.255779 0.375019 0.714839
#
# Coordination Sequence:
#
# PCOD9053603 Si02
#       7
#     2   2   2   2   2   2   2
#     4  11  26  44  64  94 134 170 216 267 317 377
#     4  11  26  44  63  96 135 168 206 263 330 390
#     4  12  21  37  67  96 130 161 212 266 323 373
#     4  11  24  44  68  94 124 174 222 266 313 372
#     4  11  23  37  66  97 127 167 207 262 324 387
#     4  11  20  33  60 101 128 158 206 269 318 370
#     4  11  22  41  66  94 129 169 218 259 317 384
#
# _framework density 24.718105000000001
#
# number of rings (size 3 to 8) (size 9 to 14) (size 15 to 20)
#    0.000    0.857    4.286    3.429    2.000    4.000 
#    0.000    0.714    0.000    0.000    0.000    0.000 
#    0.000    0.000    0.000    0.000    0.000    0.000 
#
# Total GULP energy -78258.078902 kJ/mol
# GULP energy per Si atom -5589.862779 kJ/mol
# Density = 2.466185 g / cm^3
# Si number density = 24.718105 Si / 1000 Ang^3
#
#
#
# Elastic Constant Matrix: (Units=GPa)
#
#
# Indices 1 2 3 4 5 6 
#
# 1 70.0649 27.3827 8.9168 5.0986 10.4302 -9.7619
# 2 27.3827 139.3159 16.4437 15.3914 13.7874 11.4727
# 3 8.9168 16.4437 60.1839 15.8215 13.4555 0.5652
# 4 5.0986 15.3914 15.8215 48.5884 0.8939 7.2511
# 5 10.4302 13.7874 13.4555 0.8939 29.0483 5.9245
# 6 -9.7619 11.4727 0.5652 7.2511 5.9245 41.3473
#
#
#
# Elastic Compliance Matrix: (Units=1/GPa)
#
#
# Indices 1 2 3 4 5 6 
#
# 1 0.017355 -0.003146 -0.000018 -0.001620 -0.005925 0.006104
# 2 -0.003146 0.008486 -0.000981 -0.001626 -0.001877 -0.002530
# 3 -0.000018 -0.000981 0.020714 -0.006632 -0.009428 0.002499
# 4 -0.001620 -0.001626 -0.006632 0.024045 0.004649 -0.004724
# 5 -0.005925 -0.001877 -0.009428 0.004649 0.043251 -0.007762
# 6 0.006104 -0.002530 0.002499 -0.004724 -0.007762 0.028235
#
#
# Mechanical properties :
#
#
# Convention : Reuss Voigt Hill
#
# Bulk Modulus (GPa) = 26.13477 41.67235 33.90356
# Shear Modulus (GPa) = 30.64995 38.25158 34.45076
#
# Velocity S-wave (km/s) = 3.52515 3.93811 3.73734
# Velocity P-wave (km/s) = 5.21201 6.12976 5.68942
#
# Compressibility (1/GPa) = 0.03826320
#
# Stress axis : x y z
#
# Youngs Moduli (GPa) = 57.62116 117.84164 48.27549
#
# Poissons Ratio (x) = 0.37075 0.00089
# Poissons Ratio (y) = 0.18129 0.04738
# Poissons Ratio (z) = 0.00106 0.11565
#
# Static dielectric constant tensor:
#      x y z
#    x 1.934340 0.018860 -0.004660 
#    y 0.018860 2.043490 0.072530 
#    z -0.004660 0.072530 2.065310 
# 
# From -- ./inp_files/60678.got.cif
#   From: 2010.05.17/outbox.cif.g08.bks.cpg/sg2_31_cif.got.tgz:60678.got - 2010.06.03 11:33:40.
