data_PCOD9053637
_publ_section_title
;
Structure prediction by ZEFSAII (Michael W. Deem and Ramdas Pophale) SiO2 
 PCOD9053637
Probable space group: P -1
;
_chemical_formula_sum "Si O2"
_cell_formula_units_Z 12
_cell_length_a 12.032462
_cell_length_b 9.244119
_cell_length_c 7.634133
_cell_angle_alpha 49.631705
_cell_angle_beta 47.621678
_cell_angle_gamma 57.643986
_cell_volume 470.521154
_symmetry_space_group_name_H-M "P -1"
_symmetry_group_IT_number 2
_symmetry_cell_setting 'triclinic'
loop_
_space_group_symop_operation_xyz
x,y,z
-x,-y,-z
loop_
_atom_site_type_symbol
_atom_site_label
_atom_site_fract_x
_atom_site_fract_y
_atom_site_fract_z
Si Si1 0.332004 0.395130 0.380924
Si Si2 0.730584 0.110340 0.718181
Si Si3 0.822750 0.506813 0.185358
Si Si4 0.792032 0.914806 0.444924
Si Si5 0.553365 0.589903 0.192551
Si Si6 0.851015 0.199246 0.871717
O O1 0.254620 0.360668 0.676960
O O2 0.324882 0.214056 0.408325
O O3 0.491763 0.457498 0.216795
O O4 0.229020 0.585205 0.259253
O O5 0.798240 0.293652 0.429954
O O6 0.552189 0.199725 0.870361
O O7 0.812386 0.068237 0.850803
O O8 0.761743 0.962504 0.643036
O O9 0.732329 0.568035 0.054323
O O10 0.000000 0.500000 0.000000
O O11 0.966950 0.810305 0.308679
O O12 0.788125 0.110163 0.181826
O O13 0.500000 0.500000 0.500000
#
# Coordination Sequence:
#
# PCOD9053637 Si02
#       6
#     2   2   2   2   2   2
#     4   9  19  37  58  88 126 166 202 257 311 365
#     4   9  19  37  58  88 126 166 202 257 311 365
#     4   9  18  34  64  91 120 167 204 249 322 368
#     4  11  20  34  61  94 126 165 207 261 307 358
#     4   7  15  36  58  82 126 165 197 255 310 369
#     4   9  21  36  54  90 139 157 210 262 298 366
#
# _framework density 25.503636
#
# number of rings (size 3 to 8) (size 9 to 14) (size 15 to 20)
#    0.000    3.667    0.000    1.000    4.667    0.000 
#    0.000   10.833    0.000   72.000    0.000    0.000 
#    0.000    0.000    0.000    0.000    0.000    0.000 
#
# Total GULP energy -67153.696309 kJ/mol
# GULP energy per Si atom -5596.141359 kJ/mol
# Density = 2.544559 g / cm^3
# Si number density = 25.503636 Si / 1000 Ang^3
#
#
#
# Elastic Constant Matrix: (Units=GPa)
#
#
# Indices 1 2 3 4 5 6 
#
# 1 139.3492 18.5511 44.9100 20.7593 -20.4934 -1.4330
# 2 18.5511 46.3647 34.5718 9.6394 -30.6890 25.3480
# 3 44.9100 34.5718 78.8023 2.1881 -15.7414 5.8058
# 4 20.7593 9.6394 2.1881 39.1580 6.0298 7.1316
# 5 -20.4934 -30.6890 -15.7414 6.0298 39.3618 15.8680
# 6 -1.4330 25.3480 5.8058 7.1316 15.8680 59.2493
#
#
#
# Elastic Compliance Matrix: (Units=1/GPa)
#
#
# Indices 1 2 3 4 5 6 
#
# 1 0.008296 -0.012538 -0.001666 -0.001313 -0.009298 0.008376
# 2 -0.012538 -0.081421 0.020749 0.029445 -0.087321 0.052339
# 3 -0.001666 0.020749 0.011435 -0.006066 0.027538 -0.016683
# 4 -0.001313 0.029445 -0.006066 0.019263 0.025428 -0.021163
# 5 -0.009298 -0.087321 0.027538 0.025428 -0.059467 0.047300
# 6 0.008376 0.052339 -0.016683 -0.021163 0.047300 -0.013797
#
#
# Mechanical properties :
#
#
# Convention : Reuss Voigt Hill
#
# Bulk Modulus (GPa) = -20.57694 51.17576 15.29941
# Shear Modulus (GPa) = -34.48728 38.65272 2.08272
#
# Velocity S-wave (km/s) = -3.68128 3.89726 0.90466
# Velocity P-wave (km/s) = 5.11419 6.35305 2.66517
#
# Compressibility (1/GPa) = -0.04859808
#
# Stress axis : x y z
#
# Youngs Moduli (GPa) = 120.53340 -12.28191 87.45352
#
# Poissons Ratio (x) = -0.15399 0.14566
# Poissons Ratio (y) = 1.51124 -1.81459
# Poissons Ratio (z) = 0.20075 0.25484
#
# Static dielectric constant tensor:
#      x y z
#    x 2.034220 0.026290 0.012620 
#    y 0.026290 2.046720 0.043010 
#    z 0.012620 0.043010 2.098440 
# 
# From -- ./inp_files/236466.got.cif
#   From: 2010.05.17/outbox.cif.g08.bks.cpg/sg2_119_cif.got.tgz:236466.got - 2010.06.03 11:33:40.
