data_PCOD9053912
_publ_section_title
;
Structure prediction by ZEFSAII (Michael W. Deem and Ramdas Pophale) SiO2 
 PCOD9053912
Probable space group: P -1
;
_chemical_formula_sum "Si O2"
_cell_formula_units_Z 14
_cell_length_a 5.521811
_cell_length_b 12.046616
_cell_length_c 15.473239
_cell_angle_alpha 45.507003
_cell_angle_beta 62.227009
_cell_angle_gamma 54.900572
_cell_volume 597.190361
_symmetry_space_group_name_H-M "P -1"
_symmetry_group_IT_number 2
_symmetry_cell_setting 'triclinic'
loop_
_space_group_symop_operation_xyz
x,y,z
-x,-y,-z
loop_
_atom_site_type_symbol
_atom_site_label
_atom_site_fract_x
_atom_site_fract_y
_atom_site_fract_z
Si Si1 0.611499 0.220563 0.721785
Si Si2 0.895810 0.764212 0.778276
Si Si3 0.319940 0.428385 0.820376
Si Si4 0.354995 0.960316 0.460133
Si Si5 0.533551 0.362726 0.995911
Si Si6 0.913032 0.848525 0.909619
Si Si7 0.190789 0.300390 0.579051
O O1 0.462278 0.363063 0.741049
O O2 0.393342 0.256607 0.656149
O O3 0.941291 0.220369 0.652630
O O4 0.663357 0.035320 0.851260
O O5 0.756967 0.668164 0.916704
O O6 0.034829 0.829957 0.798777
O O7 0.091225 0.622641 0.756251
O O8 0.652323 0.914891 0.685193
O O9 0.542520 0.423098 0.864814
O O10 0.184550 0.293354 0.950756
O O11 0.566492 0.772732 0.497587
O O12 0.500000 0.000000 0.500000
O O13 0.000000 0.000000 0.500000
O O14 0.798571 0.183190 0.063949
O O15 0.500000 0.500000 0.000000
O O16 0.000000 0.500000 0.500000
#
# Coordination Sequence:
#
# PCOD9053912 Si02
#       7
#     2   2   2   2   2   2   2
#     4  12  28  47  75 106 149 191 233 298 364 437
#     4  11  23  42  68 102 142 186 239 297 363 407
#     4  11  25  39  67 110 139 192 237 285 349 445
#     4  12  29  49  80 109 138 184 253 310 354 428
#     4  11  20  38  69  99 143 186 236 291 346 422
#     4  11  22  44  67 100 150 186 233 290 357 428
#     4  12  29  54  76 104 147 192 241 303 377 419
#
# _framework density 23.443109
#
# number of rings (size 3 to 8) (size 9 to 14) (size 15 to 20)
#    0.000    0.571    4.286    3.429   10.000    0.571 
#    0.000    0.000    0.000    0.000    0.000    0.000 
#    0.000    0.000    0.000    0.000    0.000    0.000 
#
# Total GULP energy -78050.371617 kJ/mol
# GULP energy per Si atom -5575.026544 kJ/mol
# Density = 2.338975 g / cm^3
# Si number density = 23.443109 Si / 1000 Ang^3
#
#
#
# Elastic Constant Matrix: (Units=GPa)
#
#
# Indices 1 2 3 4 5 6 
#
# 1 120.6071 28.4983 31.7801 5.2346 17.0857 -6.3036
# 2 28.4983 154.4292 8.9726 4.1219 12.5920 -9.0330
# 3 31.7801 8.9726 38.0228 -4.2276 3.6332 -0.0298
# 4 5.2346 4.1219 -4.2276 47.3446 -5.4066 8.3013
# 5 17.0857 12.5920 3.6332 -5.4066 40.0513 2.2374
# 6 -6.3036 -9.0330 -0.0298 8.3013 2.2374 32.0429
#
#
#
# Elastic Compliance Matrix: (Units=1/GPa)
#
#
# Indices 1 2 3 4 5 6 
#
# 1 0.012053 -0.001012 -0.009753 -0.003200 -0.004551 0.003223
# 2 -0.001012 0.007031 -0.000752 -0.001186 -0.001995 0.002229
# 3 -0.009753 -0.000752 0.034996 0.005138 0.002116 -0.003577
# 4 -0.003200 -0.001186 0.005138 0.023914 0.004919 -0.007498
# 5 -0.004551 -0.001995 0.002116 0.004919 0.028271 -0.004704
# 6 0.003223 0.002229 -0.003577 -0.007498 -0.004704 0.034738
#
#
# Mechanical properties :
#
#
# Convention : Reuss Voigt Hill
#
# Bulk Modulus (GPa) = 32.21362 50.17348 41.19355
# Shear Modulus (GPa) = 28.67194 40.14163 34.40679
#
# Velocity S-wave (km/s) = 3.50100 4.14248 3.83518
# Velocity P-wave (km/s) = 5.48759 6.65800 6.10093
#
# Compressibility (1/GPa) = 0.03104277
#
# Stress axis : x y z
#
# Youngs Moduli (GPa) = 82.96912 142.23368 28.57484
#
# Poissons Ratio (x) = 0.14401 0.27870
# Poissons Ratio (y) = 0.08401 0.02150
# Poissons Ratio (z) = 0.80923 0.10701
#
# Static dielectric constant tensor:
#      x y z
#    x 1.923830 -0.085540 -0.074880 
#    y -0.085540 1.841390 -0.003600 
#    z -0.074880 -0.003600 1.927260 
# 
# From -- ./inp_files/49291.got.cif
#   From: 2010.05.17/outbox.cif.g08.bks.cpg/sg2_25_cif.got.tgz:49291.got - 2010.06.03 11:33:40.
