data_PCOD9053372
_publ_section_title
;
Structure prediction by ZEFSAII (Michael W. Deem and Ramdas Pophale) SiO2 
 PCOD9053372
Probable space group: P -1
;
_chemical_formula_sum "Si O2"
_cell_formula_units_Z 14
_cell_length_a 16.037208
_cell_length_b 9.679875
_cell_length_c 8.337328
_cell_angle_alpha 149.677103
_cell_angle_beta 62.127818
_cell_angle_gamma 125.466360
_cell_volume 530.447329
_symmetry_space_group_name_H-M "P -1"
_symmetry_group_IT_number 2
_symmetry_cell_setting 'triclinic'
loop_
_space_group_symop_operation_xyz
x,y,z
-x,-y,-z
loop_
_atom_site_type_symbol
_atom_site_label
_atom_site_fract_x
_atom_site_fract_y
_atom_site_fract_z
Si Si1 0.665325 0.314286 0.778217
Si Si2 0.972037 0.033331 0.340161
Si Si3 0.859774 0.422648 0.950898
Si Si4 0.408946 0.565509 0.725653
Si Si5 0.084318 0.832413 0.802751
Si Si6 0.311384 0.125391 0.888052
Si Si7 0.695055 0.026097 0.903558
O O1 0.764462 0.347333 0.835137
O O2 0.625535 0.001494 0.410058
O O3 0.582538 0.331230 0.996265
O O4 0.689272 0.578229 0.893003
O O5 0.945062 0.306136 0.695525
O O6 0.916700 0.963928 0.144484
O O7 0.916432 0.775303 0.257736
O O8 0.072150 0.994113 0.140657
O O9 0.807520 0.277048 0.017984
O O10 0.500000 0.500000 0.500000
O O11 0.317395 0.235801 0.473951
O O12 0.379152 0.802138 0.891222
O O13 0.198615 0.851099 0.715339
O O14 0.000000 0.500000 0.500000
O O15 0.333966 0.141825 0.070974
#
# Coordination Sequence:
#
# PCOD9053372 Si02
#       7
#     2   2   2   2   2   2   2
#     4  11  21  39  68  91 121 172 214 249 310 394
#     4  11  20  33  57  87 115 166 224 260 292 350
#     4  11  19  38  60  85 120 168 221 252 298 387
#     4  11  24  47  71  97 124 166 211 252 314 405
#     4  11  22  34  59  91 127 167 218 271 306 356
#     4  12  24  41  61 100 131 164 215 270 317 367
#     4  11  25  42  67  96 133 164 202 271 330 365
#
# _framework density 26.392818999999999
#
# number of rings (size 3 to 8) (size 9 to 14) (size 15 to 20)
#    0.000    0.857    4.286    4.714    2.000    0.000 
#    0.000    5.714    0.000    0.000    0.000    0.000 
#    0.000    0.000    0.000    0.000    0.000    0.000 
#
# Total GULP energy -78277.162597 kJ/mol
# GULP energy per Si atom -5591.225900 kJ/mol
# Density = 2.633275 g / cm^3
# Si number density = 26.392819 Si / 1000 Ang^3
#
#
#
# Elastic Constant Matrix: (Units=GPa)
#
#
# Indices 1 2 3 4 5 6 
#
# 1 57.5897 36.1772 20.5885 -1.5053 -14.0196 -11.0700
# 2 36.1772 112.0140 23.9783 0.7891 -25.7352 -31.1284
# 3 20.5885 23.9783 150.1338 -3.9011 -30.5999 -13.1858
# 4 -1.5053 0.7891 -3.9011 56.0386 3.7622 -12.1445
# 5 -14.0196 -25.7352 -30.5999 3.7622 31.1741 4.4355
# 6 -11.0700 -31.1284 -13.1858 -12.1445 4.4355 39.4270
#
#
#
# Elastic Compliance Matrix: (Units=1/GPa)
#
#
# Indices 1 2 3 4 5 6 
#
# 1 0.022668 -0.005872 -0.001274 0.000568 0.003880 0.001041
# 2 -0.005872 0.015746 0.001276 0.001315 0.009959 0.010495
# 3 -0.001274 0.001276 0.008616 0.000576 0.008477 0.002755
# 4 0.000568 0.001315 0.000576 0.019635 -0.001547 0.007612
# 5 0.003880 0.009959 0.008477 -0.001547 0.049738 0.005715
# 6 0.001041 0.010495 0.002755 0.007612 0.005715 0.036565
#
#
# Mechanical properties :
#
#
# Convention : Reuss Voigt Hill
#
# Bulk Modulus (GPa) = 28.33577 53.46950 40.90263
# Shear Modulus (GPa) = 28.33349 41.26083 34.79716
#
# Velocity S-wave (km/s) = 3.28003 3.95819 3.63496
# Velocity P-wave (km/s) = 5.01042 6.41816 5.75748
#
# Compressibility (1/GPa) = 0.03529108
#
# Stress axis : x y z
#
# Youngs Moduli (GPa) = 44.11593 63.50905 116.06019
#
# Poissons Ratio (x) = 0.37289 0.14783
# Poissons Ratio (y) = 0.25903 -0.14810
# Poissons Ratio (z) = 0.05619 -0.08104
#
# Static dielectric constant tensor:
#      x y z
#    x 2.254490 0.039250 0.029010 
#    y 0.039250 2.100000 -0.063730 
#    z 0.029010 -0.063730 2.100330 
# 
# From -- ./inp_files/329707.got.cif
#   From: 2010.05.17/outbox.cif.g08.bks.cpg/sg2_165_cif.got.tgz:329707.got - 2010.06.03 11:33:40.
