data_PCOD9053373
_publ_section_title
;
Structure prediction by ZEFSAII (Michael W. Deem and Ramdas Pophale) SiO2 
 PCOD9053373
Probable space group: P -1
;
_chemical_formula_sum "Si O2"
_cell_formula_units_Z 16
_cell_length_a 22.512161
_cell_length_b 11.840175
_cell_length_c 7.448968
_cell_angle_alpha 85.476163
_cell_angle_beta 119.633714
_cell_angle_gamma 144.939587
_cell_volume 751.145396
_symmetry_space_group_name_H-M "P -1"
_symmetry_group_IT_number 2
_symmetry_cell_setting 'triclinic'
loop_
_space_group_symop_operation_xyz
x,y,z
-x,-y,-z
loop_
_atom_site_type_symbol
_atom_site_label
_atom_site_fract_x
_atom_site_fract_y
_atom_site_fract_z
Si Si1 0.307941 0.977355 0.777116
Si Si2 0.129043 0.499067 0.565651
Si Si3 0.710613 0.770091 0.787673
Si Si4 0.828088 0.871627 0.612615
Si Si5 0.974361 0.886390 0.653952
Si Si6 0.417005 0.469922 0.999446
Si Si7 0.000475 0.652108 0.217188
Si Si8 0.821008 0.168938 0.002356
O O1 0.274950 0.797111 0.713424
O O2 0.165092 0.836054 0.490552
O O3 0.278959 0.957061 0.949667
O O4 0.475036 0.261716 0.914844
O O5 0.139189 0.387129 0.527591
O O6 0.087263 0.442542 0.720208
O O7 0.979895 0.341511 0.277140
O O8 0.690196 0.680612 0.576033
O O9 0.593057 0.573359 0.800744
O O10 0.736491 0.944690 0.791133
O O11 0.865431 0.934249 0.068858
O O12 0.906454 0.867468 0.706758
O O13 0.753828 0.782200 0.316040
O O14 0.948664 0.151663 0.812923
O O15 0.000000 0.000000 0.500000
O O16 0.500000 0.500000 0.000000
O O17 0.885107 0.384610 0.993006
#
# Coordination Sequence:
#
# PCOD9053373 Si02
#       8
#     2   2   2   2   2   2   2   2
#     4   9  16  31  53  79 110 145 181 218 267 327
#     4   8  15  29  57  80 102 142 184 224 270 317
#     4  11  23  37  56  85 112 144 184 231 273 322
#     4  12  23  35  58  85 111 146 186 227 274 322
#     4  11  19  38  61  80 109 143 186 234 276 316
#     4  12  21  37  56  80 116 152 181 217 271 336
#     4   9  15  29  52  83 109 140 176 222 278 326
#     4   8  15  30  52  78 112 138 175 224 275 328
#
# _framework density 21.300802000000001
#
# number of rings (size 3 to 8) (size 9 to 14) (size 15 to 20)
#    0.000    2.000    5.000    2.625    0.000    1.000 
#    0.000    0.625    0.000    0.750    0.000    0.000 
#    0.000    0.000    0.000    0.000    0.000    0.000 
#
# Total GULP energy -89228.757834 kJ/mol
# GULP energy per Si atom -5576.797365 kJ/mol
# Density = 2.125232 g / cm^3
# Si number density = 21.300802 Si / 1000 Ang^3
#
#
#
# Elastic Constant Matrix: (Units=GPa)
#
#
# Indices 1 2 3 4 5 6 
#
# 1 149.3264 64.0846 21.9803 11.4581 -25.1710 -12.8140
# 2 64.0846 120.3867 21.4629 20.5495 -27.2750 -7.9238
# 3 21.9803 21.4629 40.4611 4.0200 -10.4596 -3.9245
# 4 11.4581 20.5495 4.0200 28.3772 -0.9732 -11.1906
# 5 -25.1710 -27.2750 -10.4596 -0.9732 25.0567 -0.5582
# 6 -12.8140 -7.9238 -3.9245 -11.1906 -0.5582 42.6982
#
#
#
# Elastic Compliance Matrix: (Units=1/GPa)
#
#
# Indices 1 2 3 4 5 6 
#
# 1 0.009471 -0.003412 -0.001808 -0.000101 0.005088 0.002083
# 2 -0.003412 0.014444 -0.002158 -0.008661 0.011043 -0.000667
# 3 -0.001808 -0.002158 0.029159 -0.000934 0.008007 0.001597
# 4 -0.000101 -0.008661 -0.000934 0.045382 -0.007932 0.010067
# 5 0.005088 0.011043 0.008007 -0.007932 0.060142 0.003019
# 6 0.002083 -0.000667 0.001597 0.010067 0.003019 0.026746
#
#
# Mechanical properties :
#
#
# Convention : Reuss Voigt Hill
#
# Bulk Modulus (GPa) = 26.09688 58.35886 42.22787
# Shear Modulus (GPa) = 23.48802 32.73620 28.11211
#
# Velocity S-wave (km/s) = 3.32427 3.92452 3.63680
# Velocity P-wave (km/s) = 5.19736 6.92769 6.12394
#
# Compressibility (1/GPa) = 0.03831876
#
# Stress axis : x y z
#
# Youngs Moduli (GPa) = 105.58009 69.23253 34.29440
#
# Poissons Ratio (x) = 0.23626 0.06200
# Poissons Ratio (y) = 0.36029 0.07400
# Poissons Ratio (z) = 0.19087 0.14939
#
# Static dielectric constant tensor:
#      x y z
#    x 1.776220 0.010030 -0.005860 
#    y 0.010030 1.865870 0.056680 
#    z -0.005860 0.056680 1.952580 
# 
# From -- ./inp_files/307483.got.cif
#   From: 2010.05.17/outbox.cif.g08.bks.cpg/sg2_154_cif.got.tgz:307483.got - 2010.06.03 11:33:40.
