data_PCOD9053207
_publ_section_title
;
Structure prediction by ZEFSAII (Michael W. Deem and Ramdas Pophale) SiO2 
 PCOD9053207
Probable space group: P -1
;
_chemical_formula_sum "Si O2"
_cell_formula_units_Z 12
_cell_length_a 7.224349
_cell_length_b 8.568017
_cell_length_c 11.774241
_cell_angle_alpha 107.892652
_cell_angle_beta 130.970119
_cell_angle_gamma 103.337723
_cell_volume 418.381534
_symmetry_space_group_name_H-M "P -1"
_symmetry_group_IT_number 2
_symmetry_cell_setting 'triclinic'
loop_
_space_group_symop_operation_xyz
x,y,z
-x,-y,-z
loop_
_atom_site_type_symbol
_atom_site_label
_atom_site_fract_x
_atom_site_fract_y
_atom_site_fract_z
Si Si1 0.609554 0.809362 0.915600
Si Si2 0.409667 0.837676 0.629558
Si Si3 0.106811 0.996912 0.689022
Si Si4 0.911542 0.627486 0.626940
Si Si5 0.200733 0.613174 0.275754
Si Si6 0.566219 0.412938 0.865818
O O1 0.686851 0.912459 0.844626
O O2 0.280125 0.760241 0.803211
O O3 0.573153 0.599929 0.864515
O O4 0.821181 0.944540 0.135852
O O5 0.214082 0.593746 0.521676
O O6 0.380545 0.811778 0.476214
O O7 0.276426 0.948941 0.653536
O O8 0.239433 0.220353 0.740144
O O9 0.828641 0.755395 0.550272
O O10 0.798384 0.562039 0.696381
O O11 0.320609 0.657948 0.206837
O O12 0.835778 0.505619 0.089921
#
# Coordination Sequence:
#
# PCOD9053207 Si02
#       6
#     2   2   2   2   2   2
#     4  11  20  34  60  90 107 142 194 235 263 326
#     4   9  20  38  62  78 113 150 190 218 279 337
#     4  11  19  33  64  87 105 145 195 226 271 334
#     4   9  19  38  60  79 108 153 186 217 276 336
#     4   9  22  41  57  74 122 154 175 222 300 323
#     4  11  23  37  57  85 118 143 182 238 280 324
#
# _framework density 28.681951999999999
#
# number of rings (size 3 to 8) (size 9 to 14) (size 15 to 20)
#    1.000    1.000    1.667    4.500    0.000    1.333 
#    0.000    8.333    0.000    0.000    0.000    0.000 
#    0.000    0.000    0.000    0.000    0.000    0.000 
#
# Total GULP energy -66845.331804 kJ/mol
# GULP energy per Si atom -5570.444317 kJ/mol
# Density = 2.861667 g / cm^3
# Si number density = 28.681952 Si / 1000 Ang^3
#
#
#
# Elastic Constant Matrix: (Units=GPa)
#
#
# Indices 1 2 3 4 5 6 
#
# 1 79.8486 32.8674 39.0604 -0.4193 -25.2771 12.2146
# 2 32.8674 122.7710 58.3442 -2.3803 -17.7000 16.3561
# 3 39.0604 58.3442 136.1677 -13.4198 -34.1183 -9.4304
# 4 -0.4193 -2.3803 -13.4198 47.9197 -1.8050 -8.9258
# 5 -25.2771 -17.7000 -34.1183 -1.8050 65.6539 -1.2833
# 6 12.2146 16.3561 -9.4304 -8.9258 -1.2833 36.7149
#
#
#
# Elastic Compliance Matrix: (Units=1/GPa)
#
#
# Indices 1 2 3 4 5 6 
#
# 1 0.017320 -0.001276 -0.004086 -0.002138 0.004013 -0.006623
# 2 -0.001276 0.011941 -0.005536 -0.002263 -0.000346 -0.006879
# 3 -0.004086 -0.005536 0.012976 0.005062 0.003983 0.008528
# 4 -0.002138 -0.002263 0.005062 0.023888 0.002028 0.008898
# 5 0.004013 -0.000346 0.003983 0.002028 0.018828 0.000993
# 6 -0.006623 -0.006879 0.008528 0.008898 0.000993 0.036893
#
#
# Mechanical properties :
#
#
# Convention : Reuss Voigt Hill
#
# Bulk Modulus (GPa) = 48.92266 66.59237 57.75751
# Shear Modulus (GPa) = 33.23273 43.95872 38.59573
#
# Velocity S-wave (km/s) = 3.40761 3.91912 3.67228
# Velocity P-wave (km/s) = 5.70757 6.61417 6.17753
#
# Compressibility (1/GPa) = 0.02044043
#
# Stress axis : x y z
#
# Youngs Moduli (GPa) = 57.73821 83.74824 77.06816
#
# Poissons Ratio (x) = 0.10684 0.31486
# Poissons Ratio (y) = 0.07366 0.42667
# Poissons Ratio (z) = 0.23589 0.46366
#
# Static dielectric constant tensor:
#      x y z
#    x 2.296670 -0.003340 0.029670 
#    y -0.003340 2.353240 -0.137030 
#    z 0.029670 -0.137030 2.369650 
# 
# From -- ./inp_files/193003.got.cif
#   From: 2010.05.17/outbox.cif.g08.bks.cpg/sg2_97_cif.got.tgz:193003.got - 2010.06.03 11:33:40.
