data_PCOD9053310
_publ_section_title
;
Structure prediction by ZEFSAII (Michael W. Deem and Ramdas Pophale) SiO2 
 PCOD9053310
Probable space group: P -1
;
_chemical_formula_sum "Si O2"
_cell_formula_units_Z 16
_cell_length_a 19.188541
_cell_length_b 8.187593
_cell_length_c 22.940708
_cell_angle_alpha 114.147090
_cell_angle_beta 16.564396
_cell_angle_gamma 105.995576
_cell_volume 838.266247
_symmetry_space_group_name_H-M "P -1"
_symmetry_group_IT_number 2
_symmetry_cell_setting 'triclinic'
loop_
_space_group_symop_operation_xyz
x,y,z
-x,-y,-z
loop_
_atom_site_type_symbol
_atom_site_label
_atom_site_fract_x
_atom_site_fract_y
_atom_site_fract_z
Si Si1 0.600440 0.780769 0.859072
Si Si2 0.950358 0.272667 0.710909
Si Si3 0.846570 0.257908 0.223133
Si Si4 0.151335 0.793020 0.924232
Si Si5 0.748183 0.975408 0.669791
Si Si6 0.759786 0.660773 0.403120
Si Si7 0.665890 0.793317 0.371693
Si Si8 0.698981 0.601630 0.870014
O O1 0.720825 0.802385 0.704065
O O2 0.788665 0.638384 0.739142
O O3 0.335183 0.741759 0.058322
O O4 0.500000 0.000000 0.000000
O O5 0.901897 0.459231 0.734782
O O6 0.170787 0.084525 0.470520
O O7 0.057803 0.297482 0.690605
O O8 0.887462 0.236026 0.117548
O O9 0.899820 0.434435 0.232791
O O10 0.525309 0.316903 0.500041
O O11 0.023190 0.033658 0.072947
O O12 0.470318 0.698301 0.668639
O O13 0.971937 0.707828 0.090344
O O14 0.000000 0.000000 0.500000
O O15 0.481387 0.182606 0.924651
O O16 0.681533 0.806727 0.430889
O O17 0.500000 0.000000 0.500000
O O18 0.500000 0.500000 0.000000
#
# Coordination Sequence:
#
# PCOD9053310 Si02
#       8
#     2   2   2   2   2   2   2   2
#     4   9  18  36  61  82 103 143 196 235 275 335
#     4  11  23  38  52  85 122 147 184 238 293 333
#     4   9  19  35  58  85 107 145 189 231 274 327
#     4   9  18  36  60  81 105 148 193 225 268 335
#     4  11  19  36  64  82 102 148 191 231 284 333
#     4  11  23  35  54  83 122 148 179 236 289 333
#     4   9  18  36  61  83 108 149 195 232 268 331
#     4   9  18  36  57  83 108 138 188 238 274 335
#
# _framework density 19.087015000000001
#
# number of rings (size 3 to 8) (size 9 to 14) (size 15 to 20)
#    0.000    2.250    3.750    2.250    0.000    4.500 
#    0.000    3.750    0.000    0.000    0.000    0.000 
#    0.000    0.000    0.000    0.000    0.000    0.000 
#
# Total GULP energy -89155.499693 kJ/mol
# GULP energy per Si atom -5572.218731 kJ/mol
# Density = 1.904357 g / cm^3
# Si number density = 19.087015 Si / 1000 Ang^3
#
#
#
# Elastic Constant Matrix: (Units=GPa)
#
#
# Indices 1 2 3 4 5 6 
#
# 1 114.2191 49.1076 18.2414 -3.5405 -4.7803 12.4366
# 2 49.1076 76.4436 24.6596 -0.5825 6.5498 -2.2030
# 3 18.2414 24.6596 69.2240 -8.6155 7.8283 2.8086
# 4 -3.5405 -0.5825 -8.6155 40.9207 -5.7965 5.5589
# 5 -4.7803 6.5498 7.8283 -5.7965 20.2584 -1.8561
# 6 12.4366 -2.2030 2.8086 5.5589 -1.8561 27.0769
#
#
#
# Elastic Compliance Matrix: (Units=1/GPa)
#
#
# Indices 1 2 3 4 5 6 
#
# 1 0.014209 -0.009790 -0.000355 0.002992 0.006830 -0.007432
# 2 -0.009790 0.021847 -0.005058 -0.003662 -0.007824 0.007014
# 3 -0.000355 -0.005058 0.017388 0.003335 -0.004492 -0.003045
# 4 0.002992 -0.003662 0.003335 0.027417 0.007794 -0.007113
# 5 0.006830 -0.007824 -0.004492 0.007794 0.057380 -0.000975
# 6 -0.007432 0.007014 -0.003045 -0.007113 -0.000975 0.042625
#
#
# Mechanical properties :
#
#
# Convention : Reuss Voigt Hill
#
# Bulk Modulus (GPa) = 43.40857 49.32264 46.36561
# Shear Modulus (GPa) = 22.83608 28.84306 25.83957
#
# Velocity S-wave (km/s) = 3.46268 3.89155 3.68336
# Velocity P-wave (km/s) = 6.22726 6.78891 6.51414
#
# Compressibility (1/GPa) = 0.02303692
#
# Stress axis : x y z
#
# Youngs Moduli (GPa) = 70.37946 45.77326 57.51065
#
# Poissons Ratio (x) = 0.44811 0.02043
# Poissons Ratio (y) = 0.68899 0.29091
# Poissons Ratio (z) = 0.02500 0.23154
#
# Static dielectric constant tensor:
#      x y z
#    x 1.642580 -0.032810 0.019340 
#    y -0.032810 1.703570 0.014840 
#    z 0.019340 0.014840 1.720470 
# 
# From -- ./inp_files/599497.got.cif
#   From: 2010.05.17/outbox.cif.g08.bks.cpg/sg2_300_cif.got.tgz:599497.got - 2010.06.03 11:33:40.
