data_PCOD9053457
_publ_section_title
;
Structure prediction by ZEFSAII (Michael W. Deem and Ramdas Pophale) SiO2 
 PCOD9053457
Probable space group: P -1
;
_chemical_formula_sum "Si O2"
_cell_formula_units_Z 16
_cell_length_a 20.448075
_cell_length_b 8.028228
_cell_length_c 7.520308
_cell_angle_alpha 117.928467
_cell_angle_beta 42.646315
_cell_angle_gamma 136.303616
_cell_volume 572.462042
_symmetry_space_group_name_H-M "P -1"
_symmetry_group_IT_number 2
_symmetry_cell_setting 'triclinic'
loop_
_space_group_symop_operation_xyz
x,y,z
-x,-y,-z
loop_
_atom_site_type_symbol
_atom_site_label
_atom_site_fract_x
_atom_site_fract_y
_atom_site_fract_z
Si Si1 0.866743 0.910458 0.030552
Si Si2 0.884756 0.584154 0.329671
Si Si3 0.520179 0.304833 0.317292
Si Si4 0.979821 0.695168 0.593177
Si Si5 0.615242 0.415846 0.784544
Si Si6 0.743746 0.088333 0.492124
Si Si7 0.633257 0.089543 0.087067
Si Si8 0.243746 0.088333 0.121224
O O1 0.001287 0.179061 0.880289
O O2 0.790206 0.858813 0.973483
O O3 0.785103 0.922180 0.342028
O O4 0.897849 0.728494 0.899387
O O5 0.749999 0.500000 0.512004
O O6 0.854258 0.324064 0.276855
O O7 0.918503 0.657408 0.505828
O O8 0.500000 0.500000 0.500000
O O9 0.382050 0.055905 0.440393
O O10 0.581495 0.342590 0.022432
O O11 0.602153 0.271510 0.262284
O O12 0.000000 0.500000 0.500000
O O13 0.117950 0.944096 0.412687
O O14 0.645742 0.675936 0.869823
O O15 0.501287 0.179059 0.793620
O O16 0.709793 0.141185 0.775495
O O17 0.714898 0.077823 0.060260
#
# Coordination Sequence:
#
# PCOD9053457 Si02
#       8
#     2   2   2   2   2   2   2   2
#     4  11  23  41  67  99 127 172 216 264 325 382
#     4  11  19  40  66  93 127 170 212 263 327 381
#     4  11  23  38  66  94 127 174 217 260 317 382
#     4  11  23  38  66  94 127 174 217 260 317 382
#     4  11  19  40  66  93 127 170 212 263 327 381
#     4  11  22  40  67  96 129 169 216 267 320 380
#     4  11  23  41  67  99 127 172 216 264 325 382
#     4  11  22  40  67  96 129 169 216 267 320 380
#
# _framework density 27.949449999999999
#
# number of rings (size 3 to 8) (size 9 to 14) (size 15 to 20)
#    0.000    1.000    5.000    3.750    0.000    0.000 
#    0.000    5.000    5.500    0.000    0.000    0.000 
#    0.000    0.000    0.000    0.000    0.000    0.000 
#
# Total GULP energy -89547.480415 kJ/mol
# GULP energy per Si atom -5596.717526 kJ/mol
# Density = 2.788584 g / cm^3
# Si number density = 27.949450 Si / 1000 Ang^3
#
#
#
# Elastic Constant Matrix: (Units=GPa)
#
#
# Indices 1 2 3 4 5 6 
#
# 1 98.8183 9.0433 50.4335 25.0852 -17.2929 -13.0918
# 2 9.0433 101.2507 36.4845 5.0728 -22.2383 -4.9639
# 3 50.4335 36.4845 160.0720 31.5892 -35.1172 -17.1455
# 4 25.0852 5.0728 31.5892 67.9540 -7.1931 -26.2378
# 5 -17.2929 -22.2383 -35.1172 -7.1931 48.7311 5.0203
# 6 -13.0918 -4.9639 -17.1455 -26.2378 5.0203 33.9808
#
#
#
# Elastic Compliance Matrix: (Units=1/GPa)
#
#
# Indices 1 2 3 4 5 6 
#
# 1 0.012831 0.000612 -0.003068 -0.002718 0.002110 0.001075
# 2 0.000612 0.011415 -0.001936 0.000536 0.004034 0.000745
# 3 -0.003068 -0.001936 0.009090 -0.002194 0.004171 0.000812
# 4 -0.002718 0.000536 -0.002194 0.022611 -0.000556 0.015466
# 5 0.002110 0.004034 0.004171 -0.000556 0.026114 -0.000781
# 6 0.001075 0.000745 0.000812 0.015466 -0.000781 0.042418
#
#
# Mechanical properties :
#
#
# Convention : Reuss Voigt Hill
#
# Bulk Modulus (GPa) = 40.72955 61.34038 51.03497
# Shear Modulus (GPa) = 35.34907 47.74516 41.54711
#
# Velocity S-wave (km/s) = 3.56019 4.13760 3.85971
# Velocity P-wave (km/s) = 5.61286 6.69484 6.17758
#
# Compressibility (1/GPa) = 0.02455220
#
# Stress axis : x y z
#
# Youngs Moduli (GPa) = 77.93785 87.60470 110.01349
#
# Poissons Ratio (x) = -0.05358 0.33748
# Poissons Ratio (y) = -0.04767 0.21294
# Poissons Ratio (z) = 0.23909 0.16957
#
# Static dielectric constant tensor:
#      x y z
#    x 2.177450 -0.043720 0.026630 
#    y -0.043720 2.338130 0.070220 
#    z 0.026630 0.070220 2.138460 
# 
# From -- ./inp_files/476273.got.cif
#   From: 2010.05.17/outbox.cif.g08.bks.cpg/sg2_239_cif.got.tgz:476273.got - 2010.06.03 11:33:40.
