data_PCOD9053443
_publ_section_title
;
Structure prediction by ZEFSAII (Michael W. Deem and Ramdas Pophale) SiO2 
 PCOD9053443
Probable space group: P -1
;
_chemical_formula_sum "Si O2"
_cell_formula_units_Z 16
_cell_length_a 16.370247
_cell_length_b 11.370622
_cell_length_c 11.842655
_cell_angle_alpha 47.843715
_cell_angle_beta 25.311502
_cell_angle_gamma 45.172215
_cell_volume 664.242708
_symmetry_space_group_name_H-M "P -1"
_symmetry_group_IT_number 2
_symmetry_cell_setting 'triclinic'
loop_
_space_group_symop_operation_xyz
x,y,z
-x,-y,-z
loop_
_atom_site_type_symbol
_atom_site_label
_atom_site_fract_x
_atom_site_fract_y
_atom_site_fract_z
Si Si1 0.555831 0.688548 0.505827
Si Si2 0.958883 0.689983 0.721698
Si Si3 0.004581 0.103281 0.661067
Si Si4 0.979409 0.748231 0.910690
Si Si5 0.704009 0.630750 0.591465
Si Si6 0.297859 0.522449 0.831698
Si Si7 0.792760 0.969060 0.321156
Si Si8 0.793538 0.450482 0.804268
O O1 0.780497 0.695311 0.207372
O O2 0.549595 0.642381 0.675300
O O3 0.392883 0.868449 0.576325
O O4 0.508245 0.562409 0.555707
O O5 0.939730 0.845671 0.564384
O O6 0.747549 0.650744 0.022384
O O7 0.109942 0.527722 0.577605
O O8 0.046038 0.705074 0.726046
O O9 0.847048 0.266367 0.804825
O O10 0.185782 0.058456 0.553232
O O11 0.924895 0.946140 0.861165
O O12 0.143827 0.657628 0.856646
O O13 0.760554 0.802594 0.416226
O O14 0.242012 0.551182 0.017222
O O15 0.354120 0.413891 0.181985
O O16 0.000000 0.000000 0.000000
O O17 0.000000 0.500000 0.500000
#
# Coordination Sequence:
#
# PCOD9053443 Si02
#       8
#     2   2   2   2   2   2   2   2
#     4  12  26  41  68 109 136 180 233 277 348 412
#     4  11  23  47  72  98 139 186 230 283 338 403
#     4  11  22  41  73 101 136 184 224 280 355 397
#     4  12  26  46  70 100 141 185 235 276 334 416
#     4  11  22  41  65 104 136 172 229 279 345 406
#     4  12  23  44  70  99 137 181 224 287 342 393
#     4  12  22  40  70 101 141 177 223 287 348 413
#     4  11  19  39  72  98 135 174 223 283 347 411
#
# _framework density 24.087579999999999
#
# number of rings (size 3 to 8) (size 9 to 14) (size 15 to 20)
#    0.000    0.500    6.250    3.375    0.000    2.000 
#    0.000    4.375    0.000    0.000    0.000    0.000 
#    0.000    0.000    0.000    0.000    0.000    0.000 
#
# Total GULP energy -89555.878698 kJ/mol
# GULP energy per Si atom -5597.242419 kJ/mol
# Density = 2.403276 g / cm^3
# Si number density = 24.087580 Si / 1000 Ang^3
#
#
#
# Elastic Constant Matrix: (Units=GPa)
#
#
# Indices 1 2 3 4 5 6 
#
# 1 219.0977 38.8393 38.9477 -23.1388 11.9422 -13.8388
# 2 38.8393 89.3045 11.6549 -24.0739 -1.9825 -1.9318
# 3 38.9477 11.6549 79.4063 -19.6214 0.8255 -17.2351
# 4 -23.1388 -24.0739 -19.6214 39.0661 -1.0907 -2.0547
# 5 11.9422 -1.9825 0.8255 -1.0907 49.9679 -10.5165
# 6 -13.8388 -1.9318 -17.2351 -2.0547 -10.5165 53.7690
#
#
#
# Elastic Compliance Matrix: (Units=1/GPa)
#
#
# Indices 1 2 3 4 5 6 
#
# 1 0.005461 -0.001836 -0.002022 0.001079 -0.001217 0.000494
# 2 -0.001836 0.014130 0.001056 0.008238 0.001363 0.000955
# 3 -0.002022 0.001056 0.016607 0.008125 0.001577 0.005459
# 4 0.001079 0.008238 0.008125 0.035700 0.001742 0.004883
# 5 -0.001217 0.001363 0.001577 0.001742 0.021312 0.004476
# 6 0.000494 0.000955 0.005459 0.004883 0.004476 0.021572
#
#
# Mechanical properties :
#
#
# Convention : Reuss Voigt Hill
#
# Bulk Modulus (GPa) = 32.68907 62.96580 47.82743
# Shear Modulus (GPa) = 38.28948 48.45172 43.37060
#
# Velocity S-wave (km/s) = 3.99130 4.48982 4.24788
# Velocity P-wave (km/s) = 5.90263 7.28526 6.63009
#
# Compressibility (1/GPa) = 0.03059127
#
# Stress axis : x y z
#
# Youngs Moduli (GPa) = 183.12600 70.77003 60.21692
#
# Poissons Ratio (x) = 0.12996 0.12177
# Poissons Ratio (y) = 0.33630 -0.06356
# Poissons Ratio (z) = 0.37033 -0.07470
#
# Static dielectric constant tensor:
#      x y z
#    x 1.985830 0.010640 0.029320 
#    y 0.010640 1.907990 0.013690 
#    z 0.029320 0.013690 2.122600 
# 
# From -- ./inp_files/463547.got.cif
#   From: 2010.05.17/outbox.cif.g08.bks.cpg/sg2_232_cif.got.tgz:463547.got - 2010.06.03 11:33:40.
