data_PCOD9053345
_publ_section_title
;
Structure prediction by ZEFSAII (Michael W. Deem and Ramdas Pophale) SiO2 
 PCOD9053345
Probable space group: P -1
;
_chemical_formula_sum "Si O2"
_cell_formula_units_Z 16
_cell_length_a 11.312958
_cell_length_b 13.726855
_cell_length_c 13.431687
_cell_angle_alpha 31.469984
_cell_angle_beta 38.182337
_cell_angle_gamma 43.412507
_cell_volume 662.916535
_symmetry_space_group_name_H-M "P -1"
_symmetry_group_IT_number 2
_symmetry_cell_setting 'triclinic'
loop_
_space_group_symop_operation_xyz
x,y,z
-x,-y,-z
loop_
_atom_site_type_symbol
_atom_site_label
_atom_site_fract_x
_atom_site_fract_y
_atom_site_fract_z
Si Si1 0.198217 0.510410 0.415619
Si Si2 0.222690 0.205448 0.182415
Si Si3 0.194478 0.936332 0.994628
Si Si4 0.799785 0.193865 0.374731
Si Si5 0.638277 0.552224 0.275048
Si Si6 0.039448 0.597997 0.664437
Si Si7 0.017983 0.025165 0.722570
Si Si8 0.655777 0.871421 0.441898
O O1 0.247818 0.715079 0.177338
O O2 0.128864 0.504971 0.582046
O O3 0.343882 0.338658 0.416950
O O4 0.000000 0.500000 0.500000
O O5 0.010459 0.214297 0.263105
O O6 0.174900 0.342753 0.192792
O O7 0.272116 0.988979 0.372424
O O8 0.368610 0.267788 0.949756
O O9 0.142660 0.036636 0.046842
O O10 0.347099 0.009178 0.761486
O O11 0.000000 0.000000 0.000000
O O12 0.654560 0.380517 0.335961
O O13 0.844903 0.144453 0.273415
O O14 0.500000 0.500000 0.500000
O O15 0.840289 0.527181 0.222208
O O16 0.076727 0.815867 0.432195
O O17 0.149958 0.131691 0.615369
O O18 0.500000 0.000000 0.500000
#
# Coordination Sequence:
#
# PCOD9053345 Si02
#       8
#     2   2   2   2   2   2   2   2
#     4  11  19  37  63  84 113 155 192 243 284 336
#     4   9  19  37  58  87 106 146 194 238 280 342
#     4   9  18  35  56  82 109 148 202 231 277 351
#     4   9  18  36  59  78 113 142 190 241 279 334
#     4  11  23  37  54  86 122 147 184 238 294 351
#     4   9  18  36  61  82 108 146 203 232 274 350
#     4   9  18  36  59  84 105 148 198 235 280 348
#     4  11  23  37  54  85 123 149 190 247 291 340
#
# _framework density 24.135769
#
# number of rings (size 3 to 8) (size 9 to 14) (size 15 to 20)
#    0.000    2.250    3.750    2.250    0.000    4.000 
#    0.000    5.000    0.000    0.000    0.000    0.000 
#    0.000    0.000    0.000    0.000    0.000    0.000 
#
# Total GULP energy -89090.871468 kJ/mol
# GULP energy per Si atom -5568.179467 kJ/mol
# Density = 2.408083 g / cm^3
# Si number density = 24.135769 Si / 1000 Ang^3
#
#
#
# Elastic Constant Matrix: (Units=GPa)
#
#
# Indices 1 2 3 4 5 6 
#
# 1 63.6588 11.6651 5.8649 -5.9753 7.1580 13.1719
# 2 11.6651 159.7603 67.4422 6.3613 14.7315 38.0536
# 3 5.8649 67.4422 153.3629 8.6563 41.9873 2.2601
# 4 -5.9753 6.3613 8.6563 33.5625 9.9808 5.1762
# 5 7.1580 14.7315 41.9873 9.9808 28.9066 13.0312
# 6 13.1719 38.0536 2.2601 5.1762 13.0312 27.0822
#
#
#
# Elastic Compliance Matrix: (Units=1/GPa)
#
#
# Indices 1 2 3 4 5 6 
#
# 1 0.018861 0.003705 -0.003766 0.004795 0.005120 -0.017444
# 2 0.003705 0.024668 -0.022370 -0.003091 0.045207 -0.055758
# 3 -0.003766 -0.022370 0.033060 0.004938 -0.064768 0.060726
# 4 0.004795 -0.003091 0.004938 0.035524 -0.021339 0.005077
# 5 0.005120 0.045207 -0.064768 -0.021339 0.175224 -0.140841
# 6 -0.017444 -0.055758 0.060726 0.005077 -0.140841 0.185486
#
#
# Mechanical properties :
#
#
# Convention : Reuss Voigt Hill
#
# Bulk Modulus (GPa) = 31.51919 60.74739 46.13329
# Shear Modulus (GPa) = 9.46502 37.36425 23.41464
#
# Velocity S-wave (km/s) = 1.98244 3.93884 3.11806
# Velocity P-wave (km/s) = 4.28107 6.77566 5.66733
#
# Compressibility (1/GPa) = 0.03172670
#
# Stress axis : x y z
#
# Youngs Moduli (GPa) = 53.02034 40.53853 30.24773
#
# Poissons Ratio (x) = -0.15018 0.11390
# Poissons Ratio (y) = -0.19641 0.67664
# Poissons Ratio (z) = 0.19965 0.90685
#
# Static dielectric constant tensor:
#      x y z
#    x 2.054300 -0.069160 -0.046580 
#    y -0.069160 2.062900 0.041410 
#    z -0.046580 0.041410 2.008660 
# 
# From -- ./inp_files/534071.got.cif
#   From: 2010.05.17/outbox.cif.g08.bks.cpg/sg2_268_cif.got.tgz:534071.got - 2010.06.03 11:33:40.
