data_PCOD9053019
_publ_section_title
;
Structure prediction by ZEFSAII (Michael W. Deem and Ramdas Pophale) SiO2 
 PCOD9053019
Probable space group: P -1
;
_chemical_formula_sum "Si O2"
_cell_formula_units_Z 14
_cell_length_a 25.333823
_cell_length_b 15.335239
_cell_length_c 13.645349
_cell_angle_alpha 18.884363
_cell_angle_beta 152.396715
_cell_angle_gamma 153.187381
_cell_volume 741.658866
_symmetry_space_group_name_H-M "P -1"
_symmetry_group_IT_number 2
_symmetry_cell_setting 'triclinic'
loop_
_space_group_symop_operation_xyz
x,y,z
-x,-y,-z
loop_
_atom_site_type_symbol
_atom_site_label
_atom_site_fract_x
_atom_site_fract_y
_atom_site_fract_z
Si Si1 0.215819 0.324369 0.300388
Si Si2 0.496658 0.202895 0.065039
Si Si3 0.178832 0.582097 0.299585
Si Si4 0.571797 0.292189 0.871303
Si Si5 0.254237 0.791677 0.005655
Si Si6 0.539284 0.361591 0.304891
Si Si7 0.963352 0.045239 0.278612
O O1 0.285937 0.525827 0.112895
O O2 0.076880 0.253201 0.181094
O O3 0.226220 0.009718 0.653308
O O4 0.288543 0.543022 0.274753
O O5 0.528963 0.981892 0.425252
O O6 0.562404 0.250334 0.017441
O O7 0.491733 0.477169 0.823743
O O8 0.360077 0.010802 0.011192
O O9 0.316163 0.582974 0.528516
O O10 0.087389 0.273302 0.510960
O O11 0.154035 0.630268 0.092501
O O12 0.146036 0.832220 0.031311
O O13 0.500000 0.500000 0.500000
O O14 0.500000 0.000000 0.000000
O O15 0.500000 0.500000 0.000000
O O16 0.000000 0.000000 0.500000
#
# Coordination Sequence:
#
# PCOD9053019 Si02
#       7
#     2   2   2   2   2   2   2
#     4  12  21  31  48  77 115 153 191 208 254 335
#     4  11  21  36  58  81 115 148 184 237 293 328
#     4  11  21  35  53  78 111 149 185 229 288 327
#     4  12  22  35  53  81 116 159 191 220 271 343
#     4  11  18  31  50  75 110 151 182 214 259 332
#     4  11  24  41  62  85 107 141 198 253 294 333
#     4  12  21  32  51  79 116 157 186 217 270 343
#
# _framework density 18.876604
#
# number of rings (size 3 to 8) (size 9 to 14) (size 15 to 20)
#    0.000    0.571    5.714    6.000    0.000    0.000 
#    0.000    0.000    0.000    0.000    0.000    6.000 
#    0.000    0.000    0.000    0.000    0.000    0.000 
#
# Total GULP energy -77952.162599 kJ/mol
# GULP energy per Si atom -5568.011614 kJ/mol
# Density = 1.883364 g / cm^3
# Si number density = 18.876604 Si / 1000 Ang^3
#
#
#
# Elastic Constant Matrix: (Units=GPa)
#
#
# Indices 1 2 3 4 5 6 
#
# 1 94.0470 29.6473 42.5282 -3.8487 -6.4853 24.0739
# 2 29.6473 42.0498 24.5738 -17.7221 0.1783 18.2861
# 3 42.5282 24.5738 106.9679 -10.5467 8.3776 8.6521
# 4 -3.8487 -17.7221 -10.5467 28.8874 -3.1078 -2.3547
# 5 -6.4853 0.1783 8.3776 -3.1078 30.1556 -12.5600
# 6 24.0739 18.2861 8.6521 -2.3547 -12.5600 29.2216
#
#
#
# Elastic Compliance Matrix: (Units=1/GPa)
#
#
# Indices 1 2 3 4 5 6 
#
# 1 0.017250 -0.008121 -0.005007 -0.004944 0.001569 -0.007370
# 2 -0.008121 0.057045 -0.003755 0.028948 -0.010602 -0.030119
# 3 -0.005007 -0.003755 0.012539 0.001283 -0.003913 0.001184
# 4 -0.004944 0.028948 0.001283 0.051243 -0.000726 -0.010604
# 5 0.001569 -0.010602 -0.003913 -0.000726 0.045381 0.025947
# 6 -0.007370 -0.030119 0.001184 -0.010604 0.025947 0.069088
#
#
# Mechanical properties :
#
#
# Convention : Reuss Voigt Hill
#
# Bulk Modulus (GPa) = 18.84418 48.50701 33.67560
# Shear Modulus (GPa) = 16.44730 27.40728 21.92729
#
# Velocity S-wave (km/s) = 2.95499 3.81454 3.41194
# Velocity P-wave (km/s) = 4.65265 6.71964 5.77931
#
# Compressibility (1/GPa) = 0.05306679
#
# Stress axis : x y z
#
# Youngs Moduli (GPa) = 57.97222 17.53009 79.75097
#
# Poissons Ratio (x) = 0.14237 0.39928
# Poissons Ratio (y) = 0.47081 0.29950
# Poissons Ratio (z) = 0.29024 0.06583
#
# Static dielectric constant tensor:
#      x y z
#    x 1.750120 0.046890 0.004590 
#    y 0.046890 1.715730 -0.010770 
#    z 0.004590 -0.010770 1.722260 
# 
# From -- ./inp_files/455341.got.cif
#   From: 2010.05.17/outbox.cif.g08.bks.cpg/sg2_228_cif.got.tgz:455341.got - 2010.06.03 11:33:40.
