data_PCOD9053191
_publ_section_title
;
Structure prediction by ZEFSAII (Michael W. Deem and Ramdas Pophale) SiO2 
 PCOD9053191
Probable space group: P -1
;
_chemical_formula_sum "Si O2"
_cell_formula_units_Z 16
_cell_length_a 11.863248
_cell_length_b 21.678759
_cell_length_c 11.881625
_cell_angle_alpha 137.729420
_cell_angle_beta 32.211765
_cell_angle_gamma 149.768600
_cell_volume 819.659562
_symmetry_space_group_name_H-M "P -1"
_symmetry_group_IT_number 2
_symmetry_cell_setting 'triclinic'
loop_
_space_group_symop_operation_xyz
x,y,z
-x,-y,-z
loop_
_atom_site_type_symbol
_atom_site_label
_atom_site_fract_x
_atom_site_fract_y
_atom_site_fract_z
Si Si1 0.439049 0.092340 0.195870
Si Si2 0.864768 0.354441 0.102796
Si Si3 0.870422 0.974689 0.396514
Si Si4 0.527527 0.617473 0.642669
Si Si5 0.509764 0.986049 0.339830
Si Si6 0.887758 0.275711 0.729882
Si Si7 0.672466 0.377783 0.937824
Si Si8 0.106932 0.115403 0.979655
O O1 0.724322 0.232690 0.127635
O O2 0.301079 0.082197 0.417987
O O3 0.200701 0.058329 0.262182
O O4 0.500000 0.000000 0.000000
O O5 0.629372 0.365912 0.294751
O O6 0.148868 0.487253 0.084260
O O7 0.921923 0.326085 0.893392
O O8 0.725163 0.023604 0.537480
O O9 0.830414 0.899440 0.219644
O O10 0.500000 0.500000 0.500000
O O11 0.863827 0.724643 0.502071
O O12 0.400995 0.611518 0.859695
O O13 0.418162 0.857534 0.208609
O O14 0.500000 0.000000 0.500000
O O15 0.827662 0.097531 0.186201
O O16 0.890565 0.356796 0.744614
O O17 0.381841 0.252313 0.967796
O O18 0.000000 0.000000 0.000000
#
# Coordination Sequence:
#
# PCOD9053191 Si02
#       8
#     2   2   2   2   2   2   2   2
#     4  11  25  46  70  93 127 171 225 278 308 379
#     4  11  22  37  59  89 123 167 214 264 319 373
#     4  11  24  44  65  98 126 169 223 267 325 382
#     4  11  19  34  56  91 130 165 202 259 327 392
#     4  12  22  37  64  96 131 171 207 264 330 385
#     4  11  19  33  55  86 128 163 204 257 320 380
#     4  11  22  36  53  91 132 164 206 257 317 394
#     4  12  23  39  61  94 136 171 207 262 327 396
#
# _framework density 19.520299000000001
#
# number of rings (size 3 to 8) (size 9 to 14) (size 15 to 20)
#    0.000    0.750    5.000    4.500    1.750    1.000 
#    0.000    0.625    0.000    3.000    0.000    0.000 
#    0.000    0.000    0.000    0.000    0.000    0.000 
#
# Total GULP energy -89102.322470 kJ/mol
# GULP energy per Si atom -5568.895154 kJ/mol
# Density = 1.947587 g / cm^3
# Si number density = 19.520299 Si / 1000 Ang^3
#
#
#
# Elastic Constant Matrix: (Units=GPa)
#
#
# Indices 1 2 3 4 5 6 
#
# 1 58.0590 53.1059 14.1359 3.1516 -2.2347 3.1315
# 2 53.1059 160.4601 39.0816 -13.0755 -1.1339 19.8993
# 3 14.1359 39.0816 76.5382 -8.7332 -7.0473 -3.0261
# 4 3.1516 -13.0755 -8.7332 26.8901 6.4338 -2.6801
# 5 -2.2347 -1.1339 -7.0473 6.4338 41.9922 1.6540
# 6 3.1315 19.8993 -3.0261 -2.6801 1.6540 19.6098
#
#
#
# Elastic Compliance Matrix: (Units=1/GPa)
#
#
# Indices 1 2 3 4 5 6 
#
# 1 0.026703 -0.009941 -0.000413 -0.008170 0.002159 0.004461
# 2 -0.009941 0.012344 -0.004449 0.004947 -0.001273 -0.010842
# 3 -0.000413 -0.004449 0.016266 0.003486 0.001761 0.007418
# 4 -0.008170 0.004947 0.003486 0.043576 -0.006524 0.003329
# 5 0.002159 -0.001273 0.001761 -0.006524 0.025261 -0.001803
# 6 0.004461 -0.010842 0.007418 0.003329 -0.001803 0.063036
#
#
# Mechanical properties :
#
#
# Convention : Reuss Voigt Hill
#
# Bulk Modulus (GPa) = 38.89663 56.41155 47.65409
# Shear Modulus (GPa) = 22.18660 30.28070 26.23365
#
# Velocity S-wave (km/s) = 3.37499 3.94285 3.66992
# Velocity P-wave (km/s) = 5.92933 7.04910 6.51332
#
# Compressibility (1/GPa) = 0.02570917
#
# Stress axis : x y z
#
# Youngs Moduli (GPa) = 37.44888 81.00927 61.47636
#
# Poissons Ratio (x) = 0.80529 0.02538
# Poissons Ratio (y) = 0.37227 0.27349
# Poissons Ratio (z) = 0.01546 0.36038
#
# Static dielectric constant tensor:
#      x y z
#    x 1.719190 -0.015860 -0.040170 
#    y -0.015860 1.794060 -0.020010 
#    z -0.040170 -0.020010 1.618180 
# 
# From -- ./inp_files/438666.got.cif
#   From: 2010.05.17/outbox.cif.g08.bks.cpg/sg2_220_cif.got.tgz:438666.got - 2010.06.03 11:33:40.
