data_PCOD9053382
_publ_section_title
;
Structure prediction by ZEFSAII (Michael W. Deem and Ramdas Pophale) SiO2 
 PCOD9053382
Probable space group: P -1
;
_chemical_formula_sum "Si O2"
_cell_formula_units_Z 12
_cell_length_a 8.233149
_cell_length_b 10.458408
_cell_length_c 9.258530
_cell_angle_alpha 103.800842
_cell_angle_beta 76.968305
_cell_angle_gamma 44.075095
_cell_volume 435.791637
_symmetry_space_group_name_H-M "P -1"
_symmetry_group_IT_number 2
_symmetry_cell_setting 'triclinic'
loop_
_space_group_symop_operation_xyz
x,y,z
-x,-y,-z
loop_
_atom_site_type_symbol
_atom_site_label
_atom_site_fract_x
_atom_site_fract_y
_atom_site_fract_z
Si Si1 0.330649 0.244283 0.321358
Si Si2 0.917279 0.252488 0.139454
Si Si3 0.553517 0.750537 0.400475
Si Si4 0.372772 0.459205 0.200977
Si Si5 0.905983 0.883065 0.626203
Si Si6 0.073263 0.308342 0.871964
O O1 0.520169 0.174951 0.399097
O O2 0.382249 0.296962 0.184809
O O3 0.297026 0.110172 0.288272
O O4 0.000000 0.500000 0.500000
O O5 0.746539 0.495671 0.287593
O O6 0.689784 0.309376 0.117336
O O7 0.004884 0.124700 0.236184
O O8 0.143056 0.169225 0.956946
O O9 0.723303 0.773247 0.321378
O O10 0.288928 0.904764 0.384596
O O11 0.176260 0.656067 0.417427
O O12 0.796801 0.420030 0.881631
O O13 0.000000 0.500000 0.000000
#
# Coordination Sequence:
#
# PCOD9053382 Si02
#       6
#     2   2   2   2   2   2
#     4  10  17  35  60  87 114 150 197 242 282 337
#     4  11  23  40  58  87 127 156 188 238 298 358
#     4  11  21  38  62  91 115 154 201 241 291 340
#     4  11  21  39  63  88 119 157 191 242 302 343
#     4  11  22  37  64  90 117 152 199 247 288 342
#     4  10  21  39  63  84 116 159 200 237 287 352
#
# _framework density 27.536095
#
# number of rings (size 3 to 8) (size 9 to 14) (size 15 to 20)
#    0.000    1.333    6.667    2.500    0.000    1.333 
#    0.000    0.000    0.000    6.000    0.000    0.000 
#    0.000    0.000    0.000    0.000    0.000    0.000 
#
# Total GULP energy -67215.068666 kJ/mol
# GULP energy per Si atom -5601.255722 kJ/mol
# Density = 2.747342 g / cm^3
# Si number density = 27.536095 Si / 1000 Ang^3
#
#
#
# Elastic Constant Matrix: (Units=GPa)
#
#
# Indices 1 2 3 4 5 6 
#
# 1 97.2677 7.3980 27.2251 -1.8865 -4.0693 -27.1147
# 2 7.3980 137.5885 15.4351 -28.5285 18.5880 -30.0952
# 3 27.2251 15.4351 90.7260 -6.1886 21.0741 -5.4529
# 4 -1.8865 -28.5285 -6.1886 35.6583 -2.7975 13.2142
# 5 -4.0693 18.5880 21.0741 -2.7975 43.9881 2.2180
# 6 -27.1147 -30.0952 -5.4529 13.2142 2.2180 44.7721
#
#
#
# Elastic Compliance Matrix: (Units=1/GPa)
#
#
# Indices 1 2 3 4 5 6 
#
# 1 0.014127 0.000911 -0.004592 -0.002548 0.002494 0.009237
# 2 0.000911 0.010283 -0.000340 0.005698 -0.004036 0.005941
# 3 -0.004592 -0.000340 0.014085 0.001963 -0.006827 -0.001535
# 4 -0.002548 0.005698 0.001963 0.035688 -0.000913 -0.007961
# 5 0.002494 -0.004036 -0.006827 -0.000913 0.028041 -0.003153
# 6 0.009237 0.005941 -0.001535 -0.007961 -0.003153 0.034241
#
#
# Mechanical properties :
#
#
# Convention : Reuss Voigt Hill
#
# Bulk Modulus (GPa) = 32.83714 47.29985 40.06850
# Shear Modulus (GPa) = 32.32914 43.25198 37.79056
#
# Velocity S-wave (km/s) = 3.43018 3.96755 3.70861
# Velocity P-wave (km/s) = 5.25730 6.18088 5.73770
#
# Compressibility (1/GPa) = 0.03045332
#
# Stress axis : x y z
#
# Youngs Moduli (GPa) = 70.78752 97.24483 70.99507
#
# Poissons Ratio (x) = -0.08855 0.32602
# Poissons Ratio (y) = -0.06446 0.02411
# Poissons Ratio (z) = 0.32507 0.03303
#
# Static dielectric constant tensor:
#      x y z
#    x 2.094830 -0.052910 0.007920 
#    y -0.052910 2.335270 0.099820 
#    z 0.007920 0.099820 2.281990 
# 
# From -- ./inp_files/387241.got.cif
#   From: 2010.05.17/outbox.cif.g08.bks.cpg/sg2_194_cif.got.tgz:387241.got - 2010.06.03 11:33:40.
