data_PCOD9053717
_publ_section_title
;
Structure prediction by ZEFSAII (Michael W. Deem and Ramdas Pophale) SiO2 
 PCOD9053717
Probable space group: P -1
;
_chemical_formula_sum "Si O2"
_cell_formula_units_Z 12
_cell_length_a 9.805446
_cell_length_b 10.225450
_cell_length_c 10.508921
_cell_angle_alpha 140.925810
_cell_angle_beta 92.634049
_cell_angle_gamma 66.005227
_cell_volume 536.081832
_symmetry_space_group_name_H-M "P -1"
_symmetry_group_IT_number 2
_symmetry_cell_setting 'triclinic'
loop_
_space_group_symop_operation_xyz
x,y,z
-x,-y,-z
loop_
_atom_site_type_symbol
_atom_site_label
_atom_site_fract_x
_atom_site_fract_y
_atom_site_fract_z
Si Si1 0.091400 0.056784 0.889589
Si Si2 0.251130 0.321089 0.185080
Si Si3 0.648834 0.511066 0.455738
Si Si4 0.155329 0.827592 0.466751
Si Si5 0.562974 0.659426 0.015723
Si Si6 0.691218 0.439227 0.118528
O O1 0.176666 0.779305 0.748021
O O2 0.171438 0.980869 0.693462
O O3 0.154852 0.193970 0.076686
O O4 0.893155 0.246627 0.995575
O O5 0.382366 0.221917 0.997279
O O6 0.667840 0.687690 0.684479
O O7 0.129625 0.625833 0.379860
O O8 0.500000 0.500000 0.500000
O O9 0.622846 0.576828 0.356164
O O10 0.323055 0.640950 0.252532
O O11 0.000000 0.000000 0.500000
O O12 0.625653 0.634506 0.143493
O O13 0.378026 0.731988 0.042496
#
# Coordination Sequence:
#
# PCOD9053717 Si02
#       6
#     2   2   2   2   2   2
#     4  11  21  36  67  88 116 156 199 245 291 348
#     4   9  21  38  61  90 114 158 199 233 300 354
#     4  11  22  42  62  83 121 160 195 242 298 356
#     4   9  17  36  60  85 118 158 188 235 294 349
#     4   9  20  38  62  85 120 156 193 244 291 351
#     4  11  20  36  62  90 116 155 198 243 294 343
#
# _framework density 22.384644000000002
#
# number of rings (size 3 to 8) (size 9 to 14) (size 15 to 20)
#    1.000    1.000    3.333    0.500    0.000    4.000 
#    0.000    0.000   11.000    4.000    0.000    0.000 
#    0.000    0.000    0.000    0.000    0.000    0.000 
#
# Total GULP energy -66887.326358 kJ/mol
# GULP energy per Si atom -5573.943863 kJ/mol
# Density = 2.233370 g / cm^3
# Si number density = 22.384644 Si / 1000 Ang^3
#
#
#
# Elastic Constant Matrix: (Units=GPa)
#
#
# Indices 1 2 3 4 5 6 
#
# 1 107.7917 40.3040 38.4648 -4.1555 4.8464 -28.8225
# 2 40.3040 147.1122 60.3541 -36.1221 10.2333 -30.5916
# 3 38.4648 60.3541 64.7266 -19.5637 2.4092 -10.4192
# 4 -4.1555 -36.1221 -19.5637 50.2824 -5.1975 0.2860
# 5 4.8464 10.2333 2.4092 -5.1975 27.0921 -9.8219
# 6 -28.8225 -30.5916 -10.4192 0.2860 -9.8219 25.3935
#
#
#
# Elastic Compliance Matrix: (Units=1/GPa)
#
#
# Indices 1 2 3 4 5 6 
#
# 1 0.017057 0.003794 -0.010253 0.000466 0.004263 0.021368
# 2 0.003794 0.016811 -0.012387 0.007766 0.003015 0.020556
# 3 -0.010253 -0.012387 0.031656 0.002561 -0.000862 -0.013933
# 4 0.000466 0.007766 0.002561 0.027125 0.006761 0.013244
# 5 0.004263 0.003015 -0.000862 0.006761 0.045708 0.025720
# 6 0.021368 0.020556 -0.013933 0.013244 0.025720 0.092480
#
#
# Mechanical properties :
#
#
# Convention : Reuss Voigt Hill
#
# Bulk Modulus (GPa) = 35.92712 66.43068 51.17890
# Shear Modulus (GPa) = 17.99827 32.58746 25.29286
#
# Velocity S-wave (km/s) = 2.83865 3.81963 3.36508
# Velocity P-wave (km/s) = 5.17963 7.01385 6.16533
#
# Compressibility (1/GPa) = 0.02783412
#
# Stress axis : x y z
#
# Youngs Moduli (GPa) = 58.62713 59.48348 31.58997
#
# Poissons Ratio (x) = -0.22571 0.32388
# Poissons Ratio (y) = -0.22246 0.39129
# Poissons Ratio (z) = 0.60109 0.73680
#
# Static dielectric constant tensor:
#      x y z
#    x 1.844150 0.023900 -0.040500 
#    y 0.023900 1.845520 -0.027140 
#    z -0.040500 -0.027140 1.851030 
# 
# From -- ./inp_files/426918.got.cif
#   From: 2010.05.17/outbox.cif.g08.bks.cpg/sg2_214_cif.got.tgz:426918.got - 2010.06.03 11:33:40.
