data_PCOD9053830
_publ_section_title
;
Structure prediction by ZEFSAII (Michael W. Deem and Ramdas Pophale) SiO2 
 PCOD9053830
Probable space group: P -1
;
_chemical_formula_sum "Si O2"
_cell_formula_units_Z 16
_cell_length_a 9.870264
_cell_length_b 20.222913
_cell_length_c 21.395726
_cell_angle_alpha 162.723750
_cell_angle_beta 143.938610
_cell_angle_gamma 45.411139
_cell_volume 684.312001
_symmetry_space_group_name_H-M "P -1"
_symmetry_group_IT_number 2
_symmetry_cell_setting 'triclinic'
loop_
_space_group_symop_operation_xyz
x,y,z
-x,-y,-z
loop_
_atom_site_type_symbol
_atom_site_label
_atom_site_fract_x
_atom_site_fract_y
_atom_site_fract_z
Si Si1 0.349998 0.282569 0.245292
Si Si2 0.566114 0.789826 0.376602
Si Si3 0.751324 0.465631 0.242365
Si Si4 0.612783 0.717134 0.943435
Si Si5 0.002929 0.496801 0.923181
Si Si6 0.048343 0.232451 0.591565
Si Si7 0.301190 0.808868 0.804765
Si Si8 0.894520 0.268760 0.000322
O O1 0.632552 0.456404 0.483040
O O2 0.144120 0.219509 0.058345
O O3 0.500000 0.000000 0.000000
O O4 0.296764 0.053442 0.061229
O O5 0.632841 0.614345 0.290005
O O6 0.691848 0.768903 0.338712
O O7 0.269584 0.704332 0.190480
O O8 0.700777 0.053672 0.694492
O O9 0.558469 0.329262 0.101159
O O10 0.797258 0.282289 0.045812
O O11 0.013973 0.655201 0.539971
O O12 0.429776 0.687284 0.790134
O O13 0.768888 0.547605 0.855286
O O14 0.826265 0.988922 0.266458
O O15 0.018820 0.266546 0.685182
O O16 0.000000 0.500000 0.000000
O O17 0.033644 0.468547 0.766469
#
# Coordination Sequence:
#
# PCOD9053830 Si02
#       8
#     2   2   2   2   2   2   2   2
#     4  11  20  37  68  99 134 181 230 279 338 408
#     4  11  24  48  73 102 138 183 238 289 339 421
#     4  11  24  43  68 104 143 186 228 283 354 410
#     4  12  27  45  68 104 145 179 233 293 347 416
#     4  12  27  48  74 102 139 186 232 289 358 415
#     4  11  26  45  74 106 137 179 238 292 348 407
#     4  11  23  40  67 101 141 180 228 287 343 411
#     4  11  23  44  73 105 140 185 233 284 344 420
#
# _framework density 23.381148
#
# number of rings (size 3 to 8) (size 9 to 14) (size 15 to 20)
#    0.000    0.750    3.750    3.750    5.250    4.500 
#    0.000    0.625    0.000    0.000    0.000    0.000 
#    0.000    0.000    0.000    0.000    0.000    0.000 
#
# Total GULP energy -89291.028978 kJ/mol
# GULP energy per Si atom -5580.689311 kJ/mol
# Density = 2.332793 g / cm^3
# Si number density = 23.381148 Si / 1000 Ang^3
#
#
#
# Elastic Constant Matrix: (Units=GPa)
#
#
# Indices 1 2 3 4 5 6 
#
# 1 147.3092 21.6578 18.5895 -7.0355 -6.1514 -3.6669
# 2 21.6578 111.7004 -7.6603 -14.3068 1.9380 -3.7532
# 3 18.5895 -7.6603 63.9732 -15.2630 -2.6925 -5.1686
# 4 -7.0355 -14.3068 -15.2630 27.0075 2.0801 0.9221
# 5 -6.1514 1.9380 -2.6925 2.0801 29.5635 -14.2928
# 6 -3.6669 -3.7532 -5.1686 0.9221 -14.2928 24.3179
#
#
#
# Elastic Compliance Matrix: (Units=1/GPa)
#
#
# Indices 1 2 3 4 5 6 
#
# 1 0.007429 -0.001626 -0.002209 -0.000416 0.002349 0.001796
# 2 -0.001626 0.010481 0.003534 0.007104 -0.000429 0.001602
# 3 -0.002209 0.003534 0.020237 0.012291 0.003135 0.005890
# 4 -0.000416 0.007104 0.012291 0.047824 -0.002671 0.000263
# 5 0.002349 -0.000429 0.003135 -0.002671 0.049349 0.030060
# 6 0.001796 0.001602 0.005890 0.000263 0.030060 0.060550
#
#
# Mechanical properties :
#
#
# Convention : Reuss Voigt Hill
#
# Bulk Modulus (GPa) = 26.63423 43.12853 34.88138
# Shear Modulus (GPa) = 23.92506 35.53751 29.73129
#
# Velocity S-wave (km/s) = 3.20232 3.90285 3.56981
# Velocity P-wave (km/s) = 5.00891 6.22860 5.65176
#
# Compressibility (1/GPa) = 0.03754567
#
# Stress axis : x y z
#
# Youngs Moduli (GPa) = 134.60589 95.40847 49.41538
#
# Poissons Ratio (x) = 0.15510 0.10915
# Poissons Ratio (y) = 0.21882 -0.17462
# Poissons Ratio (z) = 0.29731 -0.33715
#
# Static dielectric constant tensor:
#      x y z
#    x 3.135090 -1.891430 -0.332190 
#    y -1.891430 4.851230 0.385530 
#    z -0.332190 0.385530 1.941030 
# 
# From -- ./inp_files/591564.got.cif
#   From: 2010.05.17/outbox.cif.g08.bks.cpg/sg2_296_cif.got.tgz:591564.got - 2010.06.03 11:33:40.
