data_PCOD9053727
_publ_section_title
;
Structure prediction by ZEFSAII (Michael W. Deem and Ramdas Pophale) SiO2 
 PCOD9053727
Probable space group: P -1
;
_chemical_formula_sum "Si O2"
_cell_formula_units_Z 12
_cell_length_a 11.890403
_cell_length_b 9.549033
_cell_length_c 9.751571
_cell_angle_alpha 42.152022
_cell_angle_beta 130.712190
_cell_angle_gamma 127.248591
_cell_volume 546.869286
_symmetry_space_group_name_H-M "P -1"
_symmetry_group_IT_number 2
_symmetry_cell_setting 'triclinic'
loop_
_space_group_symop_operation_xyz
x,y,z
-x,-y,-z
loop_
_atom_site_type_symbol
_atom_site_label
_atom_site_fract_x
_atom_site_fract_y
_atom_site_fract_z
Si Si1 0.703099 0.091801 0.469497
Si Si2 0.307496 0.451451 0.479614
Si Si3 0.520616 0.867377 0.247050
Si Si4 0.625499 0.513436 0.204476
Si Si5 0.150220 0.184627 0.018819
Si Si6 0.017522 0.567735 0.627822
O O1 0.672767 0.286736 0.395520
O O2 0.859998 0.205762 0.433737
O O3 0.565463 0.013773 0.310977
O O4 0.739647 0.907549 0.727471
O O5 0.370740 0.675562 0.290607
O O6 0.339066 0.251084 0.568369
O O7 0.417740 0.460582 0.693688
O O8 0.140278 0.430928 0.424342
O O9 0.500000 0.000000 0.000000
O O10 0.500000 0.500000 0.000000
O O11 0.757772 0.718527 0.114587
O O12 0.093271 0.386927 0.885368
O O13 0.000000 0.000000 0.000000
O O14 0.000000 0.500000 0.500000
#
# Coordination Sequence:
#
# PCOD9053727 Si02
#       6
#     2   2   2   2   2   2
#     4  11  23  41  64  99 127 166 219 260 321 383
#     4  11  23  44  64  91 132 169 212 266 316 381
#     4  11  27  45  63  90 133 177 218 256 314 383
#     4  11  22  37  63  95 125 160 214 269 316 371
#     4  11  20  36  64  95 129 158 200 268 324 373
#     4  11  21  42  64  98 131 159 208 270 321 379
#
# _framework density 21.943086999999998
#
# number of rings (size 3 to 8) (size 9 to 14) (size 15 to 20)
#    0.000    1.000    5.000    2.000    0.000   12.667 
#    0.000    1.667    0.000    0.000    0.000    0.000 
#    0.000    0.000    0.000    0.000    0.000    0.000 
#
# Total GULP energy -67056.199542 kJ/mol
# GULP energy per Si atom -5588.016628 kJ/mol
# Density = 2.189314 g / cm^3
# Si number density = 21.943087 Si / 1000 Ang^3
#
#
#
# Elastic Constant Matrix: (Units=GPa)
#
#
# Indices 1 2 3 4 5 6 
#
# 1 87.5093 -4.4987 9.8998 -21.6934 -9.0473 9.5578
# 2 -4.4987 55.8523 11.4292 -14.3347 -12.0524 0.7951
# 3 9.8998 11.4292 139.2175 -17.1422 -11.6641 9.9081
# 4 -21.6934 -14.3347 -17.1422 31.6891 7.0132 -1.9540
# 5 -9.0473 -12.0524 -11.6641 7.0132 29.1000 -3.9026
# 6 9.5578 0.7951 9.9081 -1.9540 -3.9026 24.9213
#
#
#
# Elastic Compliance Matrix: (Units=1/GPa)
#
#
# Indices 1 2 3 4 5 6 
#
# 1 0.015543 0.005099 0.000624 0.012187 0.003607 -0.004851
# 2 0.005099 0.023212 -0.000058 0.012119 0.008196 -0.000439
# 3 0.000624 -0.000058 0.008018 0.004120 0.002017 -0.002786
# 4 0.012187 0.012119 0.004120 0.047740 -0.001473 -0.003186
# 5 0.003607 0.008196 0.002017 -0.001473 0.040552 0.003788
# 6 -0.004851 -0.000439 -0.002786 -0.003186 0.003788 0.043452
#
#
# Mechanical properties :
#
#
# Convention : Reuss Voigt Hill
#
# Bulk Modulus (GPa) = 17.21041 35.13771 26.17406
# Shear Modulus (GPa) = 26.80188 34.85865 30.83026
#
# Velocity S-wave (km/s) = 3.49868 3.99004 3.75241
# Velocity P-wave (km/s) = 4.91745 6.10533 5.54330
#
# Compressibility (1/GPa) = 0.05810439
#
# Stress axis : x y z
#
# Youngs Moduli (GPa) = 64.33815 43.08069 124.71907
#
# Poissons Ratio (x) = -0.21969 -0.07785
# Poissons Ratio (y) = -0.32809 0.00724
# Poissons Ratio (z) = -0.04016 0.00250
#
# Static dielectric constant tensor:
#      x y z
#    x 1.857220 0.039170 0.040950 
#    y 0.039170 1.796460 0.003150 
#    z 0.040950 0.003150 1.827640 
# 
# From -- ./inp_files/60237.got.cif
#   From: 2010.05.17/outbox.cif.g08.bks.cpg/sg2_31_cif.got.tgz:60237.got - 2010.06.03 11:33:40.
