data_PCOD9053933
_publ_section_title
;
Structure prediction by ZEFSAII (Michael W. Deem and Ramdas Pophale) SiO2 
 PCOD9053933
Probable space group: P -1
;
_chemical_formula_sum "Si O2"
_cell_formula_units_Z 16
_cell_length_a 16.152409
_cell_length_b 7.749075
_cell_length_c 7.769263
_cell_angle_alpha 125.525474
_cell_angle_beta 103.142473
_cell_angle_gamma 71.998333
_cell_volume 751.255693
_symmetry_space_group_name_H-M "P -1"
_symmetry_group_IT_number 2
_symmetry_cell_setting 'triclinic'
loop_
_space_group_symop_operation_xyz
x,y,z
-x,-y,-z
loop_
_atom_site_type_symbol
_atom_site_label
_atom_site_fract_x
_atom_site_fract_y
_atom_site_fract_z
Si Si1 0.853750 0.866915 0.607360
Si Si2 0.475196 0.936730 0.138851
Si Si3 0.956833 0.217323 0.835357
Si Si4 0.628332 0.646827 0.225468
Si Si5 0.884042 0.634678 0.852649
Si Si6 0.662883 0.079572 0.685221
Si Si7 0.809510 0.562802 0.112194
Si Si8 0.505890 0.357037 0.586116
O O1 0.932560 0.985877 0.678212
O O2 0.864688 0.716835 0.697519
O O3 0.838189 0.730125 0.354478
O O4 0.765741 0.054069 0.705416
O O5 0.550716 0.730421 0.103265
O O6 0.378985 0.918934 0.142854
O O7 0.490637 0.126076 0.382254
O O8 0.500000 0.000000 0.000000
O O9 0.051944 0.226138 0.951432
O O10 0.888674 0.353039 0.020695
O O11 0.933702 0.379389 0.752701
O O12 0.717710 0.524740 0.112351
O O13 0.577665 0.535831 0.276634
O O14 0.651516 0.859378 0.451808
O O15 0.805220 0.651031 0.963203
O O16 0.599186 0.284716 0.681743
O O17 0.500000 0.500000 0.500000
#
# Coordination Sequence:
#
# PCOD9053933 Si02
#       8
#     2   2   2   2   2   2   2   2
#     4  11  20  39  63  82 119 158 185 242 297 329
#     4   9  17  30  51  73 100 142 172 216 276 324
#     4   9  21  42  55  92 120 141 203 241 274 368
#     4   8  16  34  53  69 108 144 175 225 274 328
#     4   9  21  41  58  86 123 148 189 246 289 343
#     4   8  18  34  50  76 103 139 188 215 272 347
#     4   9  20  39  57  87 116 148 198 238 281 351
#     4   9  17  35  51  73 110 139 177 227 271 331
#
# _framework density 21.297677
#
# number of rings (size 3 to 8) (size 9 to 14) (size 15 to 20)
#    0.750    2.250    0.000    1.875    1.750    1.000 
#   13.500    1.250    0.000    0.000    0.000    0.000 
#    0.000    0.000    0.000    0.000    0.000    0.000 
#
# Total GULP energy -89101.122639 kJ/mol
# GULP energy per Si atom -5568.820165 kJ/mol
# Density = 2.124920 g / cm^3
# Si number density = 21.297677 Si / 1000 Ang^3
#
#
#
# Elastic Constant Matrix: (Units=GPa)
#
#
# Indices 1 2 3 4 5 6 
#
# 1 71.7237 -2.8885 5.0711 -5.3909 -18.1582 0.9925
# 2 -2.8885 46.9735 19.1191 -14.2544 -6.8994 9.7807
# 3 5.0711 19.1191 52.5992 2.1210 -2.5130 10.6903
# 4 -5.3909 -14.2544 2.1210 42.3857 7.0738 -12.2343
# 5 -18.1582 -6.8994 -2.5130 7.0738 22.1069 5.8040
# 6 0.9925 9.7807 10.6903 -12.2343 5.8040 21.0891
#
#
#
# Elastic Compliance Matrix: (Units=1/GPa)
#
#
# Indices 1 2 3 4 5 6 
#
# 1 0.019666 0.006334 -0.001018 -0.001839 0.021301 -0.010276
# 2 0.006334 0.031937 -0.009652 0.006549 0.014726 -0.010471
# 3 -0.001018 -0.009652 0.026988 -0.011030 0.007365 -0.017582
# 4 -0.001839 0.006549 -0.011030 0.038536 -0.021141 0.030815
# 5 0.021301 0.014726 0.007365 -0.021141 0.087508 -0.047914
# 6 -0.010276 -0.010471 -0.017582 0.030815 -0.047914 0.092733
#
#
# Mechanical properties :
#
#
# Convention : Reuss Voigt Hill
#
# Bulk Modulus (GPa) = 14.30214 23.76663 19.03439
# Shear Modulus (GPa) = 15.18158 27.11599 21.14878
#
# Velocity S-wave (km/s) = 2.67278 3.57205 3.15462
# Velocity P-wave (km/s) = 4.03174 5.31001 4.71440
#
# Compressibility (1/GPa) = 0.06991958
#
# Stress axis : x y z
#
# Youngs Moduli (GPa) = 50.84886 31.31161 37.05334
#
# Poissons Ratio (x) = -0.19833 0.03772
# Poissons Ratio (y) = -0.32207 0.35763
# Poissons Ratio (z) = 0.05177 0.30221
#
# Static dielectric constant tensor:
#      x y z
#    x 1.779460 -0.001660 0.014300 
#    y -0.001660 1.738340 0.040210 
#    z 0.014300 0.040210 1.823050 
# 
# From -- ./inp_files/292773.got.cif
#   From: 2010.05.17/outbox.cif.g08.bks.cpg/sg2_147_cif.got.tgz:292773.got - 2010.06.03 11:33:40.
