data_PCOD9053338
_publ_section_title
;
Structure prediction by ZEFSAII (Michael W. Deem and Ramdas Pophale) SiO2 
 PCOD9053338
Probable space group: P -1
;
_chemical_formula_sum "Si O2"
_cell_formula_units_Z 16
_cell_length_a 12.075306
_cell_length_b 14.386387
_cell_length_c 12.233846
_cell_angle_alpha 118.863630
_cell_angle_beta 50.871030
_cell_angle_gamma 149.618041
_cell_volume 823.444115
_symmetry_space_group_name_H-M "P -1"
_symmetry_group_IT_number 2
_symmetry_cell_setting 'triclinic'
loop_
_space_group_symop_operation_xyz
x,y,z
-x,-y,-z
loop_
_atom_site_type_symbol
_atom_site_label
_atom_site_fract_x
_atom_site_fract_y
_atom_site_fract_z
Si Si1 0.246018 0.211820 0.429535
Si Si2 0.831797 0.888004 0.810501
Si Si3 0.417228 0.529854 0.432570
Si Si4 0.830238 0.709734 0.108482
Si Si5 0.769480 0.367124 0.484293
Si Si6 0.748071 0.996337 0.296077
Si Si7 0.995455 0.659153 0.803825
Si Si8 0.577194 0.701119 0.086700
O O1 0.306127 0.196635 0.266719
O O2 0.224060 0.324135 0.479781
O O3 0.445115 0.332667 0.471732
O O4 0.000000 0.000000 0.500000
O O5 0.059088 0.941019 0.703754
O O6 0.655465 0.745311 0.937692
O O7 0.956064 0.076854 0.866991
O O8 0.625475 0.593433 0.266877
O O9 0.301727 0.554142 0.448181
O O10 0.689107 0.672736 0.069522
O O11 0.954131 0.679831 0.963666
O O12 0.000000 0.500000 0.500000
O O13 0.855406 0.358839 0.316369
O O14 0.522024 0.158735 0.567771
O O15 0.863766 0.168506 0.262405
O O16 0.705711 0.882116 0.163611
O O17 0.718888 0.473330 0.821730
#
# Coordination Sequence:
#
# PCOD9053338 Si02
#       8
#     2   2   2   2   2   2   2   2
#     4  11  23  42  67  93 118 167 221 274 309 356
#     4  11  20  36  68  93 127 159 218 272 312 366
#     4  11  24  43  66  94 126 165 218 266 311 377
#     4  11  19  37  61  94 127 162 212 263 313 378
#     4  12  24  42  60  95 139 171 204 253 326 392
#     4  11  21  37  55  93 131 171 205 248 310 390
#     4  12  23  34  61  90 134 173 196 249 325 381
#     4  11  20  36  58  94 131 163 209 259 324 370
#
# _framework density 19.430582000000001
#
# number of rings (size 3 to 8) (size 9 to 14) (size 15 to 20)
#    0.000    0.750    7.500    2.250    3.500    0.000 
#    2.250    0.000    0.000    7.500    0.000    0.000 
#    0.000    0.000    0.000    0.000    0.000    0.000 
#
# Total GULP energy -89345.179126 kJ/mol
# GULP energy per Si atom -5584.073695 kJ/mol
# Density = 1.938636 g / cm^3
# Si number density = 19.430582 Si / 1000 Ang^3
#
#
#
# Elastic Constant Matrix: (Units=GPa)
#
#
# Indices 1 2 3 4 5 6 
#
# 1 46.9527 33.3234 31.6399 -1.0711 13.1466 3.5003
# 2 33.3234 111.8114 27.4427 -14.0492 5.4923 -7.7855
# 3 31.6399 27.4427 126.6876 1.0012 5.6304 13.9009
# 4 -1.0711 -14.0492 1.0012 35.0688 3.9766 5.5448
# 5 13.1466 5.4923 5.6304 3.9766 33.3598 4.7512
# 6 3.5003 -7.7855 13.9009 5.5448 4.7512 25.1029
#
#
#
# Elastic Compliance Matrix: (Units=1/GPa)
#
#
# Indices 1 2 3 4 5 6 
#
# 1 0.034611 -0.008493 -0.006110 -0.000642 -0.010866 -0.001878
# 2 -0.008493 0.012588 -0.001177 0.004024 0.000311 0.004792
# 3 -0.006110 -0.001177 0.010196 -0.000284 0.001686 -0.005415
# 4 -0.000642 0.004024 -0.000284 0.031256 -0.003409 -0.004764
# 5 -0.010866 0.000311 0.001686 -0.003409 0.035070 -0.005207
# 6 -0.001878 0.004792 -0.005415 -0.004764 -0.005207 0.046621
#
#
# Mechanical properties :
#
#
# Convention : Reuss Voigt Hill
#
# Bulk Modulus (GPa) = 38.70865 52.25151 45.48008
# Shear Modulus (GPa) = 23.75136 31.57603 27.66369
#
# Velocity S-wave (km/s) = 3.50003 4.03559 3.77731
# Velocity P-wave (km/s) = 6.02482 6.97599 6.51777
#
# Compressibility (1/GPa) = 0.02583402
#
# Stress axis : x y z
#
# Youngs Moduli (GPa) = 28.89238 79.44175 98.07844
#
# Poissons Ratio (x) = 0.67472 0.59928
# Poissons Ratio (y) = 0.24539 0.11544
# Poissons Ratio (z) = 0.17654 0.09351
#
# Static dielectric constant tensor:
#      x y z
#    x 1.662090 -0.023170 0.006390 
#    y -0.023170 1.717460 0.013460 
#    z 0.006390 0.013460 1.753960 
# 
# From -- ./inp_files/432764.got.cif
#   From: 2010.05.17/outbox.cif.g08.bks.cpg/sg2_217_cif.got.tgz:432764.got - 2010.06.03 11:33:40.
