data_PCOD9053611
_publ_section_title
;
Structure prediction by ZEFSAII (Michael W. Deem and Ramdas Pophale) SiO2 
 PCOD9053611
Probable space group: P -1
;
_chemical_formula_sum "Si O2"
_cell_formula_units_Z 12
_cell_length_a 22.488077
_cell_length_b 12.739848
_cell_length_c 6.671661
_cell_angle_alpha 134.624431
_cell_angle_beta 127.139994
_cell_angle_gamma 24.875210
_cell_volume 568.640783
_symmetry_space_group_name_H-M "P -1"
_symmetry_group_IT_number 2
_symmetry_cell_setting 'triclinic'
loop_
_space_group_symop_operation_xyz
x,y,z
-x,-y,-z
loop_
_atom_site_type_symbol
_atom_site_label
_atom_site_fract_x
_atom_site_fract_y
_atom_site_fract_z
Si Si1 0.317174 0.019276 0.761159
Si Si2 0.591649 0.958438 0.409613
Si Si3 0.142753 0.503150 0.365919
Si Si4 0.922998 0.765657 0.592023
Si Si5 0.118158 0.857351 0.894629
Si Si6 0.564665 0.671950 0.053255
O O1 0.234778 0.020945 0.500294
O O2 0.370298 0.033379 0.709471
O O3 0.201111 0.304314 0.039780
O O4 0.454521 0.754803 0.823304
O O5 0.481036 0.241486 0.691333
O O6 0.733969 0.711557 0.502018
O O7 0.535250 0.886369 0.193315
O O8 0.004923 0.673631 0.430404
O O9 0.131113 0.697988 0.554925
O O10 0.000000 0.500000 0.500000
O O11 0.924486 0.904965 0.929481
O O12 0.267084 0.629103 0.009086
O O13 0.000000 0.000000 0.000000
#
# Coordination Sequence:
#
# PCOD9053611 Si02
#       6
#     2   2   2   2   2   2
#     4  11  20  33  64  87 114 149 196 234 281 341
#     4   9  17  34  58  87 116 149 186 240 279 339
#     4   9  19  38  61  84 114 155 193 228 282 339
#     4  11  21  37  61  84 119 155 187 236 292 333
#     4   9  20  39  61  80 118 154 184 238 288 336
#     4   9  19  34  58  85 116 149 191 231 290 333
#
# _framework density 21.102952999999999
#
# number of rings (size 3 to 8) (size 9 to 14) (size 15 to 20)
#    0.000    2.333    1.667    2.000    0.000    0.667 
#    0.000    1.667   18.333    0.000    0.000    0.000 
#    0.000    0.000    0.000    0.000    0.000    0.000 
#
# Total GULP energy -66924.865352 kJ/mol
# GULP energy per Si atom -5577.072113 kJ/mol
# Density = 2.105492 g / cm^3
# Si number density = 21.102953 Si / 1000 Ang^3
#
#
#
# Elastic Constant Matrix: (Units=GPa)
#
#
# Indices 1 2 3 4 5 6 
#
# 1 79.0317 16.5084 33.3479 -0.5236 -1.5395 -2.5224
# 2 16.5084 67.2232 2.8410 1.4331 8.0551 -13.0360
# 3 33.3479 2.8410 54.3369 5.7215 8.4326 10.2549
# 4 -0.5236 1.4331 5.7215 24.2160 -4.5830 12.9995
# 5 -1.5395 8.0551 8.4326 -4.5830 35.6730 7.5671
# 6 -2.5224 -13.0360 10.2549 12.9995 7.5671 35.6015
#
#
#
# Elastic Compliance Matrix: (Units=1/GPa)
#
#
# Indices 1 2 3 4 5 6 
#
# 1 0.019316 -0.004844 -0.013029 0.004537 0.005478 0.000527
# 2 -0.004844 0.019476 0.002155 -0.009638 -0.008806 0.011559
# 3 -0.013029 0.002155 0.029010 -0.006289 -0.007750 -0.004547
# 4 0.004537 -0.009638 -0.006289 0.061631 0.017642 -0.027650
# 5 0.005478 -0.008806 -0.007750 0.017642 0.037543 -0.015026
# 6 0.000527 0.011559 -0.004547 -0.027650 -0.015026 0.046958
#
#
# Mechanical properties :
#
#
# Convention : Reuss Voigt Hill
#
# Bulk Modulus (GPa) = 27.49787 33.99848 30.74818
# Shear Modulus (GPa) = 19.41798 28.95774 24.18786
#
# Velocity S-wave (km/s) = 3.03670 3.70836 3.38921
# Velocity P-wave (km/s) = 5.03527 5.87211 5.46972
#
# Compressibility (1/GPa) = 0.03636645
#
# Stress axis : x y z
#
# Youngs Moduli (GPa) = 51.77017 51.34400 34.47060
#
# Poissons Ratio (x) = 0.24871 0.44911
# Poissons Ratio (y) = 0.25077 -0.07427
# Poissons Ratio (z) = 0.67450 -0.11062
#
# Static dielectric constant tensor:
#      x y z
#    x 1.755810 0.001600 0.040590 
#    y 0.001600 1.798990 0.041980 
#    z 0.040590 0.041980 1.781210 
# 
# From -- ./inp_files/118872.got.cif
#   From: 2010.05.17/outbox.cif.g08.bks.cpg/sg2_60_cif.got.tgz:118872.got - 2010.06.03 11:33:40.
