data_PCOD9053079
_publ_section_title
;
Structure prediction by ZEFSAII (Michael W. Deem and Ramdas Pophale) SiO2 
 PCOD9053079
Probable space group: P -1
;
_chemical_formula_sum "Si O2"
_cell_formula_units_Z 14
_cell_length_a 16.959604
_cell_length_b 12.448037
_cell_length_c 9.368812
_cell_angle_alpha 101.096714
_cell_angle_beta 76.966698
_cell_angle_gamma 32.825887
_cell_volume 721.348001
_symmetry_space_group_name_H-M "P -1"
_symmetry_group_IT_number 2
_symmetry_cell_setting 'triclinic'
loop_
_space_group_symop_operation_xyz
x,y,z
-x,-y,-z
loop_
_atom_site_type_symbol
_atom_site_label
_atom_site_fract_x
_atom_site_fract_y
_atom_site_fract_z
Si Si1 0.763568 0.325378 0.627266
Si Si2 0.648727 0.799354 0.174380
Si Si3 0.461150 0.277209 0.914013
Si Si4 0.174378 0.377538 0.648731
Si Si5 0.372740 0.716201 0.236429
Si Si6 0.793952 0.706048 0.793953
Si Si7 0.085985 0.652370 0.538846
O O1 0.651639 0.348367 0.651648
O O2 0.780412 0.402423 0.526858
O O3 0.648990 0.525900 0.858588
O O4 0.000000 0.000000 0.500000
O O5 0.692865 0.618817 0.067251
O O6 0.796827 0.659272 0.203171
O O7 0.411252 0.088747 0.411254
O O8 0.675464 0.831951 0.024599
O O9 0.526850 0.290323 0.780416
O O10 0.657703 0.962773 0.822007
O O11 0.067245 0.621070 0.692866
O O12 0.024598 0.467985 0.675472
O O13 0.500000 0.500000 0.000000
O O14 0.141414 0.033476 0.351016
O O15 0.822010 0.557515 0.657703
#
# Coordination Sequence:
#
# PCOD9053079 Si02
#       7
#     2   2   2   2   2   2   2
#     4   9  19  32  54  85 107 141 192 244 276 321
#     4  11  23  36  53  86 126 155 180 227 296 354
#     4  11  18  35  58  84 113 144 192 239 281 337
#     4  11  23  36  53  86 126 155 180 227 296 354
#     4   9  19  32  54  85 107 141 192 244 276 321
#     4  12  21  36  61  90 114 148 194 238 287 340
#     4  11  18  35  58  84 113 144 192 239 281 337
#
# _framework density 19.408107000000001
#
# number of rings (size 3 to 8) (size 9 to 14) (size 15 to 20)
#    0.000    1.429    4.286    3.000    0.000    0.000 
#    0.000    0.000    0.000    8.571    0.000    0.000 
#    0.000    0.000    0.000    0.000    0.000    0.000 
#
# Total GULP energy -77993.682951 kJ/mol
# GULP energy per Si atom -5570.977354 kJ/mol
# Density = 1.936393 g / cm^3
# Si number density = 19.408107 Si / 1000 Ang^3
#
#
#
# Elastic Constant Matrix: (Units=GPa)
#
#
# Indices 1 2 3 4 5 6 
#
# 1 96.5329 46.4418 16.9356 -12.2862 -16.8004 23.5117
# 2 46.4418 58.6812 28.6776 -0.4424 12.3394 6.6686
# 3 16.9356 28.6776 63.8336 7.7244 -0.6801 3.1295
# 4 -12.2862 -0.4424 7.7244 31.5298 8.1730 -0.4734
# 5 -16.8004 12.3394 -0.6801 8.1730 28.6080 -5.9952
# 6 23.5117 6.6686 3.1295 -0.4734 -5.9952 35.7567
#
#
#
# Elastic Compliance Matrix: (Units=1/GPa)
#
#
# Indices 1 2 3 4 5 6 
#
# 1 0.038303 -0.041208 0.009062 0.002274 0.037317 -0.012007
# 2 -0.041208 0.071916 -0.022908 0.005149 -0.055896 0.006385
# 3 0.009062 -0.022908 0.024690 -0.007445 0.017712 -0.000976
# 4 0.002274 0.005149 -0.007445 0.037699 -0.012547 -0.003408
# 5 0.037317 -0.055896 0.017712 -0.012547 0.084642 -0.001638
# 6 -0.012007 0.006385 -0.000976 -0.003408 -0.001638 0.034437
#
#
# Mechanical properties :
#
#
# Convention : Reuss Voigt Hill
#
# Bulk Modulus (GPa) = 40.31878 44.79529 42.55703
# Shear Modulus (GPa) = 12.19331 27.64507 19.91919
#
# Velocity S-wave (km/s) = 2.50923 3.77823 3.20712
# Velocity P-wave (km/s) = 5.40502 6.49339 5.97404
#
# Compressibility (1/GPa) = 0.02480234
#
# Stress axis : x y z
#
# Youngs Moduli (GPa) = 26.10792 13.90514 40.50167
#
# Poissons Ratio (x) = 0.57300 -0.36702
# Poissons Ratio (y) = 1.07584 0.92779
# Poissons Ratio (z) = -0.23659 0.31853
#
# Static dielectric constant tensor:
#      x y z
#    x 1.747730 0.039020 -0.056130 
#    y 0.039020 1.683560 -0.001270 
#    z -0.056130 -0.001270 1.730720 
# 
# From -- ./inp_files/169172.got.cif
#   From: 2010.05.17/outbox.cif.g08.bks.cpg/sg2_85_cif.got.tgz:169172.got - 2010.06.03 11:33:40.
