data_PCOD9053490
_publ_section_title
;
Structure prediction by ZEFSAII (Michael W. Deem and Ramdas Pophale) SiO2 
 PCOD9053490
Probable space group: P -1
;
_chemical_formula_sum "Si O2"
_cell_formula_units_Z 14
_cell_length_a 11.571632
_cell_length_b 17.671629
_cell_length_c 8.166759
_cell_angle_alpha 83.948252
_cell_angle_beta 124.192746
_cell_angle_gamma 142.983305
_cell_volume 602.457906
_symmetry_space_group_name_H-M "P -1"
_symmetry_group_IT_number 2
_symmetry_cell_setting 'triclinic'
loop_
_space_group_symop_operation_xyz
x,y,z
-x,-y,-z
loop_
_atom_site_type_symbol
_atom_site_label
_atom_site_fract_x
_atom_site_fract_y
_atom_site_fract_z
Si Si1 0.152575 0.241145 0.379038
Si Si2 0.948330 0.413220 0.338130
Si Si3 0.657188 0.361451 0.696648
Si Si4 0.914383 0.017338 0.788044
Si Si5 0.261036 0.103403 0.813573
Si Si6 0.160932 0.292616 0.003359
Si Si7 0.121478 0.345892 0.621638
O O1 0.469706 0.342499 0.629326
O O2 0.084928 0.256512 0.486635
O O3 0.176736 0.303171 0.214688
O O4 0.873433 0.041161 0.186217
O O5 0.000000 0.500000 0.500000
O O6 0.247882 0.561960 0.424537
O O7 0.903050 0.308004 0.400141
O O8 0.622969 0.273099 0.015151
O O9 0.403587 0.169280 0.509234
O O10 0.000000 0.500000 0.000000
O O11 0.224910 0.157147 0.891612
O O12 0.915943 0.103856 0.823699
O O13 0.000000 0.000000 0.000000
O O14 0.000000 0.000000 0.500000
O O15 0.065868 0.306235 0.781050
O O16 0.517132 0.452429 0.181361
#
# Coordination Sequence:
#
# PCOD9053490 Si02
#       7
#     2   2   2   2   2   2   2
#     4  11  23  45  71  99 144 191 234 285 357 431
#     4  12  25  44  69 105 139 172 237 303 348 415
#     4  11  24  41  70 106 138 182 239 297 346 412
#     4  11  19  41  69  96 134 185 234 279 348 419
#     4  11  23  40  69 101 138 183 228 289 356 417
#     4  11  22  41  73 100 137 194 232 280 357 425
#     4  11  25  43  70 105 141 186 236 296 357 425
#
# _framework density 23.238140000000001
#
# number of rings (size 3 to 8) (size 9 to 14) (size 15 to 20)
#    0.000    0.857    4.286    4.714    0.000    4.000 
#    0.000    0.714    0.000    0.000    0.000    0.000 
#    0.000    0.000    0.000    0.000    0.000    0.000 
#
# Total GULP energy -77989.061952 kJ/mol
# GULP energy per Si atom -5570.647282 kJ/mol
# Density = 2.318525 g / cm^3
# Si number density = 23.238140 Si / 1000 Ang^3
#
#
#
# Elastic Constant Matrix: (Units=GPa)
#
#
# Indices 1 2 3 4 5 6 
#
# 1 73.3906 11.1606 24.5657 -0.0420 -0.7891 -10.1138
# 2 11.1606 89.9339 20.1968 -0.5011 -5.7744 12.7774
# 3 24.5657 20.1968 96.8398 8.0757 -1.4815 -7.6463
# 4 -0.0420 -0.5011 8.0757 38.1974 3.1706 -6.4826
# 5 -0.7891 -5.7744 -1.4815 3.1706 29.4574 4.1262
# 6 -10.1138 12.7774 -7.6463 -6.4826 4.1262 33.4479
#
#
#
# Elastic Compliance Matrix: (Units=1/GPa)
#
#
# Indices 1 2 3 4 5 6 
#
# 1 0.015752 -0.002010 -0.003319 0.001667 -0.001050 0.005225
# 2 -0.002010 0.013146 -0.002657 -0.000705 0.003417 -0.006795
# 3 -0.003319 -0.002657 0.012090 -0.002185 -0.000098 0.002364
# 4 0.001667 -0.000705 -0.002185 0.028028 -0.004090 0.006210
# 5 -0.001050 0.003417 -0.000098 -0.004090 0.035988 -0.006878
# 6 0.005225 -0.006795 0.002364 0.006210 -0.006878 0.036665
#
#
# Mechanical properties :
#
#
# Convention : Reuss Voigt Hill
#
# Bulk Modulus (GPa) = 39.97535 41.33451 40.65493
# Shear Modulus (GPa) = 30.12393 33.83660 31.98027
#
# Velocity S-wave (km/s) = 3.60434 3.82000 3.71374
# Velocity P-wave (km/s) = 5.87891 6.10594 5.99350
#
# Compressibility (1/GPa) = 0.02501542
#
# Stress axis : x y z
#
# Youngs Moduli (GPa) = 63.48385 76.06623 82.71317
#
# Poissons Ratio (x) = 0.15288 0.27454
# Poissons Ratio (y) = 0.12759 0.21981
# Poissons Ratio (z) = 0.21072 0.20214
#
# Static dielectric constant tensor:
#      x y z
#    x 1.853200 0.052030 -0.061270 
#    y 0.052030 1.921600 -0.082410 
#    z -0.061270 -0.082410 1.954590 
# 
# From -- ./inp_files/211961.got.cif
#   From: 2010.05.17/outbox.cif.g08.bks.cpg/sg2_106_cif.got.tgz:211961.got - 2010.06.03 11:33:40.
