data_PCOD9053115
_publ_section_title
;
Structure prediction by ZEFSAII (Michael W. Deem and Ramdas Pophale) SiO2 
 PCOD9053115
Probable space group: P -1
;
_chemical_formula_sum "Si O2"
_cell_formula_units_Z 14
_cell_length_a 11.957028
_cell_length_b 5.458007
_cell_length_c 13.807128
_cell_angle_alpha 99.376235
_cell_angle_beta 36.755567
_cell_angle_gamma 96.448486
_cell_volume 531.747956
_symmetry_space_group_name_H-M "P -1"
_symmetry_group_IT_number 2
_symmetry_cell_setting 'triclinic'
loop_
_space_group_symop_operation_xyz
x,y,z
-x,-y,-z
loop_
_atom_site_type_symbol
_atom_site_label
_atom_site_fract_x
_atom_site_fract_y
_atom_site_fract_z
Si Si1 0.091458 0.024758 0.290305
Si Si2 0.301133 0.178359 0.952139
Si Si3 0.743605 0.008614 0.408460
Si Si4 0.836046 0.705168 0.140250
Si Si5 0.436446 0.458178 0.416077
Si Si6 0.637121 0.355568 0.965827
Si Si7 0.652168 0.865314 0.717273
O O1 0.875747 0.015500 0.413063
O O2 0.157103 0.142379 0.353048
O O3 0.183793 0.750791 0.219738
O O4 0.190916 0.111066 0.124892
O O5 0.195934 0.123869 0.922235
O O6 0.295136 0.475249 0.984189
O O7 0.521171 0.093626 0.778626
O O8 0.850614 0.880704 0.235488
O O9 0.589921 0.799509 0.522908
O O10 0.681091 0.294439 0.453541
O O11 0.646421 0.548891 0.273016
O O12 0.000000 0.500000 0.000000
O O13 0.360251 0.367626 0.359616
O O14 0.497357 0.165364 0.094698
O O15 0.500000 0.500000 0.000000
#
# Coordination Sequence:
#
# PCOD9053115 Si02
#       7
#     2   2   2   2   2   2   2
#     4  11  25  42  73 118 156 204 254 320 389 475
#     4  11  22  43  74 114 155 188 265 335 389 441
#     4  12  31  53  77 115 167 210 254 319 397 468
#     4  12  28  53  87 115 145 205 275 329 379 460
#     4  12  29  55  77 113 162 212 253 320 403 464
#     4  11  18  37  71 111 152 193 251 331 383 434
#     4  11  23  42  75 112 151 207 253 313 396 463
#
# _framework density 26.328264999999998
#
# number of rings (size 3 to 8) (size 9 to 14) (size 15 to 20)
#    0.000    0.571    4.286    3.429    6.000    2.857 
#    0.000    0.000    0.000    0.000    0.000    0.000 
#    0.000    0.000    0.000    0.000    0.000    0.000 
#
# Total GULP energy -78130.694635 kJ/mol
# GULP energy per Si atom -5580.763903 kJ/mol
# Density = 2.626834 g / cm^3
# Si number density = 26.328265 Si / 1000 Ang^3
#
#
#
# Elastic Constant Matrix: (Units=GPa)
#
#
# Indices 1 2 3 4 5 6 
#
# 1 172.2537 10.3412 27.0475 22.3940 15.0222 42.6994
# 2 10.3412 75.7465 30.8309 11.8521 17.0857 24.3637
# 3 27.0475 30.8309 91.9902 21.0446 2.1956 23.6525
# 4 22.3940 11.8521 21.0446 52.9178 14.7788 7.3899
# 5 15.0222 17.0857 2.1956 14.7788 42.8384 -1.4079
# 6 42.6994 24.3637 23.6525 7.3899 -1.4079 35.6719
#
#
#
# Elastic Compliance Matrix: (Units=1/GPa)
#
#
# Indices 1 2 3 4 5 6 
#
# 1 0.009977 0.005090 -0.000246 -0.001629 -0.005452 -0.015134
# 2 0.005090 0.022990 -0.003911 0.000207 -0.011473 -0.019698
# 3 -0.000246 -0.003911 0.014760 -0.004740 0.002336 -0.005748
# 4 -0.001629 0.000207 -0.004740 0.023518 -0.007389 -0.000213
# 5 -0.005452 -0.011473 0.002336 -0.007389 0.032775 0.015637
# 6 -0.015134 -0.019698 -0.005748 -0.000213 0.015637 0.064075
#
#
# Mechanical properties :
#
#
# Convention : Reuss Voigt Hill
#
# Bulk Modulus (GPa) = 20.16316 52.93661 36.54988
# Shear Modulus (GPa) = 27.35847 44.40366 35.88107
#
# Velocity S-wave (km/s) = 3.22705 4.11121 3.69566
# Velocity P-wave (km/s) = 4.64329 6.53346 5.66772
#
# Compressibility (1/GPa) = 0.04959540
#
# Stress axis : x y z
#
# Youngs Moduli (GPa) = 100.22904 43.49720 67.75064
#
# Poissons Ratio (x) = -0.22142 0.01664
# Poissons Ratio (y) = -0.51020 0.26495
# Poissons Ratio (z) = 0.02461 0.17010
#
# Static dielectric constant tensor:
#      x y z
#    x 2.855490 -0.411700 -0.333400 
#    y -0.411700 2.432310 0.170700 
#    z -0.333400 0.170700 2.407750 
# 
# From -- ./inp_files/38559.got.cif
#   From: 2010.05.17/outbox.cif.g08.bks.cpg/sg2_20_cif.got.tgz:38559.got - 2010.06.03 11:33:40.
