data_PCOD9053441
_publ_section_title
;
Structure prediction by ZEFSAII (Michael W. Deem and Ramdas Pophale) SiO2 
 PCOD9053441
Probable space group: P -1
;
_chemical_formula_sum "Si O2"
_cell_formula_units_Z 16
_cell_length_a 18.122000
_cell_length_b 9.679628
_cell_length_c 21.415877
_cell_angle_alpha 141.290512
_cell_angle_beta 19.535426
_cell_angle_gamma 139.275383
_cell_volume 781.043675
_symmetry_space_group_name_H-M "P -1"
_symmetry_group_IT_number 2
_symmetry_cell_setting 'triclinic'
loop_
_space_group_symop_operation_xyz
x,y,z
-x,-y,-z
loop_
_atom_site_type_symbol
_atom_site_label
_atom_site_fract_x
_atom_site_fract_y
_atom_site_fract_z
Si Si1 0.755643 0.385466 0.637948
Si Si2 0.959381 0.325531 0.330756
Si Si3 0.614678 0.426887 0.066712
Si Si4 0.762843 0.960992 0.142750
Si Si5 0.003974 0.759496 0.383387
Si Si6 0.376224 0.078511 0.898031
Si Si7 0.388505 0.775017 0.537750
Si Si8 0.504763 0.680439 0.735378
O O1 0.798046 0.260855 0.494485
O O2 0.592831 0.568651 0.813069
O O3 0.611236 0.221295 0.743056
O O4 0.000000 0.500000 0.500000
O O5 0.832632 0.269439 0.345900
O O6 0.004638 0.590197 0.381220
O O7 0.193754 0.234100 0.121705
O O8 0.689538 0.692699 0.111958
O O9 0.540642 0.320328 0.154464
O O10 0.802722 0.302275 0.838767
O O11 0.733679 0.006660 0.109598
O O12 0.644313 0.150567 0.339529
O O13 0.000000 0.000000 0.000000
O O14 0.766550 0.718391 0.525054
O O15 0.000000 0.000000 0.500000
O O16 0.397688 0.874758 0.854826
O O17 0.541841 0.576004 0.338672
O O18 0.500000 0.000000 0.500000
#
# Coordination Sequence:
#
# PCOD9053441 Si02
#       8
#     2   2   2   2   2   2   2   2
#     4  11  24  42  71  96 131 185 234 275 344 409
#     4  11  22  45  67 100 135 177 233 277 336 419
#     4  11  22  46  67  99 136 180 231 274 340 422
#     4  11  19  39  72  93 126 187 226 269 341 407
#     4  11  24  42  71  95 133 182 232 280 340 407
#     4  11  25  43  65 102 144 171 229 292 331 407
#     4  11  19  39  71  95 131 184 226 272 337 410
#     4  11  25  42  65 103 142 172 227 289 334 402
#
# _framework density 20.485410000000002
#
# number of rings (size 3 to 8) (size 9 to 14) (size 15 to 20)
#    0.000    1.000    7.500    1.500    1.750    3.500 
#    0.000    2.500    0.000    0.000    0.000    0.000 
#    0.000    0.000    0.000    0.000    0.000    0.000 
#
# Total GULP energy -89167.025517 kJ/mol
# GULP energy per Si atom -5572.939095 kJ/mol
# Density = 2.043878 g / cm^3
# Si number density = 20.485410 Si / 1000 Ang^3
#
#
#
# Elastic Constant Matrix: (Units=GPa)
#
#
# Indices 1 2 3 4 5 6 
#
# 1 73.6016 45.4628 25.7943 3.3533 -15.8302 -14.9264
# 2 45.4628 121.8973 54.7245 21.5660 -15.5122 -18.6892
# 3 25.7943 54.7245 122.8846 7.8050 -1.0881 -6.6914
# 4 3.3533 21.5660 7.8050 32.9677 0.6441 -6.1210
# 5 -15.8302 -15.5122 -1.0881 0.6441 39.4446 1.8736
# 6 -14.9264 -18.6892 -6.6914 -6.1210 1.8736 41.6237
#
#
#
# Elastic Compliance Matrix: (Units=1/GPa)
#
#
# Indices 1 2 3 4 5 6 
#
# 1 0.019570 -0.005836 -0.001407 0.002866 0.005266 0.004356
# 2 -0.005836 0.014568 -0.004626 -0.007447 0.003264 0.002462
# 3 -0.001407 -0.004626 0.010396 0.000614 -0.002073 -0.000727
# 4 0.002866 -0.007447 0.000614 0.035392 -0.002487 0.003099
# 5 0.005266 0.003264 -0.002073 -0.002487 0.028668 0.001365
# 6 0.004356 0.002462 -0.000727 0.003099 0.001365 0.026970
#
#
# Mechanical properties :
#
#
# Convention : Reuss Voigt Hill
#
# Bulk Modulus (GPa) = 48.08897 63.37185 55.73041
# Shear Modulus (GPa) = 30.07799 35.63400 32.85599
#
# Velocity S-wave (km/s) = 3.83595 4.17523 4.00918
# Velocity P-wave (km/s) = 6.56849 7.36517 6.97821
#
# Compressibility (1/GPa) = 0.02079479
#
# Stress axis : x y z
#
# Youngs Moduli (GPa) = 51.09803 68.64487 96.18680
#
# Poissons Ratio (x) = 0.40063 0.13534
# Poissons Ratio (y) = 0.29823 0.44500
# Poissons Ratio (z) = 0.07190 0.31758
#
# Static dielectric constant tensor:
#      x y z
#    x 1.728790 0.085200 -0.050100 
#    y 0.085200 1.942230 -0.077140 
#    z -0.050100 -0.077140 1.735100 
# 
# From -- ./inp_files/599763.got.cif
#   From: 2010.05.17/outbox.cif.g08.bks.cpg/sg2_300_cif.got.tgz:599763.got - 2010.06.03 11:33:40.
