data_PCOD9053241
_publ_section_title
;
Structure prediction by ZEFSAII (Michael W. Deem and Ramdas Pophale) SiO2 
 PCOD9053241
Probable space group: P -1
;
_chemical_formula_sum "Si O2"
_cell_formula_units_Z 10
_cell_length_a 14.141616
_cell_length_b 10.771171
_cell_length_c 10.174683
_cell_angle_alpha 63.818956
_cell_angle_beta 31.498637
_cell_angle_gamma 43.463532
_cell_volume 484.213015
_symmetry_space_group_name_H-M "P -1"
_symmetry_group_IT_number 2
_symmetry_cell_setting 'triclinic'
loop_
_space_group_symop_operation_xyz
x,y,z
-x,-y,-z
loop_
_atom_site_type_symbol
_atom_site_label
_atom_site_fract_x
_atom_site_fract_y
_atom_site_fract_z
Si Si1 0.415078 0.089331 0.354494
Si Si2 0.243487 0.314889 0.703858
Si Si3 0.037052 0.874285 0.139725
Si Si4 0.549894 0.507905 0.588970
Si Si5 0.911264 0.962202 0.747397
O O1 0.230003 0.290066 0.576194
O O2 0.228019 0.068145 0.541390
O O3 0.641877 0.889269 0.272508
O O4 0.615423 0.058385 0.034853
O O5 0.436971 0.335229 0.480266
O O6 0.000000 0.500000 0.000000
O O7 0.110415 0.925655 0.153184
O O8 0.277350 0.629044 0.934829
O O9 0.000000 0.000000 0.000000
O O10 0.500000 0.500000 0.500000
O O11 0.832489 0.284189 0.409143
O O12 0.000000 0.000000 0.500000
#
# Coordination Sequence:
#
# PCOD9053241 Si02
#       5
#     2   2   2   2   2
#     4  11  22  39  64  94 133 168 212 269 325 382
#     4  11  19  34  64  97 125 159 216 273 320 371
#     4  12  22  42  68 100 129 165 221 279 319 383
#     4  12  22  39  68  99 128 168 219 269 323 382
#     4  12  27  45  64  95 138 179 214 264 328 390
#
# _framework density 20.652068
#
# number of rings (size 3 to 8) (size 9 to 14) (size 15 to 20)
#    0.000    0.400    8.000    2.400    0.000    1.600 
#    0.000    1.000    0.000    0.000    0.000    0.000 
#    0.000    0.000    0.000    0.000    0.000    0.000 
#
# Total GULP energy -55723.544113 kJ/mol
# GULP energy per Si atom -5572.354411 kJ/mol
# Density = 2.060506 g / cm^3
# Si number density = 20.652068 Si / 1000 Ang^3
#
#
#
# Elastic Constant Matrix: (Units=GPa)
#
#
# Indices 1 2 3 4 5 6 
#
# 1 55.3039 15.3353 21.7863 -10.9478 -6.9662 15.1311
# 2 15.3353 47.3575 39.6031 8.2063 6.4676 8.6299
# 3 21.7863 39.6031 158.3789 5.1540 -18.1894 -1.2135
# 4 -10.9478 8.2063 5.1540 47.7227 8.8319 -2.7242
# 5 -6.9662 6.4676 -18.1894 8.8319 43.0666 0.7177
# 6 15.1311 8.6299 -1.2135 -2.7242 0.7177 22.1540
#
#
#
# Elastic Compliance Matrix: (Units=1/GPa)
#
#
# Indices 1 2 3 4 5 6 
#
# 1 0.026122 -0.005214 -0.002229 0.005670 0.003160 -0.015338
# 2 -0.005214 0.034000 -0.008659 -0.005159 -0.008373 -0.010521
# 3 -0.002229 -0.008659 0.009417 -0.000664 0.004967 0.005169
# 4 0.005670 -0.005159 -0.000664 0.023930 -0.003515 0.001157
# 5 0.003160 -0.008373 0.004967 -0.003515 0.027807 0.000042
# 6 -0.015338 -0.010521 0.005169 0.001157 0.000042 0.060136
#
#
# Mechanical properties :
#
#
# Convention : Reuss Voigt Hill
#
# Bulk Modulus (GPa) = 26.78361 46.05439 36.41900
# Shear Modulus (GPa) = 22.11775 34.87637 28.49706
#
# Velocity S-wave (km/s) = 3.27612 4.11391 3.71868
# Velocity P-wave (km/s) = 5.22568 6.70181 6.00924
#
# Compressibility (1/GPa) = 0.03733627
#
# Stress axis : x y z
#
# Youngs Moduli (GPa) = 38.28123 29.41158 106.18623
#
# Poissons Ratio (x) = 0.15336 0.23664
# Poissons Ratio (y) = 0.19961 0.91946
# Poissons Ratio (z) = 0.08531 0.25467
#
# Static dielectric constant tensor:
#      x y z
#    x 1.762650 -0.008020 -0.063800 
#    y -0.008020 1.753420 0.053110 
#    z -0.063800 0.053110 2.017310 
# 
# From -- ./inp_files/33866.got.cif
#   From: 2010.05.17/outbox.cif.g08.bks.cpg/sg2_17_cif.got.tgz:33866.got - 2010.06.03 11:33:40.
