data_PCOD9053488
_publ_section_title
;
Structure prediction by ZEFSAII (Michael W. Deem and Ramdas Pophale) SiO2 
 PCOD9053488
Probable space group: P -1
;
_chemical_formula_sum "Si O2"
_cell_formula_units_Z 16
_cell_length_a 10.084830
_cell_length_b 14.044472
_cell_length_c 18.116455
_cell_angle_alpha 150.817306
_cell_angle_beta 34.934686
_cell_angle_gamma 128.194971
_cell_volume 671.446863
_symmetry_space_group_name_H-M "P -1"
_symmetry_group_IT_number 2
_symmetry_cell_setting 'triclinic'
loop_
_space_group_symop_operation_xyz
x,y,z
-x,-y,-z
loop_
_atom_site_type_symbol
_atom_site_label
_atom_site_fract_x
_atom_site_fract_y
_atom_site_fract_z
Si Si1 0.186647 0.211467 0.089464
Si Si2 0.100561 0.110688 0.303094
Si Si3 0.854817 0.855847 0.330449
Si Si4 0.340655 0.528213 0.323527
Si Si5 0.811264 0.153503 0.056564
Si Si6 0.799166 0.524909 0.018943
Si Si7 0.650830 0.818582 0.161390
Si Si8 0.330468 0.466057 0.457853
O O1 0.237334 0.349415 0.224937
O O2 0.908277 0.341313 0.276769
O O3 0.215612 0.993092 0.964451
O O4 0.367960 0.196192 0.928003
O O5 0.849889 0.259329 0.478533
O O6 0.242304 0.265002 0.366065
O O7 0.020858 0.993706 0.327093
O O8 0.236299 0.944668 0.066162
O O9 0.968907 0.686701 0.227746
O O10 0.581891 0.004891 0.577219
O O11 0.854744 0.714412 0.162908
O O12 0.358121 0.528441 0.402924
O O13 0.598157 0.486574 0.137885
O O14 0.093851 0.139249 0.915779
O O15 0.605937 0.383005 0.308334
O O16 0.692414 0.605628 0.042520
#
# Coordination Sequence:
#
# PCOD9053488 Si02
#       8
#     2   2   2   2   2   2   2   2
#     4  11  26  43  62  94 132 173 205 257 318 378
#     4  11  19  41  69  96 125 158 210 272 316 359
#     4  11  24  42  67  97 125 164 214 265 311 373
#     4  11  21  42  68  95 129 162 213 267 315 366
#     4  12  23  40  69  94 125 167 211 266 313 370
#     4  11  24  40  68  96 124 167 212 263 314 370
#     4  12  26  44  62  93 136 171 206 252 320 386
#     4  11  24  40  69  98 123 162 218 268 311 364
#
# _framework density 23.829139000000001
#
# number of rings (size 3 to 8) (size 9 to 14) (size 15 to 20)
#    0.000    0.750    5.000    3.375    3.500    2.000 
#    0.000    0.625    0.000    0.000    0.000    0.000 
#    0.000    0.000    0.000    0.000    0.000    0.000 
#
# Total GULP energy -89617.647926 kJ/mol
# GULP energy per Si atom -5601.102995 kJ/mol
# Density = 2.377490 g / cm^3
# Si number density = 23.829139 Si / 1000 Ang^3
#
#
#
# Elastic Constant Matrix: (Units=GPa)
#
#
# Indices 1 2 3 4 5 6 
#
# 1 29.6512 13.3972 17.0959 -0.4722 -9.3556 -16.8214
# 2 13.3972 107.2896 40.8419 -5.9671 -4.7911 -31.0351
# 3 17.0959 40.8419 83.8728 13.5963 -18.5096 -29.5868
# 4 -0.4722 -5.9671 13.5963 26.7958 -2.4974 -1.9391
# 5 -9.3556 -4.7911 -18.5096 -2.4974 36.7194 1.5658
# 6 -16.8214 -31.0351 -29.5868 -1.9391 1.5658 35.6695
#
#
#
# Elastic Compliance Matrix: (Units=1/GPa)
#
#
# Indices 1 2 3 4 5 6 
#
# 1 0.051401 0.001856 -0.000549 0.004561 0.012302 0.025108
# 2 0.001856 0.014022 -0.005003 0.006348 -0.000183 0.009279
# 3 -0.000549 -0.005003 0.023149 -0.010997 0.009550 0.013573
# 4 0.004561 0.006348 -0.010997 0.044412 -0.000575 0.000992
# 5 0.012302 -0.000183 0.009550 -0.000575 0.034606 0.012013
# 6 0.025108 0.009279 0.013573 0.000992 0.012013 0.058735
#
#
# Mechanical properties :
#
#
# Convention : Reuss Voigt Hill
#
# Bulk Modulus (GPa) = 12.31791 40.38709 26.35250
# Shear Modulus (GPa) = 19.17361 29.80219 24.48790
#
# Velocity S-wave (km/s) = 2.83968 3.54031 3.20917
# Velocity P-wave (km/s) = 3.99151 5.80492 4.98143
#
# Compressibility (1/GPa) = 0.08118257
#
# Stress axis : x y z
#
# Youngs Moduli (GPa) = 19.45478 71.31567 43.19886
#
# Poissons Ratio (x) = -0.13238 0.02370
# Poissons Ratio (y) = -0.03611 0.21611
# Poissons Ratio (z) = 0.01067 0.35676
#
# Static dielectric constant tensor:
#      x y z
#    x 1.959610 0.035370 -0.001780 
#    y 0.035370 1.876400 0.013950 
#    z -0.001780 0.013950 1.920320 
# 
# From -- ./inp_files/451300.got.cif
#   From: 2010.05.17/outbox.cif.g08.bks.cpg/sg2_226_cif.got.tgz:451300.got - 2010.06.03 11:33:40.
