data_PCOD9053095
_publ_section_title
;
Structure prediction by ZEFSAII (Michael W. Deem and Ramdas Pophale) SiO2 
 PCOD9053095
Probable space group: P -1
;
_chemical_formula_sum "Si O2"
_cell_formula_units_Z 16
_cell_length_a 9.327464
_cell_length_b 13.491107
_cell_length_c 9.102485
_cell_angle_alpha 138.225167
_cell_angle_beta 113.455445
_cell_angle_gamma 91.361542
_cell_volume 595.985315
_symmetry_space_group_name_H-M "P -1"
_symmetry_group_IT_number 2
_symmetry_cell_setting 'triclinic'
loop_
_space_group_symop_operation_xyz
x,y,z
-x,-y,-z
loop_
_atom_site_type_symbol
_atom_site_label
_atom_site_fract_x
_atom_site_fract_y
_atom_site_fract_z
Si Si1 0.814122 0.617859 0.169842
Si Si2 0.848025 0.643928 0.891240
Si Si3 0.333131 0.979122 0.766070
Si Si4 0.308327 0.119218 0.621520
Si Si5 0.900445 0.351387 0.479171
Si Si6 0.218141 0.166795 0.136274
Si Si7 0.717630 0.059845 0.882266
Si Si8 0.510842 0.476747 0.219967
O O1 0.812034 0.796376 0.379233
O O2 0.897200 0.580761 0.302168
O O3 0.599549 0.476469 0.893808
O O4 0.914224 0.637009 0.075776
O O5 0.853731 0.498054 0.641040
O O6 0.918601 0.818504 0.017354
O O7 0.639257 0.586273 0.780514
O O8 0.238877 0.996408 0.599855
O O9 0.217682 0.803538 0.620034
O O10 0.522931 0.002858 0.816017
O O11 0.349841 0.131008 0.046444
O O12 0.328665 0.016602 0.383556
O O13 0.491236 0.298669 0.956038
O O14 0.846580 0.263148 0.200768
O O15 0.178473 0.024023 0.085431
O O16 0.312916 0.349693 0.463547
#
# Coordination Sequence:
#
# PCOD9053095 Si02
#       8
#     2   2   2   2   2   2   2   2
#     4   8  20  35  59  80 107 147 184 220 275 316
#     4   9  18  33  57  83 107 138 183 229 273 308
#     4  11  21  37  56  87 110 138 185 231 275 315
#     4   9  21  39  53  81 113 151 174 220 277 334
#     4  11  21  35  60  84 110 139 186 233 265 321
#     4  11  18  36  58  84 106 144 183 232 268 317
#     4  11  24  34  56  84 114 143 182 224 276 322
#     4   8  18  31  59  75 108 138 184 215 270 318
#
# _framework density 26.846299999999999
#
# number of rings (size 3 to 8) (size 9 to 14) (size 15 to 20)
#    1.500    0.500    2.500    4.125    1.750    1.500 
#    0.000    0.000    0.000    0.750    0.000    0.000 
#    0.000    0.000    0.000    0.000    0.000    0.000 
#
# Total GULP energy -89334.704333 kJ/mol
# GULP energy per Si atom -5583.419021 kJ/mol
# Density = 2.678520 g / cm^3
# Si number density = 26.846300 Si / 1000 Ang^3
#
#
#
# Elastic Constant Matrix: (Units=GPa)
#
#
# Indices 1 2 3 4 5 6 
#
# 1 58.5583 23.2453 45.6823 -2.2073 -17.4003 2.7649
# 2 23.2453 111.3219 33.4973 1.3516 -25.2200 -14.2432
# 3 45.6823 33.4973 191.9210 -6.9293 -47.8289 -5.3203
# 4 -2.2073 1.3516 -6.9293 35.8358 -2.0830 -0.5937
# 5 -17.4003 -25.2200 -47.8289 -2.0830 37.9266 -5.6903
# 6 2.7649 -14.2432 -5.3203 -0.5937 -5.6903 38.3388
#
#
#
# Elastic Compliance Matrix: (Units=1/GPa)
#
#
# Indices 1 2 3 4 5 6 
#
# 1 0.022597 -0.003302 -0.004270 0.000777 0.002366 -0.003086
# 2 -0.003302 0.012149 0.001040 0.000155 0.008815 0.006206
# 3 -0.004270 0.001040 0.008840 0.002077 0.010522 0.003515
# 4 0.000777 0.000155 0.002077 0.028656 0.004871 0.001456
# 5 0.002366 0.008815 0.010522 0.004871 0.048630 0.011857
# 6 -0.003086 0.006206 0.003515 0.001456 0.011857 0.030882
#
#
# Mechanical properties :
#
#
# Convention : Reuss Voigt Hill
#
# Bulk Modulus (GPa) = 32.76357 62.96125 47.86241
# Shear Modulus (GPa) = 28.57293 39.71198 34.14245
#
# Velocity S-wave (km/s) = 3.26592 3.85025 3.57006
# Velocity P-wave (km/s) = 5.14318 6.57794 5.90431
#
# Compressibility (1/GPa) = 0.03052171
#
# Stress axis : x y z
#
# Youngs Moduli (GPa) = 44.25365 82.31336 113.12244
#
# Poissons Ratio (x) = 0.27177 0.48305
# Poissons Ratio (y) = 0.14611 -0.11763
# Poissons Ratio (z) = 0.18897 -0.08560
#
# Static dielectric constant tensor:
#      x y z
#    x 2.160520 0.045640 0.058270 
#    y 0.045640 2.120960 -0.069830 
#    z 0.058270 -0.069830 2.108300 
# 
# From -- ./inp_files/271258.got.cif
#   From: 2010.05.17/outbox.cif.g08.bks.cpg/sg2_136_cif.got.tgz:271258.got - 2010.06.03 11:33:40.
