data_PCOD9053951
_publ_section_title
;
Structure prediction by ZEFSAII (Michael W. Deem and Ramdas Pophale) SiO2 
 PCOD9053951
Probable space group: P -1
;
_chemical_formula_sum "Si O2"
_cell_formula_units_Z 14
_cell_length_a 8.883562
_cell_length_b 21.561887
_cell_length_c 14.017486
_cell_angle_alpha 22.620517
_cell_angle_beta 43.794957
_cell_angle_gamma 44.878740
_cell_volume 705.639062
_symmetry_space_group_name_H-M "P -1"
_symmetry_group_IT_number 2
_symmetry_cell_setting 'triclinic'
loop_
_space_group_symop_operation_xyz
x,y,z
-x,-y,-z
loop_
_atom_site_type_symbol
_atom_site_label
_atom_site_fract_x
_atom_site_fract_y
_atom_site_fract_z
Si Si1 0.454281 0.025741 0.371598
Si Si2 0.097748 0.906163 0.997456
Si Si3 0.920049 0.171275 0.168071
Si Si4 0.201033 0.597366 0.284313
Si Si5 0.594846 0.364318 0.521502
Si Si6 0.726109 0.677619 0.098354
Si Si7 0.252080 0.965254 0.174822
O O1 0.699788 0.002497 0.251902
O O2 0.500000 0.000000 0.500000
O O3 0.280244 0.910269 0.583788
O O4 0.350290 0.202743 0.125446
O O5 0.181020 0.712535 0.224384
O O6 0.896518 0.927894 0.985901
O O7 0.000000 0.000000 0.000000
O O8 0.811491 0.282213 0.971585
O O9 0.115466 0.028037 0.243259
O O10 0.046121 0.279473 0.025586
O O11 0.418325 0.467296 0.385164
O O12 0.000000 0.500000 0.500000
O O13 0.731569 0.493008 0.323266
O O14 0.450863 0.297199 0.767927
O O15 0.736143 0.220659 0.600802
O O16 0.500000 0.000000 0.000000
#
# Coordination Sequence:
#
# PCOD9053951 Si02
#       7
#     2   2   2   2   2   2   2
#     4  12  22  44  65  92 130 176 214 254 331 384
#     4  11  24  40  67  93 124 165 222 263 307 381
#     4  11  23  40  67  91 128 172 217 259 313 388
#     4  11  20  39  64  94 128 169 207 263 324 380
#     4  11  21  37  63  96 131 160 211 267 321 371
#     4  11  22  37  64  93 122 170 214 261 312 379
#     4  11  21  37  60  96 128 158 208 267 309 369
#
# _framework density 19.840171000000002
#
# number of rings (size 3 to 8) (size 9 to 14) (size 15 to 20)
#    0.000    0.857    7.143    2.143    2.000    0.000 
#    0.000    0.714    0.000    1.714    0.000    0.000 
#    0.000    0.000    0.000    0.000    0.000    0.000 
#
# Total GULP energy -78060.338607 kJ/mol
# GULP energy per Si atom -5575.738472 kJ/mol
# Density = 1.979501 g / cm^3
# Si number density = 19.840171 Si / 1000 Ang^3
#
#
#
# Elastic Constant Matrix: (Units=GPa)
#
#
# Indices 1 2 3 4 5 6 
#
# 1 96.3603 3.8870 27.3027 11.9910 -12.5591 -7.3315
# 2 3.8870 48.3571 14.3066 9.2942 -0.2574 3.2660
# 3 27.3027 14.3066 102.5786 9.5370 -9.7077 2.5309
# 4 11.9910 9.2942 9.5370 34.6701 -15.5936 -6.8801
# 5 -12.5591 -0.2574 -9.7077 -15.5936 51.3498 -4.6928
# 6 -7.3315 3.2660 2.5309 -6.8801 -4.6928 28.5925
#
#
#
# Elastic Compliance Matrix: (Units=1/GPa)
#
#
# Indices 1 2 3 4 5 6 
#
# 1 0.011940 0.000021 -0.002898 -0.001728 0.002145 0.003252
# 2 0.000021 0.023315 -0.002707 -0.007937 -0.003244 -0.004860
# 3 -0.002898 -0.002707 0.011135 -0.001266 0.000854 -0.001584
# 4 -0.001728 -0.007937 -0.001266 0.040003 0.012567 0.012264
# 5 0.002145 -0.003244 0.000854 0.012567 0.024684 0.007920
# 6 0.003252 -0.004860 -0.001584 0.012264 0.007920 0.040754
#
#
# Mechanical properties :
#
#
# Convention : Reuss Voigt Hill
#
# Bulk Modulus (GPa) = 28.38953 37.58763 32.98858
# Shear Modulus (GPa) = 28.61440 36.37579 32.49510
#
# Velocity S-wave (km/s) = 3.80181 4.28652 4.05142
# Velocity P-wave (km/s) = 5.79757 6.59434 6.20875
#
# Compressibility (1/GPa) = 0.03522425
#
# Stress axis : x y z
#
# Youngs Moduli (GPa) = 83.75305 42.89103 89.80798
#
# Poissons Ratio (x) = -0.00092 0.26022
# Poissons Ratio (y) = -0.00180 0.24308
# Poissons Ratio (z) = 0.24268 0.11609
#
# Static dielectric constant tensor:
#      x y z
#    x 1.739820 0.031390 0.013450 
#    y 0.031390 1.714890 -0.006020 
#    z 0.013450 -0.006020 1.723840 
# 
# From -- ./inp_files/175274.got.cif
#   From: 2010.05.17/outbox.cif.g08.bks.cpg/sg2_88_cif.got.tgz:175274.got - 2010.06.03 11:33:40.
