data_PCOD9053288
_publ_section_title
;
Structure prediction by ZEFSAII (Michael W. Deem and Ramdas Pophale) SiO2 
 PCOD9053288
Probable space group: P -1
;
_chemical_formula_sum "Si O2"
_cell_formula_units_Z 16
_cell_length_a 14.164111
_cell_length_b 11.123663
_cell_length_c 8.858190
_cell_angle_alpha 74.435267
_cell_angle_beta 111.274329
_cell_angle_gamma 50.701994
_cell_volume 727.745390
_symmetry_space_group_name_H-M "P -1"
_symmetry_group_IT_number 2
_symmetry_cell_setting 'triclinic'
loop_
_space_group_symop_operation_xyz
x,y,z
-x,-y,-z
loop_
_atom_site_type_symbol
_atom_site_label
_atom_site_fract_x
_atom_site_fract_y
_atom_site_fract_z
Si Si1 0.293399 0.229708 0.769942
Si Si2 0.374320 0.507343 0.896698
Si Si3 0.664101 0.051473 0.296850
Si Si4 0.599322 0.023392 0.602234
Si Si5 0.138065 0.914495 0.493697
Si Si6 0.113899 0.677469 0.952220
Si Si7 0.760392 0.565497 0.603193
Si Si8 0.084028 0.423553 0.892476
O O1 0.243031 0.403938 0.587578
O O2 0.174701 0.341516 0.810016
O O3 0.500000 0.000000 0.000000
O O4 0.777759 0.803007 0.859634
O O5 0.267465 0.667549 0.637909
O O6 0.256073 0.594701 0.946619
O O7 0.500000 0.500000 0.000000
O O8 0.492431 0.266755 0.034262
O O9 0.621792 0.072599 0.441706
O O10 0.744585 0.851198 0.332852
O O11 0.785301 0.048798 0.376363
O O12 0.500000 0.000000 0.500000
O O13 0.448048 0.228584 0.552020
O O14 0.829106 0.391282 0.817494
O O15 0.000000 0.000000 0.500000
O O16 0.052727 0.065727 0.249908
O O17 0.080755 0.569271 0.905254
O O18 0.896628 0.541837 0.740787
#
# Coordination Sequence:
#
# PCOD9053288 Si02
#       8
#     2   2   2   2   2   2   2   2
#     4  12  23  38  55  87 129 164 196 225 286 379
#     4   9  18  32  54  85 110 140 191 249 299 329
#     4  11  19  36  60  86 121 155 187 248 302 338
#     4  12  20  36  57  87 121 156 198 240 287 358
#     4   9  20  34  56  88 114 140 199 257 300 340
#     4  11  19  36  57  85 116 151 189 246 299 335
#     4  12  23  36  56  86 120 160 197 235 292 355
#     4  12  24  37  57  88 128 160 192 231 286 369
#
# _framework density 21.985711999999999
#
# number of rings (size 3 to 8) (size 9 to 14) (size 15 to 20)
#    0.000    1.000    5.000    3.000    0.000    0.000 
#    0.000    0.000    0.000    0.000    0.000  110.250 
#    0.000    0.000    0.000    0.000    0.000    0.000 
#
# Total GULP energy -89078.029968 kJ/mol
# GULP energy per Si atom -5567.376873 kJ/mol
# Density = 2.193567 g / cm^3
# Si number density = 21.985712 Si / 1000 Ang^3
#
#
#
# Elastic Constant Matrix: (Units=GPa)
#
#
# Indices 1 2 3 4 5 6 
#
# 1 125.8673 24.4472 29.8048 5.4063 -2.8276 -16.2593
# 2 24.4472 62.8410 32.5970 3.7987 -16.5370 -22.9757
# 3 29.8048 32.5970 202.7873 -5.5708 -40.7153 -4.2260
# 4 5.4063 3.7987 -5.5708 27.7598 -0.1842 -7.6343
# 5 -2.8276 -16.5370 -40.7153 -0.1842 34.8889 1.6586
# 6 -16.2593 -22.9757 -4.2260 -7.6343 1.6586 25.7710
#
#
#
# Elastic Compliance Matrix: (Units=1/GPa)
#
#
# Indices 1 2 3 4 5 6 
#
# 1 0.009113 -0.001967 -0.001362 -0.000784 -0.001962 0.003667
# 2 -0.001967 0.029174 -0.001691 0.002907 0.010538 0.024675
# 3 -0.001362 -0.001691 0.006858 0.001581 0.007159 -0.001234
# 4 -0.000784 0.002907 0.001581 0.039970 0.002704 0.014023
# 5 -0.001962 0.010538 0.007159 0.002704 0.041513 0.007461
# 6 0.003667 0.024675 -0.001234 0.014023 0.007461 0.066586
#
#
# Mechanical properties :
#
#
# Convention : Reuss Voigt Hill
#
# Bulk Modulus (GPa) = 28.48534 62.79930 45.64232
# Shear Modulus (GPa) = 23.26066 37.99372 30.62719
#
# Velocity S-wave (km/s) = 3.25620 4.16156 3.73641
# Velocity P-wave (km/s) = 5.20784 7.19147 6.27849
#
# Compressibility (1/GPa) = 0.03510578
#
# Stress axis : x y z
#
# Youngs Moduli (GPa) = 109.73713 34.27691 145.80860
#
# Poissons Ratio (x) = 0.06742 0.19862
# Poissons Ratio (y) = 0.21584 0.24650
# Poissons Ratio (z) = 0.14948 0.05795
#
# Static dielectric constant tensor:
#      x y z
#    x 1.793330 0.011400 0.034860 
#    y 0.011400 1.999370 -0.194400 
#    z 0.034860 -0.194400 2.091580 
# 
# From -- ./inp_files/452918.got.cif
#   From: 2010.05.17/outbox.cif.g08.bks.cpg/sg2_227_cif.got.tgz:452918.got - 2010.06.03 11:33:40.
