data_PCOD9053513
_publ_section_title
;
Structure prediction by ZEFSAII (Michael W. Deem and Ramdas Pophale) SiO2 
 PCOD9053513
Probable space group: P -1
;
_chemical_formula_sum "Si O2"
_cell_formula_units_Z 16
_cell_length_a 8.001928
_cell_length_b 11.487317
_cell_length_c 7.800442
_cell_angle_alpha 93.112555
_cell_angle_beta 120.575558
_cell_angle_gamma 96.261458
_cell_volume 608.574805
_symmetry_space_group_name_H-M "P -1"
_symmetry_group_IT_number 2
_symmetry_cell_setting 'triclinic'
loop_
_space_group_symop_operation_xyz
x,y,z
-x,-y,-z
loop_
_atom_site_type_symbol
_atom_site_label
_atom_site_fract_x
_atom_site_fract_y
_atom_site_fract_z
Si Si1 0.713369 0.488516 0.183509
Si Si2 0.942915 0.303338 0.710878
Si Si3 0.302010 0.091431 0.594699
Si Si4 0.964933 0.937750 0.206570
Si Si5 0.724495 0.497132 0.599666
Si Si6 0.199440 0.244407 0.308064
Si Si7 0.785575 0.230362 0.238066
Si Si8 0.590429 0.921639 0.823142
O O1 0.867170 0.596489 0.199428
O O2 0.757096 0.497464 0.411947
O O3 0.746271 0.354756 0.153615
O O4 0.500000 0.500000 0.000000
O O5 0.988993 0.191435 0.829015
O O6 0.784739 0.380402 0.701734
O O7 0.862389 0.251036 0.478160
O O8 0.173450 0.078712 0.697393
O O9 0.311959 0.224964 0.545964
O O10 0.490114 0.027214 0.701169
O O11 0.166927 0.015995 0.373511
O O12 0.809698 0.975586 0.998013
O O13 0.500000 0.500000 0.500000
O O14 0.818208 0.621955 0.735638
O O15 0.350707 0.190283 0.258891
O O16 0.971483 0.193944 0.232772
O O17 0.580892 0.138712 0.138519
#
# Coordination Sequence:
#
# PCOD9053513 Si02
#       8
#     2   2   2   2   2   2   2   2
#     4  11  21  37  61  96 128 174 229 267 323 402
#     4  11  19  42  68  92 132 176 222 269 334 402
#     4  11  23  45  71  93 139 179 223 282 342 395
#     4  11  23  44  71 103 130 181 229 278 339 401
#     4  11  23  41  67  95 132 178 217 270 340 401
#     4  12  23  44  69 102 135 178 227 275 340 407
#     4  11  20  42  68  92 136 181 217 273 338 394
#     4  12  26  43  71 104 134 176 233 280 333 406
#
# _framework density 26.290935000000001
#
# number of rings (size 3 to 8) (size 9 to 14) (size 15 to 20)
#    0.000    0.750    5.000    4.500    0.000    0.500 
#    2.250    2.500    0.000    0.000    0.000    0.000 
#    0.000    0.000    0.000    0.000    0.000    0.000 
#
# Total GULP energy -89456.705363 kJ/mol
# GULP energy per Si atom -5591.044085 kJ/mol
# Density = 2.623110 g / cm^3
# Si number density = 26.290935 Si / 1000 Ang^3
#
#
#
# Elastic Constant Matrix: (Units=GPa)
#
#
# Indices 1 2 3 4 5 6 
#
# 1 128.0882 39.5655 13.3734 -8.4923 31.8616 -31.1368
# 2 39.5655 150.2705 29.0297 -21.7050 31.4201 -44.1386
# 3 13.3734 29.0297 75.9922 -15.8970 31.7650 -15.8686
# 4 -8.4923 -21.7050 -15.8970 40.1772 -7.5620 20.7289
# 5 31.8616 31.4201 31.7650 -7.5620 55.3632 -4.8673
# 6 -31.1368 -44.1386 -15.8686 20.7289 -4.8673 54.4468
#
#
#
# Elastic Compliance Matrix: (Units=1/GPa)
#
#
# Indices 1 2 3 4 5 6 
#
# 1 0.010922 -0.000033 0.002139 -0.001750 -0.007129 0.006872
# 2 -0.000033 0.009940 -0.000110 0.000625 -0.004829 0.007338
# 3 0.002139 -0.000110 0.019223 0.003627 -0.011321 0.004344
# 4 -0.001750 0.000625 0.003627 0.032713 0.002010 -0.011712
# 5 -0.007129 -0.004829 -0.011321 0.002010 0.030858 -0.009298
# 6 0.006872 0.007338 0.004344 -0.011712 -0.009298 0.033139
#
#
# Mechanical properties :
#
#
# Convention : Reuss Voigt Hill
#
# Bulk Modulus (GPa) = 22.68718 57.58755 40.13737
# Shear Modulus (GPa) = 33.89986 48.15626 41.02806
#
# Velocity S-wave (km/s) = 3.59473 4.28444 3.95465
# Velocity P-wave (km/s) = 5.08699 6.81372 6.01266
#
# Compressibility (1/GPa) = 0.04407775
#
# Stress axis : x y z
#
# Youngs Moduli (GPa) = 91.56123 100.60757 52.02198
#
# Poissons Ratio (x) = 0.00327 -0.11130
# Poissons Ratio (y) = 0.00298 0.00572
# Poissons Ratio (z) = -0.19589 0.01106
#
# Static dielectric constant tensor:
#      x y z
#    x 2.069800 0.041450 -0.077960 
#    y 0.041450 2.167370 0.013750 
#    z -0.077960 0.013750 2.126080 
# 
# From -- ./inp_files/188922.got.cif
#   From: 2010.05.17/outbox.cif.g08.bks.cpg/sg2_95_cif.got.tgz:188922.got - 2010.06.03 11:33:40.
