data_PCOD9053701
_publ_section_title
;
Structure prediction by ZEFSAII (Michael W. Deem and Ramdas Pophale) SiO2 
 PCOD9053701
Probable space group: P -1
;
_chemical_formula_sum "Si O2"
_cell_formula_units_Z 16
_cell_length_a 7.266313
_cell_length_b 13.894387
_cell_length_c 11.578856
_cell_angle_alpha 133.260883
_cell_angle_beta 59.191908
_cell_angle_gamma 91.413619
_cell_volume 623.788380
_symmetry_space_group_name_H-M "P -1"
_symmetry_group_IT_number 2
_symmetry_cell_setting 'triclinic'
loop_
_space_group_symop_operation_xyz
x,y,z
-x,-y,-z
loop_
_atom_site_type_symbol
_atom_site_label
_atom_site_fract_x
_atom_site_fract_y
_atom_site_fract_z
Si Si1 0.110853 0.590983 0.685668
Si Si2 0.437165 0.302808 0.078693
Si Si3 0.123896 0.950984 0.619064
Si Si4 0.438857 0.692081 0.555876
Si Si5 0.339553 0.918056 0.968557
Si Si6 0.773457 0.672991 0.236734
Si Si7 0.860400 0.230105 0.744106
Si Si8 0.283459 0.152215 0.833829
O O1 0.238456 0.637782 0.584199
O O2 0.318197 0.440951 0.561955
O O3 0.863235 0.585527 0.731308
O O4 0.991709 0.739733 0.932813
O O5 0.536046 0.235715 0.117134
O O6 0.603628 0.352990 0.994883
O O7 0.465218 0.155546 0.873938
O O8 0.975231 0.092588 0.690261
O O9 0.313691 0.994866 0.651997
O O10 0.933352 0.968671 0.795197
O O11 0.202717 0.809950 0.392250
O O12 0.343552 0.853896 0.786889
O O13 0.543128 0.686957 0.391946
O O14 0.500000 0.000000 0.000000
O O15 0.916292 0.738734 0.319254
O O16 0.711512 0.753347 0.198763
O O17 0.000000 0.500000 0.000000
#
# Coordination Sequence:
#
# PCOD9053701 Si02
#       8
#     2   2   2   2   2   2   2   2
#     4   9  20  39  60  87 112 159 203 236 293 354
#     4   9  20  39  58  87 120 154 202 244 295 348
#     4   9  17  35  55  81 112 154 203 229 283 363
#     4  11  21  37  63  86 117 160 201 236 297 358
#     4  11  21  35  57  84 122 156 194 248 292 352
#     4  11  20  36  58  86 114 149 200 246 286 345
#     4   9  19  32  59  83 113 155 192 241 293 343
#     4   9  18  38  58  82 115 153 195 242 288 342
#
# _framework density 25.649723999999999
#
# number of rings (size 3 to 8) (size 9 to 14) (size 15 to 20)
#    0.750    1.500    2.500    0.750    0.000    2.000 
#    0.000    7.500    0.000    0.000    0.000    0.000 
#    0.000    0.000    0.000    0.000    0.000    0.000 
#
# Total GULP energy -89487.833465 kJ/mol
# GULP energy per Si atom -5592.989592 kJ/mol
# Density = 2.559134 g / cm^3
# Si number density = 25.649724 Si / 1000 Ang^3
#
#
#
# Elastic Constant Matrix: (Units=GPa)
#
#
# Indices 1 2 3 4 5 6 
#
# 1 94.9931 8.0057 12.4943 -10.6416 5.2325 7.4539
# 2 8.0057 78.9346 35.5345 -27.7635 -2.3660 0.9210
# 3 12.4943 35.5345 107.7696 -30.7628 -6.9254 -1.6770
# 4 -10.6416 -27.7635 -30.7628 43.9140 7.9834 -5.6206
# 5 5.2325 -2.3660 -6.9254 7.9834 45.5075 -11.6409
# 6 7.4539 0.9210 -1.6770 -5.6206 -11.6409 32.1847
#
#
#
# Elastic Compliance Matrix: (Units=1/GPa)
#
#
# Indices 1 2 3 4 5 6 
#
# 1 0.011289 -0.000021 -0.000908 0.002152 -0.002644 -0.003242
# 2 -0.000021 0.017194 -0.003188 0.008885 -0.001011 0.000532
# 3 -0.000908 -0.003188 0.012435 0.006562 0.001340 0.002580
# 4 0.002152 0.008885 0.006562 0.034744 -0.003785 0.004288
# 5 -0.002644 -0.001011 0.001340 -0.003785 0.025462 0.009260
# 6 -0.003242 0.000532 0.002580 0.004288 0.009260 0.036039
#
#
# Mechanical properties :
#
#
# Convention : Reuss Voigt Hill
#
# Bulk Modulus (GPa) = 30.59407 43.75180 37.17293
# Shear Modulus (GPa) = 31.99151 39.36543 35.67847
#
# Velocity S-wave (km/s) = 3.53547 3.92181 3.73364
# Velocity P-wave (km/s) = 5.34973 6.13204 5.75420
#
# Compressibility (1/GPa) = 0.03268608
#
# Stress axis : x y z
#
# Youngs Moduli (GPa) = 88.57875 58.15901 80.41961
#
# Poissons Ratio (x) = 0.00120 0.07302
# Poissons Ratio (y) = 0.00182 0.25634
# Poissons Ratio (z) = 0.08043 0.18539
#
# Static dielectric constant tensor:
#      x y z
#    x 2.182630 0.015880 -0.089720 
#    y 0.015880 2.000060 0.031080 
#    z -0.089720 0.031080 2.099290 
# 
# From -- ./inp_files/399547.got.cif
#   From: 2010.05.17/outbox.cif.g08.bks.cpg/sg2_200_cif.got.tgz:399547.got - 2010.06.03 11:33:40.
