data_PCOD9053671
_publ_section_title
;
Structure prediction by ZEFSAII (Michael W. Deem and Ramdas Pophale) SiO2 
 PCOD9053671
Probable space group: P -1
;
_chemical_formula_sum "Si O2"
_cell_formula_units_Z 14
_cell_length_a 22.754731
_cell_length_b 8.679111
_cell_length_c 9.715920
_cell_angle_alpha 59.907034
_cell_angle_beta 27.883225
_cell_angle_gamma 49.742063
_cell_volume 671.596970
_symmetry_space_group_name_H-M "P -1"
_symmetry_group_IT_number 2
_symmetry_cell_setting 'triclinic'
loop_
_space_group_symop_operation_xyz
x,y,z
-x,-y,-z
loop_
_atom_site_type_symbol
_atom_site_label
_atom_site_fract_x
_atom_site_fract_y
_atom_site_fract_z
Si Si1 0.532698 0.131877 0.072498
Si Si2 0.057920 0.799718 0.373486
Si Si3 0.245698 0.130092 0.030284
Si Si4 0.127150 0.877718 0.893934
Si Si5 0.642345 0.280821 0.186525
Si Si6 0.361040 0.416995 0.540773
Si Si7 0.604837 0.140003 0.613088
O O1 0.412947 0.321120 0.325264
O O2 0.472074 0.980875 0.227962
O O3 0.556354 0.204865 0.842330
O O4 0.674993 0.998948 0.936007
O O5 0.930583 0.742407 0.662202
O O6 0.066813 0.859203 0.172618
O O7 0.230596 0.659966 0.115319
O O8 0.000000 0.000000 0.500000
O O9 0.313459 0.271855 0.786218
O O10 0.288578 0.956096 0.902188
O O11 0.234022 0.650239 0.714383
O O12 0.221116 0.989217 0.672296
O O13 0.000000 0.000000 0.000000
O O14 0.505788 0.392292 0.320978
O O15 0.593763 0.284056 0.442822
#
# Coordination Sequence:
#
# PCOD9053671 Si02
#       7
#     2   2   2   2   2   2   2
#     4  10  19  35  62  92 117 151 191 240 289 349
#     4   9  20  36  63  85 119 154 188 234 298 342
#     4  10  17  35  61  90 119 153 187 236 290 355
#     4  11  25  42  57  80 119 162 197 241 295 346
#     4   9  17  36  60  93 116 150 190 238 288 349
#     4  11  21  37  63  86 118 153 198 242 286 341
#     4  10  19  35  61  86 123 148 190 236 294 344
#
# _framework density 20.845835999999998
#
# number of rings (size 3 to 8) (size 9 to 14) (size 15 to 20)
#    0.000    2.000    2.857    1.714    0.000    3.429 
#    0.000    2.143    3.143    0.000    0.000    0.000 
#    0.000    0.000    0.000    0.000    0.000    0.000 
#
# Total GULP energy -78028.448625 kJ/mol
# GULP energy per Si atom -5573.460616 kJ/mol
# Density = 2.079839 g / cm^3
# Si number density = 20.845836 Si / 1000 Ang^3
#
#
#
# Elastic Constant Matrix: (Units=GPa)
#
#
# Indices 1 2 3 4 5 6 
#
# 1 136.4743 33.5043 61.3835 10.5967 5.0323 -3.6610
# 2 33.5043 58.2140 38.9062 13.3227 -5.4454 -6.3746
# 3 61.3835 38.9062 120.5371 1.8905 1.7418 -5.1475
# 4 10.5967 13.3227 1.8905 20.2822 8.3038 -3.4243
# 5 5.0323 -5.4454 1.7418 8.3038 49.9672 7.6690
# 6 -3.6610 -6.3746 -5.1475 -3.4243 7.6690 21.7386
#
#
#
# Elastic Compliance Matrix: (Units=1/GPa)
#
#
# Indices 1 2 3 4 5 6 
#
# 1 0.010109 -0.002227 -0.004384 -0.003251 -0.000519 -0.000318
# 2 -0.002227 0.029085 -0.008011 -0.019890 0.006871 0.000700
# 3 -0.004384 -0.008011 0.013120 0.007708 -0.002494 0.002113
# 4 -0.003251 -0.019890 0.007708 0.071988 -0.015979 0.012422
# 5 -0.000519 0.006871 -0.002494 -0.015979 0.025097 -0.010034
# 6 -0.000318 0.000700 0.002113 0.012422 -0.010034 0.052150
#
#
# Mechanical properties :
#
#
# Convention : Reuss Voigt Hill
#
# Bulk Modulus (GPa) = 43.34823 64.75705 54.05264
# Shear Modulus (GPa) = 20.96576 30.49303 25.72939
#
# Velocity S-wave (km/s) = 3.17480 3.82879 3.51703
# Velocity P-wave (km/s) = 5.85482 7.11887 6.51757
#
# Compressibility (1/GPa) = 0.02306899
#
# Stress axis : x y z
#
# Youngs Moduli (GPa) = 98.91968 34.38165 76.21912
#
# Poissons Ratio (x) = 0.07658 0.33416
# Poissons Ratio (y) = 0.22033 0.61060
# Poissons Ratio (z) = 0.43369 0.27544
#
# Static dielectric constant tensor:
#      x y z
#    x 1.763880 0.012930 -0.031210 
#    y 0.012930 1.759360 0.011200 
#    z -0.031210 0.011200 1.798510 
# 
# From -- ./inp_files/343370.got.cif
#   From: 2010.05.17/outbox.cif.g08.bks.cpg/sg2_172_cif.got.tgz:343370.got - 2010.06.03 11:33:40.
