data_PCOD9053657
_publ_section_title
;
Structure prediction by ZEFSAII (Michael W. Deem and Ramdas Pophale) SiO2 
 PCOD9053657
Probable space group: P -1
;
_chemical_formula_sum "Si O2"
_cell_formula_units_Z 16
_cell_length_a 12.138790
_cell_length_b 10.191239
_cell_length_c 10.085157
_cell_angle_alpha 44.637864
_cell_angle_beta 53.596236
_cell_angle_gamma 46.059190
_cell_volume 618.831377
_symmetry_space_group_name_H-M "P -1"
_symmetry_group_IT_number 2
_symmetry_cell_setting 'triclinic'
loop_
_space_group_symop_operation_xyz
x,y,z
-x,-y,-z
loop_
_atom_site_type_symbol
_atom_site_label
_atom_site_fract_x
_atom_site_fract_y
_atom_site_fract_z
Si Si1 0.435392 0.923580 0.956427
Si Si2 0.923445 0.409425 0.891060
Si Si3 0.116195 0.089330 0.760961
Si Si4 0.110327 0.629822 0.591401
Si Si5 0.436114 0.733258 0.820016
Si Si6 0.424301 0.357284 0.712756
Si Si7 0.085258 0.020583 0.196781
Si Si8 0.750481 0.614951 0.608765
O O1 0.435435 0.882226 0.831916
O O2 0.482618 0.109534 0.806373
O O3 0.546090 0.696563 0.112967
O O4 0.259373 0.991831 0.084377
O O5 0.066269 0.224919 0.834167
O O6 0.963599 0.597979 0.756822
O O7 0.791751 0.499607 0.805982
O O8 0.951727 0.267403 0.104810
O O9 0.186223 0.217785 0.539296
O O10 0.967358 0.081430 0.814453
O O11 0.256762 0.850246 0.824062
O O12 0.249744 0.484984 0.693437
O O13 0.085572 0.866843 0.423697
O O14 0.166129 0.525931 0.478214
O O15 0.567422 0.715379 0.638067
O O16 0.500000 0.500000 0.000000
O O17 0.500000 0.500000 0.500000
#
# Coordination Sequence:
#
# PCOD9053657 Si02
#       8
#     2   2   2   2   2   2   2   2
#     4  11  24  41  61  98 124 166 217 265 312 370
#     4  11  20  35  59  92 129 161 210 261 306 373
#     4  11  21  35  58  91 124 173 204 250 314 377
#     4  11  20  36  59  95 120 159 212 259 310 362
#     4  12  25  40  59  96 143 171 197 250 329 400
#     4  11  23  40  67  90 123 164 220 279 307 348
#     4  12  19  33  61  86 126 152 206 263 301 369
#     4  11  22  38  59  94 136 166 197 254 326 393
#
# _framework density 25.855187000000001
#
# number of rings (size 3 to 8) (size 9 to 14) (size 15 to 20)
#    0.000    0.750    6.250    3.750    0.000    0.000 
#    0.000    0.000    0.000    0.750    0.000    7.000 
#    0.000    0.000    0.000    0.000    0.000    0.000 
#
# Total GULP energy -89284.500710 kJ/mol
# GULP energy per Si atom -5580.281294 kJ/mol
# Density = 2.579634 g / cm^3
# Si number density = 25.855187 Si / 1000 Ang^3
#
#
#
# Elastic Constant Matrix: (Units=GPa)
#
#
# Indices 1 2 3 4 5 6 
#
# 1 101.3504 6.8908 26.8964 -8.8497 -1.9912 -19.6861
# 2 6.8908 51.5247 27.7990 -12.9731 -10.1071 -0.3598
# 3 26.8964 27.7990 161.0686 -45.9064 -16.8151 -4.5770
# 4 -8.8497 -12.9731 -45.9064 19.6353 -7.1503 9.4953
# 5 -1.9912 -10.1071 -16.8151 -7.1503 55.5657 -13.4475
# 6 -19.6861 -0.3598 -4.5770 9.4953 -13.4475 27.2286
#
#
#
# Elastic Compliance Matrix: (Units=1/GPa)
#
#
# Indices 1 2 3 4 5 6 
#
# 1 0.013077 -0.003407 -0.007628 -0.022048 -0.001668 0.014992
# 2 -0.003407 0.032840 0.018494 0.078232 0.017234 -0.017691
# 3 -0.007628 0.018494 0.050912 0.156315 0.029775 -0.036518
# 4 -0.022048 0.078232 0.156315 0.559568 0.100259 -0.134252
# 5 -0.001668 0.017234 0.029775 0.100259 0.040315 -0.011026
# 6 0.014992 -0.017691 -0.036518 -0.134252 -0.011026 0.082564
#
#
# Mechanical properties :
#
#
# Convention : Reuss Voigt Hill
#
# Bulk Modulus (GPa) = 8.94873 48.56846 28.75859
# Shear Modulus (GPa) = 6.23747 37.30976 21.77361
#
# Velocity S-wave (km/s) = 1.55490 3.80284 2.90511
# Velocity P-wave (km/s) = 2.58693 6.17315 4.73286
#
# Compressibility (1/GPa) = 0.11174774
#
# Stress axis : x y z
#
# Youngs Moduli (GPa) = 76.47199 30.45058 19.64158
#
# Poissons Ratio (x) = 0.10376 0.14982
# Poissons Ratio (y) = 0.26058 -0.36326
# Poissons Ratio (z) = 0.58331 -0.56317
#
# Static dielectric constant tensor:
#      x y z
#    x 2.116830 -0.052650 0.069000 
#    y -0.052650 2.047670 -0.037850 
#    z 0.069000 -0.037850 2.206250 
# 
# From -- ./inp_files/427355.got.cif
#   From: 2010.05.17/outbox.cif.g08.bks.cpg/sg2_214_cif.got.tgz:427355.got - 2010.06.03 11:33:40.
