data_PCOD9053162
_publ_section_title
;
Structure prediction by ZEFSAII (Michael W. Deem and Ramdas Pophale) SiO2 
 PCOD9053162
Probable space group: P -1
;
_chemical_formula_sum "Si O2"
_cell_formula_units_Z 16
_cell_length_a 10.182716
_cell_length_b 9.259125
_cell_length_c 8.983390
_cell_angle_alpha 49.680316
_cell_angle_beta 106.844054
_cell_angle_gamma 105.385075
_cell_volume 614.548138
_symmetry_space_group_name_H-M "P -1"
_symmetry_group_IT_number 2
_symmetry_cell_setting 'triclinic'
loop_
_space_group_symop_operation_xyz
x,y,z
-x,-y,-z
loop_
_atom_site_type_symbol
_atom_site_label
_atom_site_fract_x
_atom_site_fract_y
_atom_site_fract_z
Si Si1 0.896239 0.269522 0.029907
Si Si2 0.772224 0.968429 0.660571
Si Si3 0.950892 0.775050 0.400587
Si Si4 0.270462 0.371266 0.343251
Si Si5 0.118539 0.422990 0.791943
Si Si6 0.297074 0.723066 0.782386
Si Si7 0.296653 0.009583 0.031440
Si Si8 0.530426 0.297933 0.844894
O O1 0.816245 0.449323 0.832543
O O2 0.047028 0.333487 0.977047
O O3 0.831888 0.084367 0.043976
O O4 0.847502 0.247221 0.197912
O O5 0.730648 0.768534 0.702143
O O6 0.737906 0.974955 0.818228
O O7 0.935716 0.045463 0.650771
O O8 0.686074 0.113539 0.443118
O O9 0.038767 0.598157 0.590374
O O10 0.815574 0.749493 0.477255
O O11 0.908364 0.730626 0.244836
O O12 0.422268 0.486051 0.334150
O O13 0.268138 0.522850 0.820700
O O14 0.406275 0.726211 0.950231
O O15 0.374674 0.206442 0.866849
O O16 0.401140 0.847683 0.145677
#
# Coordination Sequence:
#
# PCOD9053162 Si02
#       8
#     2   2   2   2   2   2   2   2
#     4   9  17  35  53  75 101 134 170 206 245 299
#     4  11  19  31  53  80 102 132 164 211 256 298
#     4   9  17  28  48  80 104 129 167 206 248 301
#     4   9  19  31  52  73 108 131 166 203 255 301
#     4   9  15  27  52  78  97 132 171 206 242 297
#     4   9  19  28  52  77 106 124 165 214 254 285
#     4   9  18  34  59  72  96 135 182 202 235 306
#     4   9  20  38  53  74  98 138 173 209 243 292
#
# _framework density 26.035388999999999
#
# number of rings (size 3 to 8) (size 9 to 14) (size 15 to 20)
#    0.000    3.000    1.250    0.750    5.250    2.000 
#    0.000    0.000   11.000   15.750    0.000    0.000 
#    0.000    0.000    0.000    0.000    0.000    0.000 
#
# Total GULP energy -89527.555562 kJ/mol
# GULP energy per Si atom -5595.472223 kJ/mol
# Density = 2.597613 g / cm^3
# Si number density = 26.035389 Si / 1000 Ang^3
#
#
#
# Elastic Constant Matrix: (Units=GPa)
#
#
# Indices 1 2 3 4 5 6 
#
# 1 48.7812 36.6674 24.7285 -4.1328 -2.6658 21.9647
# 2 36.6674 213.5301 38.2076 -18.7435 -7.5334 7.7465
# 3 24.7285 38.2076 75.6764 -9.5332 -11.9119 10.8373
# 4 -4.1328 -18.7435 -9.5332 58.2378 10.0778 -7.4912
# 5 -2.6658 -7.5334 -11.9119 10.0778 34.9635 -4.3808
# 6 21.9647 7.7465 10.8373 -7.4912 -4.3808 36.6739
#
#
#
# Elastic Compliance Matrix: (Units=1/GPa)
#
#
# Indices 1 2 3 4 5 6 
#
# 1 0.035850 -0.004411 -0.007419 -0.002107 -0.002528 -0.019080
# 2 -0.004411 0.005784 -0.001570 0.001541 0.000209 0.002224
# 3 -0.007419 -0.001570 0.017240 0.001030 0.004730 0.000456
# 4 -0.002107 0.001541 0.001030 0.018967 -0.004446 0.003975
# 5 -0.002528 0.000209 0.004730 -0.004446 0.031717 0.002952
# 6 -0.019080 0.002224 0.000456 0.003975 0.002952 0.039255
#
#
# Mechanical properties :
#
#
# Convention : Reuss Voigt Hill
#
# Bulk Modulus (GPa) = 31.17710 59.68831 45.43271
# Shear Modulus (GPa) = 26.83807 41.86733 34.35270
#
# Velocity S-wave (km/s) = 3.21414 4.01445 3.63638
# Velocity P-wave (km/s) = 5.07692 6.66809 5.92615
#
# Compressibility (1/GPa) = 0.03207482
#
# Stress axis : x y z
#
# Youngs Moduli (GPa) = 27.89389 172.90516 58.00434
#
# Poissons Ratio (x) = 0.76263 0.43032
# Poissons Ratio (y) = 0.12303 0.09107
# Poissons Ratio (z) = 0.20694 0.27148
#
# Static dielectric constant tensor:
#      x y z
#    x 2.142530 -0.006450 0.063410 
#    y -0.006450 1.992330 -0.051330 
#    z 0.063410 -0.051330 2.049010 
# 
# From -- ./inp_files/297662.got.cif
#   From: 2010.05.17/outbox.cif.g08.bks.cpg/sg2_149_cif.got.tgz:297662.got - 2010.06.03 11:33:40.
