data_PCOD9053151
_publ_section_title
;
Structure prediction by ZEFSAII (Michael W. Deem and Ramdas Pophale) SiO2 
 PCOD9053151
Probable space group: P -1
;
_chemical_formula_sum "Si O2"
_cell_formula_units_Z 16
_cell_length_a 10.454533
_cell_length_b 8.466967
_cell_length_c 15.515893
_cell_angle_alpha 46.324023
_cell_angle_beta 50.105108
_cell_angle_gamma 82.241502
_cell_volume 634.007894
_symmetry_space_group_name_H-M "P -1"
_symmetry_group_IT_number 2
_symmetry_cell_setting 'triclinic'
loop_
_space_group_symop_operation_xyz
x,y,z
-x,-y,-z
loop_
_atom_site_type_symbol
_atom_site_label
_atom_site_fract_x
_atom_site_fract_y
_atom_site_fract_z
Si Si1 0.823540 0.534418 0.534032
Si Si2 0.951979 0.264557 0.230689
Si Si3 0.486404 0.241079 0.065183
Si Si4 0.578728 0.687489 0.130630
Si Si5 0.068870 0.983777 0.383351
Si Si6 0.755727 0.151409 0.094971
Si Si7 0.462715 0.093038 0.390792
Si Si8 0.948265 0.958361 0.184329
O O1 0.587907 0.330953 0.726734
O O2 0.000000 0.500000 0.500000
O O3 0.879830 0.751299 0.502388
O O4 0.868494 0.677733 0.368525
O O5 0.903501 0.113581 0.218107
O O6 0.774220 0.117432 0.431774
O O7 0.121056 0.230956 0.209243
O O8 0.042497 0.568200 0.072704
O O9 0.667523 0.213102 0.026160
O O10 0.273442 0.996484 0.286912
O O11 0.500000 0.500000 0.000000
O O12 0.464846 0.242068 0.971164
O O13 0.536970 0.396436 0.252308
O O14 0.810542 0.885814 0.982837
O O15 0.000000 0.000000 0.500000
O O16 0.582578 0.075702 0.267551
O O17 0.827839 0.954819 0.153846
O O18 0.500000 0.000000 0.500000
#
# Coordination Sequence:
#
# PCOD9053151 Si02
#       8
#     2   2   2   2   2   2   2   2
#     4  11  25  44  68  92 120 165 220 268 309 370
#     4  11  19  30  52  83 123 163 199 243 311 365
#     4  12  20  34  56  93 129 169 200 246 318 381
#     4  12  21  38  61  85 124 160 213 259 311 375
#     4  11  20  37  60  92 129 159 203 258 315 373
#     4  12  22  33  54  87 136 160 203 254 315 375
#     4  12  19  29  52  83 121 170 197 245 314 369
#     4  11  21  39  57  88 120 165 209 259 307 375
#
# _framework density 25.236279
#
# number of rings (size 3 to 8) (size 9 to 14) (size 15 to 20)
#    0.000    0.500   10.000    2.625    0.000    0.500 
#    0.000    0.000    0.000    1.500    0.000    0.000 
#    0.000    0.000    0.000    0.000    0.000    0.000 
#
# Total GULP energy -89373.526124 kJ/mol
# GULP energy per Si atom -5585.845383 kJ/mol
# Density = 2.517884 g / cm^3
# Si number density = 25.236279 Si / 1000 Ang^3
#
#
#
# Elastic Constant Matrix: (Units=GPa)
#
#
# Indices 1 2 3 4 5 6 
#
# 1 150.5212 27.6641 35.7552 2.1508 21.2562 -42.8583
# 2 27.6641 55.1052 32.1558 14.8505 4.7296 -26.3496
# 3 35.7552 32.1558 133.6820 28.2262 -8.0698 -19.3608
# 4 2.1508 14.8505 28.2262 28.9363 -14.7800 -6.9327
# 5 21.2562 4.7296 -8.0698 -14.7800 53.3897 -3.3178
# 6 -42.8583 -26.3496 -19.3608 -6.9327 -3.3178 40.5958
#
#
#
# Elastic Compliance Matrix: (Units=1/GPa)
#
#
# Indices 1 2 3 4 5 6 
#
# 1 0.010448 0.000902 -0.001993 0.001480 -0.003470 0.010634
# 2 0.000902 0.031618 -0.003127 -0.012074 -0.005891 0.017440
# 3 -0.001993 -0.003127 0.010491 -0.008472 0.000276 -0.000555
# 4 0.001480 -0.012074 -0.008472 0.056673 0.014925 0.000583
# 5 -0.003470 -0.005891 0.000276 0.014925 0.024634 -0.002794
# 6 0.010634 0.017440 -0.000555 0.000583 -0.002794 0.046786
#
#
# Mechanical properties :
#
#
# Convention : Reuss Voigt Hill
#
# Bulk Modulus (GPa) = 22.66550 58.93984 40.80267
# Shear Modulus (GPa) = 24.53470 40.83326 32.68398
#
# Velocity S-wave (km/s) = 3.12139 4.02685 3.60268
# Velocity P-wave (km/s) = 4.68952 6.71018 5.78870
#
# Compressibility (1/GPa) = 0.04411992
#
# Stress axis : x y z
#
# Youngs Moduli (GPa) = 95.71023 31.62787 95.32029
#
# Poissons Ratio (x) = -0.02853 0.19001
# Poissons Ratio (y) = -0.08632 0.29807
# Poissons Ratio (z) = 0.19078 0.09890
#
# Static dielectric constant tensor:
#      x y z
#    x 2.292430 0.003550 -0.106740 
#    y 0.003550 2.265870 -0.109770 
#    z -0.106740 -0.109770 2.042010 
# 
# From -- ./inp_files/433097.got.cif
#   From: 2010.05.17/outbox.cif.g08.bks.cpg/sg2_217_cif.got.tgz:433097.got - 2010.06.03 11:33:40.
