data_PCOD9053113
_publ_section_title
;
Structure prediction by ZEFSAII (Michael W. Deem and Ramdas Pophale) SiO2 
 PCOD9053113
Probable space group: P -1
;
_chemical_formula_sum "Si O2"
_cell_formula_units_Z 16
_cell_length_a 8.493406
_cell_length_b 11.908323
_cell_length_c 16.136432
_cell_angle_alpha 66.374958
_cell_angle_beta 41.315707
_cell_angle_gamma 41.853369
_cell_volume 670.665798
_symmetry_space_group_name_H-M "P -1"
_symmetry_group_IT_number 2
_symmetry_cell_setting 'triclinic'
loop_
_space_group_symop_operation_xyz
x,y,z
-x,-y,-z
loop_
_atom_site_type_symbol
_atom_site_label
_atom_site_fract_x
_atom_site_fract_y
_atom_site_fract_z
Si Si1 0.749327 0.342874 0.704834
Si Si2 0.809461 0.465209 0.426789
Si Si3 0.179879 0.445413 0.779066
Si Si4 0.467914 0.233602 0.954044
Si Si5 0.597504 0.298401 0.324284
Si Si6 0.373570 0.047521 0.142672
Si Si7 0.396502 0.117883 0.412404
Si Si8 0.353399 0.943019 0.353283
O O1 0.514751 0.388219 0.704629
O O2 0.671979 0.275602 0.827654
O O3 0.623398 0.532332 0.702157
O O4 0.153769 0.178814 0.568947
O O5 0.500000 0.500000 0.500000
O O6 0.963160 0.459539 0.282240
O O7 0.610136 0.622321 0.529046
O O8 0.104420 0.285777 0.415090
O O9 0.346341 0.254796 0.744319
O O10 0.885670 0.572737 0.927012
O O11 0.456276 0.139039 0.910547
O O12 0.578995 0.094218 0.023533
O O13 0.639568 0.142125 0.326742
O O14 0.985298 0.206084 0.209119
O O15 0.289010 0.058294 0.268305
O O16 0.500867 0.958220 0.369258
O O17 0.000000 0.000000 0.500000
#
# Coordination Sequence:
#
# PCOD9053113 Si02
#       8
#     2   2   2   2   2   2   2   2
#     4  11  20  38  63  94 124 163 204 260 309 372
#     4  11  18  37  64  94 122 156 210 258 309 369
#     4  12  21  35  65  93 121 157 207 270 303 357
#     4  11  23  38  62  96 124 162 219 265 298 361
#     4  11  23  39  65  95 131 165 198 262 334 375
#     4  11  23  38  66  96 124 163 214 264 305 372
#     4  11  23  40  63  96 133 162 200 262 331 379
#     4  12  22  39  64  95 128 161 211 267 312 363
#
# _framework density 23.85689
#
# number of rings (size 3 to 8) (size 9 to 14) (size 15 to 20)
#    0.000    0.750    6.250    4.125    0.000    0.000 
#    0.000    6.875    0.000   21.000    0.000    0.000 
#    0.000    0.000    0.000    0.000    0.000    0.000 
#
# Total GULP energy -89336.732120 kJ/mol
# GULP energy per Si atom -5583.545758 kJ/mol
# Density = 2.380259 g / cm^3
# Si number density = 23.856890 Si / 1000 Ang^3
#
#
#
# Elastic Constant Matrix: (Units=GPa)
#
#
# Indices 1 2 3 4 5 6 
#
# 1 63.1947 18.2094 31.9130 -5.0876 11.1449 12.4223
# 2 18.2094 112.3873 57.3198 8.9650 4.3709 32.8764
# 3 31.9130 57.3198 161.9542 -21.2286 15.5332 3.6847
# 4 -5.0876 8.9650 -21.2286 55.8559 3.8367 2.8666
# 5 11.1449 4.3709 15.5332 3.8367 28.2640 -1.4291
# 6 12.4223 32.8764 3.6847 2.8666 -1.4291 36.2189
#
#
#
# Elastic Compliance Matrix: (Units=1/GPa)
#
#
# Indices 1 2 3 4 5 6 
#
# 1 0.020036 0.000792 -0.003226 0.001332 -0.006817 -0.007637
# 2 0.000792 0.016429 -0.006245 -0.004240 0.000437 -0.014196
# 3 -0.003226 -0.006245 0.009812 0.004405 -0.003485 0.005291
# 4 0.001332 -0.004240 0.004405 0.020669 -0.005040 0.001109
# 5 -0.006817 0.000437 -0.003485 -0.005040 0.040818 0.004305
# 6 -0.007637 -0.014196 0.005291 0.001109 0.004305 0.042659
#
#
# Mechanical properties :
#
#
# Convention : Reuss Voigt Hill
#
# Bulk Modulus (GPa) = 34.58116 61.38008 47.98062
# Shear Modulus (GPa) = 28.18170 39.40736 33.79453
#
# Velocity S-wave (km/s) = 3.44071 4.06867 3.76779
# Velocity P-wave (km/s) = 5.50557 6.91783 6.25171
#
# Compressibility (1/GPa) = 0.02891748
#
# Stress axis : x y z
#
# Youngs Moduli (GPa) = 49.91087 60.86953 101.91590
#
# Poissons Ratio (x) = -0.04821 0.32881
# Poissons Ratio (y) = -0.03953 0.63649
# Poissons Ratio (z) = 0.16103 0.38015
#
# Static dielectric constant tensor:
#      x y z
#    x 1.892730 0.015960 0.018690 
#    y 0.015960 2.183240 -0.071050 
#    z 0.018690 -0.071050 1.948490 
# 
# From -- ./inp_files/392792.got.cif
#   From: 2010.05.17/outbox.cif.g08.bks.cpg/sg2_197_cif.got.tgz:392792.got - 2010.06.03 11:33:40.
