data_PCOD9053554
_publ_section_title
;
Structure prediction by ZEFSAII (Michael W. Deem and Ramdas Pophale) SiO2 
 PCOD9053554
Probable space group: P -1
;
_chemical_formula_sum "Si O2"
_cell_formula_units_Z 16
_cell_length_a 14.139700
_cell_length_b 6.978476
_cell_length_c 10.776453
_cell_angle_alpha 71.108128
_cell_angle_beta 136.432499
_cell_angle_gamma 119.573370
_cell_volume 636.380450
_symmetry_space_group_name_H-M "P -1"
_symmetry_group_IT_number 2
_symmetry_cell_setting 'triclinic'
loop_
_space_group_symop_operation_xyz
x,y,z
-x,-y,-z
loop_
_atom_site_type_symbol
_atom_site_label
_atom_site_fract_x
_atom_site_fract_y
_atom_site_fract_z
Si Si1 0.622411 0.051344 0.295547
Si Si2 0.877589 0.102067 0.704454
Si Si3 0.915819 0.764977 0.338972
Si Si4 0.390843 0.276706 0.006313
Si Si5 0.149167 0.722817 0.736970
Si Si6 0.584181 0.272310 0.661029
Si Si7 0.649168 0.838547 0.736970
Si Si8 0.109157 0.501331 0.993687
O O1 0.750000 0.163559 0.500001
O O2 0.494304 0.141247 0.139029
O O3 0.710528 0.103541 0.239999
O O4 0.532683 0.810011 0.318365
O O5 0.967316 0.063010 0.681633
O O6 0.005697 0.291665 0.860973
O O7 0.789472 0.922482 0.760002
O O8 0.869852 0.516213 0.290399
O O9 0.003624 0.761786 0.547699
O O10 0.765589 0.802879 0.197130
O O11 0.343303 0.281984 0.103998
O O12 0.500000 0.500000 0.000000
O O13 0.156696 0.699373 0.896001
O O14 0.496375 0.302235 0.452303
O O15 0.630149 0.066908 0.709601
O O16 0.734411 0.468830 0.802870
O O17 0.000000 0.500000 0.000000
#
# Coordination Sequence:
#
# PCOD9053554 Si02
#       8
#     2   2   2   2   2   2   2   2
#     4   9  18  35  56  77 103 134 175 219 254 296
#     4   9  18  35  56  77 103 134 175 219 254 296
#     4   9  18  32  51  80 102 134 173 214 260 297
#     4  11  20  28  52  83 103 134 176 209 259 307
#     4   9  18  33  51  74 108 132 171 221 248 301
#     4   9  18  32  51  80 102 134 173 214 260 297
#     4   9  18  33  51  74 108 132 171 221 248 301
#     4  11  20  28  52  83 103 134 176 209 259 307
#
# _framework density 25.142192000000001
#
# number of rings (size 3 to 8) (size 9 to 14) (size 15 to 20)
#    0.000    2.500    2.500    1.500    0.000    1.000 
#    0.000    0.000    0.000    6.000    0.000    0.000 
#    0.000    0.000    0.000    0.000    0.000    0.000 
#
# Total GULP energy -89475.852438 kJ/mol
# GULP energy per Si atom -5592.240777 kJ/mol
# Density = 2.508497 g / cm^3
# Si number density = 25.142192 Si / 1000 Ang^3
#
#
#
# Elastic Constant Matrix: (Units=GPa)
#
#
# Indices 1 2 3 4 5 6 
#
# 1 119.6557 59.3844 67.2950 -2.1817 -3.0716 35.2832
# 2 59.3844 100.2725 63.6311 -1.3292 -2.9726 27.9480
# 3 67.2950 63.6311 196.2134 20.1256 21.7153 14.7585
# 4 -2.1817 -1.3292 20.1256 41.5685 9.4197 0.3195
# 5 -3.0716 -2.9726 21.7153 9.4197 43.4959 0.3197
# 6 35.2832 27.9480 14.7585 0.3195 0.3197 48.8953
#
#
#
# Elastic Compliance Matrix: (Units=1/GPa)
#
#
# Indices 1 2 3 4 5 6 
#
# 1 0.014689 -0.004426 -0.003503 0.001898 0.002124 -0.007038
# 2 -0.004426 0.016616 -0.003928 0.001684 0.002457 -0.005145
# 3 -0.003503 -0.003928 0.008173 -0.003406 -0.003876 0.002353
# 4 0.001898 0.001684 -0.003406 0.026738 -0.003830 -0.001453
# 5 0.002124 0.002457 -0.003876 -0.003830 0.026087 -0.001913
# 6 -0.007038 -0.005145 0.002353 -0.001453 -0.001913 0.027783
#
#
# Mechanical properties :
#
#
# Convention : Reuss Voigt Hill
#
# Bulk Modulus (GPa) = 63.43821 88.52919 75.98370
# Shear Modulus (GPa) = 33.54468 41.84734 37.69601
#
# Velocity S-wave (km/s) = 3.65663 4.08416 3.87630
# Velocity P-wave (km/s) = 6.56616 7.58475 7.09376
#
# Compressibility (1/GPa) = 0.01576337
#
# Stress axis : x y z
#
# Youngs Moduli (GPa) = 68.08021 60.18257 122.35547
#
# Poissons Ratio (x) = 0.26640 0.42856
# Poissons Ratio (y) = 0.30136 0.48062
# Poissons Ratio (z) = 0.23846 0.23640
#
# Static dielectric constant tensor:
#      x y z
#    x 2.044600 -0.076500 -0.023680 
#    y -0.076500 2.066900 -0.023300 
#    z -0.023680 -0.023300 1.973120 
# 
# From -- ./inp_files/463686.got.cif
#   From: 2010.05.17/outbox.cif.g08.bks.cpg/sg2_232_cif.got.tgz:463686.got - 2010.06.03 11:33:40.
