data_PCOD9053266
_publ_section_title
;
Structure prediction by ZEFSAII (Michael W. Deem and Ramdas Pophale) SiO2 
 PCOD9053266
Probable space group: P -1
;
_chemical_formula_sum "Si O2"
_cell_formula_units_Z 16
_cell_length_a 14.910253
_cell_length_b 19.093914
_cell_length_c 13.817330
_cell_angle_alpha 18.368910
_cell_angle_beta 45.317020
_cell_angle_gamma 34.878885
_cell_volume 643.890632
_symmetry_space_group_name_H-M "P -1"
_symmetry_group_IT_number 2
_symmetry_cell_setting 'triclinic'
loop_
_space_group_symop_operation_xyz
x,y,z
-x,-y,-z
loop_
_atom_site_type_symbol
_atom_site_label
_atom_site_fract_x
_atom_site_fract_y
_atom_site_fract_z
Si Si1 0.735818 0.685853 0.602352
Si Si2 0.174125 0.814440 0.297905
Si Si3 0.929501 0.854780 0.699761
Si Si4 0.150370 0.592625 0.323819
Si Si5 0.858559 0.816294 0.002333
Si Si6 0.643802 0.306923 0.854957
Si Si7 0.515898 0.355218 0.076067
Si Si8 0.884455 0.815707 0.573563
O O1 0.744104 0.560843 0.654119
O O2 0.614739 0.690862 0.757242
O O3 0.931815 0.444184 0.808724
O O4 0.665735 0.017475 0.205758
O O5 0.049942 0.750546 0.490520
O O6 0.343156 0.598452 0.385738
O O7 0.206800 0.886030 0.282925
O O8 0.046461 0.148370 0.903407
O O9 0.848272 0.972145 0.500879
O O10 0.818069 0.878586 0.838718
O O11 0.000000 0.000000 0.500000
O O12 0.075173 0.493086 0.042001
O O13 0.192550 0.338324 0.695659
O O14 0.197321 0.755195 0.133351
O O15 0.500325 0.499482 0.795933
O O16 0.715565 0.036647 0.347087
O O17 0.500000 0.500000 0.000000
#
# Coordination Sequence:
#
# PCOD9053266 Si02
#       8
#     2   2   2   2   2   2   2   2
#     4  11  22  37  55  93 129 161 196 245 322 382
#     4  11  19  35  60  94 126 152 201 265 321 370
#     4  11  24  41  66  91 123 172 213 267 306 349
#     4  11  20  35  59  91 131 154 197 264 319 373
#     4  11  20  38  64  93 128 157 206 266 311 370
#     4  12  21  33  57  87 124 165 190 245 326 368
#     4  12  24  41  59  91 140 168 200 250 316 397
#     4  11  24  43  64  95 127 167 216 256 309 372
#
# _framework density 24.848939999999999
#
# number of rings (size 3 to 8) (size 9 to 14) (size 15 to 20)
#    0.000    0.750    6.250    3.750    0.000    0.000 
#    0.000    0.000    0.000    0.750    0.000    7.000 
#    0.000    0.000    0.000    0.000    0.000    0.000 
#
# Total GULP energy -89445.055478 kJ/mol
# GULP energy per Si atom -5590.315967 kJ/mol
# Density = 2.479238 g / cm^3
# Si number density = 24.848940 Si / 1000 Ang^3
#
#
#
# Elastic Constant Matrix: (Units=GPa)
#
#
# Indices 1 2 3 4 5 6 
#
# 1 67.9944 31.9816 21.0608 -4.0156 -10.9945 20.6603
# 2 31.9816 159.5033 19.1022 39.4201 -3.8573 19.4648
# 3 21.0608 19.1022 74.6030 6.1645 -5.5226 -6.9137
# 4 -4.0156 39.4201 6.1645 39.1254 7.6443 -7.7170
# 5 -10.9945 -3.8573 -5.5226 7.6443 36.2076 2.1037
# 6 20.6603 19.4648 -6.9137 -7.7170 2.1037 45.5077
#
#
#
# Elastic Compliance Matrix: (Units=1/GPa)
#
#
# Indices 1 2 3 4 5 6 
#
# 1 0.022007 -0.003414 -0.006120 0.003886 0.005090 -0.009037
# 2 -0.003414 0.011090 -0.001098 -0.013080 0.003071 -0.005720
# 3 -0.006120 -0.001098 0.016035 -0.001038 0.000370 0.005491
# 4 0.003886 -0.013080 -0.001038 0.043576 -0.010242 0.011535
# 5 0.005090 0.003071 0.000370 -0.010242 0.032104 -0.006789
# 6 -0.009037 -0.005720 0.005491 0.011535 -0.006789 0.031628
#
#
# Mechanical properties :
#
#
# Convention : Reuss Voigt Hill
#
# Bulk Modulus (GPa) = 35.88325 49.59889 42.74107
# Shear Modulus (GPa) = 26.73871 39.49855 33.11863
#
# Velocity S-wave (km/s) = 3.28388 3.99124 3.65471
# Velocity P-wave (km/s) = 5.37126 6.42211 5.92004
#
# Compressibility (1/GPa) = 0.02786816
#
# Stress axis : x y z
#
# Youngs Moduli (GPa) = 45.43992 90.16815 62.36255
#
# Poissons Ratio (x) = 0.30784 0.38168
# Poissons Ratio (y) = 0.15513 0.06847
# Poissons Ratio (z) = 0.27811 0.09900
#
# Static dielectric constant tensor:
#      x y z
#    x 1.964020 0.054960 0.029130 
#    y 0.054960 2.062030 0.008920 
#    z 0.029130 0.008920 2.008780 
# 
# From -- ./inp_files/539159.got.cif
#   From: 2010.05.17/outbox.cif.g08.bks.cpg/sg2_270_cif.got.tgz:539159.got - 2010.06.03 11:33:40.
