data_PCOD9053905
_publ_section_title
;
Structure prediction by ZEFSAII (Michael W. Deem and Ramdas Pophale) SiO2 
 PCOD9053905
Probable space group: P -1
;
_chemical_formula_sum "Si O2"
_cell_formula_units_Z 16
_cell_length_a 15.049017
_cell_length_b 14.961573
_cell_length_c 6.889815
_cell_angle_alpha 64.455258
_cell_angle_beta 122.770939
_cell_angle_gamma 141.855328
_cell_volume 805.609012
_symmetry_space_group_name_H-M "P -1"
_symmetry_group_IT_number 2
_symmetry_cell_setting 'triclinic'
loop_
_space_group_symop_operation_xyz
x,y,z
-x,-y,-z
loop_
_atom_site_type_symbol
_atom_site_label
_atom_site_fract_x
_atom_site_fract_y
_atom_site_fract_z
Si Si1 0.388291 0.348931 0.393580
Si Si2 0.656580 0.172835 0.574876
Si Si3 0.159500 0.131356 0.662734
Si Si4 0.669718 0.902797 0.910124
Si Si5 0.829091 0.144466 0.565303
Si Si6 0.658013 0.061247 0.050535
Si Si7 0.589152 0.361806 0.327223
Si Si8 0.820686 0.686709 0.158993
O O1 0.500000 0.500000 0.500000
O O2 0.281865 0.225423 0.545505
O O3 0.501485 0.347544 0.422526
O O4 0.275788 0.326966 0.120231
O O5 0.782005 0.219764 0.525584
O O6 0.629300 0.271743 0.460570
O O7 0.500000 0.000000 0.500000
O O8 0.716891 0.179012 0.849978
O O9 0.169893 0.231079 0.726182
O O10 0.178184 0.047331 0.894197
O O11 0.000000 0.000000 0.500000
O O12 0.546619 0.731777 0.904175
O O13 0.712422 0.989420 0.683183
O O14 0.619255 0.940033 0.987196
O O15 0.778910 0.115241 0.309044
O O16 0.002287 0.228848 0.741342
O O17 0.500000 0.000000 0.000000
O O18 0.724794 0.525497 0.267583
#
# Coordination Sequence:
#
# PCOD9053905 Si02
#       8
#     2   2   2   2   2   2   2   2
#     4  12  26  48  71  99 138 186 235 280 343 414
#     4  11  22  43  67 104 132 174 231 282 332 407
#     4  12  26  41  67 104 132 178 232 277 347 407
#     4  11  23  39  67  98 131 172 230 280 331 402
#     4  11  24  44  67 100 141 176 224 289 343 397
#     4  11  20  38  68  99 131 175 231 275 336 407
#     4  12  23  46  70  95 138 182 225 284 340 404
#     4  12  27  46  66 100 146 177 224 292 345 405
#
# _framework density 19.860748999999998
#
# number of rings (size 3 to 8) (size 9 to 14) (size 15 to 20)
#    0.000    0.500    6.250    2.625    5.250    2.500 
#    2.250    0.625    0.000    0.000    0.000    0.000 
#    0.000    0.000    0.000    0.000    0.000    0.000 
#
# Total GULP energy -89190.663990 kJ/mol
# GULP energy per Si atom -5574.416499 kJ/mol
# Density = 1.981554 g / cm^3
# Si number density = 19.860749 Si / 1000 Ang^3
#
#
#
# Elastic Constant Matrix: (Units=GPa)
#
#
# Indices 1 2 3 4 5 6 
#
# 1 117.0768 38.4266 24.7259 -1.9838 -6.0460 -12.2638
# 2 38.4266 79.8092 40.2545 3.8665 -3.2235 -1.8383
# 3 24.7259 40.2545 123.0913 6.2628 -5.0522 -5.6381
# 4 -1.9838 3.8665 6.2628 26.3536 -0.8191 1.2000
# 5 -6.0460 -3.2235 -5.0522 -0.8191 30.7454 2.0845
# 6 -12.2638 -1.8383 -5.6381 1.2000 2.0845 35.5280
#
#
#
# Elastic Compliance Matrix: (Units=1/GPa)
#
#
# Indices 1 2 3 4 5 6 
#
# 1 0.010661 -0.004863 -0.000425 0.001511 0.001338 0.003231
# 2 -0.004863 0.017270 -0.004645 -0.001725 0.000145 -0.001472
# 3 -0.000425 -0.004645 0.009909 -0.001731 0.000931 0.001189
# 4 0.001511 -0.001725 -0.001731 0.038808 0.000948 -0.001209
# 5 0.001338 0.000145 0.000931 0.000948 0.033074 -0.001355
# 6 0.003231 -0.001472 0.001189 -0.001209 -0.001355 0.029495
#
#
# Mechanical properties :
#
#
# Convention : Reuss Voigt Hill
#
# Bulk Modulus (GPa) = 55.63700 58.53237 57.08469
# Shear Modulus (GPa) = 30.28972 32.96343 31.62657
#
# Velocity S-wave (km/s) = 3.90950 4.07839 3.99484
# Velocity P-wave (km/s) = 6.96084 7.19118 7.07695
#
# Compressibility (1/GPa) = 0.01797365
#
# Stress axis : x y z
#
# Youngs Moduli (GPa) = 93.80399 57.90536 100.91776
#
# Poissons Ratio (x) = 0.28161 0.04289
# Poissons Ratio (y) = 0.45619 0.46871
# Poissons Ratio (z) = 0.03987 0.26894
#
# Static dielectric constant tensor:
#      x y z
#    x 1.792560 -0.014560 0.056160 
#    y -0.014560 1.669340 -0.029550 
#    z 0.056160 -0.029550 1.801470 
# 
# From -- ./inp_files/97834.got.cif
#   From: 2010.05.17/outbox.cif.g08.bks.cpg/sg2_49_cif.got.tgz:97834.got - 2010.06.03 11:33:40.
