data_PCOD9053676
_publ_section_title
;
Structure prediction by ZEFSAII (Michael W. Deem and Ramdas Pophale) SiO2 
 PCOD9053676
Probable space group: P -1
;
_chemical_formula_sum "Si O2"
_cell_formula_units_Z 16
_cell_length_a 13.640666
_cell_length_b 10.471977
_cell_length_c 12.385426
_cell_angle_alpha 86.961676
_cell_angle_beta 139.546517
_cell_angle_gamma 122.825757
_cell_volume 725.243105
_symmetry_space_group_name_H-M "P -1"
_symmetry_group_IT_number 2
_symmetry_cell_setting 'triclinic'
loop_
_space_group_symop_operation_xyz
x,y,z
-x,-y,-z
loop_
_atom_site_type_symbol
_atom_site_label
_atom_site_fract_x
_atom_site_fract_y
_atom_site_fract_z
Si Si1 0.326534 0.214888 0.158791
Si Si2 0.444254 0.910550 0.228737
Si Si3 0.060554 0.857841 0.830163
Si Si4 0.484940 0.800260 0.485588
Si Si5 0.957236 0.326645 0.590615
Si Si6 0.151856 0.440969 0.522466
Si Si7 0.755644 0.587051 0.782325
Si Si8 0.975141 0.565212 0.131879
O O1 0.336759 0.118676 0.271889
O O2 0.580229 0.385930 0.304330
O O3 0.284852 0.321017 0.178618
O O4 0.131238 0.048229 0.912867
O O5 0.510685 0.927145 0.410331
O O6 0.696284 0.092026 0.371926
O O7 0.293194 0.934745 0.065617
O O8 0.257550 0.677223 0.051382
O O9 0.998120 0.758639 0.666072
O O10 0.840531 0.680814 0.731287
O O11 0.461687 0.653408 0.404565
O O12 0.224890 0.653314 0.329961
O O13 0.937240 0.469806 0.568911
O O14 0.120439 0.393307 0.625069
O O15 0.041196 0.355929 0.781171
O O16 0.960205 0.635329 0.006688
#
# Coordination Sequence:
#
# PCOD9053676 Si02
#       8
#     2   2   2   2   2   2   2   2
#     4  12  24  39  59  94 123 165 194 243 305 362
#     4  11  20  35  63  93 121 153 197 249 304 350
#     4  12  21  38  59  92 126 154 195 248 303 364
#     4  11  20  38  65  90 128 155 193 252 306 357
#     4  11  23  39  62  89 116 162 207 246 295 351
#     4  11  24  40  60  86 124 160 203 250 291 352
#     4  11  22  38  63  92 128 156 194 245 311 360
#     4  11  20  40  62  92 125 153 196 256 301 352
#
# _framework density 22.061567
#
# number of rings (size 3 to 8) (size 9 to 14) (size 15 to 20)
#    0.000    0.750    7.500    1.500    1.750    2.500 
#    0.000    0.625    0.000    3.750    0.000    0.000 
#    0.000    0.000    0.000    0.000    0.000    0.000 
#
# Total GULP energy -89336.818509 kJ/mol
# GULP energy per Si atom -5583.551157 kJ/mol
# Density = 2.201135 g / cm^3
# Si number density = 22.061567 Si / 1000 Ang^3
#
#
#
# Elastic Constant Matrix: (Units=GPa)
#
#
# Indices 1 2 3 4 5 6 
#
# 1 116.6895 20.1400 14.4734 9.3074 -28.0499 3.6091
# 2 20.1400 32.1752 17.4362 13.4756 -8.4088 5.0908
# 3 14.4734 17.4362 41.1163 16.8319 -21.2850 -11.2712
# 4 9.3074 13.4756 16.8319 26.7792 -7.0435 -5.0945
# 5 -28.0499 -8.4088 -21.2850 -7.0435 35.2632 4.5556
# 6 3.6091 5.0908 -11.2712 -5.0945 4.5556 32.3690
#
#
#
# Elastic Compliance Matrix: (Units=1/GPa)
#
#
# Indices 1 2 3 4 5 6 
#
# 1 0.011690 -0.006497 0.004080 -0.000776 0.010109 -0.000406
# 2 -0.006497 0.055377 -0.022770 -0.016402 -0.006716 -0.017550
# 3 0.004080 -0.022770 0.057867 -0.015912 0.027381 0.016918
# 4 -0.000776 -0.016402 -0.015912 0.056111 -0.003763 0.006486
# 5 0.010109 -0.006716 0.027381 -0.003763 0.050343 0.001786
# 6 -0.000406 -0.017550 0.016918 0.006486 0.001786 0.040360
#
#
# Mechanical properties :
#
#
# Convention : Reuss Voigt Hill
#
# Bulk Modulus (GPa) = 13.41190 32.67558 23.04374
# Shear Modulus (GPa) = 14.41030 28.07770 21.24400
#
# Velocity S-wave (km/s) = 2.55852 3.57136 3.10650
# Velocity P-wave (km/s) = 3.84975 5.64353 4.83063
#
# Compressibility (1/GPa) = 0.07456063
#
# Stress axis : x y z
#
# Youngs Moduli (GPa) = 85.54634 18.05808 17.28095
#
# Poissons Ratio (x) = 0.11732 -0.07051
# Poissons Ratio (y) = 0.55578 0.39349
# Poissons Ratio (z) = -0.34905 0.41118
#
# Static dielectric constant tensor:
#      x y z
#    x 1.812250 -0.066060 -0.038680 
#    y -0.066060 1.896630 0.008190 
#    z -0.038680 0.008190 1.853290 
# 
# From -- ./inp_files/428458.got.cif
#   From: 2010.05.17/outbox.cif.g08.bks.cpg/sg2_215_cif.got.tgz:428458.got - 2010.06.03 11:33:40.
