data_PCOD9053290
_publ_section_title
;
Structure prediction by ZEFSAII (Michael W. Deem and Ramdas Pophale) SiO2 
 PCOD9053290
Probable space group: P -1
;
_chemical_formula_sum "Si O2"
_cell_formula_units_Z 8
_cell_length_a 5.054636
_cell_length_b 10.686761
_cell_length_c 7.541778
_cell_angle_alpha 136.967021
_cell_angle_beta 98.790380
_cell_angle_gamma 79.645619
_cell_volume 273.343410
_symmetry_space_group_name_H-M "P -1"
_symmetry_group_IT_number 2
_symmetry_cell_setting 'triclinic'
loop_
_space_group_symop_operation_xyz
x,y,z
-x,-y,-z
loop_
_atom_site_type_symbol
_atom_site_label
_atom_site_fract_x
_atom_site_fract_y
_atom_site_fract_z
Si Si1 0.115467 0.186534 0.047659
Si Si2 0.721355 0.451151 0.705243
Si Si3 0.674149 0.259974 0.827581
Si Si4 0.574962 0.874224 0.668453
O O1 0.120379 0.403982 0.231479
O O2 0.144041 0.154990 0.228240
O O3 0.867012 0.135554 0.849285
O O4 0.379780 0.059944 0.875421
O O5 0.854848 0.341754 0.775814
O O6 0.581290 0.291616 0.426120
O O7 0.478192 0.581239 0.906008
O O8 0.456276 0.175271 0.591904
#
# Coordination Sequence:
#
# PCOD9053290 Si02
#       4
#     2   2   2   2
#     4  11  19  36  58  72 107 143 160 218 268 283
#     4   9  20  38  51  79 107 131 177 213 248 314
#     4   9  20  38  51  79 107 131 177 213 248 314
#     4   9  21  35  52  83 102 130 186 205 244 330
#
# _framework density 29.267216000000001
#
# number of rings (size 3 to 8) (size 9 to 14) (size 15 to 20)
#    1.500    1.000    0.000    2.250    0.000    2.000 
#    0.000    5.000    0.000    0.000    0.000    0.000 
#    0.000    0.000    0.000    0.000    0.000    0.000 
#
# Total GULP energy -44735.131011 kJ/mol
# GULP energy per Si atom -5591.891376 kJ/mol
# Density = 2.920060 g / cm^3
# Si number density = 29.267216 Si / 1000 Ang^3
#
#
#
# Elastic Constant Matrix: (Units=GPa)
#
#
# Indices 1 2 3 4 5 6 
#
# 1 86.4540 50.1396 37.3366 -20.5238 3.1186 -37.2335
# 2 50.1396 261.7497 49.3961 -34.5867 13.6588 -25.4055
# 3 37.3366 49.3961 144.4636 -7.2372 17.7717 -14.9958
# 4 -20.5238 -34.5867 -7.2372 51.3166 -9.4878 24.7360
# 5 3.1186 13.6588 17.7717 -9.4878 38.8226 -1.6980
# 6 -37.2335 -25.4055 -14.9958 24.7360 -1.6980 51.1056
#
#
#
# Elastic Compliance Matrix: (Units=1/GPa)
#
#
# Indices 1 2 3 4 5 6 
#
# 1 0.019295 -0.001937 -0.003209 0.000401 0.001223 0.012000
# 2 -0.001937 0.004664 -0.000973 0.002416 -0.000474 -0.000563
# 3 -0.003209 -0.000973 0.008487 -0.001565 -0.003654 0.000304
# 4 0.000401 0.002416 -0.001565 0.028172 0.006177 -0.012397
# 5 0.001223 -0.000474 -0.003654 0.006177 0.028902 -0.002446
# 6 0.012000 -0.000563 0.000304 -0.012397 -0.002446 0.034038
#
#
# Mechanical properties :
#
#
# Convention : Reuss Voigt Hill
#
# Bulk Modulus (GPa) = 49.48596 85.15685 67.32140
# Shear Modulus (GPa) = 35.07932 51.96862 43.52397
#
# Velocity S-wave (km/s) = 3.46582 4.21843 3.86051
# Velocity P-wave (km/s) = 5.74116 7.27230 6.55161
#
# Compressibility (1/GPa) = 0.02020775
#
# Stress axis : x y z
#
# Youngs Moduli (GPa) = 51.82677 214.38926 117.82468
#
# Poissons Ratio (x) = 0.41517 0.37815
# Poissons Ratio (y) = 0.10036 0.11470
# Poissons Ratio (z) = 0.16634 0.20870
#
# Static dielectric constant tensor:
#      x y z
#    x 2.268700 0.106030 0.157040 
#    y 0.106030 2.307380 -0.021480 
#    z 0.157040 -0.021480 2.289920 
# 
# From -- ./inp_files/15163.got.cif
#   From: 2010.05.17/outbox.cif.g08.bks.cpg/sg2_8_cif.got.tgz:15163.got - 2010.06.03 11:33:40.
