data_PCOD9053263
_publ_section_title
;
Structure prediction by ZEFSAII (Michael W. Deem and Ramdas Pophale) SiO2 
 PCOD9053263
Probable space group: P -1
;
_chemical_formula_sum "Si O2"
_cell_formula_units_Z 16
_cell_length_a 12.695885
_cell_length_b 11.443349
_cell_length_c 13.960031
_cell_angle_alpha 66.731931
_cell_angle_beta 145.338218
_cell_angle_gamma 138.594753
_cell_volume 615.997525
_symmetry_space_group_name_H-M "P -1"
_symmetry_group_IT_number 2
_symmetry_cell_setting 'triclinic'
loop_
_space_group_symop_operation_xyz
x,y,z
-x,-y,-z
loop_
_atom_site_type_symbol
_atom_site_label
_atom_site_fract_x
_atom_site_fract_y
_atom_site_fract_z
Si Si1 0.064265 0.334711 0.095793
Si Si2 0.984477 0.428916 0.659558
Si Si3 0.394216 0.990692 0.598116
Si Si4 0.085702 0.948523 0.664376
Si Si5 0.821443 0.619883 0.440425
Si Si6 0.571984 0.647808 0.928378
Si Si7 0.834439 0.889776 0.698251
Si Si8 0.796791 0.371097 0.034801
O O1 0.213669 0.279033 0.241895
O O2 0.253786 0.545998 0.108534
O O3 0.996475 0.370795 0.133324
O O4 0.723999 0.136442 0.848528
O O5 0.823221 0.471404 0.503308
O O6 0.299828 0.596160 0.773781
O O7 0.745777 0.183951 0.529367
O O8 0.083928 0.494521 0.823032
O O9 0.117401 0.829568 0.525501
O O10 0.413356 0.140419 0.513168
O O11 0.454167 0.121174 0.881038
O O12 0.877323 0.713211 0.553534
O O13 0.015034 0.963053 0.710117
O O14 0.000000 0.000000 0.500000
O O15 0.505519 0.463680 0.193130
O O16 0.500000 0.500000 0.000000
O O17 0.917907 0.899895 0.114922
#
# Coordination Sequence:
#
# PCOD9053263 Si02
#       8
#     2   2   2   2   2   2   2   2
#     4  11  25  46  64  88 131 174 212 251 317 381
#     4  11  22  37  62  92 125 162 208 259 319 371
#     4  11  22  41  64  95 131 161 210 261 313 379
#     4  12  22  39  64  98 127 156 215 269 307 367
#     4  11  21  35  60  95 125 162 200 261 322 366
#     4  11  19  35  59  95 129 153 196 265 321 363
#     4  12  22  40  71  95 125 169 207 260 323 369
#     4  11  25  43  63  90 129 169 209 266 309 368
#
# _framework density 25.974129999999999
#
# number of rings (size 3 to 8) (size 9 to 14) (size 15 to 20)
#    0.000    0.750    6.250    3.750    0.000    1.500 
#    0.000    7.500    0.000    0.000    0.000    0.000 
#    0.000    0.000    0.000    0.000    0.000    0.000 
#
# Total GULP energy -89629.855609 kJ/mol
# GULP energy per Si atom -5601.865976 kJ/mol
# Density = 2.591501 g / cm^3
# Si number density = 25.974130 Si / 1000 Ang^3
#
#
#
# Elastic Constant Matrix: (Units=GPa)
#
#
# Indices 1 2 3 4 5 6 
#
# 1 74.2574 24.2515 39.9407 15.3684 -20.3995 -10.0744
# 2 24.2515 131.0330 50.2900 -16.2623 7.7470 -20.3333
# 3 39.9407 50.2900 102.4027 10.1699 -20.1169 -4.5638
# 4 15.3684 -16.2623 10.1699 59.4955 -6.5511 -1.1074
# 5 -20.3995 7.7470 -20.1169 -6.5511 35.7659 -1.1859
# 6 -10.0744 -20.3333 -4.5638 -1.1074 -1.1859 41.9537
#
#
#
# Elastic Compliance Matrix: (Units=1/GPa)
#
#
# Indices 1 2 3 4 5 6 
#
# 1 0.020512 -0.002704 -0.004298 -0.004228 0.009202 0.003296
# 2 -0.002704 0.012354 -0.006628 0.004526 -0.006967 0.004540
# 3 -0.004298 -0.006628 0.016357 -0.002703 0.007613 -0.002321
# 4 -0.004228 0.004526 -0.002703 0.019482 -0.001299 0.001362
# 5 0.009202 -0.006967 0.007613 -0.001299 0.038785 0.000723
# 6 0.003296 0.004540 -0.002321 0.001362 0.000723 0.026631
#
#
# Mechanical properties :
#
#
# Convention : Reuss Voigt Hill
#
# Bulk Modulus (GPa) = 45.53133 59.62858 52.57996
# Shear Modulus (GPa) = 29.63806 40.32374 34.98090
#
# Velocity S-wave (km/s) = 3.38162 3.94440 3.67380
# Velocity P-wave (km/s) = 5.72841 6.61446 6.18732
#
# Compressibility (1/GPa) = 0.02196290
#
# Stress axis : x y z
#
# Youngs Moduli (GPa) = 48.75271 80.94520 61.13556
#
# Poissons Ratio (x) = 0.21890 0.26273
# Poissons Ratio (y) = 0.13184 0.40521
# Poissons Ratio (z) = 0.20952 0.53651
#
# Static dielectric constant tensor:
#      x y z
#    x 2.080930 -0.010340 0.048890 
#    y -0.010340 2.057020 -0.047850 
#    z 0.048890 -0.047850 2.193830 
# 
# From -- ./inp_files/532506.got.cif
#   From: 2010.05.17/outbox.cif.g08.bks.cpg/sg2_267_cif.got.tgz:532506.got - 2010.06.03 11:33:40.
