data_PCOD9053869
_publ_section_title
;
Structure prediction by ZEFSAII (Michael W. Deem and Ramdas Pophale) SiO2 
 PCOD9053869
Probable space group: P -1
;
_chemical_formula_sum "Si O2"
_cell_formula_units_Z 10
_cell_length_a 8.366274
_cell_length_b 10.456648
_cell_length_c 17.518715
_cell_angle_alpha 149.851862
_cell_angle_beta 27.605002
_cell_angle_gamma 136.529403
_cell_volume 351.210533
_symmetry_space_group_name_H-M "P -1"
_symmetry_group_IT_number 2
_symmetry_cell_setting 'triclinic'
loop_
_space_group_symop_operation_xyz
x,y,z
-x,-y,-z
loop_
_atom_site_type_symbol
_atom_site_label
_atom_site_fract_x
_atom_site_fract_y
_atom_site_fract_z
Si Si1 0.770359 0.686066 0.922177
Si Si2 0.157634 0.993885 0.090284
Si Si3 0.749781 0.846783 0.575819
Si Si4 0.772389 0.594549 0.071128
Si Si5 0.084264 0.736678 0.534368
O O1 0.852535 0.796554 0.861372
O O2 0.405718 0.572843 0.002083
O O3 0.106081 0.449778 0.665459
O O4 0.622682 0.954768 0.170182
O O5 0.865258 0.067706 0.318420
O O6 0.062883 0.720893 0.967270
O O7 0.500000 0.000000 0.000000
O O8 0.789132 0.828876 0.642797
O O9 0.000000 0.000000 0.500000
O O10 0.411567 0.704642 0.323860
O O11 0.000000 0.500000 0.000000
O O12 0.000000 0.500000 0.500000
#
# Coordination Sequence:
#
# PCOD9053869 Si02
#       5
#     2   2   2   2   2
#     4  11  24  41  65  96 131 169 221 263 328 387
#     4  12  20  37  64 101 132 166 217 272 330 380
#     4  11  23  42  68  93 129 177 217 264 324 388
#     4  11  21  34  62  99 137 167 208 277 328 382
#     4  11  20  38  63  99 130 167 217 268 322 385
#
# _framework density 28.472947999999999
#
# number of rings (size 3 to 8) (size 9 to 14) (size 15 to 20)
#    0.000    0.800    8.000    1.200    0.000    1.600 
#    0.000    0.000    0.000   16.800    0.000    0.000 
#    0.000    0.000    0.000    0.000    0.000    0.000 
#
# Total GULP energy -55699.892840 kJ/mol
# GULP energy per Si atom -5569.989284 kJ/mol
# Density = 2.840814 g / cm^3
# Si number density = 28.472948 Si / 1000 Ang^3
#
#
#
# Elastic Constant Matrix: (Units=GPa)
#
#
# Indices 1 2 3 4 5 6 
#
# 1 90.4631 39.8425 47.6948 -0.8379 -4.3583 -4.3735
# 2 39.8425 193.3920 41.8238 2.6511 -23.2632 1.2787
# 3 47.6948 41.8238 179.2738 25.2432 18.1389 -7.7094
# 4 -0.8379 2.6511 25.2432 47.0300 -14.1306 -8.7186
# 5 -4.3583 -23.2632 18.1389 -14.1306 70.2769 -6.0965
# 6 -4.3735 1.2787 -7.7094 -8.7186 -6.0965 59.9316
#
#
#
# Elastic Compliance Matrix: (Units=1/GPa)
#
#
# Indices 1 2 3 4 5 6 
#
# 1 0.014151 -0.001867 -0.003952 0.003331 0.002059 0.001258
# 2 -0.001867 0.006127 -0.001335 0.001075 0.002470 -0.000031
# 3 -0.003952 -0.001335 0.008113 -0.005617 -0.003948 -0.000435
# 4 0.003331 0.001075 -0.005617 0.027447 0.007903 0.004294
# 5 0.002059 0.002470 -0.003948 0.007903 0.018006 0.002571
# 6 0.001258 -0.000031 -0.000435 0.004294 0.002571 0.017608
#
#
# Mechanical properties :
#
#
# Convention : Reuss Voigt Hill
#
# Bulk Modulus (GPa) = 71.01570 80.20567 75.61068
# Shear Modulus (GPa) = 45.26706 57.69890 51.48298
#
# Velocity S-wave (km/s) = 3.99159 4.50649 4.25683
# Velocity P-wave (km/s) = 6.79995 7.43695 7.12557
#
# Compressibility (1/GPa) = 0.01408139
#
# Stress axis : x y z
#
# Youngs Moduli (GPa) = 70.66541 163.21512 123.26347
#
# Poissons Ratio (x) = 0.30472 0.48719
# Poissons Ratio (y) = 0.13193 0.16459
# Poissons Ratio (z) = 0.27930 0.21793
#
# Static dielectric constant tensor:
#      x y z
#    x 2.889570 1.220660 -1.120340 
#    y 1.220660 5.095270 -2.862010 
#    z -1.120340 -2.862010 5.745300 
# 
# From -- ./inp_files/474754.got.cif
#   From: 2010.05.17/outbox.cif.g08.bks.cpg/sg2_238_cif.got.tgz:474754.got - 2010.06.03 11:33:40.
