data_PCOD9053607
_publ_section_title
;
Structure prediction by ZEFSAII (Michael W. Deem and Ramdas Pophale) SiO2 
 PCOD9053607
Probable space group: P -1
;
_chemical_formula_sum "Si O2"
_cell_formula_units_Z 16
_cell_length_a 15.419044
_cell_length_b 9.509449
_cell_length_c 25.039668
_cell_angle_alpha 50.534338
_cell_angle_beta 18.303722
_cell_angle_gamma 45.957788
_cell_volume 823.984789
_symmetry_space_group_name_H-M "P -1"
_symmetry_group_IT_number 2
_symmetry_cell_setting 'triclinic'
loop_
_space_group_symop_operation_xyz
x,y,z
-x,-y,-z
loop_
_atom_site_type_symbol
_atom_site_label
_atom_site_fract_x
_atom_site_fract_y
_atom_site_fract_z
Si Si1 0.682545 0.112680 0.129169
Si Si2 0.112058 0.573459 0.863816
Si Si3 0.282104 0.569965 0.510915
Si Si4 0.449208 0.882220 0.395181
Si Si5 0.332999 0.359614 0.112275
Si Si6 0.882830 0.450214 0.920683
Si Si7 0.596637 0.867424 0.423215
Si Si8 0.152663 0.976075 0.064941
O O1 0.449674 0.050094 0.313494
O O2 0.655471 0.337791 0.088811
O O3 0.715245 0.031760 0.069610
O O4 0.000000 0.000000 0.000000
O O5 0.465896 0.452333 0.675576
O O6 0.932557 0.549604 0.922141
O O7 0.038919 0.803190 0.859395
O O8 0.000000 0.500000 0.000000
O O9 0.273666 0.749800 0.510065
O O10 0.404495 0.350111 0.517278
O O11 0.934920 0.612020 0.696011
O O12 0.390139 0.962662 0.470175
O O13 0.788692 0.719445 0.238623
O O14 0.206946 0.419333 0.111734
O O15 0.500000 0.500000 0.000000
O O16 0.577308 0.139805 0.026017
O O17 0.928669 0.860854 0.220517
O O18 0.500000 0.000000 0.500000
#
# Coordination Sequence:
#
# PCOD9053607 Si02
#       8
#     2   2   2   2   2   2   2   2
#     4  10  17  35  61  86 113 160 208 247 293 359
#     4  11  25  41  63  96 126 156 205 264 308 350
#     4  11  22  38  63  89 122 160 204 254 303 357
#     4  10  20  35  58  88 119 152 212 254 297 356
#     4  12  22  39  64  91 122 167 207 246 302 375
#     4  10  20  36  64  85 120 166 203 250 304 363
#     4  12  21  33  58  92 122 150 197 264 308 348
#     4  12  22  38  62  92 126 158 203 253 308 363
#
# _framework density 19.417835
#
# number of rings (size 3 to 8) (size 9 to 14) (size 15 to 20)
#    0.000    1.000    7.500    2.625    1.750    0.500 
#    0.000    2.500    0.000    0.750    0.000    0.000 
#    0.000    0.000    0.000    0.000    0.000    0.000 
#
# Total GULP energy -89200.062556 kJ/mol
# GULP energy per Si atom -5575.003910 kJ/mol
# Density = 1.937364 g / cm^3
# Si number density = 19.417835 Si / 1000 Ang^3
#
#
#
# Elastic Constant Matrix: (Units=GPa)
#
#
# Indices 1 2 3 4 5 6 
#
# 1 83.3013 14.9738 31.3190 -4.4759 12.0214 12.9609
# 2 14.9738 46.3559 24.0964 -14.5762 -0.4017 7.7006
# 3 31.3190 24.0964 101.1136 -11.6447 3.5887 7.6932
# 4 -4.4759 -14.5762 -11.6447 24.6738 -2.2748 -5.7619
# 5 12.0214 -0.4017 3.5887 -2.2748 27.4226 -0.5026
# 6 12.9609 7.7006 7.6932 -5.7619 -0.5026 33.8989
#
#
#
# Elastic Compliance Matrix: (Units=1/GPa)
#
#
# Indices 1 2 3 4 5 6 
#
# 1 0.015573 -0.003119 -0.003763 -0.002560 -0.006683 -0.004926
# 2 -0.003119 0.029926 -0.004425 0.014884 0.003582 -0.002019
# 3 -0.003763 -0.004425 0.012396 0.002587 0.000179 0.000073
# 4 -0.002560 0.014884 0.002587 0.051961 0.005421 0.005923
# 5 -0.006683 0.003582 0.000179 0.005421 0.039933 0.003214
# 6 -0.004926 -0.002019 0.000073 0.005923 0.003214 0.032879
#
#
# Mechanical properties :
#
#
# Convention : Reuss Voigt Hill
#
# Bulk Modulus (GPa) = 28.34368 41.28325 34.81347
# Shear Modulus (GPa) = 23.03673 27.89117 25.46395
#
# Velocity S-wave (km/s) = 3.44811 3.79406 3.62521
# Velocity P-wave (km/s) = 5.52096 6.36395 5.95738
#
# Compressibility (1/GPa) = 0.03528123
#
# Stress axis : x y z
#
# Youngs Moduli (GPa) = 64.21176 33.41533 80.67049
#
# Poissons Ratio (x) = 0.10422 0.30359
# Poissons Ratio (y) = 0.20026 0.35698
# Poissons Ratio (z) = 0.24165 0.14787
#
# Static dielectric constant tensor:
#      x y z
#    x 1.705740 0.011120 0.030040 
#    y 0.011120 1.697890 -0.016020 
#    z 0.030040 -0.016020 1.743090 
# 
# From -- ./inp_files/321077.got.cif
#   From: 2010.05.17/outbox.cif.g08.bks.cpg/sg2_161_cif.got.tgz:321077.got - 2010.06.03 11:33:40.
