data_PCOD9053398
_publ_section_title
;
Structure prediction by ZEFSAII (Michael W. Deem and Ramdas Pophale) SiO2 
 PCOD9053398
Probable space group: P -1
;
_chemical_formula_sum "Si O2"
_cell_formula_units_Z 16
_cell_length_a 12.507271
_cell_length_b 8.458893
_cell_length_c 9.680191
_cell_angle_alpha 61.331917
_cell_angle_beta 92.940228
_cell_angle_gamma 126.562394
_cell_volume 680.638165
_symmetry_space_group_name_H-M "P -1"
_symmetry_group_IT_number 2
_symmetry_cell_setting 'triclinic'
loop_
_space_group_symop_operation_xyz
x,y,z
-x,-y,-z
loop_
_atom_site_type_symbol
_atom_site_label
_atom_site_fract_x
_atom_site_fract_y
_atom_site_fract_z
Si Si1 0.369947 0.141042 0.267924
Si Si2 0.779235 0.486319 0.719656
Si Si3 0.279058 0.918588 0.643943
Si Si4 0.826640 0.601631 0.225043
Si Si5 0.781620 0.688158 0.886725
Si Si6 0.110465 0.089353 0.647634
Si Si7 0.918720 0.310696 0.696741
Si Si8 0.497033 0.016418 0.827637
O O1 0.371670 0.101978 0.447017
O O2 0.218855 0.915215 0.290201
O O3 0.479806 0.143713 0.188516
O O4 0.347992 0.325762 0.160502
O O5 0.747132 0.477922 0.880624
O O6 0.857645 0.741782 0.548869
O O7 0.877228 0.421436 0.749631
O O8 0.641569 0.290895 0.702095
O O9 0.231145 0.669491 0.682071
O O10 0.165442 0.949832 0.666069
O O11 0.370154 0.979492 0.760599
O O12 0.803846 0.713428 0.305258
O O13 0.992215 0.738488 0.196431
O O14 0.785716 0.658357 0.060509
O O15 0.944861 0.908378 0.756903
O O16 0.000000 0.500000 0.500000
O O17 0.500000 0.000000 0.000000
#
# Coordination Sequence:
#
# PCOD9053398 Si02
#       8
#     2   2   2   2   2   2   2   2
#     4  11  23  43  72  95 140 181 229 290 336 418
#     4  11  23  44  70 100 136 187 236 284 346 417
#     4  12  26  47  73 100 140 192 240 279 342 415
#     4  12  25  42  67 109 145 184 222 287 354 415
#     4  12  25  42  68 112 145 172 228 290 362 409
#     4  12  25  42  75 106 143 181 229 286 347 435
#     4  11  19  38  69  99 140 178 222 277 351 415
#     4  11  27  48  70 100 138 185 242 296 342 401
#
# _framework density 23.507351
#
# number of rings (size 3 to 8) (size 9 to 14) (size 15 to 20)
#    0.000    0.500    5.000    3.375    1.750    3.500 
#    2.250    1.250    0.000    0.000    0.000    0.000 
#    0.000    0.000    0.000    0.000    0.000    0.000 
#
# Total GULP energy -89313.587537 kJ/mol
# GULP energy per Si atom -5582.099221 kJ/mol
# Density = 2.345385 g / cm^3
# Si number density = 23.507351 Si / 1000 Ang^3
#
#
#
# Elastic Constant Matrix: (Units=GPa)
#
#
# Indices 1 2 3 4 5 6 
#
# 1 91.5299 13.7946 16.0712 10.1801 -0.6479 -21.1018
# 2 13.7946 99.6870 23.1674 17.7584 -3.5352 -17.7616
# 3 16.0712 23.1674 111.8688 32.3082 10.1281 -7.3416
# 4 10.1801 17.7584 32.3082 45.5399 0.8555 -6.9735
# 5 -0.6479 -3.5352 10.1281 0.8555 31.5501 11.2772
# 6 -21.1018 -17.7616 -7.3416 -6.9735 11.2772 42.6545
#
#
#
# Elastic Compliance Matrix: (Units=1/GPa)
#
#
# Indices 1 2 3 4 5 6 
#
# 1 0.012680 -0.000298 -0.000875 -0.001106 -0.001702 0.006268
# 2 -0.000298 0.011603 -0.001288 -0.002959 0.000404 0.003872
# 3 -0.000875 -0.001288 0.011950 -0.007558 -0.004131 0.000944
# 4 -0.001106 -0.002959 -0.007558 0.028929 0.000771 0.001446
# 5 -0.001702 0.000404 -0.004131 0.000771 0.036953 -0.011029
# 6 0.006268 0.003872 0.000944 0.001446 -0.011029 0.031472
#
#
# Mechanical properties :
#
#
# Convention : Reuss Voigt Hill
#
# Bulk Modulus (GPa) = 31.93748 45.46136 38.69942
# Shear Modulus (GPa) = 33.56909 40.61906 37.09408
#
# Velocity S-wave (km/s) = 3.78302 4.16135 3.97669
# Velocity P-wave (km/s) = 5.71816 6.51692 6.13056
#
# Compressibility (1/GPa) = 0.03131117
#
# Stress axis : x y z
#
# Youngs Moduli (GPa) = 78.86540 86.18236 83.68020
#
# Poissons Ratio (x) = 0.02568 0.07323
# Poissons Ratio (y) = 0.02350 0.10778
# Poissons Ratio (z) = 0.06902 0.11101
#
# Static dielectric constant tensor:
#      x y z
#    x 1.892130 -0.030060 -0.004830 
#    y -0.030060 2.011440 -0.105100 
#    z -0.004830 -0.105100 1.907140 
# 
# From -- ./inp_files/190370.got.cif
#   From: 2010.05.17/outbox.cif.g08.bks.cpg/sg2_96_cif.got.tgz:190370.got - 2010.06.03 11:33:40.
