data_PCOD9053167
_publ_section_title
;
Structure prediction by ZEFSAII (Michael W. Deem and Ramdas Pophale) SiO2 
 PCOD9053167
Probable space group: P -1
;
_chemical_formula_sum "Si O2"
_cell_formula_units_Z 14
_cell_length_a 13.953763
_cell_length_b 11.028720
_cell_length_c 22.669072
_cell_angle_alpha 20.096497
_cell_angle_beta 26.028051
_cell_angle_gamma 33.359642
_cell_volume 525.134580
_symmetry_space_group_name_H-M "P -1"
_symmetry_group_IT_number 2
_symmetry_cell_setting 'triclinic'
loop_
_space_group_symop_operation_xyz
x,y,z
-x,-y,-z
loop_
_atom_site_type_symbol
_atom_site_label
_atom_site_fract_x
_atom_site_fract_y
_atom_site_fract_z
Si Si1 0.965795 0.962292 0.333828
Si Si2 0.500703 0.582841 0.753894
Si Si3 0.235976 0.398470 0.777376
Si Si4 0.488867 0.961293 0.700852
Si Si5 0.996533 0.787242 0.520047
Si Si6 0.663767 0.896545 0.027863
Si Si7 0.903025 0.434781 0.844667
O O1 0.743647 0.749248 0.537685
O O2 0.071880 0.762594 0.422093
O O3 0.900170 0.333424 0.229046
O O4 0.114946 0.011593 0.172336
O O5 0.397976 0.825386 0.749264
O O6 0.408353 0.486442 0.784959
O O7 0.506507 0.201275 0.956990
O O8 0.308686 0.113454 0.913392
O O9 0.075134 0.297191 0.859397
O O10 0.448321 0.623590 0.532036
O O11 0.733409 0.830474 0.638227
O O12 0.327802 0.777179 0.921552
O O13 0.008601 0.476045 0.702538
O O14 0.109060 0.149704 0.318918
#
# Coordination Sequence:
#
# PCOD9053167 Si02
#       7
#     2   2   2   2   2   2   2
#     4   9  18  32  48  71  92 119 154 193 229 267
#     4   9  20  31  46  67  92 127 159 182 225 278
#     4   9  20  29  45  73  96 119 154 186 231 281
#     4   9  17  31  47  71  96 119 152 191 228 271
#     4   8  16  27  47  75  92 113 157 191 228 273
#     4  11  19  32  47  67  98 125 151 189 228 275
#     4   9  15  29  49  71  95 119 146 196 237 261
#
# _framework density 26.659832000000002
#
# number of rings (size 3 to 8) (size 9 to 14) (size 15 to 20)
#    0.000    3.429    0.000    3.000    0.000    3.429 
#    0.000    0.000    0.000    3.429    0.000   52.000 
#    0.000    0.000    0.000    0.000    0.000    0.000 
#
# Total GULP energy -78333.680833 kJ/mol
# GULP energy per Si atom -5595.262917 kJ/mol
# Density = 2.659915 g / cm^3
# Si number density = 26.659832 Si / 1000 Ang^3
#
#
#
# Elastic Constant Matrix: (Units=GPa)
#
#
# Indices 1 2 3 4 5 6 
#
# 1 138.2194 6.2392 59.5097 -4.3543 21.4764 -8.4868
# 2 6.2392 45.3321 21.5975 2.6177 5.3958 15.5456
# 3 59.5097 21.5975 168.1166 33.3585 12.0819 -1.1686
# 4 -4.3543 2.6177 33.3585 25.8121 -0.3964 0.2815
# 5 21.4764 5.3958 12.0819 -0.3964 47.4702 -8.8691
# 6 -8.4868 15.5456 -1.1686 0.2815 -8.8691 27.4992
#
#
#
# Elastic Compliance Matrix: (Units=1/GPa)
#
#
# Indices 1 2 3 4 5 6 
#
# 1 0.010221 0.000287 -0.005046 0.008152 -0.002981 0.001733
# 2 0.000287 0.031557 -0.004356 0.002599 -0.006324 -0.020002
# 3 -0.005046 -0.004356 0.011275 -0.014997 0.000075 0.001562
# 4 0.008152 0.002599 -0.014997 0.059241 0.000310 -0.000097
# 5 -0.002981 -0.006324 0.000075 0.000310 0.025127 0.010759
# 6 0.001733 -0.020002 0.001562 -0.000097 0.010759 0.051744
#
#
# Mechanical properties :
#
#
# Convention : Reuss Voigt Hill
#
# Bulk Modulus (GPa) = 28.71611 58.48454 43.60033
# Shear Modulus (GPa) = 22.83074 37.77772 30.30423
#
# Velocity S-wave (km/s) = 2.92956 3.76843 3.37516
# Velocity P-wave (km/s) = 4.71569 6.39685 5.61949
#
# Compressibility (1/GPa) = 0.03482366
#
# Stress axis : x y z
#
# Youngs Moduli (GPa) = 97.83959 31.68852 88.68900
#
# Poissons Ratio (x) = -0.00910 0.44753
# Poissons Ratio (y) = -0.02810 0.38632
# Poissons Ratio (z) = 0.49371 0.13803
#
# Static dielectric constant tensor:
#      x y z
#    x 2.109730 0.025830 0.001160 
#    y 0.025830 2.163290 -0.056410 
#    z 0.001160 -0.056410 2.074360 
# 
# From -- ./inp_files/312828.got.cif
#   From: 2010.05.17/outbox.cif.g08.bks.cpg/sg2_157_cif.got.tgz:312828.got - 2010.06.03 11:33:40.
