data_PCOD9053351
_publ_section_title
;
Structure prediction by ZEFSAII (Michael W. Deem and Ramdas Pophale) SiO2 
 PCOD9053351
Probable space group: P -1
;
_chemical_formula_sum "Si O2"
_cell_formula_units_Z 16
_cell_length_a 6.844292
_cell_length_b 13.023723
_cell_length_c 14.612529
_cell_angle_alpha 138.198831
_cell_angle_beta 54.448394
_cell_angle_gamma 109.412407
_cell_volume 693.984523
_symmetry_space_group_name_H-M "P -1"
_symmetry_group_IT_number 2
_symmetry_cell_setting 'triclinic'
loop_
_space_group_symop_operation_xyz
x,y,z
-x,-y,-z
loop_
_atom_site_type_symbol
_atom_site_label
_atom_site_fract_x
_atom_site_fract_y
_atom_site_fract_z
Si Si1 0.239007 0.173554 0.107992
Si Si2 0.279059 0.515183 0.940717
Si Si3 0.227338 0.522692 0.389798
Si Si4 0.054767 0.222325 0.006374
Si Si5 0.714136 0.555228 0.313601
Si Si6 0.025718 0.785014 0.463371
Si Si7 0.567387 0.248807 0.815654
Si Si8 0.780334 0.003579 0.825651
O O1 0.292651 0.349711 0.210633
O O2 0.158182 0.128971 0.200285
O O3 0.048683 0.164343 0.073187
O O4 0.489755 0.055377 0.938542
O O5 0.363784 0.459403 0.780263
O O6 0.421831 0.392327 0.890889
O O7 0.311964 0.681149 0.083274
O O8 0.000000 0.500000 0.000000
O O9 0.442944 0.550452 0.420640
O O10 0.141539 0.656834 0.424698
O O11 0.000000 0.500000 0.500000
O O12 0.337543 0.178606 0.868011
O O13 0.895866 0.145291 0.927813
O O14 0.932136 0.405938 0.167829
O O15 0.827330 0.703583 0.409909
O O16 0.222456 0.824656 0.362182
O O17 0.893420 0.936139 0.655035
#
# Coordination Sequence:
#
# PCOD9053351 Si02
#       8
#     2   2   2   2   2   2   2   2
#     4  11  24  49  70  96 134 186 238 277 334 417
#     4  11  19  37  65 102 135 176 219 277 338 398
#     4  12  24  44  71 104 136 170 231 294 333 398
#     4  12  24  42  72 102 132 187 233 272 338 416
#     4  12  23  40  73 102 137 178 227 279 345 403
#     4  12  25  44  67 108 140 173 227 288 340 400
#     4  11  23  37  68 104 138 173 228 279 334 410
#     4  11  27  47  68  94 142 187 226 282 347 398
#
# _framework density 23.055268000000002
#
# number of rings (size 3 to 8) (size 9 to 14) (size 15 to 20)
#    0.000    0.500    7.500    1.875    0.000    2.000 
#    4.500    0.625    0.000    0.000    0.000    0.000 
#    0.000    0.000    0.000    0.000    0.000    0.000 
#
# Total GULP energy -89358.573038 kJ/mol
# GULP energy per Si atom -5584.910815 kJ/mol
# Density = 2.300279 g / cm^3
# Si number density = 23.055268 Si / 1000 Ang^3
#
#
#
# Elastic Constant Matrix: (Units=GPa)
#
#
# Indices 1 2 3 4 5 6 
#
# 1 101.9365 5.3872 27.8436 -15.7277 13.0466 0.8849
# 2 5.3872 27.6040 -5.6908 -11.6837 1.5213 -5.3997
# 3 27.8436 -5.6908 87.4884 -9.5990 6.2512 2.9963
# 4 -15.7277 -11.6837 -9.5990 32.3513 8.2734 -3.0660
# 5 13.0466 1.5213 6.2512 8.2734 30.5491 -9.7593
# 6 0.8849 -5.3997 2.9963 -3.0660 -9.7593 41.0515
#
#
#
# Elastic Compliance Matrix: (Units=1/GPa)
#
#
# Indices 1 2 3 4 5 6 
#
# 1 0.012540 0.000151 -0.002655 0.007070 -0.007125 -0.001223
# 2 0.000151 0.048112 0.005816 0.021685 -0.007706 0.005688
# 3 -0.002655 0.005816 0.013564 0.005717 -0.003676 -0.000615
# 4 0.007070 0.021685 0.005717 0.048611 -0.017905 0.001657
# 5 -0.007125 -0.007706 -0.003676 -0.017905 0.044528 0.008657
# 6 -0.001223 0.005688 -0.000615 0.001657 0.008657 0.027361
#
#
# Mechanical properties :
#
#
# Convention : Reuss Voigt Hill
#
# Bulk Modulus (GPa) = 12.36968 30.23433 21.30201
# Shear Modulus (GPa) = 23.25175 33.42298 28.33736
#
# Velocity S-wave (km/s) = 3.17917 3.81161 3.50966
# Velocity P-wave (km/s) = 4.34201 5.70206 5.06786
#
# Compressibility (1/GPa) = 0.08084286
#
# Stress axis : x y z
#
# Youngs Moduli (GPa) = 79.74189 20.78483 73.72360
#
# Poissons Ratio (x) = -0.00314 0.19570
# Poissons Ratio (y) = -0.01206 -0.42880
# Poissons Ratio (z) = 0.21168 -0.12089
#
# Static dielectric constant tensor:
#      x y z
#    x 1.960180 0.174600 -0.198420 
#    y 0.174600 2.203510 -0.297840 
#    z -0.198420 -0.297840 2.144980 
# 
# From -- ./inp_files/484429.got.cif
#   From: 2010.05.17/outbox.cif.g08.bks.cpg/sg2_243_cif.got.tgz:484429.got - 2010.06.03 11:33:40.
