data_PCOD9053199
_publ_section_title
;
Structure prediction by ZEFSAII (Michael W. Deem and Ramdas Pophale) SiO2 
 PCOD9053199
Probable space group: P -1
;
_chemical_formula_sum "Si O2"
_cell_formula_units_Z 16
_cell_length_a 23.577731
_cell_length_b 9.633579
_cell_length_c 6.811295
_cell_angle_alpha 58.286861
_cell_angle_beta 55.539748
_cell_angle_gamma 29.638020
_cell_volume 628.636905
_symmetry_space_group_name_H-M "P -1"
_symmetry_group_IT_number 2
_symmetry_cell_setting 'triclinic'
loop_
_space_group_symop_operation_xyz
x,y,z
-x,-y,-z
loop_
_atom_site_type_symbol
_atom_site_label
_atom_site_fract_x
_atom_site_fract_y
_atom_site_fract_z
Si Si1 0.206072 0.439961 0.707656
Si Si2 0.034319 0.028916 0.717737
Si Si3 0.574705 0.552014 0.031088
Si Si4 0.213125 0.340638 0.233871
Si Si5 0.760015 0.966528 0.086899
Si Si6 0.583250 0.908852 0.714759
Si Si7 0.128154 0.179685 0.430571
Si Si8 0.494005 0.375526 0.322033
O O1 0.328759 0.278443 0.508463
O O2 0.102247 0.772286 0.637030
O O3 0.212350 0.388189 0.967751
O O4 0.178155 0.318716 0.748845
O O5 0.125306 0.996943 0.622402
O O6 0.909816 0.351827 0.666464
O O7 0.000000 0.000000 0.000000
O O8 0.546092 0.797329 0.928884
O O9 0.579106 0.521921 0.805891
O O10 0.702714 0.239746 0.093087
O O11 0.481984 0.588809 0.252654
O O12 0.323489 0.204951 0.225587
O O13 0.215378 0.139486 0.390503
O O14 0.841624 0.867150 0.823568
O O15 0.632679 0.124477 0.169326
O O16 0.492544 0.228180 0.586267
O O17 0.000000 0.500000 0.500000
#
# Coordination Sequence:
#
# PCOD9053199 Si02
#       8
#     2   2   2   2   2   2   2   2
#     4   9  18  33  51  75 109 142 182 220 263 325
#     4   9  17  32  50  73 106 146 183 216 269 321
#     4   9  17  33  57  80 106 144 177 222 278 323
#     4   9  20  34  50  79 110 140 183 230 261 316
#     4   8  15  30  52  74 100 135 179 220 255 315
#     4  11  19  33  59  81 107 142 180 223 278 322
#     4   9  16  30  52  70 102 146 174 214 269 312
#     4   8  18  33  53  83 106 138 182 222 271 334
#
# _framework density 25.451896000000001
#
# number of rings (size 3 to 8) (size 9 to 14) (size 15 to 20)
#    0.750    2.250    0.000    1.875    0.000    0.500 
#    4.500    0.000    0.000   42.750    0.000    0.000 
#    0.000    0.000    0.000    0.000    0.000    0.000 
#
# Total GULP energy -89148.506804 kJ/mol
# GULP energy per Si atom -5571.781675 kJ/mol
# Density = 2.539397 g / cm^3
# Si number density = 25.451896 Si / 1000 Ang^3
#
#
#
# Elastic Constant Matrix: (Units=GPa)
#
#
# Indices 1 2 3 4 5 6 
#
# 1 115.6782 40.0246 57.5801 -31.4363 -28.6141 23.5352
# 2 40.0246 118.0083 22.7149 -19.2832 -23.2102 28.0035
# 3 57.5801 22.7149 136.1160 -41.2129 -35.8267 4.8497
# 4 -31.4363 -19.2832 -41.2129 49.2999 7.8292 -10.9196
# 5 -28.6141 -23.2102 -35.8267 7.8292 48.8042 -15.5287
# 6 23.5352 28.0035 4.8497 -10.9196 -15.5287 34.7647
#
#
#
# Elastic Compliance Matrix: (Units=1/GPa)
#
#
# Indices 1 2 3 4 5 6 
#
# 1 0.013605 -0.001649 -0.003645 0.003454 0.002287 -0.005268
# 2 -0.001649 0.011240 0.000123 0.001674 0.002141 -0.006473
# 3 -0.003645 0.000123 0.013826 0.009508 0.008901 0.007402
# 4 0.003454 0.001674 0.009508 0.031749 0.007327 0.008232
# 5 0.002287 0.002141 0.008901 0.007327 0.032060 0.012108
# 6 -0.005268 -0.006473 0.007402 0.008232 0.012108 0.044507
#
#
# Mechanical properties :
#
#
# Convention : Reuss Voigt Hill
#
# Bulk Modulus (GPa) = 35.29890 67.82686 51.56288
# Shear Modulus (GPa) = 29.98100 43.20593 36.59347
#
# Velocity S-wave (km/s) = 3.43585 4.12461 3.79588
# Velocity P-wave (km/s) = 5.44418 7.02781 6.28606
#
# Compressibility (1/GPa) = 0.02832949
#
# Stress axis : x y z
#
# Youngs Moduli (GPa) = 73.49984 88.96612 72.32844
#
# Poissons Ratio (x) = 0.14668 0.26363
# Poissons Ratio (y) = 0.12118 -0.00887
# Poissons Ratio (z) = 0.26790 -0.01091
#
# Static dielectric constant tensor:
#      x y z
#    x 2.069940 0.056830 0.040120 
#    y 0.056830 2.103730 -0.058610 
#    z 0.040120 -0.058610 2.070050 
# 
# From -- ./inp_files/356654.got.cif
#   From: 2010.05.17/outbox.cif.g08.bks.cpg/sg2_179_cif.got.tgz:356654.got - 2010.06.03 11:33:40.
