data_PCOD9053914
_publ_section_title
;
Structure prediction by ZEFSAII (Michael W. Deem and Ramdas Pophale) SiO2 
 PCOD9053914
Probable space group: P -1
;
_chemical_formula_sum "Si O2"
_cell_formula_units_Z 16
_cell_length_a 14.655726
_cell_length_b 8.478402
_cell_length_c 14.669035
_cell_angle_alpha 98.088556
_cell_angle_beta 49.974316
_cell_angle_gamma 137.771476
_cell_volume 711.334137
_symmetry_space_group_name_H-M "P -1"
_symmetry_group_IT_number 2
_symmetry_cell_setting 'triclinic'
loop_
_space_group_symop_operation_xyz
x,y,z
-x,-y,-z
loop_
_atom_site_type_symbol
_atom_site_label
_atom_site_fract_x
_atom_site_fract_y
_atom_site_fract_z
Si Si1 0.324865 0.222164 0.161396
Si Si2 0.541378 0.212709 0.385829
Si Si3 0.871825 0.052095 0.323673
Si Si4 0.632909 0.281805 0.998339
Si Si5 0.264388 0.783850 0.887792
Si Si6 0.414516 0.560299 0.277606
Si Si7 0.234287 0.232551 0.814994
Si Si8 0.820113 0.639899 0.405459
O O1 0.271577 0.302942 0.272799
O O2 0.500000 0.500000 0.000000
O O3 0.457504 0.226679 0.121386
O O4 0.085595 0.893612 0.243795
O O5 0.593864 0.124021 0.281654
O O6 0.681780 0.513701 0.268470
O O7 0.655957 0.345566 0.423042
O O8 0.280303 0.977582 0.542563
O O9 0.142940 0.399088 0.174888
O O10 0.801283 0.939414 0.254789
O O11 0.809700 0.814452 0.394661
O O12 0.716531 0.306242 0.043095
O O13 0.500000 0.000000 0.000000
O O14 0.399549 0.100548 0.852371
O O15 0.000000 0.500000 0.000000
O O16 0.572988 0.610468 0.228820
O O17 0.255208 0.453271 0.449056
O O18 0.000000 0.000000 0.000000
#
# Coordination Sequence:
#
# PCOD9053914 Si02
#       8
#     2   2   2   2   2   2   2   2
#     4  12  26  46  74 104 138 195 246 293 358 431
#     4  11  23  43  73 107 143 182 243 300 372 409
#     4  11  21  44  72 105 140 179 239 304 355 423
#     4  12  28  49  72 107 148 193 240 295 364 433
#     4  12  29  46  71 108 150 193 237 299 359 433
#     4  12  24  45  67 102 143 180 245 289 358 429
#     4  11  20  38  70 104 134 182 235 298 352 417
#     4  11  24  43  74 105 139 188 240 302 353 432
#
# _framework density 22.492946
#
# number of rings (size 3 to 8) (size 9 to 14) (size 15 to 20)
#    0.000    0.500    3.750    5.625    5.250    1.500 
#    0.000    1.250    0.000    0.000    0.000    0.000 
#    0.000    0.000    0.000    0.000    0.000    0.000 
#
# Total GULP energy -89593.331383 kJ/mol
# GULP energy per Si atom -5599.583211 kJ/mol
# Density = 2.244175 g / cm^3
# Si number density = 22.492946 Si / 1000 Ang^3
#
#
#
# Elastic Constant Matrix: (Units=GPa)
#
#
# Indices 1 2 3 4 5 6 
#
# 1 88.5284 10.9252 15.7882 2.4744 -4.2237 10.4557
# 2 10.9252 93.7899 9.6852 1.1009 -5.7718 -7.0308
# 3 15.7882 9.6852 106.7345 7.2327 -11.6400 0.7648
# 4 2.4744 1.1009 7.2327 37.1136 2.1156 -3.5185
# 5 -4.2237 -5.7718 -11.6400 2.1156 37.8767 -6.6156
# 6 10.4557 -7.0308 0.7648 -3.5185 -6.6156 17.2432
#
#
#
# Elastic Compliance Matrix: (Units=1/GPa)
#
#
# Indices 1 2 3 4 5 6 
#
# 1 0.012931 -0.002067 -0.001672 -0.001297 -0.000927 -0.009230
# 2 -0.002067 0.011647 -0.000548 0.000425 0.002594 0.007109
# 3 -0.001672 -0.000548 0.010132 -0.001916 0.003153 0.001160
# 4 -0.001297 0.000425 -0.001916 0.028057 -0.001129 0.006337
# 5 -0.000927 0.002594 0.003153 -0.001129 0.029951 0.012740
# 6 -0.009230 0.007109 0.001160 0.006337 0.012740 0.072619
#
#
# Mechanical properties :
#
#
# Convention : Reuss Voigt Hill
#
# Bulk Modulus (GPa) = 38.26303 40.20557 39.23430
# Shear Modulus (GPa) = 27.37881 35.29031 31.33456
#
# Velocity S-wave (km/s) = 3.49265 3.96529 3.73645
# Velocity P-wave (km/s) = 5.77173 6.23525 6.00796
#
# Compressibility (1/GPa) = 0.02613489
#
# Stress axis : x y z
#
# Youngs Moduli (GPa) = 77.33153 85.85855 98.70156
#
# Poissons Ratio (x) = 0.17750 0.16505
# Poissons Ratio (y) = 0.15987 0.05408
# Poissons Ratio (z) = 0.12932 0.04705
#
# Static dielectric constant tensor:
#      x y z
#    x 1.849620 -0.017170 0.021360 
#    y -0.017170 1.844640 0.009030 
#    z 0.021360 0.009030 1.827160 
# 
# From -- ./inp_files/188466.got.cif
#   From: 2010.05.17/outbox.cif.g08.bks.cpg/sg2_95_cif.got.tgz:188466.got - 2010.06.03 11:33:40.
