data_PCOD9053400
_publ_section_title
;
Structure prediction by ZEFSAII (Michael W. Deem and Ramdas Pophale) SiO2 
 PCOD9053400
Probable space group: P -1
;
_chemical_formula_sum "Si O2"
_cell_formula_units_Z 12
_cell_length_a 20.041066
_cell_length_b 6.568466
_cell_length_c 7.064551
_cell_angle_alpha 88.748250
_cell_angle_beta 41.573470
_cell_angle_gamma 111.476883
_cell_volume 504.114534
_symmetry_space_group_name_H-M "P -1"
_symmetry_group_IT_number 2
_symmetry_cell_setting 'triclinic'
loop_
_space_group_symop_operation_xyz
x,y,z
-x,-y,-z
loop_
_atom_site_type_symbol
_atom_site_label
_atom_site_fract_x
_atom_site_fract_y
_atom_site_fract_z
Si Si1 0.725292 0.042087 0.290473
Si Si2 0.710540 0.437731 0.901172
Si Si3 0.519229 0.078527 0.728452
Si Si4 0.514482 0.502137 0.188988
Si Si5 0.123530 0.038850 0.306693
Si Si6 0.130820 0.728190 0.634882
O O1 0.661671 0.186544 0.390270
O O2 0.777739 0.102417 0.390498
O O3 0.000000 0.500000 0.000000
O O4 0.830756 0.082322 0.931663
O O5 0.784714 0.659794 0.889097
O O6 0.805845 0.392000 0.602121
O O7 0.584837 0.158433 0.166130
O O8 0.646659 0.556777 0.930934
O O9 0.496698 0.284426 0.718460
O O10 0.606092 0.766269 0.496328
O O11 0.500000 0.000000 0.000000
O O12 0.500000 0.500000 0.000000
O O13 0.112950 0.900106 0.528939
O O14 0.000000 0.000000 0.500000
#
# Coordination Sequence:
#
# PCOD9053400 Si02
#       6
#     2   2   2   2   2   2
#     4  11  25  45  74 106 145 196 232 303 367 433
#     4  11  23  43  72 103 145 188 236 299 357 435
#     4  11  20  39  73 114 140 187 234 296 362 442
#     4  11  19  38  71 106 145 179 234 288 365 434
#     4  12  30  50  70 107 150 192 252 306 358 428
#     4  12  27  49  76 103 141 199 253 302 362 429
#
# _framework density 23.804113000000001
#
# number of rings (size 3 to 8) (size 9 to 14) (size 15 to 20)
#    0.000    0.667    5.000    3.000    0.000   12.000 
#    0.000    5.000    0.000    0.000    0.000    0.000 
#    0.000    0.000    0.000    0.000    0.000    0.000 
#
# Total GULP energy -66952.956418 kJ/mol
# GULP energy per Si atom -5579.413035 kJ/mol
# Density = 2.374993 g / cm^3
# Si number density = 23.804113 Si / 1000 Ang^3
#
#
#
# Elastic Constant Matrix: (Units=GPa)
#
#
# Indices 1 2 3 4 5 6 
#
# 1 137.8582 52.0894 33.5457 10.2334 -24.3062 -16.7339
# 2 52.0894 158.3774 49.7668 5.6233 -9.5797 -17.5337
# 3 33.5457 49.7668 101.8427 25.5681 -19.1594 -30.6776
# 4 10.2334 5.6233 25.5681 47.3636 -9.0949 -1.1106
# 5 -24.3062 -9.5797 -19.1594 -9.0949 37.3998 10.1442
# 6 -16.7339 -17.5337 -30.6776 -1.1106 10.1442 40.1171
#
#
#
# Elastic Compliance Matrix: (Units=1/GPa)
#
#
# Indices 1 2 3 4 5 6 
#
# 1 0.009327 -0.002480 -0.000463 -0.000535 0.004722 0.001244
# 2 -0.002480 0.008188 -0.003733 0.001368 -0.001095 0.000005
# 3 -0.000463 -0.003733 0.017603 -0.008156 0.002880 0.010682
# 4 -0.000535 0.001368 -0.008156 0.026059 0.003818 -0.006106
# 5 0.004722 -0.001095 0.002880 0.003818 0.033175 -0.004590
# 6 0.001244 0.000005 0.010682 -0.006106 -0.004590 0.034608
#
#
# Mechanical properties :
#
#
# Convention : Reuss Voigt Hill
#
# Bulk Modulus (GPa) = 45.94185 74.32023 60.13104
# Shear Modulus (GPa) = 33.43009 42.48786 37.95897
#
# Velocity S-wave (km/s) = 3.75158 4.22939 3.99763
# Velocity P-wave (km/s) = 6.17314 7.42561 6.82815
#
# Compressibility (1/GPa) = 0.02176665
#
# Stress axis : x y z
#
# Youngs Moduli (GPa) = 107.22014 122.12720 56.80968
#
# Poissons Ratio (x) = 0.30283 0.02631
# Poissons Ratio (y) = 0.26587 0.21205
# Poissons Ratio (z) = 0.04966 0.45585
#
# Static dielectric constant tensor:
#      x y z
#    x 1.897290 -0.073980 0.151330 
#    y -0.073980 2.031690 -0.018710 
#    z 0.151330 -0.018710 1.770630 
# 
# From -- ./inp_files/65158.got.cif
#   From: 2010.05.17/outbox.cif.g08.bks.cpg/sg2_33_cif.got.tgz:65158.got - 2010.06.03 11:33:40.
