data_PCOD9053721
_publ_section_title
;
Structure prediction by ZEFSAII (Michael W. Deem and Ramdas Pophale) SiO2 
 PCOD9053721
Probable space group: P -1
;
_chemical_formula_sum "Si O2"
_cell_formula_units_Z 16
_cell_length_a 9.561677
_cell_length_b 10.010798
_cell_length_c 16.925914
_cell_angle_alpha 146.555917
_cell_angle_beta 126.339272
_cell_angle_gamma 43.872878
_cell_volume 618.664585
_symmetry_space_group_name_H-M "P -1"
_symmetry_group_IT_number 2
_symmetry_cell_setting 'triclinic'
loop_
_space_group_symop_operation_xyz
x,y,z
-x,-y,-z
loop_
_atom_site_type_symbol
_atom_site_label
_atom_site_fract_x
_atom_site_fract_y
_atom_site_fract_z
Si Si1 0.431955 0.901618 0.088791
Si Si2 0.271323 0.561535 0.795788
Si Si3 0.839059 0.402199 0.909006
Si Si4 0.700736 0.047165 0.749401
Si Si5 0.369951 0.787640 0.647311
Si Si6 0.092702 0.262485 0.662375
Si Si7 0.751218 0.253960 0.635527
Si Si8 0.724721 0.509454 0.418603
O O1 0.354556 0.921855 0.161825
O O2 0.653457 0.639206 0.014371
O O3 0.481415 0.149584 0.220322
O O4 0.292194 0.832902 0.953390
O O5 0.491298 0.282349 0.752151
O O6 0.120079 0.525626 0.785321
O O7 0.218584 0.544137 0.679706
O O8 0.871531 0.125279 0.828021
O O9 0.775667 0.364485 0.781814
O O10 0.000000 0.500000 0.000000
O O11 0.250743 0.044659 0.672729
O O12 0.760607 0.743071 0.585678
O O13 0.500000 0.500000 0.500000
O O14 0.213844 0.757200 0.636017
O O15 0.877348 0.327180 0.652007
O O16 0.147471 0.081256 0.511009
O O17 0.517456 0.362777 0.599537
#
# Coordination Sequence:
#
# PCOD9053721 Si02
#       8
#     2   2   2   2   2   2   2   2
#     4  11  22  36  62  91 125 165 212 261 312 372
#     4  11  20  37  61  95 121 159 220 266 299 371
#     4  11  23  35  59  96 133 157 209 273 322 357
#     4  11  20  36  63  92 123 163 218 261 306 373
#     4  12  22  39  62  96 129 169 210 258 319 386
#     4  11  23  38  67  94 128 164 216 262 319 372
#     4  11  21  38  62  97 123 168 207 268 309 374
#     4  12  22  40  67  96 127 166 216 259 315 379
#
# _framework density 25.862154
#
# number of rings (size 3 to 8) (size 9 to 14) (size 15 to 20)
#    0.000    0.750    7.500    3.375    1.750    0.500 
#    0.000    0.000    0.000   17.250    0.000    0.000 
#    0.000    0.000    0.000    0.000    0.000    0.000 
#
# Total GULP energy -89594.609485 kJ/mol
# GULP energy per Si atom -5599.663093 kJ/mol
# Density = 2.580329 g / cm^3
# Si number density = 25.862154 Si / 1000 Ang^3
#
#
#
# Elastic Constant Matrix: (Units=GPa)
#
#
# Indices 1 2 3 4 5 6 
#
# 1 100.5667 45.3823 62.6528 12.6626 22.4881 15.6303
# 2 45.3823 59.3881 38.4489 -0.2787 -8.8773 6.0726
# 3 62.6528 38.4489 214.3887 7.9866 13.1440 21.5687
# 4 12.6626 -0.2787 7.9866 37.8427 18.9493 7.3737
# 5 22.4881 -8.8773 13.1440 18.9493 59.3520 0.6889
# 6 15.6303 6.0726 21.5687 7.3737 0.6889 45.5324
#
#
#
# Elastic Compliance Matrix: (Units=1/GPa)
#
#
# Indices 1 2 3 4 5 6 
#
# 1 0.021520 -0.015925 -0.002421 -0.001296 -0.009542 -0.003762
# 2 -0.015925 0.031720 -0.001919 -0.000020 0.011187 0.001979
# 3 -0.002421 -0.001919 0.005928 0.000259 -0.000745 -0.001752
# 4 -0.001296 -0.000020 0.000259 0.032734 -0.009964 -0.004826
# 5 -0.009542 0.011187 -0.000745 -0.009964 0.025445 0.003365
# 6 -0.003762 0.001979 -0.001752 -0.004826 0.003365 0.024550
#
#
# Mechanical properties :
#
#
# Convention : Reuss Voigt Hill
#
# Bulk Modulus (GPa) = 53.65427 74.14570 63.89998
# Shear Modulus (GPa) = 26.50541 43.73607 35.12074
#
# Velocity S-wave (km/s) = 3.20484 4.11679 3.68910
# Velocity P-wave (km/s) = 5.87247 7.16443 6.55038
#
# Compressibility (1/GPa) = 0.01863785
#
# Stress axis : x y z
#
# Youngs Moduli (GPa) = 46.46780 31.52583 168.67928
#
# Poissons Ratio (x) = 0.50206 0.40840
# Poissons Ratio (y) = 0.74001 0.32369
# Poissons Ratio (z) = 0.11251 0.06050
#
# Static dielectric constant tensor:
#      x y z
#    x 2.039220 -0.017170 0.019220 
#    y -0.017170 2.168330 0.047920 
#    z 0.019220 0.047920 2.066120 
# 
# From -- ./inp_files/328712.got.cif
#   From: 2010.05.17/outbox.cif.g08.bks.cpg/sg2_165_cif.got.tgz:328712.got - 2010.06.03 11:33:40.
