data_PCOD9053387
_publ_section_title
;
Structure prediction by ZEFSAII (Michael W. Deem and Ramdas Pophale) SiO2 
 PCOD9053387
Probable space group: P -1
;
_chemical_formula_sum "Si O2"
_cell_formula_units_Z 16
_cell_length_a 11.637428
_cell_length_b 20.102387
_cell_length_c 11.005227
_cell_angle_alpha 140.071025
_cell_angle_beta 122.532497
_cell_angle_gamma 29.454241
_cell_volume 740.486215
_symmetry_space_group_name_H-M "P -1"
_symmetry_group_IT_number 2
_symmetry_cell_setting 'triclinic'
loop_
_space_group_symop_operation_xyz
x,y,z
-x,-y,-z
loop_
_atom_site_type_symbol
_atom_site_label
_atom_site_fract_x
_atom_site_fract_y
_atom_site_fract_z
Si Si1 0.531979 0.767610 0.111458
Si Si2 0.957952 0.586591 0.726947
Si Si3 0.930509 0.074454 0.924123
Si Si4 0.420692 0.671551 0.570864
Si Si5 0.215229 0.580553 0.344391
Si Si6 0.455764 0.958092 0.105970
Si Si7 0.743436 0.770939 0.444601
Si Si8 0.881515 0.336756 0.205108
O O1 0.273132 0.880075 0.166612
O O2 0.483497 0.847680 0.063846
O O3 0.621688 0.798922 0.296063
O O4 0.737319 0.542363 0.895975
O O5 0.000000 0.500000 0.500000
O O6 0.085272 0.428504 0.675235
O O7 0.094025 0.611970 0.831172
O O8 0.668266 0.799483 0.902665
O O9 0.811802 0.262197 0.088169
O O10 0.200462 0.897973 0.761974
O O11 0.000000 0.000000 0.000000
O O12 0.266870 0.663690 0.446744
O O13 0.557185 0.577739 0.648191
O O14 0.656603 0.539678 0.433126
O O15 0.942378 0.734417 0.468433
O O16 0.467144 0.052128 0.331534
O O17 0.169449 0.155115 0.167372
#
# Coordination Sequence:
#
# PCOD9053387 Si02
#       8
#     2   2   2   2   2   2   2   2
#     4  12  24  42  67 103 138 174 214 278 341 396
#     4  12  27  44  68  98 132 179 224 270 324 395
#     4  12  22  39  66  98 131 171 222 277 331 387
#     4  11  21  37  67  96 132 169 216 279 329 379
#     4  11  19  38  64  97 131 172 215 269 335 386
#     4  12  24  42  69 100 134 170 220 276 334 393
#     4  12  26  44  65  98 143 176 217 269 338 401
#     4  12  24  40  66  98 127 169 225 275 321 385
#
# _framework density 21.607424000000002
#
# number of rings (size 3 to 8) (size 9 to 14) (size 15 to 20)
#    0.000    0.250    7.500    2.625    1.750    0.000 
#    0.000    0.625    0.000    1.500    0.000    0.000 
#    0.000    0.000    0.000    0.000    0.000    0.000 
#
# Total GULP energy -89326.440124 kJ/mol
# GULP energy per Si atom -5582.902508 kJ/mol
# Density = 2.155824 g / cm^3
# Si number density = 21.607424 Si / 1000 Ang^3
#
#
#
# Elastic Constant Matrix: (Units=GPa)
#
#
# Indices 1 2 3 4 5 6 
#
# 1 112.7307 26.8759 31.2828 3.5390 -0.6417 -10.4655
# 2 26.8759 40.4415 22.2806 2.9111 -8.6399 -9.6141
# 3 31.2828 22.2806 131.1817 16.0138 -20.9617 -18.8086
# 4 3.5390 2.9111 16.0138 30.9713 -13.9943 2.9903
# 5 -0.6417 -8.6399 -20.9617 -13.9943 40.4067 6.6388
# 6 -10.4655 -9.6141 -18.8086 2.9903 6.6388 17.5560
#
#
#
# Elastic Compliance Matrix: (Units=1/GPa)
#
#
# Indices 1 2 3 4 5 6 
#
# 1 0.011099 -0.006409 -0.001414 -0.001558 -0.002956 0.002975
# 2 -0.006409 0.033574 -0.001834 -0.000735 0.004031 0.011201
# 3 -0.001414 -0.001834 0.010589 -0.005359 0.001612 0.009800
# 4 -0.001558 -0.000735 -0.005359 0.044445 0.015820 -0.020625
# 5 -0.002956 0.004031 0.001612 0.015820 0.034082 -0.013410
# 6 0.002975 0.011201 0.009800 -0.020625 -0.013410 0.083951
#
#
# Mechanical properties :
#
#
# Convention : Reuss Voigt Hill
#
# Bulk Modulus (GPa) = 27.81871 49.47028 38.64449
# Shear Modulus (GPa) = 20.07731 31.38110 25.72920
#
# Velocity S-wave (km/s) = 3.05156 3.81508 3.45448
# Velocity P-wave (km/s) = 5.03176 6.50778 5.81678
#
# Compressibility (1/GPa) = 0.03594702
#
# Stress axis : x y z
#
# Youngs Moduli (GPa) = 90.09516 29.78506 94.44155
#
# Poissons Ratio (x) = 0.19091 0.13353
# Poissons Ratio (y) = 0.57746 0.17321
# Poissons Ratio (z) = 0.12738 0.05463
#
# Static dielectric constant tensor:
#      x y z
#    x 1.830820 -0.002120 0.026270 
#    y -0.002120 1.764190 0.002620 
#    z 0.026270 0.002620 1.872010 
# 
# From -- ./inp_files/438688.got.cif
#   From: 2010.05.17/outbox.cif.g08.bks.cpg/sg2_220_cif.got.tgz:438688.got - 2010.06.03 11:33:40.
