data_PCOD9053137
_publ_section_title
;
Structure prediction by ZEFSAII (Michael W. Deem and Ramdas Pophale) SiO2 
 PCOD9053137
Probable space group: P -1
;
_chemical_formula_sum "Si O2"
_cell_formula_units_Z 14
_cell_length_a 10.143120
_cell_length_b 16.462646
_cell_length_c 9.218795
_cell_angle_alpha 113.838069
_cell_angle_beta 88.646046
_cell_angle_gamma 35.890579
_cell_volume 623.980549
_symmetry_space_group_name_H-M "P -1"
_symmetry_group_IT_number 2
_symmetry_cell_setting 'triclinic'
loop_
_space_group_symop_operation_xyz
x,y,z
-x,-y,-z
loop_
_atom_site_type_symbol
_atom_site_label
_atom_site_fract_x
_atom_site_fract_y
_atom_site_fract_z
Si Si1 0.003871 0.974112 0.302703
Si Si2 0.962266 0.801462 0.479093
Si Si3 0.449227 0.899668 0.548328
Si Si4 0.382488 0.470709 0.024050
Si Si5 0.492151 0.970251 0.141113
Si Si6 0.429577 0.625393 0.488576
Si Si7 0.866648 0.481837 0.213315
O O1 0.338725 0.754329 0.091543
O O2 0.000000 0.000000 0.500000
O O3 0.828823 0.988094 0.303453
O O4 0.826866 0.145173 0.320696
O O5 0.825059 0.878375 0.697280
O O6 0.111902 0.632664 0.262828
O O7 0.254836 0.685841 0.401529
O O8 0.676079 0.002470 0.537310
O O9 0.486982 0.961615 0.693944
O O10 0.722742 0.665974 0.366150
O O11 0.500000 0.500000 0.000000
O O12 0.264027 0.490162 0.901890
O O13 0.500000 0.000000 0.000000
O O14 0.780270 0.733407 0.968893
O O15 0.500000 0.500000 0.500000
O O16 0.725846 0.503525 0.358749
#
# Coordination Sequence:
#
# PCOD9053137 Si02
#       7
#     2   2   2   2   2   2   2
#     4  11  18  39  69 106 135 172 229 288 343 410
#     4  12  23  42  69 103 136 177 239 279 341 418
#     4  11  22  42  74 101 128 180 245 279 333 422
#     4  12  18  36  72 106 133 170 227 296 339 395
#     4  12  28  47  64  94 145 189 225 286 354 406
#     4  11  22  40  67 101 137 178 225 286 349 409
#     4  11  22  42  73  96 134 181 227 288 349 399
#
# _framework density 22.436596000000002
#
# number of rings (size 3 to 8) (size 9 to 14) (size 15 to 20)
#    0.000    0.571    8.571    1.286    0.000    1.143 
#    2.571    0.714    3.143    0.000    0.000    0.000 
#    0.000    0.000    0.000    0.000    0.000    0.000 
#
# Total GULP energy -77953.474426 kJ/mol
# GULP energy per Si atom -5568.105316 kJ/mol
# Density = 2.238553 g / cm^3
# Si number density = 22.436596 Si / 1000 Ang^3
#
#
#
# Elastic Constant Matrix: (Units=GPa)
#
#
# Indices 1 2 3 4 5 6 
#
# 1 45.9810 8.0265 12.1855 4.7643 -3.5006 5.9484
# 2 8.0265 100.7289 53.8146 28.3503 -8.5024 20.5043
# 3 12.1855 53.8146 138.9991 37.5608 -26.8299 21.8920
# 4 4.7643 28.3503 37.5608 38.7280 -5.9639 1.0790
# 5 -3.5006 -8.5024 -26.8299 -5.9639 27.6554 -3.1546
# 6 5.9484 20.5043 21.8920 1.0790 -3.1546 30.2578
#
#
#
# Elastic Compliance Matrix: (Units=1/GPa)
#
#
# Indices 1 2 3 4 5 6 
#
# 1 0.022706 -0.000093 -0.000589 -0.001825 0.001452 -0.003758
# 2 -0.000093 0.015322 -0.002289 -0.008808 -0.000384 -0.008434
# 3 -0.000589 -0.002289 0.013769 -0.009927 0.009648 -0.006935
# 4 -0.001825 -0.008808 -0.009927 0.041441 -0.002288 0.011794
# 5 0.001452 -0.000384 0.009648 -0.002288 0.044835 -0.002250
# 6 -0.003758 -0.008434 -0.006935 0.011794 -0.002250 0.043866
#
#
# Mechanical properties :
#
#
# Convention : Reuss Voigt Hill
#
# Bulk Modulus (GPa) = 21.80836 48.19580 35.00208
# Shear Modulus (GPa) = 24.61024 33.44040 29.02532
#
# Velocity S-wave (km/s) = 3.31551 3.86481 3.60065
# Velocity P-wave (km/s) = 4.93942 6.43764 5.73764
#
# Compressibility (1/GPa) = 0.04585398
#
# Stress axis : x y z
#
# Youngs Moduli (GPa) = 44.04062 65.26705 72.62495
#
# Poissons Ratio (x) = 0.00609 0.04278
# Poissons Ratio (y) = 0.00411 0.16626
# Poissons Ratio (z) = 0.02594 0.14941
#
# Static dielectric constant tensor:
#      x y z
#    x 2.019430 0.091630 0.118400 
#    y 0.091630 2.003640 0.049020 
#    z 0.118400 0.049020 2.047740 
# 
# From -- ./inp_files/278119.got.cif
#   From: 2010.05.17/outbox.cif.g08.bks.cpg/sg2_140_cif.got.tgz:278119.got - 2010.06.03 11:33:40.
