data_PCOD9053049
_publ_section_title
;
Structure prediction by ZEFSAII (Michael W. Deem and Ramdas Pophale) SiO2 
 PCOD9053049
Probable space group: P -1
;
_chemical_formula_sum "Si O2"
_cell_formula_units_Z 16
_cell_length_a 22.946972
_cell_length_b 16.797923
_cell_length_c 12.358873
_cell_angle_alpha 156.591838
_cell_angle_beta 155.563987
_cell_angle_gamma 21.416926
_cell_volume 637.323540
_symmetry_space_group_name_H-M "P -1"
_symmetry_group_IT_number 2
_symmetry_cell_setting 'triclinic'
loop_
_space_group_symop_operation_xyz
x,y,z
-x,-y,-z
loop_
_atom_site_type_symbol
_atom_site_label
_atom_site_fract_x
_atom_site_fract_y
_atom_site_fract_z
Si Si1 0.741972 0.959053 0.368389
Si Si2 0.384359 0.013158 0.052685
Si Si3 0.991347 0.770855 0.220786
Si Si4 0.866267 0.234859 0.185246
Si Si5 0.055546 0.682217 0.803727
Si Si6 0.491189 0.519838 0.699683
Si Si7 0.677990 0.502777 0.412588
Si Si8 0.787563 0.495265 0.930378
O O1 0.659455 0.970541 0.127775
O O2 0.641892 0.232235 0.586148
O O3 0.944076 0.844091 0.554561
O O4 0.722188 0.776628 0.180478
O O5 0.508184 0.731632 0.949584
O O6 0.200227 0.124253 0.938085
O O7 0.429325 0.202280 0.396504
O O8 0.137542 0.602230 0.346839
O O9 0.050052 0.621081 0.021810
O O10 0.000000 0.000000 0.500000
O O11 0.839595 0.372320 0.198355
O O12 0.726611 0.388732 0.233678
O O13 0.899186 0.971597 0.891548
O O14 0.000000 0.500000 0.500000
O O15 0.152747 0.649965 0.039158
O O16 0.415691 0.574583 0.761801
O O17 0.346126 0.538282 0.398589
#
# Coordination Sequence:
#
# PCOD9053049 Si02
#       8
#     2   2   2   2   2   2   2   2
#     4  12  22  40  62  95 135 165 202 252 314 387
#     4  12  21  34  58  91 128 167 201 242 318 379
#     4  11  18  33  57  88 122 157 191 255 317 357
#     4  11  24  42  66  96 124 157 219 268 301 363
#     4  11  24  41  65  96 119 166 212 270 312 351
#     4  11  25  39  60  97 135 170 193 248 325 382
#     4  11  22  38  61  92 127 161 207 259 310 371
#     4  11  21  38  62  88 130 164 203 254 311 369
#
# _framework density 25.104987999999999
#
# number of rings (size 3 to 8) (size 9 to 14) (size 15 to 20)
#    0.000    0.750    7.500    3.375    0.000    0.000 
#    0.000    0.000    0.000    3.750    3.250    0.000 
#    0.000    0.000    0.000    0.000    0.000    0.000 
#
# Total GULP energy -89735.129534 kJ/mol
# GULP energy per Si atom -5608.445596 kJ/mol
# Density = 2.504785 g / cm^3
# Si number density = 25.104988 Si / 1000 Ang^3
#
#
#
# Elastic Constant Matrix: (Units=GPa)
#
#
# Indices 1 2 3 4 5 6 
#
# 1 156.3518 44.5603 38.5536 7.9692 -21.0521 35.9103
# 2 44.5603 103.0444 28.5237 21.4178 -8.6778 23.8938
# 3 38.5536 28.5237 105.0534 34.9252 7.7862 23.0998
# 4 7.9692 21.4178 34.9252 45.5733 9.4293 10.5571
# 5 -21.0521 -8.6778 7.7862 9.4293 46.4600 9.5057
# 6 35.9103 23.8938 23.0998 10.5571 9.5057 46.7429
#
#
#
# Elastic Compliance Matrix: (Units=1/GPa)
#
#
# Indices 1 2 3 4 5 6 
#
# 1 0.009771 -0.001780 -0.002505 0.001468 0.005615 -0.006832
# 2 -0.001780 0.013070 -0.000411 -0.005199 0.003719 -0.004692
# 3 -0.002505 -0.000411 0.014378 -0.009551 -0.001155 -0.002579
# 4 0.001468 -0.005199 -0.009551 0.032552 -0.005307 -0.000024
# 5 0.005615 0.003719 -0.001155 -0.005307 0.028112 -0.010162
# 6 -0.006832 -0.004692 -0.002579 -0.000024 -0.010162 0.032388
#
#
# Mechanical properties :
#
#
# Convention : Reuss Voigt Hill
#
# Bulk Modulus (GPa) = 35.93592 65.30276 50.61934
# Shear Modulus (GPa) = 33.57115 44.60936 39.09025
#
# Velocity S-wave (km/s) = 3.66078 4.21992 3.95025
# Velocity P-wave (km/s) = 5.67572 7.05776 6.40413
#
# Compressibility (1/GPa) = 0.02782731
#
# Stress axis : x y z
#
# Youngs Moduli (GPa) = 102.34198 76.51192 69.55284
#
# Poissons Ratio (x) = 0.13621 0.17420
# Poissons Ratio (y) = 0.18219 0.02858
# Poissons Ratio (z) = 0.25632 0.03144
#
# Static dielectric constant tensor:
#      x y z
#    x 1.966270 -0.040870 0.016600 
#    y -0.040870 2.044720 -0.030170 
#    z 0.016600 -0.030170 2.018610 
# 
# From -- ./inp_files/471804.got.cif
#   From: 2010.05.17/outbox.cif.g08.bks.cpg/sg2_236_cif.got.tgz:471804.got - 2010.06.03 11:33:40.
