data_PCOD9053261
_publ_section_title
;
Structure prediction by ZEFSAII (Michael W. Deem and Ramdas Pophale) SiO2 
 PCOD9053261
Probable space group: P -1
;
_chemical_formula_sum "Si O2"
_cell_formula_units_Z 15
_cell_length_a 29.762252
_cell_length_b 12.637523
_cell_length_c 11.043877
_cell_angle_alpha 144.888995
_cell_angle_beta 18.776127
_cell_angle_gamma 153.227800
_cell_volume 591.508800
_symmetry_space_group_name_H-M "P -1"
_symmetry_group_IT_number 2
_symmetry_cell_setting 'triclinic'
loop_
_space_group_symop_operation_xyz
x,y,z
-x,-y,-z
loop_
_atom_site_type_symbol
_atom_site_label
_atom_site_fract_x
_atom_site_fract_y
_atom_site_fract_z
Si Si1 0.425151 0.238879 0.297831
Si Si2 0.222646 0.495942 0.654245
Si Si3 0.461007 0.056548 0.387917
Si Si4 0.271679 0.541462 0.105522
Si Si5 0.203171 0.152565 0.568526
Si Si6 0.848970 0.172256 0.199742
Si Si7 0.945007 0.325289 0.589444
Si Si8 0.500000 0.000000 0.500000
O O1 0.345992 0.292575 0.442605
O O2 0.260554 0.055151 0.640672
O O3 0.608035 0.462810 0.106570
O O4 0.481743 0.090515 0.956692
O O5 0.226448 0.318246 0.559129
O O6 0.418934 0.753250 0.389071
O O7 0.066967 0.331150 0.795038
O O8 0.136960 0.596502 0.038848
O O9 0.502205 0.122490 0.484597
O O10 0.250531 0.916778 0.759229
O O11 0.584074 0.289715 0.208375
O O12 0.202825 0.670762 0.466982
O O13 0.096111 0.336506 0.285688
O O14 0.204102 0.944559 0.322934
O O15 0.000000 0.000000 0.000000
O O16 0.000000 0.500000 0.500000
#
# Coordination Sequence:
#
# PCOD9053261 Si02
#       8
#     2   2   2   2   2   2   2   1
#     4   9  16  33  56  86 116 142 181 244 298 339
#     4  11  23  38  55  84 117 153 200 228 286 342
#     4   9  18  32  55  82 112 154 192 228 285 338
#     4   8  16  31  58  85 111 145 184 236 301 338
#     4  12  21  33  59  91 119 146 186 240 301 347
#     4   8  15  33  58  82 109 143 189 243 290 339
#     4  11  19  35  59  83 116 149 182 242 291 339
#     4  12  24  36  52  80 120 160 198 232 264 350
#
# _framework density 25.358877
#
# number of rings (size 3 to 8) (size 9 to 14) (size 15 to 20)
#    0.000    2.133    2.667    4.800    0.000    0.533 
#    0.000    4.667    0.000    0.000    0.000    9.333 
#    0.000    0.000    0.000    0.000    0.000    0.000 
#
# Total GULP energy -83534.164278 kJ/mol
# GULP energy per Si atom -5568.944285 kJ/mol
# Density = 2.530116 g / cm^3
# Si number density = 25.358877 Si / 1000 Ang^3
#
#
#
# Elastic Constant Matrix: (Units=GPa)
#
#
# Indices 1 2 3 4 5 6 
#
# 1 98.7978 -32.1477 47.0678 -28.7346 -64.6589 34.8222
# 2 -32.1477 47.3262 16.1941 -17.0387 -35.3795 20.1925
# 3 47.0678 16.1941 64.4447 -28.1856 -52.1909 13.7706
# 4 -28.7346 -17.0387 -28.1856 34.1052 0.4371 -2.0747
# 5 -64.6589 -35.3795 -52.1909 0.4371 41.7003 -2.4351
# 6 34.8222 20.1925 13.7706 -2.0747 -2.4351 26.5979
#
#
#
# Elastic Compliance Matrix: (Units=1/GPa)
#
#
# Indices 1 2 3 4 5 6 
#
# 1 0.008987 -0.000020 -0.022673 -0.011125 -0.014472 -0.002204
# 2 -0.000020 0.011981 -0.021504 -0.011612 -0.016680 -0.000369
# 3 -0.022673 -0.021504 0.058098 0.019081 0.020239 0.019271
# 4 -0.011125 -0.011612 0.019081 0.030903 -0.002629 0.015671
# 5 -0.014472 -0.016680 0.020239 -0.002629 0.014044 0.022212
# 6 -0.002204 -0.000369 0.019271 0.015671 0.022212 0.034041
#
#
# Mechanical properties :
#
#
# Convention : Reuss Voigt Hill
#
# Bulk Modulus (GPa) = -107.19196 30.31079 -38.44058
# Shear Modulus (GPa) = 20.54729 32.44430 26.49580
#
# Velocity S-wave (km/s) = 2.84960 3.58076 3.23589
# Velocity P-wave (km/s) = 5.61559 5.39207 1.10914
#
# Compressibility (1/GPa) = -0.00932906
#
# Stress axis : x y z
#
# Youngs Moduli (GPa) = 111.27376 83.46223 17.21222
#
# Poissons Ratio (x) = 0.00171 0.39025
# Poissons Ratio (y) = 0.00227 0.37014
# Poissons Ratio (z) = 2.52291 1.79480
#
# Static dielectric constant tensor:
#      x y z
#    x 1.954700 -0.062900 -0.200330 
#    y -0.062900 1.997520 -0.279360 
#    z -0.200330 -0.279360 1.726240 
# 
# From -- ./inp_files/477607.got.cif
#   From: 2010.05.17/outbox.cif.g08.bks.cpg/sg2_239_cif.got.tgz:477607.got - 2010.06.03 11:33:40.
