data_PCOD9053340
_publ_section_title
;
Structure prediction by ZEFSAII (Michael W. Deem and Ramdas Pophale) SiO2 
 PCOD9053340
Probable space group: P -1
;
_chemical_formula_sum "Si O2"
_cell_formula_units_Z 15
_cell_length_a 24.801324
_cell_length_b 15.382211
_cell_length_c 15.308079
_cell_angle_alpha 28.185541
_cell_angle_beta 161.051359
_cell_angle_gamma 160.118640
_cell_volume 643.205483
_symmetry_space_group_name_H-M "P -1"
_symmetry_group_IT_number 2
_symmetry_cell_setting 'triclinic'
loop_
_space_group_symop_operation_xyz
x,y,z
-x,-y,-z
loop_
_atom_site_type_symbol
_atom_site_label
_atom_site_fract_x
_atom_site_fract_y
_atom_site_fract_z
Si Si1 0.762486 0.778937 0.649754
Si Si2 0.865315 0.893648 0.501953
Si Si3 0.204762 0.575836 0.186519
Si Si4 0.496284 0.866066 0.882153
Si Si5 0.996606 0.400244 0.828439
Si Si6 0.500000 0.000000 0.500000
Si Si7 0.607183 0.743885 0.004035
Si Si8 0.275457 0.840101 0.732868
O O1 0.500000 0.500000 0.500000
O O2 0.832529 0.874188 0.573024
O O3 0.763798 0.980452 0.516016
O O4 0.934008 0.749146 0.968483
O O5 0.765159 0.613734 0.572368
O O6 0.729444 0.961988 0.196672
O O7 0.134521 0.110055 0.699230
O O8 0.426816 0.879333 0.267706
O O9 0.000000 0.500000 0.000000
O O10 0.137141 0.527470 0.023026
O O11 0.451982 0.681766 0.903468
O O12 0.321496 0.759067 0.787827
O O13 0.733409 0.230677 0.598985
O O14 0.077394 0.605065 0.697883
O O15 0.357471 0.053716 0.183061
O O16 0.500000 0.500000 0.000000
O O17 0.500000 0.000000 0.000000
#
# Coordination Sequence:
#
# PCOD9053340 Si02
#       8
#     2   2   2   2   2   1   2   2
#     4  11  19  37  62 105 136 168 220 282 350 408
#     4  11  22  40  68 103 134 174 226 291 354 401
#     4  11  20  35  64 100 136 170 221 290 347 396
#     4  12  24  43  68 108 137 173 235 294 357 406
#     4  11  23  39  64 101 136 187 229 276 347 418
#     4  12  26  48  68  92 144 196 238 270 352 434
#     4  12  29  44  68  98 140 189 231 286 347 426
#     4  12  21  37  70 101 138 178 221 298 353 407
#
# _framework density 23.320696000000002
#
# number of rings (size 3 to 8) (size 9 to 14) (size 15 to 20)
#    0.000    0.533    8.000    1.200    3.733    1.067 
#    0.000    0.667    0.000    1.600    0.000    0.000 
#    0.000    0.000    0.000    0.000    0.000    0.000 
#
# Total GULP energy -83696.854057 kJ/mol
# GULP energy per Si atom -5579.790270 kJ/mol
# Density = 2.326762 g / cm^3
# Si number density = 23.320696 Si / 1000 Ang^3
#
#
#
# Elastic Constant Matrix: (Units=GPa)
#
#
# Indices 1 2 3 4 5 6 
#
# 1 145.8170 58.4146 -5.1237 2.1625 26.7052 4.4720
# 2 58.4146 105.6705 30.4933 -7.7157 14.5503 11.1293
# 3 -5.1237 30.4933 59.2531 -10.1803 7.0612 -10.2808
# 4 2.1625 -7.7157 -10.1803 34.0932 8.4147 13.6810
# 5 26.7052 14.5503 7.0612 8.4147 32.9594 0.6597
# 6 4.4720 11.1293 -10.2808 13.6810 0.6597 43.9011
#
#
#
# Elastic Compliance Matrix: (Units=1/GPa)
#
#
# Indices 1 2 3 4 5 6 
#
# 1 0.011161 -0.007028 0.005886 0.000480 -0.007364 0.001984
# 2 -0.007028 0.017491 -0.010000 0.004654 -0.000923 -0.007496
# 3 0.005886 -0.010000 0.025186 0.003882 -0.006876 0.006727
# 4 0.000480 0.004654 0.003882 0.039792 -0.013184 -0.012522
# 5 -0.007364 -0.000923 -0.006876 -0.013184 0.041496 0.002859
# 6 0.001984 -0.007496 0.006727 -0.012522 0.002859 0.029911
#
#
# Mechanical properties :
#
#
# Convention : Reuss Voigt Hill
#
# Bulk Modulus (GPa) = 31.69236 53.14544 42.41890
# Shear Modulus (GPa) = 25.27313 37.32117 31.29715
#
# Velocity S-wave (km/s) = 3.29556 4.00477 3.66735
# Velocity P-wave (km/s) = 5.30097 6.65001 6.01344
#
# Compressibility (1/GPa) = 0.03155334
#
# Stress axis : x y z
#
# Youngs Moduli (GPa) = 89.59792 57.17307 39.70516
#
# Poissons Ratio (x) = 0.40183 -0.23372
# Poissons Ratio (y) = 0.62973 0.39706
# Poissons Ratio (z) = -0.52742 0.57174
#
# Static dielectric constant tensor:
#      x y z
#    x -0.684130 -2.143540 -0.563770 
#    y -2.143540 0.235870 -0.424550 
#    z -0.563770 -0.424550 1.768810 
# 
# From -- ./inp_files/543028.got.cif
#   From: 2010.05.17/outbox.cif.g08.bks.cpg/sg2_272_cif.got.tgz:543028.got - 2010.06.03 11:33:40.
