data_PCOD9053738
_publ_section_title
;
Structure prediction by ZEFSAII (Michael W. Deem and Ramdas Pophale) SiO2 
 PCOD9053738
Probable space group: P -1
;
_chemical_formula_sum "Si O2"
_cell_formula_units_Z 16
_cell_length_a 7.939738
_cell_length_b 13.828667
_cell_length_c 12.267607
_cell_angle_alpha 138.563474
_cell_angle_beta 69.550192
_cell_angle_gamma 80.979264
_cell_volume 616.027128
_symmetry_space_group_name_H-M "P -1"
_symmetry_group_IT_number 2
_symmetry_cell_setting 'triclinic'
loop_
_space_group_symop_operation_xyz
x,y,z
-x,-y,-z
loop_
_atom_site_type_symbol
_atom_site_label
_atom_site_fract_x
_atom_site_fract_y
_atom_site_fract_z
Si Si1 0.594788 0.381179 0.993718
Si Si2 0.257804 0.012645 0.422478
Si Si3 0.747349 0.560648 0.258873
Si Si4 0.854943 0.877063 0.852805
Si Si5 0.376950 0.716105 0.669372
Si Si6 0.697402 0.077199 0.421075
Si Si7 0.909024 0.290718 0.560442
Si Si8 0.209782 0.224060 0.994716
O O1 0.730194 0.422669 0.074383
O O2 0.338896 0.480267 0.195287
O O3 0.500000 0.500000 0.000000
O O4 0.759351 0.151395 0.739969
O O5 0.253288 0.027159 0.564437
O O6 0.522425 0.897714 0.214644
O O7 0.054901 0.214986 0.576056
O O8 0.553146 0.664798 0.488663
O O9 0.599738 0.753221 0.377478
O O10 0.006189 0.428392 0.148544
O O11 0.115033 0.805098 0.763486
O O12 0.900757 0.789892 0.648237
O O13 0.802845 0.784416 0.879260
O O14 0.666207 0.116761 0.104807
O O15 0.500000 0.500000 0.500000
O O16 0.800767 0.184805 0.489902
O O17 0.831663 0.919735 0.160333
#
# Coordination Sequence:
#
# PCOD9053738 Si02
#       8
#     2   2   2   2   2   2   2   2
#     4  11  23  43  65  96 126 164 223 264 311 375
#     4  12  27  42  63  96 134 175 210 256 330 391
#     4  11  22  39  70  96 124 164 215 271 319 366
#     4  11  22  40  63  97 130 160 220 265 316 381
#     4  11  20  36  66  98 122 161 215 276 310 356
#     4  11  22  44  66  98 122 165 226 267 311 376
#     4  11  24  42  71  92 124 173 218 271 311 368
#     4  12  26  41  64  98 135 171 205 262 333 389
#
# _framework density 25.972881999999998
#
# number of rings (size 3 to 8) (size 9 to 14) (size 15 to 20)
#    0.000    0.750    7.500    2.250    3.500    2.000 
#    0.000    0.625    0.000    0.000    0.000    0.000 
#    0.000    0.000    0.000    0.000    0.000    0.000 
#
# Total GULP energy -89578.610233 kJ/mol
# GULP energy per Si atom -5598.663140 kJ/mol
# Density = 2.591377 g / cm^3
# Si number density = 25.972882 Si / 1000 Ang^3
#
#
#
# Elastic Constant Matrix: (Units=GPa)
#
#
# Indices 1 2 3 4 5 6 
#
# 1 55.3060 18.0792 10.4680 4.9339 -18.2929 -6.9273
# 2 18.0792 131.5466 50.4395 7.6639 -8.3071 -13.6517
# 3 10.4680 50.4395 128.2733 10.6566 -2.7965 0.2299
# 4 4.9339 7.6639 10.6566 61.8057 -0.8908 -4.4947
# 5 -18.2929 -8.3071 -2.7965 -0.8908 43.2748 2.9291
# 6 -6.9273 -13.6517 0.2299 -4.4947 2.9291 24.8408
#
#
#
# Elastic Compliance Matrix: (Units=1/GPa)
#
#
# Indices 1 2 3 4 5 6 
#
# 1 0.022295 -0.001689 -0.000889 -0.000994 0.008746 0.004086
# 2 -0.001689 0.009802 -0.003706 -0.000079 0.000597 0.004865
# 3 -0.000889 -0.003706 0.009430 -0.001287 -0.000331 -0.002566
# 4 -0.000994 -0.000079 -0.001287 0.016686 -0.000361 0.002753
# 5 0.008746 0.000597 -0.000331 -0.000361 0.026923 -0.000470
# 6 0.004086 0.004865 -0.002566 0.002753 -0.000470 0.044647
#
#
# Mechanical properties :
#
#
# Convention : Reuss Voigt Hill
#
# Bulk Modulus (GPa) = 34.53162 52.56659 43.54911
# Shear Modulus (GPa) = 32.89404 41.72687 37.31046
#
# Velocity S-wave (km/s) = 3.56262 4.01253 3.79425
# Velocity P-wave (km/s) = 5.49974 6.46144 5.99989
#
# Compressibility (1/GPa) = 0.02895896
#
# Stress axis : x y z
#
# Youngs Moduli (GPa) = 44.85346 102.01862 106.04601
#
# Poissons Ratio (x) = 0.17229 0.09432
# Poissons Ratio (y) = 0.07575 0.39297
# Poissons Ratio (z) = 0.03989 0.37805
#
# Static dielectric constant tensor:
#      x y z
#    x 2.224280 -0.045180 0.001930 
#    y -0.045180 2.166600 0.057000 
#    z 0.001930 0.057000 2.037440 
# 
# From -- ./inp_files/308148.got.cif
#   From: 2010.05.17/outbox.cif.g08.bks.cpg/sg2_155_cif.got.tgz:308148.got - 2010.06.03 11:33:40.
