data_PCOD9053466
_publ_section_title
;
Structure prediction by ZEFSAII (Michael W. Deem and Ramdas Pophale) SiO2 
 PCOD9053466
Probable space group: P -1
;
_chemical_formula_sum "Si O2"
_cell_formula_units_Z 14
_cell_length_a 16.238591
_cell_length_b 14.080580
_cell_length_c 9.120365
_cell_angle_alpha 33.466196
_cell_angle_beta 60.963420
_cell_angle_gamma 38.965505
_cell_volume 638.009122
_symmetry_space_group_name_H-M "P -1"
_symmetry_group_IT_number 2
_symmetry_cell_setting 'triclinic'
loop_
_space_group_symop_operation_xyz
x,y,z
-x,-y,-z
loop_
_atom_site_type_symbol
_atom_site_label
_atom_site_fract_x
_atom_site_fract_y
_atom_site_fract_z
Si Si1 0.900932 0.912736 0.788431
Si Si2 0.859949 0.616541 0.882726
Si Si3 0.835134 0.636628 0.345545
Si Si4 0.305473 0.965288 0.783645
Si Si5 0.346225 0.265337 0.866841
Si Si6 0.412062 0.507768 0.689040
Si Si7 0.922401 0.967159 0.013157
O O1 0.727668 0.762056 0.920316
O O2 0.741061 0.193636 0.502554
O O3 0.056777 0.672757 0.878974
O O4 0.921480 0.005462 0.792689
O O5 0.129054 0.240569 0.932190
O O6 0.780908 0.840826 0.534383
O O7 0.000000 0.500000 0.000000
O O8 0.733008 0.843738 0.299791
O O9 0.764977 0.591088 0.359543
O O10 0.981720 0.342581 0.657716
O O11 0.235950 0.876008 0.996722
O O12 0.480789 0.690836 0.011287
O O13 0.370283 0.401247 0.765376
O O14 0.500000 0.000000 0.000000
O O15 0.500000 0.500000 0.500000
O O16 0.000000 0.000000 0.000000
#
# Coordination Sequence:
#
# PCOD9053466 Si02
#       7
#     2   2   2   2   2   2   2
#     4  11  21  41  69 100 144 184 230 292 354 417
#     4  12  25  46  75 103 141 188 246 305 353 417
#     4  11  19  40  70 100 132 187 239 283 348 429
#     4  11  22  43  69 101 142 188 235 292 358 415
#     4  12  25  44  73 103 139 193 246 286 366 437
#     4  12  24  42  70 104 148 188 230 294 361 422
#     4  11  20  35  67 107 140 181 245 288 349 428
#
# _framework density 21.943259999999999
#
# number of rings (size 3 to 8) (size 9 to 14) (size 15 to 20)
#    0.000    0.571    8.571    1.714    0.000    1.143 
#    0.000    0.714    0.000    0.000    0.000    0.000 
#    0.000    0.000    0.000    0.000    0.000    0.000 
#
# Total GULP energy -78080.337720 kJ/mol
# GULP energy per Si atom -5577.166980 kJ/mol
# Density = 2.189332 g / cm^3
# Si number density = 21.943260 Si / 1000 Ang^3
#
#
#
# Elastic Constant Matrix: (Units=GPa)
#
#
# Indices 1 2 3 4 5 6 
#
# 1 118.2790 22.6165 24.8181 10.0910 14.0450 24.3386
# 2 22.6165 95.2863 39.6408 2.3794 10.5611 -10.3339
# 3 24.8181 39.6408 129.4158 -10.1306 33.6587 0.0894
# 4 10.0910 2.3794 -10.1306 36.0037 1.6726 7.4476
# 5 14.0450 10.5611 33.6587 1.6726 34.0746 2.0207
# 6 24.3386 -10.3339 0.0894 7.4476 2.0207 34.3403
#
#
#
# Elastic Compliance Matrix: (Units=1/GPa)
#
#
# Indices 1 2 3 4 5 6 
#
# 1 0.011334 -0.003014 -0.000702 -0.001300 -0.002475 -0.008511
# 2 -0.003014 0.013583 -0.003967 -0.002598 0.000678 0.006758
# 3 -0.000702 -0.003967 0.012228 0.004625 -0.010722 -0.001100
# 4 -0.001300 -0.002598 0.004625 0.031133 -0.004378 -0.006367
# 5 -0.002475 0.000678 -0.010722 -0.004378 0.040932 0.000527
# 6 -0.008511 0.006758 -0.001100 -0.006367 0.000527 0.038539
#
#
# Mechanical properties :
#
#
# Convention : Reuss Voigt Hill
#
# Bulk Modulus (GPa) = 45.91657 57.45911 51.68784
# Shear Modulus (GPa) = 29.34682 37.94410 33.64546
#
# Velocity S-wave (km/s) = 3.66101 4.16287 3.91998
# Velocity P-wave (km/s) = 6.23227 7.02482 6.64038
#
# Compressibility (1/GPa) = 0.02177863
#
# Stress axis : x y z
#
# Youngs Moduli (GPa) = 88.22634 73.62097 81.77853
#
# Poissons Ratio (x) = 0.22191 0.05744
# Poissons Ratio (y) = 0.26594 0.32440
# Poissons Ratio (z) = 0.06197 0.29204
#
# Static dielectric constant tensor:
#      x y z
#    x 1.846710 -0.005140 0.015990 
#    y -0.005140 1.868170 -0.007880 
#    z 0.015990 -0.007880 1.867280 
# 
# From -- ./inp_files/330686.got.cif
#   From: 2010.05.17/outbox.cif.g08.bks.cpg/sg2_166_cif.got.tgz:330686.got - 2010.06.03 11:33:40.
