data_PCOD9053618
_publ_section_title
;
Structure prediction by ZEFSAII (Michael W. Deem and Ramdas Pophale) SiO2 
 PCOD9053618
Probable space group: P -1
;
_chemical_formula_sum "Si O2"
_cell_formula_units_Z 16
_cell_length_a 18.993796
_cell_length_b 7.936242
_cell_length_c 9.292673
_cell_angle_alpha 115.703561
_cell_angle_beta 41.103305
_cell_angle_gamma 95.997686
_cell_volume 769.111047
_symmetry_space_group_name_H-M "P -1"
_symmetry_group_IT_number 2
_symmetry_cell_setting 'triclinic'
loop_
_space_group_symop_operation_xyz
x,y,z
-x,-y,-z
loop_
_atom_site_type_symbol
_atom_site_label
_atom_site_fract_x
_atom_site_fract_y
_atom_site_fract_z
Si Si1 0.473093 0.907172 0.834133
Si Si2 0.224424 0.741555 0.950909
Si Si3 0.681940 0.653729 0.723502
Si Si4 0.122804 0.464857 0.864107
Si Si5 0.394535 0.676913 0.389360
Si Si6 0.292295 0.131658 0.652627
Si Si7 0.721159 0.886018 0.997552
Si Si8 0.580749 0.457159 0.216815
O O1 0.583398 0.874832 0.923038
O O2 0.606661 0.811061 0.552599
O O3 0.430316 0.743250 0.907360
O O4 0.405587 0.962721 0.804341
O O5 0.129047 0.655277 0.014925
O O6 0.311732 0.695704 0.662537
O O7 0.292166 0.612133 0.936767
O O8 0.200448 0.979082 0.101353
O O9 0.784196 0.583289 0.425154
O O10 0.620400 0.494215 0.750767
O O11 0.739301 0.696017 0.796805
O O12 0.173284 0.265151 0.811321
O O13 0.000000 0.500000 0.000000
O O14 0.519878 0.625092 0.252411
O O15 0.343652 0.890216 0.467892
O O16 0.280369 0.164927 0.853487
O O17 0.500000 0.500000 0.500000
#
# Coordination Sequence:
#
# PCOD9053618 Si02
#       8
#     2   2   2   2   2   2   2   2
#     4   9  18  31  59  83 119 144 182 213 271 337
#     4   8  16  35  54  76 108 152 185 215 273 345
#     4   9  20  39  56  83 120 149 181 223 282 331
#     4  11  24  41  60  78 104 147 201 241 273 325
#     4   9  18  30  52  83 122 145 177 218 281 335
#     4  11  20  34  56  86 113 145 187 227 276 331
#     4   8  18  35  58  87 114 144 176 223 279 340
#     4   9  15  28  51  83 111 157 179 205 266 350
#
# _framework density 20.803239999999999
#
# number of rings (size 3 to 8) (size 9 to 14) (size 15 to 20)
#    0.750    2.000    0.000    3.375    0.000    3.500 
#    0.000    8.125    0.000    0.000    0.000    0.000 
#    0.000    0.000    0.000    0.000    0.000    0.000 
#
# Total GULP energy -89162.461895 kJ/mol
# GULP energy per Si atom -5572.653868 kJ/mol
# Density = 2.075589 g / cm^3
# Si number density = 20.803240 Si / 1000 Ang^3
#
#
#
# Elastic Constant Matrix: (Units=GPa)
#
#
# Indices 1 2 3 4 5 6 
#
# 1 153.7363 55.9942 31.5875 5.3028 -4.6758 6.7407
# 2 55.9942 85.5790 18.3958 11.1920 2.5359 10.1362
# 3 31.5875 18.3958 32.5511 3.0011 11.2121 -0.1159
# 4 5.3028 11.1920 3.0011 16.9002 7.6589 9.5286
# 5 -4.6758 2.5359 11.2121 7.6589 38.1464 9.6381
# 6 6.7407 10.1362 -0.1159 9.5286 9.6381 39.8568
#
#
#
# Elastic Compliance Matrix: (Units=1/GPa)
#
#
# Indices 1 2 3 4 5 6 
#
# 1 0.010275 -0.004805 -0.008866 0.000464 0.004533 -0.001749
# 2 -0.004805 0.017217 -0.004945 -0.008814 0.001983 -0.001953
# 3 -0.008866 -0.004945 0.047782 0.001444 -0.016761 0.006604
# 4 0.000464 -0.008814 0.001444 0.077638 -0.011958 -0.013502
# 5 0.004533 0.001983 -0.016761 -0.011958 0.035762 -0.007109
# 6 -0.001749 -0.001953 0.006604 -0.013502 -0.007109 0.030848
#
#
# Mechanical properties :
#
#
# Convention : Reuss Voigt Hill
#
# Bulk Modulus (GPa) = 26.28573 53.75792 40.02183
# Shear Modulus (GPa) = 18.55745 30.03994 24.29869
#
# Velocity S-wave (km/s) = 2.98995 3.80413 3.42134
# Velocity P-wave (km/s) = 4.95808 6.72253 5.90656
#
# Compressibility (1/GPa) = 0.03804346
#
# Stress axis : x y z
#
# Youngs Moduli (GPa) = 97.32475 58.08197 20.92836
#
# Poissons Ratio (x) = 0.27908 0.18555
# Poissons Ratio (y) = 0.46764 0.10348
# Poissons Ratio (z) = 0.86286 0.28719
#
# Static dielectric constant tensor:
#      x y z
#    x 1.818170 0.036080 0.065690 
#    y 0.036080 1.839010 0.023600 
#    z 0.065690 0.023600 1.747670 
# 
# From -- ./inp_files/327702.got.cif
#   From: 2010.05.17/outbox.cif.g08.bks.cpg/sg2_164_cif.got.tgz:327702.got - 2010.06.03 11:33:40.
