data_PCOD9053112
_publ_section_title
;
Structure prediction by ZEFSAII (Michael W. Deem and Ramdas Pophale) SiO2 
 PCOD9053112
Probable space group: P -1
;
_chemical_formula_sum "Si O2"
_cell_formula_units_Z 16
_cell_length_a 11.798294
_cell_length_b 14.591673
_cell_length_c 13.272041
_cell_angle_alpha 135.667015
_cell_angle_beta 126.058478
_cell_angle_gamma 30.486244
_cell_volume 807.579316
_symmetry_space_group_name_H-M "P -1"
_symmetry_group_IT_number 2
_symmetry_cell_setting 'triclinic'
loop_
_space_group_symop_operation_xyz
x,y,z
-x,-y,-z
loop_
_atom_site_type_symbol
_atom_site_label
_atom_site_fract_x
_atom_site_fract_y
_atom_site_fract_z
Si Si1 0.417357 0.034887 0.814439
Si Si2 0.179433 0.015074 0.834432
Si Si3 0.811788 0.652047 0.434790
Si Si4 0.090994 0.305763 0.165993
Si Si5 0.185082 0.413178 0.109331
Si Si6 0.534558 0.537843 0.658561
Si Si7 0.169239 0.860056 0.384958
Si Si8 0.295737 0.053501 0.546974
O O1 0.328808 0.986453 0.806439
O O2 0.677487 0.835778 0.765631
O O3 0.286611 0.122689 0.709397
O O4 0.392826 0.184743 0.985911
O O5 0.952052 0.145863 0.761045
O O6 0.314603 0.786237 0.755162
O O7 0.112074 0.152478 0.001374
O O8 0.557640 0.842584 0.489959
O O9 0.000000 0.500000 0.500000
O O10 0.873930 0.488173 0.262545
O O11 0.825072 0.770878 0.462843
O O12 0.111174 0.396363 0.158591
O O13 0.263088 0.503299 0.248285
O O14 0.000000 0.500000 0.000000
O O15 0.500000 0.500000 0.500000
O O16 0.600998 0.369957 0.634249
O O17 0.196201 0.982228 0.447552
O O18 0.000000 0.000000 0.500000
#
# Coordination Sequence:
#
# PCOD9053112 Si02
#       8
#     2   2   2   2   2   2   2   2
#     4  11  18  37  64  92 132 158 212 274 317 381
#     4  11  22  40  59 100 134 170 206 261 333 391
#     4  11  25  44  69  91 121 173 221 273 320 365
#     4  11  21  38  65  90 126 169 223 265 316 379
#     4  11  22  34  59  99 132 169 208 265 334 385
#     4  12  22  35  58  91 134 175 202 248 326 393
#     4  12  25  38  62  97 138 169 204 259 333 402
#     4  11  25  43  64 100 127 161 223 272 313 390
#
# _framework density 19.812296
#
# number of rings (size 3 to 8) (size 9 to 14) (size 15 to 20)
#    0.000    0.750    6.250    3.000    1.750    1.000 
#    0.000    0.625    0.000    1.500    0.000    0.000 
#    0.000    0.000    0.000    0.000    0.000    0.000 
#
# Total GULP energy -89247.448827 kJ/mol
# GULP energy per Si atom -5577.965552 kJ/mol
# Density = 1.976720 g / cm^3
# Si number density = 19.812296 Si / 1000 Ang^3
#
#
#
# Elastic Constant Matrix: (Units=GPa)
#
#
# Indices 1 2 3 4 5 6 
#
# 1 52.2330 21.9271 33.6276 2.6689 -1.2511 9.3875
# 2 21.9271 123.3390 37.5807 -3.5118 -1.0610 20.4575
# 3 33.6276 37.5807 125.7819 1.8648 -4.6598 0.8546
# 4 2.6689 -3.5118 1.8648 42.4292 -7.2520 0.2133
# 5 -1.2511 -1.0610 -4.6598 -7.2520 30.4160 4.1019
# 6 9.3875 20.4575 0.8546 0.2133 4.1019 21.9267
#
#
#
# Elastic Compliance Matrix: (Units=1/GPa)
#
#
# Indices 1 2 3 4 5 6 
#
# 1 0.025564 -0.000952 -0.006424 -0.001165 0.001105 -0.010001
# 2 -0.000952 0.010853 -0.002883 0.001403 0.001569 -0.009913
# 3 -0.006424 -0.002883 0.010519 -0.000232 0.000526 0.004934
# 4 -0.001165 0.001403 -0.000232 0.024836 0.006184 -0.002199
# 5 0.001105 0.001569 0.000526 0.006184 0.035705 -0.008697
# 6 -0.010001 -0.009913 0.004934 -0.002199 -0.008697 0.060594
#
#
# Mechanical properties :
#
#
# Convention : Reuss Voigt Hill
#
# Bulk Modulus (GPa) = 37.85474 54.18051 46.01763
# Shear Modulus (GPa) = 25.32985 32.83561 29.08273
#
# Velocity S-wave (km/s) = 3.57948 4.07545 3.83549
# Velocity P-wave (km/s) = 6.01928 7.03932 6.54919
#
# Compressibility (1/GPa) = 0.02641677
#
# Stress axis : x y z
#
# Youngs Moduli (GPa) = 39.11770 92.13799 95.07009
#
# Poissons Ratio (x) = 0.08774 0.61071
# Poissons Ratio (y) = 0.03725 0.27413
# Poissons Ratio (z) = 0.25128 0.26567
#
# Static dielectric constant tensor:
#      x y z
#    x 1.674130 0.027230 -0.019460 
#    y 0.027230 2.285750 -0.263750 
#    z -0.019460 -0.263750 1.887760 
# 
# From -- ./inp_files/522531.got.cif
#   From: 2010.05.17/outbox.cif.g08.bks.cpg/sg2_262_cif.got.tgz:522531.got - 2010.06.03 11:33:40.
