data_PCOD9053921
_publ_section_title
;
Structure prediction by ZEFSAII (Michael W. Deem and Ramdas Pophale) SiO2 
 PCOD9053921
Probable space group: P -1
;
_chemical_formula_sum "Si O2"
_cell_formula_units_Z 16
_cell_length_a 12.161233
_cell_length_b 9.748879
_cell_length_c 7.963348
_cell_angle_alpha 92.892835
_cell_angle_beta 94.726358
_cell_angle_gamma 49.269834
_cell_volume 713.007240
_symmetry_space_group_name_H-M "P -1"
_symmetry_group_IT_number 2
_symmetry_cell_setting 'triclinic'
loop_
_space_group_symop_operation_xyz
x,y,z
-x,-y,-z
loop_
_atom_site_type_symbol
_atom_site_label
_atom_site_fract_x
_atom_site_fract_y
_atom_site_fract_z
Si Si1 0.944396 0.402598 0.408361
Si Si2 0.116020 0.026400 0.535766
Si Si3 0.508062 0.928643 0.677628
Si Si4 0.201773 0.403983 0.949676
Si Si5 0.615124 0.331490 0.622039
Si Si6 0.230547 0.074314 0.854227
Si Si7 0.252829 0.497242 0.294486
Si Si8 0.537622 0.178419 0.879681
O O1 0.878690 0.476542 0.220134
O O2 0.828073 0.442298 0.533069
O O3 0.000000 0.500000 0.500000
O O4 0.072416 0.187400 0.419010
O O5 0.117453 0.080588 0.730506
O O6 0.271033 0.842328 0.489181
O O7 0.000000 0.000000 0.500000
O O8 0.606796 0.714749 0.680499
O O9 0.500000 0.000000 0.500000
O O10 0.346611 0.032404 0.727715
O O11 0.570242 0.998481 0.806810
O O12 0.177274 0.259300 0.941658
O O13 0.374682 0.299020 0.940330
O O14 0.164123 0.504221 0.128540
O O15 0.500000 0.500000 0.500000
O O16 0.699675 0.386177 0.729469
O O17 0.543196 0.284653 0.739830
O O18 0.331835 0.901738 0.978427
#
# Coordination Sequence:
#
# PCOD9053921 Si02
#       8
#     2   2   2   2   2   2   2   2
#     4  12  27  47  72 104 142 203 250 292 371 441
#     4  12  27  50  70  99 153 194 239 302 362 447
#     4  11  20  38  71 104 138 180 238 308 362 423
#     4  11  23  45  75 108 148 182 248 318 360 431
#     4  12  27  47  72 107 146 198 243 295 376 441
#     4  11  21  44  70 106 142 184 238 312 369 418
#     4  12  24  45  69 105 145 186 249 304 358 437
#     4  11  23  41  72 111 139 184 246 306 375 424
#
# _framework density 22.440163999999999
#
# number of rings (size 3 to 8) (size 9 to 14) (size 15 to 20)
#    0.000    0.500    5.000    5.250    1.750    2.000 
#    2.250    1.250    0.000    0.000    0.000    0.000 
#    0.000    0.000    0.000    0.000    0.000    0.000 
#
# Total GULP energy -89577.428138 kJ/mol
# GULP energy per Si atom -5598.589259 kJ/mol
# Density = 2.238909 g / cm^3
# Si number density = 22.440164 Si / 1000 Ang^3
#
#
#
# Elastic Constant Matrix: (Units=GPa)
#
#
# Indices 1 2 3 4 5 6 
#
# 1 77.9674 14.6216 13.3488 -1.0895 9.6451 20.1076
# 2 14.6216 122.2393 29.6862 -10.1498 12.0104 10.8923
# 3 13.3488 29.6862 127.8653 -16.1612 27.1081 5.2974
# 4 -1.0895 -10.1498 -16.1612 38.0231 -2.4936 1.9676
# 5 9.6451 12.0104 27.1081 -2.4936 44.1219 2.4322
# 6 20.1076 10.8923 5.2974 1.9676 2.4322 34.7828
#
#
#
# Elastic Compliance Matrix: (Units=1/GPa)
#
#
# Indices 1 2 3 4 5 6 
#
# 1 0.015554 -0.000704 -0.000565 0.000304 -0.002374 -0.008536
# 2 -0.000704 0.009088 -0.001460 0.001822 -0.001197 -0.002236
# 3 -0.000565 -0.001460 0.009793 0.003438 -0.005272 -0.000534
# 4 0.000304 0.001822 0.003438 0.028342 -0.000918 -0.002809
# 5 -0.002374 -0.001197 -0.005272 -0.000918 0.026656 0.000738
# 6 -0.008536 -0.002236 -0.000534 -0.002809 0.000738 0.034573
#
#
# Mechanical properties :
#
#
# Convention : Reuss Voigt Hill
#
# Bulk Modulus (GPa) = 34.51043 49.26502 41.88772
# Shear Modulus (GPa) = 35.93973 41.41326 38.67649
#
# Velocity S-wave (km/s) = 4.00632 4.30059 4.15606
# Velocity P-wave (km/s) = 6.06737 6.83093 6.46044
#
# Compressibility (1/GPa) = 0.02897675
#
# Stress axis : x y z
#
# Youngs Moduli (GPa) = 64.29200 110.04110 102.11352
#
# Poissons Ratio (x) = 0.07749 0.05770
# Poissons Ratio (y) = 0.04527 0.14905
# Poissons Ratio (z) = 0.03633 0.16062
#
# Static dielectric constant tensor:
#      x y z
#    x 1.849640 -0.027060 0.033970 
#    y -0.027060 1.841450 0.035810 
#    z 0.033970 0.035810 1.861810 
# 
# From -- ./inp_files/217674.got.cif
#   From: 2010.05.17/outbox.cif.g08.bks.cpg/sg2_109_cif.got.tgz:217674.got - 2010.06.03 11:33:40.
