data_PCOD9053995
_publ_section_title
;
Structure prediction by ZEFSAII (Michael W. Deem and Ramdas Pophale) SiO2 
 PCOD9053995
Probable space group: P -1
;
_chemical_formula_sum "Si O2"
_cell_formula_units_Z 16
_cell_length_a 21.555717
_cell_length_b 13.524333
_cell_length_c 16.234442
_cell_angle_alpha 24.660097
_cell_angle_beta 158.543466
_cell_angle_gamma 146.514620
_cell_volume 720.168982
_symmetry_space_group_name_H-M "P -1"
_symmetry_group_IT_number 2
_symmetry_cell_setting 'triclinic'
loop_
_space_group_symop_operation_xyz
x,y,z
-x,-y,-z
loop_
_atom_site_type_symbol
_atom_site_label
_atom_site_fract_x
_atom_site_fract_y
_atom_site_fract_z
Si Si1 0.722277 0.157574 0.333477
Si Si2 0.860785 0.175221 0.653582
Si Si3 0.207730 0.376196 0.671611
Si Si4 0.576549 0.492144 0.307238
Si Si5 0.875511 0.248803 0.276151
Si Si6 0.674885 0.846494 0.302083
Si Si7 0.668898 0.637957 0.621393
Si Si8 0.504292 0.979407 0.620661
O O1 0.874617 0.144058 0.596317
O O2 0.776933 0.222270 0.260773
O O3 0.639480 0.903909 0.421425
O O4 0.594908 0.374505 0.041263
O O5 0.877073 0.439542 0.506806
O O6 0.674644 0.096531 0.508972
O O7 0.000000 0.000000 0.000000
O O8 0.297053 0.531368 0.595478
O O9 0.068809 0.247662 0.544499
O O10 0.346470 0.201438 0.021822
O O11 0.636577 0.676342 0.309170
O O12 0.540452 0.245592 0.490516
O O13 0.814557 0.028329 0.315866
O O14 0.800166 0.483328 0.958077
O O15 0.739243 0.689446 0.578629
O O16 0.500000 0.000000 0.000000
O O17 0.500000 0.500000 0.500000
O O18 0.500000 0.000000 0.500000
#
# Coordination Sequence:
#
# PCOD9053995 Si02
#       8
#     2   2   2   2   2   2   2   2
#     4  11  24  41  67 105 139 178 240 290 341 417
#     4  12  27  46  74 108 136 183 248 293 345 426
#     4  12  28  49  68 104 150 183 232 295 358 426
#     4  12  24  45  74 101 142 193 231 282 361 424
#     4  11  25  43  69 102 143 184 234 295 348 415
#     4  11  22  42  69 108 142 180 240 292 345 423
#     4  11  20  39  69 101 139 177 232 289 348 407
#     4  12  27  48  73  99 145 192 229 289 367 416
#
# _framework density 22.217008
#
# number of rings (size 3 to 8) (size 9 to 14) (size 15 to 20)
#    0.000    0.500    6.250    1.875    7.000    4.000 
#    0.000    1.250    0.000    0.000    0.000    0.000 
#    0.000    0.000    0.000    0.000    0.000    0.000 
#
# Total GULP energy -89475.162405 kJ/mol
# GULP energy per Si atom -5592.197650 kJ/mol
# Density = 2.216644 g / cm^3
# Si number density = 22.217008 Si / 1000 Ang^3
#
#
#
# Elastic Constant Matrix: (Units=GPa)
#
#
# Indices 1 2 3 4 5 6 
#
# 1 55.8091 4.8777 20.3038 -2.0174 -25.4353 -10.6769
# 2 4.8777 101.8484 53.8095 -7.1499 -3.7005 -8.0206
# 3 20.3038 53.8095 156.8837 6.0205 -30.6999 -6.6255
# 4 -2.0174 -7.1499 6.0205 41.5344 -2.8384 -2.1005
# 5 -25.4353 -3.7005 -30.6999 -2.8384 33.1820 1.1561
# 6 -10.6769 -8.0206 -6.6255 -2.1005 1.1561 40.7133
#
#
#
# Elastic Compliance Matrix: (Units=1/GPa)
#
#
# Indices 1 2 3 4 5 6 
#
# 1 0.030053 -0.000342 0.001127 0.003260 0.024059 0.007482
# 2 -0.000342 0.012683 -0.004976 0.002756 -0.003280 0.001834
# 3 0.001127 -0.004976 0.009829 -0.001566 0.009249 0.000571
# 4 0.003260 0.002756 -0.001566 0.025290 0.003439 0.002350
# 5 0.024059 -0.003280 0.009249 0.003439 0.056865 0.005731
# 6 0.007482 0.001834 0.000571 0.002350 0.005731 0.026937
#
#
# Mechanical properties :
#
#
# Convention : Reuss Voigt Hill
#
# Bulk Modulus (GPa) = 22.63388 52.50256 37.56822
# Shear Modulus (GPa) = 27.06127 38.78930 32.92529
#
# Velocity S-wave (km/s) = 3.49383 4.18296 3.85383
# Velocity P-wave (km/s) = 5.14641 6.85657 6.06210
#
# Compressibility (1/GPa) = 0.04418156
#
# Stress axis : x y z
#
# Youngs Moduli (GPa) = 33.27508 78.84826 101.73921
#
# Poissons Ratio (x) = 0.02700 -0.11466
# Poissons Ratio (y) = 0.01140 0.50624
# Poissons Ratio (z) = -0.03750 0.39233
#
# Static dielectric constant tensor:
#      x y z
#    x 1.851760 -0.008090 0.028200 
#    y -0.008090 1.883640 0.017340 
#    z 0.028200 0.017340 1.803430 
# 
# From -- ./inp_files/579297.got.cif
#   From: 2010.05.17/outbox.cif.g08.bks.cpg/sg2_290_cif.got.tgz:579297.got - 2010.06.03 11:33:40.
