data_PCOD9053886
_publ_section_title
;
Structure prediction by ZEFSAII (Michael W. Deem and Ramdas Pophale) SiO2 
 PCOD9053886
Probable space group: P -1
;
_chemical_formula_sum "Si O2"
_cell_formula_units_Z 16
_cell_length_a 6.672947
_cell_length_b 12.679303
_cell_length_c 17.142979
_cell_angle_alpha 49.772168
_cell_angle_beta 135.908815
_cell_angle_gamma 122.613274
_cell_volume 762.780059
_symmetry_space_group_name_H-M "P -1"
_symmetry_group_IT_number 2
_symmetry_cell_setting 'triclinic'
loop_
_space_group_symop_operation_xyz
x,y,z
-x,-y,-z
loop_
_atom_site_type_symbol
_atom_site_label
_atom_site_fract_x
_atom_site_fract_y
_atom_site_fract_z
Si Si1 0.382263 0.432650 0.880962
Si Si2 0.396399 0.398931 0.446538
Si Si3 0.205973 0.816280 0.299962
Si Si4 0.774223 0.873107 0.831167
Si Si5 0.142188 0.778423 0.119312
Si Si6 0.946465 0.342059 0.096003
Si Si7 0.624220 0.610157 0.273951
Si Si8 0.189864 0.687243 0.758422
O O1 0.423514 0.465884 0.786056
O O2 0.414913 0.573304 0.871810
O O3 0.064628 0.362677 0.848330
O O4 0.594758 0.318576 0.008525
O O5 0.500000 0.500000 0.500000
O O6 0.518215 0.253859 0.563476
O O7 0.554459 0.492171 0.375894
O O8 0.049713 0.354409 0.356138
O O9 0.217817 0.839261 0.197702
O O10 0.938791 0.701198 0.307592
O O11 0.174643 0.965639 0.255501
O O12 0.423249 0.826524 0.757747
O O13 0.911377 0.769955 0.859494
O O14 0.952363 0.857599 0.969148
O O15 0.410042 0.725508 0.174884
O O16 0.002381 0.332558 0.207718
O O17 0.000000 0.500000 0.000000
#
# Coordination Sequence:
#
# PCOD9053886 Si02
#       8
#     2   2   2   2   2   2   2   2
#     4  11  20  38  66 105 131 167 221 284 333 386
#     4  12  24  49  73  97 129 178 237 280 326 396
#     4  11  27  44  67 100 139 185 224 273 335 398
#     4  12  26  43  66 105 144 176 218 274 348 414
#     4  11  21  43  69 100 135 175 224 275 337 397
#     4  12  22  38  65 100 138 176 222 273 337 399
#     4  11  22  42  75  98 128 177 231 280 332 388
#     4  12  25  40  70  99 137 176 223 282 337 392
#
# _framework density 20.975902999999999
#
# number of rings (size 3 to 8) (size 9 to 14) (size 15 to 20)
#    0.000    0.500    6.250    3.375    0.000    2.000 
#    0.000    0.625    0.000    0.000    0.000    0.000 
#    0.000    0.000    0.000    0.000    0.000    0.000 
#
# Total GULP energy -89208.314063 kJ/mol
# GULP energy per Si atom -5575.519629 kJ/mol
# Density = 2.092816 g / cm^3
# Si number density = 20.975903 Si / 1000 Ang^3
#
#
#
# Elastic Constant Matrix: (Units=GPa)
#
#
# Indices 1 2 3 4 5 6 
#
# 1 74.7261 13.7785 29.5999 2.5887 11.0458 -2.3990
# 2 13.7785 62.9685 43.3103 -13.0468 4.6260 -7.0463
# 3 29.5999 43.3103 106.9924 -0.3035 9.6900 -2.3668
# 4 2.5887 -13.0468 -0.3035 35.2909 -1.8746 10.8222
# 5 11.0458 4.6260 9.6900 -1.8746 33.8928 1.9233
# 6 -2.3990 -7.0463 -2.3668 10.8222 1.9233 22.4197
#
#
#
# Elastic Compliance Matrix: (Units=1/GPa)
#
#
# Indices 1 2 3 4 5 6 
#
# 1 0.015765 -0.000935 -0.003544 -0.002565 -0.004288 0.002625
# 2 -0.000935 0.024770 -0.009686 0.008333 0.000004 0.002639
# 3 -0.003544 -0.009686 0.014398 -0.003236 -0.001808 -0.000186
# 4 -0.002565 0.008333 -0.003236 0.036674 0.003561 -0.016006
# 5 -0.004288 0.000004 -0.001808 0.003561 0.031905 -0.005104
# 6 0.002625 0.002639 -0.000186 -0.016006 -0.005104 0.053858
#
#
# Mechanical properties :
#
#
# Convention : Reuss Voigt Hill
#
# Bulk Modulus (GPa) = 37.59001 46.45158 42.02080
# Shear Modulus (GPa) = 23.30249 28.85389 26.07819
#
# Velocity S-wave (km/s) = 3.33666 3.71290 3.52979
# Velocity P-wave (km/s) = 5.72747 6.36978 6.05714
#
# Compressibility (1/GPa) = 0.02660281
#
# Stress axis : x y z
#
# Youngs Moduli (GPa) = 63.43008 40.37212 69.45226
#
# Poissons Ratio (x) = 0.03774 0.24614
# Poissons Ratio (y) = 0.05930 0.67274
# Poissons Ratio (z) = 0.22479 0.39106
#
# Static dielectric constant tensor:
#      x y z
#    x 1.778640 -0.001150 0.007600 
#    y -0.001150 1.801390 0.079950 
#    z 0.007600 0.079950 1.838190 
# 
# From -- ./inp_files/118694.got.cif
#   From: 2010.05.17/outbox.cif.g08.bks.cpg/sg2_60_cif.got.tgz:118694.got - 2010.06.03 11:33:40.
