data_PCOD9053097
_publ_section_title
;
Structure prediction by ZEFSAII (Michael W. Deem and Ramdas Pophale) SiO2 
 PCOD9053097
Probable space group: P -1
;
_chemical_formula_sum "Si O2"
_cell_formula_units_Z 16
_cell_length_a 9.318064
_cell_length_b 19.748463
_cell_length_c 22.868982
_cell_angle_alpha 162.851388
_cell_angle_beta 143.659983
_cell_angle_gamma 33.280584
_cell_volume 680.305056
_symmetry_space_group_name_H-M "P -1"
_symmetry_group_IT_number 2
_symmetry_cell_setting 'triclinic'
loop_
_space_group_symop_operation_xyz
x,y,z
-x,-y,-z
loop_
_atom_site_type_symbol
_atom_site_label
_atom_site_fract_x
_atom_site_fract_y
_atom_site_fract_z
Si Si1 0.216814 0.853485 0.737777
Si Si2 0.734740 0.681229 0.825301
Si Si3 0.499524 0.342384 0.147263
Si Si4 0.204098 0.321863 0.507472
Si Si5 0.072660 0.246069 0.726761
Si Si6 0.483093 0.036502 0.781618
Si Si7 0.102287 0.871915 0.582414
Si Si8 0.605663 0.037327 0.502513
O O1 0.527806 0.726488 0.742576
O O2 0.132039 0.929633 0.706456
O O3 0.080131 0.668387 0.561083
O O4 0.138033 0.113739 0.961859
O O5 0.554924 0.730064 0.865375
O O6 0.921382 0.394943 0.647876
O O7 0.721136 0.458671 0.312975
O O8 0.206062 0.534089 0.190945
O O9 0.571581 0.138903 0.952148
O O10 0.304155 0.106406 0.313967
O O11 0.386419 0.234417 0.553412
O O12 0.250089 0.240672 0.836395
O O13 0.266145 0.195110 0.691873
O O14 0.000000 0.000000 0.500000
O O15 0.355543 0.848191 0.609142
O O16 0.860882 0.083737 0.646484
O O17 0.500000 0.000000 0.500000
#
# Coordination Sequence:
#
# PCOD9053097 Si02
#       8
#     2   2   2   2   2   2   2   2
#     4  11  26  43  66  91 129 163 216 266 313 366
#     4  11  24  44  67  92 119 174 220 254 307 381
#     4  12  21  39  68  90 124 172 214 251 312 375
#     4  11  23  43  61  98 134 157 204 272 310 369
#     4  11  18  36  60  92 128 166 208 252 301 387
#     4  11  22  37  64  96 126 166 208 252 318 376
#     4  12  20  42  68  90 126 170 211 253 314 380
#     4  11  20  35  64  94 130 164 196 254 325 372
#
# _framework density 23.518861999999999
#
# number of rings (size 3 to 8) (size 9 to 14) (size 15 to 20)
#    0.000    0.750    8.750    0.750    0.000    1.500 
#    0.000    1.250    0.000    0.000    0.000    0.000 
#    0.000    0.000    0.000    0.000    0.000    0.000 
#
# Total GULP energy -89326.370407 kJ/mol
# GULP energy per Si atom -5582.898150 kJ/mol
# Density = 2.346533 g / cm^3
# Si number density = 23.518862 Si / 1000 Ang^3
#
#
#
# Elastic Constant Matrix: (Units=GPa)
#
#
# Indices 1 2 3 4 5 6 
#
# 1 102.5161 -7.2732 17.4329 -15.0878 1.2959 7.2291
# 2 -7.2732 48.7492 17.9856 -16.4673 -4.0642 4.7374
# 3 17.4329 17.9856 72.6348 -14.4729 2.4873 1.8673
# 4 -15.0878 -16.4673 -14.4729 30.8141 5.0927 -5.7675
# 5 1.2959 -4.0642 2.4873 5.0927 32.5818 -7.5518
# 6 7.2291 4.7374 1.8673 -5.7675 -7.5518 16.8674
#
#
#
# Elastic Compliance Matrix: (Units=1/GPa)
#
#
# Indices 1 2 3 4 5 6 
#
# 1 0.011967 0.005413 -0.002652 0.006904 -0.001789 -0.004795
# 2 0.005413 0.028705 -0.005412 0.014511 0.000438 -0.004625
# 3 -0.002652 -0.005412 0.016628 0.004222 -0.002204 0.001273
# 4 0.006904 0.014511 0.004222 0.047594 -0.004678 0.006677
# 5 -0.001789 0.000438 -0.002204 -0.004678 0.035206 0.015050
# 6 -0.004795 -0.004625 0.001273 0.006677 0.015050 0.071521
#
#
# Mechanical properties :
#
#
# Convention : Reuss Voigt Hill
#
# Bulk Modulus (GPa) = 19.23161 31.13230 25.18196
# Shear Modulus (GPa) = 21.34437 29.10298 25.22368
#
# Velocity S-wave (km/s) = 3.01581 3.52153 3.27844
# Velocity P-wave (km/s) = 4.50796 5.45901 5.00612
#
# Compressibility (1/GPa) = 0.05199771
#
# Stress axis : x y z
#
# Youngs Moduli (GPa) = 83.56648 34.83715 60.13941
#
# Poissons Ratio (x) = -0.18857 0.15950
# Poissons Ratio (y) = -0.45234 0.32546
# Poissons Ratio (z) = 0.22163 0.18853
#
# Static dielectric constant tensor:
#      x y z
#    x 1.940900 -0.019320 0.008110 
#    y -0.019320 1.944690 0.004430 
#    z 0.008110 0.004430 1.900560 
# 
# From -- ./inp_files/225806.got.cif
#   From: 2010.05.17/outbox.cif.g08.bks.cpg/sg2_113_cif.got.tgz:225806.got - 2010.06.03 11:33:40.
