data_PCOD9053707
_publ_section_title
;
Structure prediction by ZEFSAII (Michael W. Deem and Ramdas Pophale) SiO2 
 PCOD9053707
Probable space group: P -1
;
_chemical_formula_sum "Si O2"
_cell_formula_units_Z 16
_cell_length_a 14.909030
_cell_length_b 8.850401
_cell_length_c 11.671477
_cell_angle_alpha 137.584731
_cell_angle_beta 69.196600
_cell_angle_gamma 130.042388
_cell_volume 773.548229
_symmetry_space_group_name_H-M "P -1"
_symmetry_group_IT_number 2
_symmetry_cell_setting 'triclinic'
loop_
_space_group_symop_operation_xyz
x,y,z
-x,-y,-z
loop_
_atom_site_type_symbol
_atom_site_label
_atom_site_fract_x
_atom_site_fract_y
_atom_site_fract_z
Si Si1 0.385900 0.522826 0.818009
Si Si2 0.356782 0.211324 0.080957
Si Si3 0.386938 0.741505 0.474777
Si Si4 0.784766 0.118788 0.442740
Si Si5 0.839706 0.959685 0.098696
Si Si6 0.498082 0.232511 0.333381
Si Si7 0.086620 0.456461 0.170398
Si Si8 0.255085 0.762011 0.077309
O O1 0.503551 0.665999 0.925126
O O2 0.439532 0.710045 0.784781
O O3 0.325036 0.196733 0.643223
O O4 0.282075 0.541474 0.915967
O O5 0.360812 0.457709 0.279825
O O6 0.285503 0.949051 0.055326
O O7 0.287014 0.143928 0.956335
O O8 0.274615 0.744677 0.508935
O O9 0.428216 0.781732 0.609307
O O10 0.500000 0.000000 0.500000
O O11 0.864419 0.315436 0.622577
O O12 0.849667 0.071218 0.285258
O O13 0.855813 0.713712 0.943713
O O14 0.945677 0.218407 0.119715
O O15 0.500000 0.500000 0.500000
O O16 0.359962 0.967317 0.236665
O O17 0.129804 0.613935 0.116764
#
# Coordination Sequence:
#
# PCOD9053707 Si02
#       8
#     2   2   2   2   2   2   2   2
#     4  11  23  39  62 101 131 170 208 255 333 393
#     4  11  23  41  61  97 135 165 205 261 330 383
#     4  12  22  36  60  97 134 168 205 257 322 388
#     4  12  24  41  68  95 129 166 217 265 322 382
#     4  11  26  44  65  93 128 172 219 271 315 373
#     4  11  20  36  59  92 134 170 204 248 320 396
#     4  11  24  47  67  88 125 176 226 263 315 373
#     4  11  23  40  66  92 131 172 215 264 314 390
#
# _framework density 20.683906
#
# number of rings (size 3 to 8) (size 9 to 14) (size 15 to 20)
#    0.000    0.750    6.250    3.375    3.500    1.000 
#    0.000    0.000    0.000    1.500    0.000    0.000 
#    0.000    0.000    0.000    0.000    0.000    0.000 
#
# Total GULP energy -89428.713757 kJ/mol
# GULP energy per Si atom -5589.294610 kJ/mol
# Density = 2.063683 g / cm^3
# Si number density = 20.683906 Si / 1000 Ang^3
#
#
#
# Elastic Constant Matrix: (Units=GPa)
#
#
# Indices 1 2 3 4 5 6 
#
# 1 41.5934 -1.1291 9.4573 0.4274 -3.6454 -9.4735
# 2 -1.1291 84.1376 6.3498 6.0226 -4.4030 13.7224
# 3 9.4573 6.3498 83.0782 -0.9601 -12.9526 -1.2374
# 4 0.4274 6.0226 -0.9601 32.4622 -2.9793 -6.4329
# 5 -3.6454 -4.4030 -12.9526 -2.9793 28.3547 1.5493
# 6 -9.4735 13.7224 -1.2374 -6.4329 1.5493 22.3306
#
#
#
# Elastic Compliance Matrix: (Units=1/GPa)
#
#
# Indices 1 2 3 4 5 6 
#
# 1 0.027728 -0.001713 -0.002532 0.002675 0.001695 0.013329
# 2 -0.001713 0.014124 -0.000835 -0.004627 0.001701 -0.010903
# 3 -0.002532 -0.000835 0.013297 0.001128 0.005732 0.000103
# 4 0.002675 -0.004627 0.001128 0.034678 0.003029 0.013821
# 5 0.001695 0.001701 0.005732 0.003029 0.038786 -0.001827
# 6 0.013329 -0.010903 0.000103 0.013821 -0.001827 0.061250
#
#
# Mechanical properties :
#
#
# Convention : Reuss Voigt Hill
#
# Bulk Modulus (GPa) = 22.22788 26.46279 24.34533
# Shear Modulus (GPa) = 23.25350 29.57158 26.41254
#
# Velocity S-wave (km/s) = 3.35659 3.78523 3.57734
# Velocity P-wave (km/s) = 5.07859 5.65027 5.37204
#
# Compressibility (1/GPa) = 0.04498854
#
# Stress axis : x y z
#
# Youngs Moduli (GPa) = 36.06409 70.80231 75.20419
#
# Poissons Ratio (x) = 0.12132 0.19040
# Poissons Ratio (y) = 0.06180 0.06281
# Poissons Ratio (z) = 0.09131 0.05913
#
# Static dielectric constant tensor:
#      x y z
#    x 1.718690 0.011040 -0.033450 
#    y 0.011040 1.776580 -0.037960 
#    z -0.033450 -0.037960 1.783950 
# 
# From -- ./inp_files/258143.got.cif
#   From: 2010.05.17/outbox.cif.g08.bks.cpg/sg2_130_cif.got.tgz:258143.got - 2010.06.03 11:33:40.
