data_PCOD9053690
_publ_section_title
;
Structure prediction by ZEFSAII (Michael W. Deem and Ramdas Pophale) SiO2 
 PCOD9053690
Probable space group: P -1
;
_chemical_formula_sum "Si O2"
_cell_formula_units_Z 14
_cell_length_a 10.471949
_cell_length_b 12.009773
_cell_length_c 10.069590
_cell_angle_alpha 119.157060
_cell_angle_beta 140.183138
_cell_angle_gamma 79.689921
_cell_volume 663.604542
_symmetry_space_group_name_H-M "P -1"
_symmetry_group_IT_number 2
_symmetry_cell_setting 'triclinic'
loop_
_space_group_symop_operation_xyz
x,y,z
-x,-y,-z
loop_
_atom_site_type_symbol
_atom_site_label
_atom_site_fract_x
_atom_site_fract_y
_atom_site_fract_z
Si Si1 0.523088 0.226617 0.654759
Si Si2 0.047967 0.057079 0.219985
Si Si3 0.342911 0.844577 0.998100
Si Si4 0.721175 0.096347 0.519980
Si Si5 0.154961 0.569735 0.543781
Si Si6 0.981992 0.611850 0.157045
Si Si7 0.468300 0.502068 0.317438
O O1 0.274831 0.178336 0.465383
O O2 0.646040 0.221634 0.886148
O O3 0.573031 0.122539 0.533186
O O4 0.575340 0.366803 0.699152
O O5 0.097894 0.949973 0.294032
O O6 0.854008 0.102099 0.133762
O O7 0.000000 0.000000 0.000000
O O8 0.563309 0.972476 0.236351
O O9 0.293951 0.723874 0.784145
O O10 0.836087 0.241858 0.630752
O O11 0.325402 0.502793 0.596011
O O12 0.000000 0.500000 0.500000
O O13 0.009891 0.563532 0.297292
O O14 0.749506 0.620855 0.958725
O O15 0.000000 0.500000 0.000000
O O16 0.500000 0.500000 0.500000
#
# Coordination Sequence:
#
# PCOD9053690 Si02
#       7
#     2   2   2   2   2   2   2
#     4  11  21  38  66 103 140 181 244 290 346 428
#     4  11  20  35  67 100 137 190 234 284 355 424
#     4  11  24  43  65 104 147 182 234 301 359 413
#     4  11  23  40  68 104 141 185 237 294 348 432
#     4  12  28  48  74 108 148 186 236 306 361 416
#     4  12  26  47  72 105 144 188 244 290 351 438
#     4  12  26  45  75 103 141 196 240 290 362 429
#
# _framework density 21.096902
#
# number of rings (size 3 to 8) (size 9 to 14) (size 15 to 20)
#    0.000    0.571    5.714    2.571    2.000    6.286 
#    0.000    1.429    0.000    0.000    0.000    0.000 
#    0.000    0.000    0.000    0.000    0.000    0.000 
#
# Total GULP energy -78258.100017 kJ/mol
# GULP energy per Si atom -5589.864287 kJ/mol
# Density = 2.104888 g / cm^3
# Si number density = 21.096902 Si / 1000 Ang^3
#
#
#
# Elastic Constant Matrix: (Units=GPa)
#
#
# Indices 1 2 3 4 5 6 
#
# 1 102.7129 52.7774 42.9337 -12.7567 10.3624 7.8843
# 2 52.7774 112.6534 47.3185 -3.6434 3.9555 2.8705
# 3 42.9337 47.3185 127.3574 -12.7740 -1.7710 2.8765
# 4 -12.7567 -3.6434 -12.7740 36.0943 -5.9389 9.6235
# 5 10.3624 3.9555 -1.7710 -5.9389 36.2515 -1.1752
# 6 7.8843 2.8705 2.8765 9.6235 -1.1752 39.7375
#
#
#
# Elastic Compliance Matrix: (Units=1/GPa)
#
#
# Indices 1 2 3 4 5 6 
#
# 1 0.014698 -0.005524 -0.002450 0.004170 -0.003147 -0.003443
# 2 -0.005524 0.012677 -0.003076 -0.002041 -0.000260 0.000890
# 3 -0.002450 -0.003076 0.010157 0.002926 0.001990 -0.000677
# 4 0.004170 -0.002041 0.002926 0.033055 0.004305 -0.008770
# 5 -0.003147 -0.000260 0.001990 0.004305 0.029326 0.000324
# 6 -0.003443 0.000890 -0.000677 -0.008770 0.000324 0.027966
#
#
# Mechanical properties :
#
#
# Convention : Reuss Voigt Hill
#
# Bulk Modulus (GPa) = 64.80143 69.86477 67.33310
# Shear Modulus (GPa) = 32.23215 35.72961 33.98088
#
# Velocity S-wave (km/s) = 3.91297 4.11980 4.01771
# Velocity P-wave (km/s) = 7.15527 7.47116 7.31492
#
# Compressibility (1/GPa) = 0.01543176
#
# Stress axis : x y z
#
# Youngs Moduli (GPa) = 68.03650 78.88147 98.44988
#
# Poissons Ratio (x) = 0.43571 0.24124
# Poissons Ratio (y) = 0.37581 0.30288
# Poissons Ratio (z) = 0.16672 0.24268
#
# Static dielectric constant tensor:
#      x y z
#    x 1.749770 0.026020 0.029310 
#    y 0.026020 1.786440 0.031070 
#    z 0.029310 0.031070 1.764330 
# 
# From -- ./inp_files/190531.got.cif
#   From: 2010.05.17/outbox.cif.g08.bks.cpg/sg2_96_cif.got.tgz:190531.got - 2010.06.03 11:33:40.
