data_PCOD9053510
_publ_section_title
;
Structure prediction by ZEFSAII (Michael W. Deem and Ramdas Pophale) SiO2 
 PCOD9053510
Probable space group: P -1
;
_chemical_formula_sum "Si O2"
_cell_formula_units_Z 16
_cell_length_a 9.067328
_cell_length_b 14.382641
_cell_length_c 5.848512
_cell_angle_alpha 73.192422
_cell_angle_beta 72.054384
_cell_angle_gamma 92.830903
_cell_volume 686.535626
_symmetry_space_group_name_H-M "P -1"
_symmetry_group_IT_number 2
_symmetry_cell_setting 'triclinic'
loop_
_space_group_symop_operation_xyz
x,y,z
-x,-y,-z
loop_
_atom_site_type_symbol
_atom_site_label
_atom_site_fract_x
_atom_site_fract_y
_atom_site_fract_z
Si Si1 0.371351 0.852124 0.155447
Si Si2 0.763505 0.411740 0.986449
Si Si3 0.201536 0.370046 0.235213
Si Si4 0.070741 0.978078 0.731526
Si Si5 0.453969 0.402423 0.440424
Si Si6 0.383037 0.032921 0.715401
Si Si7 0.101996 0.763265 0.696437
Si Si8 0.480778 0.679920 0.107588
O O1 0.229879 0.797210 0.414078
O O2 0.438564 0.784350 0.980615
O O3 0.514656 0.890252 0.226978
O O4 0.321792 0.944235 0.982442
O O5 0.591373 0.409379 0.184554
O O6 0.846729 0.325747 0.112087
O O7 0.845162 0.523803 0.884162
O O8 0.690347 0.387853 0.786710
O O9 0.278445 0.385144 0.440030
O O10 0.060756 0.284455 0.311869
O O11 0.358611 0.350220 0.041344
O O12 0.236023 0.050449 0.623366
O O13 0.086970 0.861678 0.779326
O O14 0.000000 0.000000 0.500000
O O15 0.000000 0.000000 0.000000
O O16 0.500000 0.500000 0.500000
O O17 0.482151 0.313614 0.647899
O O18 0.500000 0.000000 0.500000
#
# Coordination Sequence:
#
# PCOD9053510 Si02
#       8
#     2   2   2   2   2   2   2   2
#     4  11  25  45  75 107 140 193 249 306 368 459
#     4  11  22  43  69  99 143 192 241 295 353 441
#     4  11  25  41  68 106 148 189 243 300 364 427
#     4  12  29  52  77 110 156 194 242 322 391 453
#     4  11  19  42  67  98 138 191 242 290 354 426
#     4  11  25  49  79 101 140 189 248 302 384 448
#     4  12  26  48  69 110 147 188 246 307 373 441
#     4  11  22  40  72  97 138 190 243 292 354 437
#
# _framework density 23.305416000000001
#
# number of rings (size 3 to 8) (size 9 to 14) (size 15 to 20)
#    0.000    0.750    5.000    2.625    3.500    1.000 
#    4.500    1.250    0.000    0.000    0.000    0.000 
#    0.000    0.000    0.000    0.000    0.000    0.000 
#
# Total GULP energy -89164.857371 kJ/mol
# GULP energy per Si atom -5572.803586 kJ/mol
# Density = 2.325237 g / cm^3
# Si number density = 23.305416 Si / 1000 Ang^3
#
#
#
# Elastic Constant Matrix: (Units=GPa)
#
#
# Indices 1 2 3 4 5 6 
#
# 1 141.7702 45.1584 32.8960 4.6352 15.9451 30.5887
# 2 45.1584 134.9412 22.5781 -4.6445 -0.2450 2.2374
# 3 32.8960 22.5781 66.9819 -2.6401 7.3363 0.6191
# 4 4.6352 -4.6445 -2.6401 28.2298 2.0276 0.4650
# 5 15.9451 -0.2450 7.3363 2.0276 30.0456 5.1898
# 6 30.5887 2.2374 0.6191 0.4650 5.1898 40.4852
#
#
#
# Elastic Compliance Matrix: (Units=1/GPa)
#
#
# Indices 1 2 3 4 5 6 
#
# 1 0.011063 -0.002979 -0.004075 -0.002316 -0.003420 -0.007666
# 2 -0.002979 0.008709 -0.001605 0.001627 0.001664 0.001562
# 3 -0.004075 -0.001605 0.017849 0.002230 -0.002920 0.003243
# 4 -0.002316 0.001627 0.002230 0.036400 -0.002012 0.001465
# 5 -0.003420 0.001664 -0.002920 -0.002012 0.036322 -0.002097
# 6 -0.007666 0.001562 0.003243 0.001465 -0.002097 0.030609
#
#
# Mechanical properties :
#
#
# Convention : Reuss Voigt Hill
#
# Bulk Modulus (GPa) = 49.25347 60.55092 54.90220
# Shear Modulus (GPa) = 30.29602 35.95617 33.12610
#
# Velocity S-wave (km/s) = 3.60940 3.93214 3.77422
# Velocity P-wave (km/s) = 6.20888 6.83034 6.52701
#
# Compressibility (1/GPa) = 0.02030314
#
# Stress axis : x y z
#
# Youngs Moduli (GPa) = 90.39496 114.81974 56.02442
#
# Poissons Ratio (x) = 0.34206 0.22828
# Poissons Ratio (y) = 0.26930 0.08993
# Poissons Ratio (z) = 0.36833 0.18431
#
# Static dielectric constant tensor:
#      x y z
#    x 1.454230 -0.768200 -0.452690 
#    y -0.768200 0.622210 -0.977460 
#    z -0.452690 -0.977460 1.221320 
# 
# From -- ./inp_files/37305.got.cif
#   From: 2010.05.17/outbox.cif.g08.bks.cpg/sg2_19_cif.got.tgz:37305.got - 2010.06.03 11:33:40.
