data_PCOD9053969
_publ_section_title
;
Structure prediction by ZEFSAII (Michael W. Deem and Ramdas Pophale) SiO2 
 PCOD9053969
Probable space group: P -1
;
_chemical_formula_sum "Si O2"
_cell_formula_units_Z 16
_cell_length_a 14.114399
_cell_length_b 13.718721
_cell_length_c 15.206380
_cell_angle_alpha 35.378630
_cell_angle_beta 58.363721
_cell_angle_gamma 32.001000
_cell_volume 758.022659
_symmetry_space_group_name_H-M "P -1"
_symmetry_group_IT_number 2
_symmetry_cell_setting 'triclinic'
loop_
_space_group_symop_operation_xyz
x,y,z
-x,-y,-z
loop_
_atom_site_type_symbol
_atom_site_label
_atom_site_fract_x
_atom_site_fract_y
_atom_site_fract_z
Si Si1 0.185740 0.475275 0.267802
Si Si2 0.164156 0.266445 0.672651
Si Si3 0.390095 0.469589 0.045649
Si Si4 0.653134 0.725417 0.054252
Si Si5 0.492014 0.224083 0.443880
Si Si6 0.332493 0.659386 0.746690
Si Si7 0.610234 0.732726 0.345013
Si Si8 0.937482 0.245981 0.401278
O O1 0.232321 0.571646 0.110393
O O2 0.295709 0.386090 0.371742
O O3 0.943443 0.737910 0.211416
O O4 0.309788 0.149633 0.409236
O O5 0.208219 0.371063 0.634076
O O6 0.000000 0.500000 0.500000
O O7 0.400925 0.916242 0.783648
O O8 0.500000 0.500000 0.000000
O O9 0.277722 0.656074 0.871102
O O10 0.611470 0.581103 0.159229
O O11 0.876313 0.449757 0.201154
O O12 0.500000 0.000000 0.000000
O O13 0.590739 0.908575 0.862923
O O14 0.498972 0.408533 0.273452
O O15 0.463958 0.263147 0.533809
O O16 0.141263 0.008733 0.537293
O O17 0.733323 0.479953 0.392051
O O18 0.000000 0.000000 0.500000
#
# Coordination Sequence:
#
# PCOD9053969 Si02
#       8
#     2   2   2   2   2   2   2   2
#     4  11  22  40  60  92 140 180 219 252 310 389
#     4  12  23  39  66  94 129 181 221 251 320 390
#     4  12  25  41  61  95 138 175 212 273 311 377
#     4   9  19  40  64  85 119 162 217 275 327 374
#     4  11  21  37  62  94 132 173 214 267 317 385
#     4  11  21  40  62  92 129 167 215 265 333 377
#     4  11  20  39  66  93 126 175 216 264 329 387
#     4   9  21  39  64  90 117 165 218 272 330 382
#
# _framework density 21.107548999999999
#
# number of rings (size 3 to 8) (size 9 to 14) (size 15 to 20)
#    0.000    1.250    5.000    1.500    1.750    0.500 
#    2.250    6.250    0.000    6.000    0.000    0.000 
#    0.000    0.000    0.000    0.000    0.000    0.000 
#
# Total GULP energy -89147.780888 kJ/mol
# GULP energy per Si atom -5571.736306 kJ/mol
# Density = 2.105951 g / cm^3
# Si number density = 21.107549 Si / 1000 Ang^3
#
#
#
# Elastic Constant Matrix: (Units=GPa)
#
#
# Indices 1 2 3 4 5 6 
#
# 1 44.4256 10.3792 36.4532 6.2569 4.8828 16.3478
# 2 10.3792 61.4731 31.4267 22.7140 -0.9397 3.5651
# 3 36.4532 31.4267 98.2321 23.9539 15.0837 3.3696
# 4 6.2569 22.7140 23.9539 38.0833 0.4308 -3.2216
# 5 4.8828 -0.9397 15.0837 0.4308 40.2720 -1.1866
# 6 16.3478 3.5651 3.3696 -3.2216 -1.1866 36.4493
#
#
#
# Elastic Compliance Matrix: (Units=1/GPa)
#
#
# Indices 1 2 3 4 5 6 
#
# 1 0.040790 0.001755 -0.015262 0.000408 0.000306 -0.017009
# 2 0.001755 0.023099 -0.005665 -0.010817 0.002464 -0.003399
# 3 -0.015262 -0.005665 0.019824 -0.006110 -0.005499 0.004847
# 4 0.000408 -0.010817 -0.006110 0.036869 0.001732 0.004755
# 5 0.000306 0.002464 -0.005499 0.001732 0.026927 0.001160
# 6 -0.017009 -0.003399 0.004847 0.004755 0.001160 0.035407
#
#
# Mechanical properties :
#
#
# Convention : Reuss Voigt Hill
#
# Bulk Modulus (GPa) = 22.04099 40.07214 31.05656
# Shear Modulus (GPa) = 21.15225 31.35237 26.25231
#
# Velocity S-wave (km/s) = 3.16906 3.85822 3.53050
# Velocity P-wave (km/s) = 4.88421 6.23488 5.60041
#
# Compressibility (1/GPa) = 0.04537000
#
# Stress axis : x y z
#
# Youngs Moduli (GPa) = 24.51560 43.29240 50.44406
#
# Poissons Ratio (x) = -0.07599 0.76986
# Poissons Ratio (y) = -0.04303 0.28577
# Poissons Ratio (z) = 0.37415 0.24526
#
# Static dielectric constant tensor:
#      x y z
#    x 1.865590 0.009290 0.048830 
#    y 0.009290 1.789810 -0.039190 
#    z 0.048830 -0.039190 1.908070 
# 
# From -- ./inp_files/215419.got.cif
#   From: 2010.05.17/outbox.cif.g08.bks.cpg/sg2_108_cif.got.tgz:215419.got - 2010.06.03 11:33:40.
