data_PCOD9053038
_publ_section_title
;
Structure prediction by ZEFSAII (Michael W. Deem and Ramdas Pophale) SiO2 
 PCOD9053038
Probable space group: P -1
;
_chemical_formula_sum "Si O2"
_cell_formula_units_Z 14
_cell_length_a 11.497234
_cell_length_b 12.753584
_cell_length_c 9.333672
_cell_angle_alpha 38.073103
_cell_angle_beta 103.300020
_cell_angle_gamma 80.897381
_cell_volume 677.458971
_symmetry_space_group_name_H-M "P -1"
_symmetry_group_IT_number 2
_symmetry_cell_setting 'triclinic'
loop_
_space_group_symop_operation_xyz
x,y,z
-x,-y,-z
loop_
_atom_site_type_symbol
_atom_site_label
_atom_site_fract_x
_atom_site_fract_y
_atom_site_fract_z
Si Si1 0.521301 0.809535 0.299485
Si Si2 0.408055 0.695945 0.614173
Si Si3 0.863477 0.176584 0.413854
Si Si4 0.480236 0.696333 0.121981
Si Si5 0.410434 0.237000 0.184102
Si Si6 0.202157 0.412330 0.173122
Si Si7 0.152343 0.072755 0.571802
O O1 0.393152 0.863063 0.316784
O O2 0.534555 0.660504 0.337024
O O3 0.662412 0.701168 0.556547
O O4 0.500000 0.000000 0.000000
O O5 0.260554 0.738322 0.592284
O O6 0.497637 0.492359 0.760027
O O7 0.504858 0.684752 0.785982
O O8 0.025890 0.082373 0.615723
O O9 0.855158 0.011546 0.495763
O O10 0.843707 0.353067 0.107959
O O11 0.578035 0.741606 0.002686
O O12 0.315156 0.897586 0.856350
O O13 0.256858 0.338244 0.105363
O O14 0.500000 0.000000 0.500000
O O15 0.122345 0.299960 0.312320
#
# Coordination Sequence:
#
# PCOD9053038 Si02
#       7
#     2   2   2   2   2   2   2
#     4  11  23  37  60  90 120 157 199 250 304 355
#     4  11  22  37  60  90 122 152 201 255 297 352
#     4  11  23  39  60  95 121 158 200 249 302 355
#     4  12  20  37  59  91 119 153 201 246 302 353
#     4  11  18  32  60  87 115 148 197 255 292 341
#     4  11  21  39  63  88 120 157 202 249 298 355
#     4  11  22  37  63  90 125 157 198 249 300 361
#
# _framework density 20.665457
#
# number of rings (size 3 to 8) (size 9 to 14) (size 15 to 20)
#    0.000    0.857    5.714    3.857    0.000    0.000 
#    0.000    0.714    0.000    0.857    0.000    0.000 
#    0.000    0.000    0.000    0.000    0.000    0.000 
#
# Total GULP energy -78006.092835 kJ/mol
# GULP energy per Si atom -5571.863774 kJ/mol
# Density = 2.061842 g / cm^3
# Si number density = 20.665457 Si / 1000 Ang^3
#
#
#
# Elastic Constant Matrix: (Units=GPa)
#
#
# Indices 1 2 3 4 5 6 
#
# 1 109.0966 37.0683 17.1425 14.1299 -16.3258 -5.8474
# 2 37.0683 96.8267 29.6509 4.3110 -10.2493 0.9829
# 3 17.1425 29.6509 75.1819 -0.9735 -19.5731 -5.0542
# 4 14.1299 4.3110 -0.9735 43.2368 -4.3179 -14.0109
# 5 -16.3258 -10.2493 -19.5731 -4.3179 30.3049 -4.9802
# 6 -5.8474 0.9829 -5.0542 -14.0109 -4.9802 35.1894
#
#
#
# Elastic Compliance Matrix: (Units=1/GPa)
#
#
# Indices 1 2 3 4 5 6 
#
# 1 0.011611 -0.003923 0.000337 -0.002262 0.005138 0.001914
# 2 -0.003923 0.013242 -0.004828 -0.001021 -0.001277 -0.002302
# 3 0.000337 -0.004828 0.018801 0.004045 0.012294 0.006242
# 4 -0.002262 -0.001021 0.004045 0.028928 0.007271 0.012780
# 5 0.005138 -0.001277 0.012294 0.007271 0.046299 0.012102
# 6 0.001914 -0.002302 0.006242 0.012780 0.012102 0.036498
#
#
# Mechanical properties :
#
#
# Convention : Reuss Voigt Hill
#
# Bulk Modulus (GPa) = 37.27980 49.86986 43.57483
# Shear Modulus (GPa) = 27.60162 34.89579 31.24871
#
# Velocity S-wave (km/s) = 3.65861 4.11372 3.89282
# Velocity P-wave (km/s) = 5.99383 6.83725 6.42939
#
# Compressibility (1/GPa) = 0.02682418
#
# Stress axis : x y z
#
# Youngs Moduli (GPa) = 86.12821 75.51889 53.18834
#
# Poissons Ratio (x) = 0.29625 -0.01791
# Poissons Ratio (y) = 0.33787 0.25682
# Poissons Ratio (z) = -0.02900 0.36464
#
# Static dielectric constant tensor:
#      x y z
#    x 1.849340 0.043450 -0.048540 
#    y 0.043450 1.750210 -0.087280 
#    z -0.048540 -0.087280 1.831990 
# 
# From -- ./inp_files/234190.got.cif
#   From: 2010.05.17/outbox.cif.g08.bks.cpg/sg2_118_cif.got.tgz:234190.got - 2010.06.03 11:33:40.
