data_PCOD9053944
_publ_section_title
;
Structure prediction by ZEFSAII (Michael W. Deem and Ramdas Pophale) SiO2 
 PCOD9053944
Probable space group: P -1
;
_chemical_formula_sum "Si O2"
_cell_formula_units_Z 14
_cell_length_a 12.683901
_cell_length_b 14.239117
_cell_length_c 9.473880
_cell_angle_alpha 138.986796
_cell_angle_beta 106.671520
_cell_angle_gamma 42.465955
_cell_volume 601.408978
_symmetry_space_group_name_H-M "P -1"
_symmetry_group_IT_number 2
_symmetry_cell_setting 'triclinic'
loop_
_space_group_symop_operation_xyz
x,y,z
-x,-y,-z
loop_
_atom_site_type_symbol
_atom_site_label
_atom_site_fract_x
_atom_site_fract_y
_atom_site_fract_z
Si Si1 0.446326 0.234018 0.955824
Si Si2 0.905449 0.959007 0.348398
Si Si3 0.859175 0.573791 0.138219
Si Si4 0.154897 0.251856 0.373653
Si Si5 0.329115 0.631864 0.522744
Si Si6 0.653445 0.225750 0.810066
Si Si7 0.863519 0.063360 0.968762
O O1 0.329780 0.249724 0.832248
O O2 0.552755 0.218235 0.861457
O O3 0.612309 0.985713 0.838085
O O4 0.321526 0.479105 0.280073
O O5 0.766855 0.154471 0.386534
O O6 0.772841 0.036165 0.510321
O O7 0.000000 0.000000 0.500000
O O8 0.066384 0.663149 0.048488
O O9 0.853964 0.677031 0.391296
O O10 0.000000 0.500000 0.000000
O O11 0.110466 0.131056 0.210452
O O12 0.000000 0.500000 0.500000
O O13 0.112722 0.845961 0.790534
O O14 0.405199 0.633300 0.704022
O O15 0.791406 0.166269 0.901077
O O16 0.500000 0.500000 0.000000
#
# Coordination Sequence:
#
# PCOD9053944 Si02
#       7
#     2   2   2   2   2   2   2
#     4  11  24  44  70  96 138 183 227 278 343 403
#     4  12  23  41  69 102 133 174 233 280 332 400
#     4  12  26  45  69  98 141 181 225 280 341 413
#     4  11  25  46  66  97 135 181 223 274 346 407
#     4  12  21  41  68 100 133 170 225 289 332 389
#     4  11  20  39  64 102 131 167 223 277 334 393
#     4  11  24  40  67  97 133 171 221 277 335 393
#
# _framework density 23.278668
#
# number of rings (size 3 to 8) (size 9 to 14) (size 15 to 20)
#    0.000    0.571    5.714    3.857    2.000    1.143 
#    0.000    2.143    0.000    0.000    0.000    0.000 
#    0.000    0.000    0.000    0.000    0.000    0.000 
#
# Total GULP energy -78111.192942 kJ/mol
# GULP energy per Si atom -5579.370924 kJ/mol
# Density = 2.322569 g / cm^3
# Si number density = 23.278668 Si / 1000 Ang^3
#
#
#
# Elastic Constant Matrix: (Units=GPa)
#
#
# Indices 1 2 3 4 5 6 
#
# 1 90.9134 56.5567 32.4840 -1.4911 11.4496 -24.9493
# 2 56.5567 206.2966 52.8617 20.4801 21.6790 -17.8013
# 3 32.4840 52.8617 160.9641 -15.5556 13.9870 12.5595
# 4 -1.4911 20.4801 -15.5556 46.9458 10.8407 5.6453
# 5 11.4496 21.6790 13.9870 10.8407 39.0031 0.1758
# 6 -24.9493 -17.8013 12.5595 5.6453 0.1758 43.5424
#
#
#
# Elastic Compliance Matrix: (Units=1/GPa)
#
#
# Indices 1 2 3 4 5 6 
#
# 1 0.016604 -0.002778 -0.002930 0.000211 -0.002380 0.009205
# 2 -0.002778 0.006858 -0.002137 -0.003794 -0.001186 0.002325
# 3 -0.002930 -0.002137 0.008633 0.004935 -0.002394 -0.005672
# 4 0.000211 -0.003794 0.004935 0.027023 -0.007205 -0.006328
# 5 -0.002380 -0.001186 -0.002394 -0.007205 0.029860 -0.000344
# 6 0.009205 0.002325 -0.005672 -0.006328 -0.000344 0.031649
#
#
# Mechanical properties :
#
#
# Convention : Reuss Voigt Hill
#
# Bulk Modulus (GPa) = 60.95026 82.44212 71.69619
# Shear Modulus (GPa) = 35.26483 46.98304 41.12393
#
# Velocity S-wave (km/s) = 3.89639 4.49741 4.20765
# Velocity P-wave (km/s) = 6.81779 7.90323 7.38049
#
# Compressibility (1/GPa) = 0.01640682
#
# Stress axis : x y z
#
# Youngs Moduli (GPa) = 60.22760 145.80639 115.83394
#
# Poissons Ratio (x) = 0.40502 0.33935
# Poissons Ratio (y) = 0.16730 0.24751
# Poissons Ratio (z) = 0.17644 0.31155
#
# Static dielectric constant tensor:
#      x y z
#    x 0.935940 0.435210 1.818910 
#    y 0.435210 1.605980 -1.011040 
#    z 1.818910 -1.011040 -0.998400 
# 
# From -- ./inp_files/315912.got.cif
#   From: 2010.05.17/outbox.cif.g08.bks.cpg/sg2_158_cif.got.tgz:315912.got - 2010.06.03 11:33:40.
