data_PCOD9053634
_publ_section_title
;
Structure prediction by ZEFSAII (Michael W. Deem and Ramdas Pophale) SiO2 
 PCOD9053634
Probable space group: P -1
;
_chemical_formula_sum "Si O2"
_cell_formula_units_Z 12
_cell_length_a 9.341945
_cell_length_b 8.069657
_cell_length_c 11.295615
_cell_angle_alpha 140.419466
_cell_angle_beta 65.351818
_cell_angle_gamma 96.855331
_cell_volume 462.136821
_symmetry_space_group_name_H-M "P -1"
_symmetry_group_IT_number 2
_symmetry_cell_setting 'triclinic'
loop_
_space_group_symop_operation_xyz
x,y,z
-x,-y,-z
loop_
_atom_site_type_symbol
_atom_site_label
_atom_site_fract_x
_atom_site_fract_y
_atom_site_fract_z
Si Si1 0.351810 0.022500 0.297581
Si Si2 0.332658 0.235614 0.789074
Si Si3 0.256056 0.657639 0.730529
Si Si4 0.049466 0.093361 0.852645
Si Si5 0.771724 0.187231 0.562914
Si Si6 0.523204 0.335248 0.148079
O O1 0.268350 0.345685 0.530512
O O2 0.536336 0.894306 0.223741
O O3 0.247952 0.863154 0.320159
O O4 0.387864 0.952190 0.108387
O O5 0.138510 0.325559 0.945868
O O6 0.384951 0.470713 0.840010
O O7 0.328770 0.999981 0.566506
O O8 0.430118 0.658384 0.727621
O O9 0.184014 0.847883 0.747373
O O10 0.120183 0.795247 0.956056
O O11 0.054674 0.951253 0.644227
O O12 0.669855 0.501933 0.732336
#
# Coordination Sequence:
#
# PCOD9053634 Si02
#       6
#     2   2   2   2   2   2
#     4  11  20  34  60  85 110 137 176 230 273 321
#     4   9  17  36  57  83 102 142 178 217 274 313
#     4  11  20  41  52  80 112 145 188 213 274 316
#     4   9  22  35  62  70 110 159 174 225 262 320
#     4   9  17  36  57  83 102 142 178 217 274 313
#     4  11  20  34  60  85 110 137 176 230 273 321
#
# _framework density 25.966336999999999
#
# number of rings (size 3 to 8) (size 9 to 14) (size 15 to 20)
#    1.000    1.000    3.333    3.000    0.000    5.333 
#    0.000   13.333    0.000    0.000    0.000    0.000 
#    0.000    0.000    0.000    0.000    0.000    0.000 
#
# Total GULP energy -67078.093820 kJ/mol
# GULP energy per Si atom -5589.841152 kJ/mol
# Density = 2.590724 g / cm^3
# Si number density = 25.966337 Si / 1000 Ang^3
#
#
#
# Elastic Constant Matrix: (Units=GPa)
#
#
# Indices 1 2 3 4 5 6 
#
# 1 38.0011 29.3551 1.1453 4.1727 -7.7414 -19.4889
# 2 29.3551 66.8296 31.5243 -5.5476 -16.5933 -13.9047
# 3 1.1453 31.5243 144.4606 -13.6566 -3.0485 -13.7022
# 4 4.1727 -5.5476 -13.6566 56.7968 2.4585 -3.7371
# 5 -7.7414 -16.5933 -3.0485 2.4585 24.9274 -6.6968
# 6 -19.4889 -13.9047 -13.7022 -3.7371 -6.6968 37.5248
#
#
#
# Elastic Compliance Matrix: (Units=1/GPa)
#
#
# Indices 1 2 3 4 5 6 
#
# 1 0.058980 -0.020200 0.006507 -0.003509 0.013418 0.027568
# 2 -0.020200 0.030365 -0.005823 0.002557 0.013315 0.001265
# 3 0.006507 -0.005823 0.008710 0.001336 0.000311 0.004590
# 4 -0.003509 0.002557 0.001336 0.018553 -0.000695 0.001337
# 5 0.013418 0.013315 0.000311 -0.000695 0.059306 0.022531
# 6 0.027568 0.001265 0.004590 0.001337 0.022531 0.047266
#
#
# Mechanical properties :
#
#
# Convention : Reuss Voigt Hill
#
# Bulk Modulus (GPa) = 16.94316 41.48231 29.21274
# Shear Modulus (GPa) = 17.73755 36.33425 27.03590
#
# Velocity S-wave (km/s) = 2.61645 3.74476 3.23025
# Velocity P-wave (km/s) = 3.95815 5.89132 5.01870
#
# Compressibility (1/GPa) = 0.05902086
#
# Stress axis : x y z
#
# Youngs Moduli (GPa) = 16.95481 32.93283 114.81335
#
# Poissons Ratio (x) = 0.66526 -0.74708
# Poissons Ratio (y) = 0.34249 0.66861
# Poissons Ratio (z) = -0.11032 0.19178
#
# Static dielectric constant tensor:
#      x y z
#    x 2.061800 0.052180 -0.053970 
#    y 0.052180 2.090890 -0.037080 
#    z -0.053970 -0.037080 2.084890 
# 
# From -- ./inp_files/256575.got.cif
#   From: 2010.05.17/outbox.cif.g08.bks.cpg/sg2_129_cif.got.tgz:256575.got - 2010.06.03 11:33:40.
