data_PCOD9053200
_publ_section_title
;
Structure prediction by ZEFSAII (Michael W. Deem and Ramdas Pophale) SiO2 
 PCOD9053200
Probable space group: P -1
;
_chemical_formula_sum "Si O2"
_cell_formula_units_Z 14
_cell_length_a 11.678382
_cell_length_b 11.745928
_cell_length_c 5.535657
_cell_angle_alpha 88.595180
_cell_angle_beta 108.213235
_cell_angle_gamma 58.838074
_cell_volume 600.802357
_symmetry_space_group_name_H-M "P -1"
_symmetry_group_IT_number 2
_symmetry_cell_setting 'triclinic'
loop_
_space_group_symop_operation_xyz
x,y,z
-x,-y,-z
loop_
_atom_site_type_symbol
_atom_site_label
_atom_site_fract_x
_atom_site_fract_y
_atom_site_fract_z
Si Si1 0.588296 0.629079 0.135060
Si Si2 0.291677 0.214845 0.901911
Si Si3 0.911444 0.856760 0.033583
Si Si4 0.946895 0.154093 0.385596
Si Si5 0.353033 0.647452 0.647919
Si Si6 0.409290 0.983688 0.643222
Si Si7 0.681945 0.158248 0.756334
O O1 0.721062 0.644839 0.166236
O O2 0.632660 0.495090 0.323310
O O3 0.468240 0.758563 0.206118
O O4 0.503205 0.624067 0.844472
O O5 0.295239 0.127868 0.680948
O O6 0.188286 0.204717 0.022609
O O7 0.459754 0.122332 0.095930
O O8 0.990332 0.836261 0.830336
O O9 0.806298 0.023207 0.981366
O O10 0.006649 0.801063 0.343257
O O11 0.773281 0.251458 0.254984
O O12 0.000000 0.000000 0.500000
O O13 0.302815 0.725487 0.355906
O O14 0.334457 0.913349 0.487102
O O15 0.500000 0.000000 0.500000
#
# Coordination Sequence:
#
# PCOD9053200 Si02
#       7
#     2   2   2   2   2   2   2
#     4  11  24  43  66  99 134 182 218 287 339 408
#     4  11  22  38  62  99 138 170 225 275 345 402
#     4  12  26  41  72 102 135 178 224 282 341 398
#     4  12  26  46  68 100 136 181 228 282 329 403
#     4  11  26  43  66  95 138 178 235 269 344 402
#     4  11  19  33  61 100 133 170 209 284 346 390
#     4  12  21  38  69 101 134 165 226 285 346 396
#
# _framework density 23.302174000000001
#
# number of rings (size 3 to 8) (size 9 to 14) (size 15 to 20)
#    0.000    0.571    5.714    3.429    2.000    0.000 
#    0.000    1.429    0.000    0.000    0.000    0.000 
#    0.000    0.000    0.000    0.000    0.000    0.000 
#
# Total GULP energy -78222.883138 kJ/mol
# GULP energy per Si atom -5587.348796 kJ/mol
# Density = 2.324914 g / cm^3
# Si number density = 23.302174 Si / 1000 Ang^3
#
#
#
# Elastic Constant Matrix: (Units=GPa)
#
#
# Indices 1 2 3 4 5 6 
#
# 1 139.9983 32.5842 45.9261 -6.2314 -44.4874 14.4919
# 2 32.5842 52.5844 28.0491 -9.3478 -18.0063 15.1352
# 3 45.9261 28.0491 96.0758 0.1558 -17.3632 18.5112
# 4 -6.2314 -9.3478 0.1558 27.8251 3.3714 -10.2594
# 5 -44.4874 -18.0063 -17.3632 3.3714 54.2113 -2.4129
# 6 14.4919 15.1352 18.5112 -10.2594 -2.4129 38.4823
#
#
#
# Elastic Compliance Matrix: (Units=1/GPa)
#
#
# Indices 1 2 3 4 5 6 
#
# 1 0.011176 -0.002340 -0.003099 0.000392 0.007322 -0.001234
# 2 -0.002340 0.027514 -0.004932 0.006061 0.005011 -0.005638
# 3 -0.003099 -0.004932 0.014370 -0.004304 0.000470 -0.004924
# 4 0.000392 0.006061 -0.004304 0.042180 -0.001190 0.010709
# 5 0.007322 0.005011 0.000470 -0.001190 0.026183 -0.003630
# 6 -0.001234 -0.005638 -0.004924 0.010709 -0.003630 0.033664
#
#
# Mechanical properties :
#
#
# Convention : Reuss Voigt Hill
#
# Bulk Modulus (GPa) = 30.94213 55.75301 43.34757
# Shear Modulus (GPa) = 26.79510 36.24369 31.51939
#
# Velocity S-wave (km/s) = 3.39469 3.94811 3.68181
# Velocity P-wave (km/s) = 5.35469 6.69040 6.05946
#
# Compressibility (1/GPa) = 0.03231840
#
# Stress axis : x y z
#
# Youngs Moduli (GPa) = 89.47583 36.34530 69.58859
#
# Poissons Ratio (x) = 0.08506 0.21564
# Poissons Ratio (y) = 0.20939 0.34321
# Poissons Ratio (z) = 0.27726 0.17925
#
# Static dielectric constant tensor:
#      x y z
#    x 1.958360 0.052040 0.030510 
#    y 0.052040 1.906980 0.030610 
#    z 0.030510 0.030610 1.980070 
# 
# From -- ./inp_files/66273.got.cif
#   From: 2010.05.17/outbox.cif.g08.bks.cpg/sg2_34_cif.got.tgz:66273.got - 2010.06.03 11:33:40.
