data_PCOD9053027
_publ_section_title
;
Structure prediction by ZEFSAII (Michael W. Deem and Ramdas Pophale) SiO2 
 PCOD9053027
Probable space group: P -1
;
_chemical_formula_sum "Si O2"
_cell_formula_units_Z 16
_cell_length_a 10.751621
_cell_length_b 11.573948
_cell_length_c 10.611518
_cell_angle_alpha 111.112336
_cell_angle_beta 133.268082
_cell_angle_gamma 42.175889
_cell_volume 615.382099
_symmetry_space_group_name_H-M "P -1"
_symmetry_group_IT_number 2
_symmetry_cell_setting 'triclinic'
loop_
_space_group_symop_operation_xyz
x,y,z
-x,-y,-z
loop_
_atom_site_type_symbol
_atom_site_label
_atom_site_fract_x
_atom_site_fract_y
_atom_site_fract_z
Si Si1 0.456565 0.634310 0.923941
Si Si2 0.755991 0.831903 0.678103
Si Si3 0.893502 0.485121 0.691736
Si Si4 0.609011 0.315189 0.661707
Si Si5 0.249431 0.901459 0.559521
Si Si6 0.269546 0.904193 0.109558
Si Si7 0.240141 0.484963 0.131008
Si Si8 0.992807 0.736565 0.540317
O O1 0.709594 0.551980 0.000567
O O2 0.252468 0.679046 0.705153
O O3 0.500000 0.500000 0.000000
O O4 0.344210 0.809038 0.990717
O O5 0.779097 0.681922 0.684106
O O6 0.945906 0.738840 0.656122
O O7 0.500000 0.000000 0.500000
O O8 0.759107 0.934509 0.828120
O O9 0.651803 0.522970 0.525669
O O10 0.968639 0.428763 0.869052
O O11 0.023217 0.372639 0.608247
O O12 0.767732 0.151119 0.610548
O O13 0.562433 0.255674 0.730519
O O14 0.736041 0.377977 0.797798
O O15 0.507274 0.719655 0.728221
O O16 0.000000 0.000000 0.500000
O O17 0.224952 0.060071 0.582784
O O18 0.000000 0.000000 0.000000
#
# Coordination Sequence:
#
# PCOD9053027 Si02
#       8
#     2   2   2   2   2   2   2   2
#     4  12  23  39  65  95 132 173 219 264 323 395
#     4  12  24  43  66  95 136 172 219 272 325 387
#     4  11  22  40  63  96 131 168 210 275 331 379
#     4  11  19  37  60  91 131 163 209 265 319 379
#     4  11  18  31  56  93 130 154 208 272 320 365
#     4  12  23  41  64  94 131 174 221 263 320 394
#     4  11  22  37  63  96 131 171 213 274 328 385
#     4  12  22  40  65 101 130 169 219 270 328 390
#
# _framework density 26.000107
#
# number of rings (size 3 to 8) (size 9 to 14) (size 15 to 20)
#    0.000    0.500    7.500    3.375    0.000    0.000 
#    0.000    0.625    0.000    3.000    0.000    0.000 
#    0.000    0.000    0.000    0.000    0.000    0.000 
#
# Total GULP energy -89335.003204 kJ/mol
# GULP energy per Si atom -5583.437700 kJ/mol
# Density = 2.594093 g / cm^3
# Si number density = 26.000107 Si / 1000 Ang^3
#
#
#
# Elastic Constant Matrix: (Units=GPa)
#
#
# Indices 1 2 3 4 5 6 
#
# 1 119.3720 23.7302 -13.7590 5.2807 -29.5027 -10.1744
# 2 23.7302 143.8550 50.7124 46.1665 -15.1487 12.8750
# 3 -13.7590 50.7124 96.7920 17.2458 -26.8422 -9.4282
# 4 5.2807 46.1665 17.2458 70.9980 -15.6086 -11.0063
# 5 -29.5027 -15.1487 -26.8422 -15.6086 22.6717 -2.2927
# 6 -10.1744 12.8750 -9.4282 -11.0063 -2.2927 47.1502
#
#
#
# Elastic Compliance Matrix: (Units=1/GPa)
#
#
# Indices 1 2 3 4 5 6 
#
# 1 -0.088645 0.059326 -0.114577 -0.078425 -0.274450 -0.089891
# 2 0.059326 -0.027222 0.068813 0.043354 0.175656 0.052656
# 3 -0.114577 0.068813 -0.126878 -0.094326 -0.329089 -0.106906
# 4 -0.078425 0.043354 -0.094326 -0.045018 -0.222731 -0.068962
# 5 -0.274450 0.175656 -0.329089 -0.222731 -0.765149 -0.262191
# 6 -0.089891 0.052656 -0.106906 -0.068962 -0.262191 -0.062791
#
#
# Mechanical properties :
#
#
# Convention : Reuss Voigt Hill
#
# Bulk Modulus (GPa) = -4.63778 53.48735 24.42478
# Shear Modulus (GPa) = -4.11624 48.11968 22.00172
#
# Velocity S-wave (km/s) = -1.25960 4.30670 2.91214
# Velocity P-wave (km/s) = 1.97562 6.73401 4.55213
#
# Compressibility (1/GPa) = -0.21562028
#
# Stress axis : x y z
#
# Youngs Moduli (GPa) = -11.28092 -36.73560 -7.88157
#
# Poissons Ratio (x) = 2.17939 -0.90304
# Poissons Ratio (y) = 0.66926 0.54235
# Poissons Ratio (z) = -1.29253 2.52788
#
# Static dielectric constant tensor:
#      x y z
#    x 2.249680 -0.053570 0.000990 
#    y -0.053570 2.086640 -0.027420 
#    z 0.000990 -0.027420 2.263610 
# 
# From -- ./inp_files/428785.got.cif
#   From: 2010.05.17/outbox.cif.g08.bks.cpg/sg2_215_cif.got.tgz:428785.got - 2010.06.03 11:33:40.
