data_PCOD9053213
_publ_section_title
;
Structure prediction by ZEFSAII (Michael W. Deem and Ramdas Pophale) SiO2 
 PCOD9053213
Probable space group: P -1
;
_chemical_formula_sum "Si O2"
_cell_formula_units_Z 16
_cell_length_a 11.362872
_cell_length_b 10.902291
_cell_length_c 8.173162
_cell_angle_alpha 139.188682
_cell_angle_beta 75.007501
_cell_angle_gamma 105.781672
_cell_volume 634.544990
_symmetry_space_group_name_H-M "P -1"
_symmetry_group_IT_number 2
_symmetry_cell_setting 'triclinic'
loop_
_space_group_symop_operation_xyz
x,y,z
-x,-y,-z
loop_
_atom_site_type_symbol
_atom_site_label
_atom_site_fract_x
_atom_site_fract_y
_atom_site_fract_z
Si Si1 0.034367 0.668201 0.538045
Si Si2 0.554559 0.200165 0.531571
Si Si3 0.021173 0.281354 0.808733
Si Si4 0.855026 0.155328 0.039095
Si Si5 0.208582 0.782841 0.361006
Si Si6 0.631753 0.401612 0.380226
Si Si7 0.211192 0.248765 0.467771
Si Si8 0.563872 0.210022 0.896655
O O1 0.145265 0.618448 0.333670
O O2 0.000000 0.500000 0.500000
O O3 0.910897 0.699762 0.525944
O O4 0.089614 0.850938 0.805486
O O5 0.682782 0.121348 0.464127
O O6 0.579117 0.353647 0.533970
O O7 0.510812 0.265885 0.793708
O O8 0.468519 0.016824 0.314480
O O9 0.968234 0.225391 0.949202
O O10 0.916376 0.153306 0.603329
O O11 0.160607 0.258980 0.683070
O O12 0.000000 0.500000 0.000000
O O13 0.782473 0.964143 0.803476
O O14 0.755902 0.301253 0.236368
O O15 0.290066 0.732735 0.129935
O O16 0.678481 0.606761 0.493971
O O17 0.541967 0.300496 0.169731
#
# Coordination Sequence:
#
# PCOD9053213 Si02
#       8
#     2   2   2   2   2   2   2   2
#     4  11  19  34  54  78 115 151 183 227 276 331
#     4   9  18  33  57  86 107 139 194 237 279 343
#     4  11  19  34  54  78 115 151 183 227 276 331
#     4  12  20  35  55  77 117 151 184 234 275 326
#     4   9  16  30  51  80 110 140 186 223 275 332
#     4  12  20  37  59  82 113 150 183 230 297 329
#     4  11  24  34  51  85 114 144 197 221 274 352
#     4   9  18  33  57  86 107 139 194 237 279 343
#
# _framework density 25.214918999999998
#
# number of rings (size 3 to 8) (size 9 to 14) (size 15 to 20)
#    0.750    0.750    5.000    1.875    0.000    0.000 
#    0.000    0.000    0.000    3.000    0.000    5.250 
#    0.000    0.000    0.000    0.000    0.000    0.000 
#
# Total GULP energy -89102.107400 kJ/mol
# GULP energy per Si atom -5568.881713 kJ/mol
# Density = 2.515753 g / cm^3
# Si number density = 25.214919 Si / 1000 Ang^3
#
#
#
# Elastic Constant Matrix: (Units=GPa)
#
#
# Indices 1 2 3 4 5 6 
#
# 1 78.9333 11.4748 18.1033 -10.2283 4.6032 10.1961
# 2 11.4748 125.5891 31.8234 -11.0446 3.4695 20.8566
# 3 18.1033 31.8234 82.2453 -2.9573 22.6941 3.1333
# 4 -10.2283 -11.0446 -2.9573 44.2709 -6.6963 3.1379
# 5 4.6032 3.4695 22.6941 -6.6963 36.8538 -6.3565
# 6 10.1961 20.8566 3.1333 3.1379 -6.3565 23.5766
#
#
#
# Elastic Compliance Matrix: (Units=1/GPa)
#
#
# Indices 1 2 3 4 5 6 
#
# 1 0.014738 0.001045 -0.003033 0.003900 -0.000673 -0.007596
# 2 0.001045 0.010808 -0.003972 0.003405 0.000212 -0.009881
# 3 -0.003033 -0.003972 0.017078 -0.002090 -0.010125 0.000104
# 4 0.003900 0.003405 -0.002090 0.025267 0.003909 -0.006730
# 5 -0.000673 0.000212 -0.010125 0.003909 0.035977 0.010629
# 6 -0.007596 -0.009881 0.000104 -0.006730 0.010629 0.058189
#
#
# Mechanical properties :
#
#
# Convention : Reuss Voigt Hill
#
# Bulk Modulus (GPa) = 32.56826 45.50784 39.03805
# Shear Modulus (GPa) = 27.14269 35.96468 31.55368
#
# Velocity S-wave (km/s) = 3.28449 3.78077 3.54134
# Velocity P-wave (km/s) = 5.22764 6.09476 5.67778
#
# Compressibility (1/GPa) = 0.03070474
#
# Stress axis : x y z
#
# Youngs Moduli (GPa) = 67.84995 92.52490 58.55504
#
# Poissons Ratio (x) = -0.09668 0.17760
# Poissons Ratio (y) = -0.07090 0.23255
# Poissons Ratio (z) = 0.20580 0.36747
#
# Static dielectric constant tensor:
#      x y z
#    x 2.030760 -0.038420 0.020300 
#    y -0.038420 2.068550 -0.077180 
#    z 0.020300 -0.077180 2.147220 
# 
# From -- ./inp_files/305980.got.cif
#   From: 2010.05.17/outbox.cif.g08.bks.cpg/sg2_153_cif.got.tgz:305980.got - 2010.06.03 11:33:40.
