data_PCOD9053071
_publ_section_title
;
Structure prediction by ZEFSAII (Michael W. Deem and Ramdas Pophale) SiO2 
 PCOD9053071
Probable space group: P -1
;
_chemical_formula_sum "Si O2"
_cell_formula_units_Z 14
_cell_length_a 9.168813
_cell_length_b 11.272636
_cell_length_c 11.470375
_cell_angle_alpha 77.969660
_cell_angle_beta 141.541361
_cell_angle_gamma 113.105043
_cell_volume 667.998199
_symmetry_space_group_name_H-M "P -1"
_symmetry_group_IT_number 2
_symmetry_cell_setting 'triclinic'
loop_
_space_group_symop_operation_xyz
x,y,z
-x,-y,-z
loop_
_atom_site_type_symbol
_atom_site_label
_atom_site_fract_x
_atom_site_fract_y
_atom_site_fract_z
Si Si1 0.841118 0.650649 0.830208
Si Si2 0.795213 0.856280 0.924160
Si Si3 0.748157 0.032148 0.227786
Si Si4 0.686547 0.807862 0.520093
Si Si5 0.325751 0.913900 0.561485
Si Si6 0.625651 0.360916 0.855339
Si Si7 0.217464 0.217322 0.802203
O O1 0.893965 0.753261 0.948124
O O2 0.668834 0.696668 0.625968
O O3 0.699459 0.505893 0.820919
O O4 0.111577 0.657516 0.947994
O O5 0.551365 0.863236 0.706618
O O6 0.734608 0.818621 0.029352
O O7 0.000000 0.000000 0.000000
O O8 0.696341 0.063146 0.318934
O O9 0.011788 0.139804 0.329082
O O10 0.798403 0.900166 0.270936
O O11 0.500000 0.000000 0.000000
O O12 0.515553 0.738823 0.316841
O O13 0.638381 0.941137 0.495452
O O14 0.074278 0.799425 0.379131
O O15 0.441093 0.336209 0.857312
#
# Coordination Sequence:
#
# PCOD9053071 Si02
#       7
#     2   2   2   2   2   2   2
#     4  11  27  42  64  95 130 171 216 263 315 380
#     4  12  26  42  61  97 137 163 201 265 334 384
#     4  11  18  34  64 100 120 158 212 265 310 368
#     4  11  21  38  67  94 126 161 214 264 315 368
#     4  11  22  37  65  98 125 161 206 264 320 378
#     4  11  23  46  68  90 123 174 225 263 305 369
#     4  11  22  39  68  92 125 169 215 258 315 378
#
# _framework density 20.95814
#
# number of rings (size 3 to 8) (size 9 to 14) (size 15 to 20)
#    0.000    0.857    4.286    4.714    0.000    4.000 
#    0.000    0.714    0.000    0.000    0.000    0.000 
#    0.000    0.000    0.000    0.000    0.000    0.000 
#
# Total GULP energy -78130.009916 kJ/mol
# GULP energy per Si atom -5580.714994 kJ/mol
# Density = 2.091044 g / cm^3
# Si number density = 20.958140 Si / 1000 Ang^3
#
#
#
# Elastic Constant Matrix: (Units=GPa)
#
#
# Indices 1 2 3 4 5 6 
#
# 1 48.9675 29.7949 32.4187 -12.4055 -1.4950 12.1258
# 2 29.7949 100.3053 32.3347 -4.7444 10.1807 18.4074
# 3 32.4187 32.3347 125.3865 -15.8696 17.6199 26.1290
# 4 -12.4055 -4.7444 -15.8696 31.4196 2.8950 -0.9405
# 5 -1.4950 10.1807 17.6199 2.8950 40.7426 -3.3803
# 6 12.1258 18.4074 26.1290 -0.9405 -3.3803 31.6638
#
#
#
# Elastic Compliance Matrix: (Units=1/GPa)
#
#
# Indices 1 2 3 4 5 6 
#
# 1 0.031055 -0.007099 -0.005217 0.008070 0.004368 -0.002755
# 2 -0.007099 0.013483 0.000026 -0.000547 -0.004066 -0.005591
# 3 -0.005217 0.000026 0.012787 0.004757 -0.006825 -0.009156
# 4 0.008070 -0.000547 0.004757 0.037594 -0.004802 -0.006094
# 5 0.004368 -0.004066 -0.006825 -0.004802 0.029790 0.009361
# 6 -0.002755 -0.005591 -0.009156 -0.006094 0.009361 0.044261
#
#
# Mechanical properties :
#
#
# Convention : Reuss Voigt Hill
#
# Bulk Modulus (GPa) = 30.53981 51.52844 41.03412
# Shear Modulus (GPa) = 24.45416 32.77261 28.61339
#
# Velocity S-wave (km/s) = 3.41957 3.95868 3.69896
# Velocity P-wave (km/s) = 5.49497 6.74793 6.15342
#
# Compressibility (1/GPa) = 0.03274415
#
# Stress axis : x y z
#
# Youngs Moduli (GPa) = 32.20114 74.16869 78.20552
#
# Poissons Ratio (x) = 0.52652 0.40799
# Poissons Ratio (y) = 0.22859 -0.00201
# Poissons Ratio (z) = 0.16799 -0.00191
#
# Static dielectric constant tensor:
#      x y z
#    x 1.871580 0.061730 0.164850 
#    y 0.061730 1.762530 0.008010 
#    z 0.164850 0.008010 2.117840 
# 
# From -- ./inp_files/260463.got.cif
#   From: 2010.05.17/outbox.cif.g08.bks.cpg/sg2_131_cif.got.tgz:260463.got - 2010.06.03 11:33:40.
