data_PCOD9053227
_publ_section_title
;
Structure prediction by ZEFSAII (Michael W. Deem and Ramdas Pophale) SiO2 
 PCOD9053227
Probable space group: P -1
;
_chemical_formula_sum "Si O2"
_cell_formula_units_Z 16
_cell_length_a 27.085587
_cell_length_b 9.524694
_cell_length_c 13.365801
_cell_angle_alpha 59.509290
_cell_angle_beta 158.054964
_cell_angle_gamma 133.229546
_cell_volume 828.898595
_symmetry_space_group_name_H-M "P -1"
_symmetry_group_IT_number 2
_symmetry_cell_setting 'triclinic'
loop_
_space_group_symop_operation_xyz
x,y,z
-x,-y,-z
loop_
_atom_site_type_symbol
_atom_site_label
_atom_site_fract_x
_atom_site_fract_y
_atom_site_fract_z
Si Si1 0.388861 0.949363 0.209779
Si Si2 0.430505 0.241423 0.862426
Si Si3 0.027587 0.157719 0.278480
Si Si4 0.777035 0.355149 0.505285
Si Si5 0.962893 0.074007 0.806520
Si Si6 0.103842 0.533200 0.934459
Si Si7 0.653470 0.734450 0.072898
Si Si8 0.728501 0.146574 0.689095
O O1 0.500000 0.000000 0.500000
O O2 0.516204 0.972781 0.357451
O O3 0.200627 0.713574 0.964317
O O4 0.370447 0.125203 0.089255
O O5 0.391115 0.249945 0.902017
O O6 0.243088 0.043361 0.535393
O O7 0.578160 0.223828 0.145579
O O8 0.519714 0.474958 0.895634
O O9 0.152430 0.416884 0.395449
O O10 0.143721 0.164902 0.580012
O O11 0.013500 0.020719 0.211061
O O12 0.834614 0.080151 0.958721
O O13 0.789222 0.230669 0.659920
O O14 0.908192 0.432573 0.632211
O O15 0.087996 0.333149 0.948084
O O16 0.000000 0.000000 0.000000
O O17 0.208464 0.653382 0.192142
#
# Coordination Sequence:
#
# PCOD9053227 Si02
#       8
#     2   2   2   2   2   2   2   2
#     4  10  21  34  57  83 116 146 185 231 283 325
#     4   9  19  31  57  85 103 149 191 232 271 321
#     4   9  19  33  55  84 105 146 190 229 270 321
#     4  10  17  35  60  82 108 140 202 232 260 325
#     4  11  21  33  53  81 122 143 178 231 291 329
#     4  10  22  34  51  87 115 143 176 231 290 327
#     4   9  17  35  57  82 112 140 195 234 265 327
#     4  10  18  35  61  82 106 148 196 229 262 331
#
# _framework density 19.302720999999998
#
# number of rings (size 3 to 8) (size 9 to 14) (size 15 to 20)
#    0.000    2.250    1.250    3.750    3.500    0.500 
#    0.000   13.125    0.000    0.000    0.000    0.000 
#    0.000    0.000    0.000    0.000    0.000    0.000 
#
# Total GULP energy -89145.119854 kJ/mol
# GULP energy per Si atom -5571.569991 kJ/mol
# Density = 1.925879 g / cm^3
# Si number density = 19.302721 Si / 1000 Ang^3
#
#
#
# Elastic Constant Matrix: (Units=GPa)
#
#
# Indices 1 2 3 4 5 6 
#
# 1 33.9308 29.9800 24.6868 4.1379 11.3294 0.1199
# 2 29.9800 110.8629 32.6664 -10.8052 -3.6153 9.3663
# 3 24.6868 32.6664 92.1304 -13.9150 15.7744 11.1966
# 4 4.1379 -10.8052 -13.9150 29.3533 0.7475 -5.9833
# 5 11.3294 -3.6153 15.7744 0.7475 27.5250 0.6069
# 6 0.1199 9.3663 11.1966 -5.9833 0.6069 28.9092
#
#
#
# Elastic Compliance Matrix: (Units=1/GPa)
#
#
# Indices 1 2 3 4 5 6 
#
# 1 0.060198 -0.016141 -0.010215 -0.017575 -0.020692 0.005733
# 2 -0.016141 0.014923 -0.001198 0.006317 0.009189 -0.003190
# 3 -0.010215 -0.001198 0.016744 0.008218 -0.005678 -0.004235
# 4 -0.017575 0.006317 0.008218 0.043488 0.002089 0.003800
# 5 -0.020692 0.009189 -0.005678 0.002089 0.049281 -0.001294
# 6 0.005733 -0.003190 -0.004235 0.003800 -0.001294 0.038054
#
#
# Mechanical properties :
#
#
# Convention : Reuss Voigt Hill
#
# Bulk Modulus (GPa) = 27.20614 45.73226 36.46920
# Shear Modulus (GPa) = 17.23855 27.13022 22.18438
#
# Velocity S-wave (km/s) = 2.99166 3.75308 3.39379
# Velocity P-wave (km/s) = 5.10474 6.52108 5.85589
#
# Compressibility (1/GPa) = 0.03675641
#
# Stress axis : x y z
#
# Youngs Moduli (GPa) = 16.61195 67.01190 59.72190
#
# Poissons Ratio (x) = 1.08163 0.61009
# Poissons Ratio (y) = 0.26813 0.07153
# Poissons Ratio (z) = 0.16970 0.08026
#
# Static dielectric constant tensor:
#      x y z
#    x 1.704420 -0.014810 0.050760 
#    y -0.014810 1.704320 0.001340 
#    z 0.050760 0.001340 1.735950 
# 
# From -- ./inp_files/544819.got.cif
#   From: 2010.05.17/outbox.cif.g08.bks.cpg/sg2_273_cif.got.tgz:544819.got - 2010.06.03 11:33:40.
