data_PCOD9053236
_publ_section_title
;
Structure prediction by ZEFSAII (Michael W. Deem and Ramdas Pophale) SiO2 
 PCOD9053236
Probable space group: P -1
;
_chemical_formula_sum "Si O2"
_cell_formula_units_Z 16
_cell_length_a 11.566516
_cell_length_b 15.949797
_cell_length_c 9.168731
_cell_angle_alpha 127.309110
_cell_angle_beta 94.125912
_cell_angle_gamma 44.894369
_cell_volume 732.218970
_symmetry_space_group_name_H-M "P -1"
_symmetry_group_IT_number 2
_symmetry_cell_setting 'triclinic'
loop_
_space_group_symop_operation_xyz
x,y,z
-x,-y,-z
loop_
_atom_site_type_symbol
_atom_site_label
_atom_site_fract_x
_atom_site_fract_y
_atom_site_fract_z
Si Si1 0.278984 0.980001 0.172006
Si Si2 0.642477 0.806346 0.217321
Si Si3 0.235278 0.843113 0.516220
Si Si4 0.914903 0.438879 0.057645
Si Si5 0.327617 0.534317 0.746933
Si Si6 0.594620 0.307706 0.940664
Si Si7 0.100954 0.711876 0.343835
Si Si8 0.965296 0.913719 0.983816
O O1 0.062758 0.192190 0.443774
O O2 0.480716 0.881592 0.161565
O O3 0.296498 0.847453 0.093882
O O4 0.221934 0.009631 0.029411
O O5 0.855638 0.684214 0.025443
O O6 0.500000 0.000000 0.500000
O O7 0.910254 0.967890 0.207174
O O8 0.752874 0.640175 0.167629
O O9 0.424828 0.676756 0.473237
O O10 0.346026 0.783754 0.309382
O O11 0.109392 0.831657 0.459765
O O12 0.975546 0.293959 0.807651
O O13 0.788616 0.481252 0.222282
O O14 0.343190 0.617100 0.957223
O O15 0.191907 0.682295 0.757762
O O16 0.345614 0.493096 0.149015
O O17 0.000000 0.000000 0.000000
#
# Coordination Sequence:
#
# PCOD9053236 Si02
#       8
#     2   2   2   2   2   2   2   2
#     4  12  24  41  61  95 134 172 207 259 319 377
#     4  11  24  41  68  92 125 160 216 280 318 360
#     4  11  22  36  62  97 129 171 203 255 322 376
#     4  11  22  40  65 102 116 160 217 271 319 362
#     4  11  22  40  63  92 137 165 211 260 312 383
#     4  11  21  36  66  98 128 163 210 264 320 372
#     4  11  19  34  63  93 129 151 210 258 316 370
#     4  12  26  40  57  96 140 179 205 238 323 403
#
# _framework density 21.851386999999999
#
# number of rings (size 3 to 8) (size 9 to 14) (size 15 to 20)
#    0.000    0.750    7.500    0.750    1.750    3.500 
#    0.000    0.625    0.000    1.500    0.000    0.000 
#    0.000    0.000    0.000    0.000    0.000    0.000 
#
# Total GULP energy -89250.845092 kJ/mol
# GULP energy per Si atom -5578.177818 kJ/mol
# Density = 2.180165 g / cm^3
# Si number density = 21.851387 Si / 1000 Ang^3
#
#
#
# Elastic Constant Matrix: (Units=GPa)
#
#
# Indices 1 2 3 4 5 6 
#
# 1 125.8480 33.5667 30.9646 13.3207 -20.8943 -21.9704
# 2 33.5667 70.2672 18.1290 19.1281 -5.4971 -19.7492
# 3 30.9646 18.1290 76.9659 5.0582 -15.1094 -17.6922
# 4 13.3207 19.1281 5.0582 24.7958 -10.2488 -2.2499
# 5 -20.8943 -5.4971 -15.1094 -10.2488 31.7670 5.2326
# 6 -21.9704 -19.7492 -17.6922 -2.2499 5.2326 37.8110
#
#
#
# Elastic Compliance Matrix: (Units=1/GPa)
#
#
# Indices 1 2 3 4 5 6 
#
# 1 0.010651 -0.003265 -0.001849 -0.000533 0.004910 0.002907
# 2 -0.003265 0.023131 -0.002150 -0.017427 -0.006274 0.009010
# 3 -0.001849 -0.002150 0.016397 0.002287 0.006165 0.004758
# 4 -0.000533 -0.017427 0.002287 0.060562 0.018461 -0.007293
# 5 0.004910 -0.006274 0.006165 0.018461 0.042903 -0.002378
# 6 0.002907 0.009010 0.004758 -0.007293 -0.002378 0.034964
#
#
# Mechanical properties :
#
#
# Convention : Reuss Voigt Hill
#
# Bulk Modulus (GPa) = 28.04930 48.71131 38.38030
# Shear Modulus (GPa) = 23.25377 31.56948 27.41163
#
# Velocity S-wave (km/s) = 3.26571 3.80509 3.54567
# Velocity P-wave (km/s) = 5.20424 6.45333 5.86215
#
# Compressibility (1/GPa) = 0.03565151
#
# Stress axis : x y z
#
# Youngs Moduli (GPa) = 93.88809 43.23173 60.98812
#
# Poissons Ratio (x) = 0.14114 0.11275
# Poissons Ratio (y) = 0.30651 0.13114
# Poissons Ratio (z) = 0.17358 0.09296
#
# Static dielectric constant tensor:
#      x y z
#    x 1.845030 -0.002370 -0.003200 
#    y -0.002370 1.842960 0.017510 
#    z -0.003200 0.017510 1.818720 
# 
# From -- ./inp_files/433212.got.cif
#   From: 2010.05.17/outbox.cif.g08.bks.cpg/sg2_217_cif.got.tgz:433212.got - 2010.06.03 11:33:40.
