data_PCOD9053763
_publ_section_title
;
Structure prediction by ZEFSAII (Michael W. Deem and Ramdas Pophale) SiO2 
 PCOD9053763
Probable space group: P -1
;
_chemical_formula_sum "Si O2"
_cell_formula_units_Z 16
_cell_length_a 14.800960
_cell_length_b 9.909344
_cell_length_c 13.360350
_cell_angle_alpha 71.317434
_cell_angle_beta 129.329524
_cell_angle_gamma 67.728595
_cell_volume 872.367640
_symmetry_space_group_name_H-M "P -1"
_symmetry_group_IT_number 2
_symmetry_cell_setting 'triclinic'
loop_
_space_group_symop_operation_xyz
x,y,z
-x,-y,-z
loop_
_atom_site_type_symbol
_atom_site_label
_atom_site_fract_x
_atom_site_fract_y
_atom_site_fract_z
Si Si1 0.107964 0.288942 0.550033
Si Si2 0.932512 0.037530 0.057066
Si Si3 0.582925 0.204920 0.004168
Si Si4 0.662826 0.289148 0.526496
Si Si5 0.526595 0.906895 0.222103
Si Si6 0.727356 0.568802 0.109809
Si Si7 0.351152 0.551272 0.100103
Si Si8 0.607646 0.188794 0.714682
O O1 0.263145 0.228817 0.609530
O O2 0.000000 0.500000 0.500000
O O3 0.942360 0.376212 0.347495
O O4 0.238166 0.050028 0.759018
O O5 0.792813 0.292743 0.943871
O O6 0.801167 0.024778 0.955757
O O7 0.123217 0.857162 0.299769
O O8 0.000000 0.000000 0.000000
O O9 0.503341 0.183836 0.862981
O O10 0.409838 0.382181 0.920327
O O11 0.645222 0.298447 0.986659
O O12 0.562789 0.326107 0.348688
O O13 0.654997 0.178788 0.635417
O O14 0.535856 0.546161 0.413944
O O15 0.485880 0.868922 0.307455
O O16 0.371701 0.180310 0.027937
O O17 0.713384 0.504223 0.009454
#
# Coordination Sequence:
#
# PCOD9053763 Si02
#       8
#     2   2   2   2   2   2   2   2
#     4  11  21  36  59  82 114 154 194 234 280 331
#     4   9  18  33  57  85 112 142 189 235 275 335
#     4  11  21  38  59  85 112 150 196 234 272 347
#     4   9  18  34  58  82 116 143 184 236 289 325
#     4  11  20  37  60  83 113 148 195 234 277 340
#     4  11  24  39  55  83 123 152 186 238 284 337
#     4  11  23  38  57  87 120 149 186 238 291 331
#     4   9  18  34  57  89 108 143 192 237 273 336
#
# _framework density 18.340892
#
# number of rings (size 3 to 8) (size 9 to 14) (size 15 to 20)
#    0.000    1.750    5.000    1.875    0.000    5.500 
#    0.000    0.625    0.000    3.750    0.000    0.000 
#    0.000    0.000    0.000    0.000    0.000    0.000 
#
# Total GULP energy -89222.356245 kJ/mol
# GULP energy per Si atom -5576.397265 kJ/mol
# Density = 1.829915 g / cm^3
# Si number density = 18.340892 Si / 1000 Ang^3
#
#
#
# Elastic Constant Matrix: (Units=GPa)
#
#
# Indices 1 2 3 4 5 6 
#
# 1 79.4688 1.2946 28.2799 -5.7254 2.3406 4.0710
# 2 1.2946 40.8848 18.6030 18.0714 1.3972 -12.9148
# 3 28.2799 18.6030 143.9040 17.7164 18.2231 1.9860
# 4 -5.7254 18.0714 17.7164 21.6489 -4.8300 -1.2309
# 5 2.3406 1.3972 18.2231 -4.8300 23.0908 -1.5322
# 6 4.0710 -12.9148 1.9860 -1.2309 -1.5322 15.8044
#
#
#
# Elastic Compliance Matrix: (Units=1/GPa)
#
#
# Indices 1 2 3 4 5 6 
#
# 1 0.015636 -0.007881 -0.004408 0.014955 0.004950 -0.008269
# 2 -0.007881 0.066362 0.001111 -0.058424 -0.012976 0.050311
# 3 -0.004408 0.001111 0.010734 -0.013410 -0.010990 -0.001415
# 4 0.014955 -0.058424 -0.013410 0.115393 0.034244 -0.037602
# 5 0.004950 -0.012976 -0.010990 0.034244 0.059289 -0.002082
# 6 -0.008269 0.050311 -0.001415 -0.037602 -0.002082 0.103563
#
#
# Mechanical properties :
#
#
# Convention : Reuss Voigt Hill
#
# Bulk Modulus (GPa) = 14.20912 40.06806 27.13859
# Shear Modulus (GPa) = 11.99644 26.51416 19.25530
#
# Velocity S-wave (km/s) = 2.56028 3.80627 3.24366
# Velocity P-wave (km/s) = 4.06252 6.41955 5.37190
#
# Compressibility (1/GPa) = 0.07037735
#
# Stress axis : x y z
#
# Youngs Moduli (GPa) = 63.95584 15.06878 93.16315
#
# Poissons Ratio (x) = 0.11876 0.41065
# Poissons Ratio (y) = 0.50403 -0.10355
# Poissons Ratio (z) = 0.28191 -0.01675
#
# Static dielectric constant tensor:
#      x y z
#    x 1.666070 -0.018140 0.001090 
#    y -0.018140 1.608420 0.004840 
#    z 0.001090 0.004840 1.663220 
# 
# From -- ./inp_files/529554.got.cif
#   From: 2010.05.17/outbox.cif.g08.bks.cpg/sg2_265_cif.got.tgz:529554.got - 2010.06.03 11:33:40.
