data_PCOD9053638
_publ_section_title
;
Structure prediction by ZEFSAII (Michael W. Deem and Ramdas Pophale) SiO2 
 PCOD9053638
Probable space group: P -1
;
_chemical_formula_sum "Si O2"
_cell_formula_units_Z 16
_cell_length_a 8.892020
_cell_length_b 14.146162
_cell_length_c 8.213324
_cell_angle_alpha 125.396796
_cell_angle_beta 87.394993
_cell_angle_gamma 59.796606
_cell_volume 639.253779
_symmetry_space_group_name_H-M "P -1"
_symmetry_group_IT_number 2
_symmetry_cell_setting 'triclinic'
loop_
_space_group_symop_operation_xyz
x,y,z
-x,-y,-z
loop_
_atom_site_type_symbol
_atom_site_label
_atom_site_fract_x
_atom_site_fract_y
_atom_site_fract_z
Si Si1 0.770444 0.276456 0.650730
Si Si2 0.925566 0.596793 0.938176
Si Si3 0.444644 0.839299 0.971404
Si Si4 0.439192 0.367788 0.975616
Si Si5 0.031678 0.146342 0.190937
Si Si6 0.520134 0.040500 0.361481
Si Si7 0.795334 0.689178 0.566217
Si Si8 0.034266 0.150160 0.829650
O O1 0.567176 0.315667 0.754460
O O2 0.879016 0.196961 0.396239
O O3 0.922639 0.172801 0.689831
O O4 0.695851 0.449197 0.820902
O O5 0.038636 0.483415 0.668746
O O6 0.700223 0.672132 0.033476
O O7 0.960790 0.713582 0.052616
O O8 0.000000 0.500000 0.000000
O O9 0.417675 0.741150 0.992319
O O10 0.233693 0.973065 0.033677
O O11 0.504122 0.937683 0.138882
O O12 0.626610 0.723327 0.725818
O O13 0.100531 0.246468 0.308347
O O14 0.955461 0.166726 0.032030
O O15 0.332861 0.209662 0.485227
O O16 0.500000 0.000000 0.500000
O O17 0.732284 0.998103 0.313820
#
# Coordination Sequence:
#
# PCOD9053638 Si02
#       8
#     2   2   2   2   2   2   2   2
#     4  11  26  45  65  93 134 178 212 263 330 379
#     4  12  22  39  67 101 127 166 223 268 320 382
#     4  11  22  40  64  95 129 168 213 265 333 379
#     4  11  24  44  65  88 139 172 210 269 320 387
#     4  11  21  42  66  94 132 173 212 266 330 384
#     4  11  20  34  63  98 131 161 203 273 327 376
#     4  11  21  37  62 101 134 158 208 278 331 374
#     4  12  22  41  69 100 128 162 222 274 315 389
#
# _framework density 25.029183
#
# number of rings (size 3 to 8) (size 9 to 14) (size 15 to 20)
#    0.000    0.750    6.250    3.000    1.750    1.500 
#    0.000    4.375    0.000    0.000    0.000    0.000 
#    0.000    0.000    0.000    0.000    0.000    0.000 
#
# Total GULP energy -89503.449637 kJ/mol
# GULP energy per Si atom -5593.965602 kJ/mol
# Density = 2.497222 g / cm^3
# Si number density = 25.029183 Si / 1000 Ang^3
#
#
#
# Elastic Constant Matrix: (Units=GPa)
#
#
# Indices 1 2 3 4 5 6 
#
# 1 60.7444 16.0607 45.5314 4.0877 -18.7648 5.9099
# 2 16.0607 113.5157 32.6095 -10.4403 -4.3309 -1.8853
# 3 45.5314 32.6095 136.4057 -20.8394 -33.3196 15.9020
# 4 4.0877 -10.4403 -20.8394 55.8994 14.7326 -4.6570
# 5 -18.7648 -4.3309 -33.3196 14.7326 41.1470 -5.3712
# 6 5.9099 -1.8853 15.9020 -4.6570 -5.3712 37.6193
#
#
#
# Elastic Compliance Matrix: (Units=1/GPa)
#
#
# Indices 1 2 3 4 5 6 
#
# 1 0.025233 -0.001918 -0.006967 -0.006994 0.008060 -0.000830
# 2 -0.001918 0.009804 -0.002097 0.001850 -0.001991 0.001624
# 3 -0.006967 -0.002097 0.012205 0.003101 0.004973 -0.003076
# 4 -0.006994 0.001850 0.003101 0.022195 -0.008241 0.001452
# 5 0.008060 -0.001991 0.004973 -0.008241 0.034810 0.000482
# 6 -0.000830 0.001624 -0.003076 0.001452 0.000482 0.028343
#
#
# Mechanical properties :
#
#
# Convention : Reuss Voigt Hill
#
# Bulk Modulus (GPa) = 39.55926 55.45210 47.50568
# Shear Modulus (GPa) = 30.67865 41.36410 36.02137
#
# Velocity S-wave (km/s) = 3.50482 4.06967 3.79776
# Velocity P-wave (km/s) = 5.67608 6.65478 6.18482
#
# Compressibility (1/GPa) = 0.02527853
#
# Stress axis : x y z
#
# Youngs Moduli (GPa) = 39.63068 101.99768 81.93351
#
# Poissons Ratio (x) = 0.19565 0.57084
# Poissons Ratio (y) = 0.07602 0.17177
# Poissons Ratio (z) = 0.27611 0.21384
#
# Static dielectric constant tensor:
#      x y z
#    x 4.118570 -1.893760 0.274150 
#    y -1.893760 3.639780 -0.232540 
#    z 0.274150 -0.232540 2.010310 
# 
# From -- ./inp_files/208664.got.cif
#   From: 2010.05.17/outbox.cif.g08.bks.cpg/sg2_105_cif.got.tgz:208664.got - 2010.06.03 11:33:40.
