data_PCOD9053037
_publ_section_title
;
Structure prediction by ZEFSAII (Michael W. Deem and Ramdas Pophale) SiO2 
 PCOD9053037
Probable space group: P -1
;
_chemical_formula_sum "Si O2"
_cell_formula_units_Z 12
_cell_length_a 9.623897
_cell_length_b 10.057504
_cell_length_c 9.696382
_cell_angle_alpha 89.321107
_cell_angle_beta 46.632360
_cell_angle_gamma 119.085461
_cell_volume 500.264782
_symmetry_space_group_name_H-M "P -1"
_symmetry_group_IT_number 2
_symmetry_cell_setting 'triclinic'
loop_
_space_group_symop_operation_xyz
x,y,z
-x,-y,-z
loop_
_atom_site_type_symbol
_atom_site_label
_atom_site_fract_x
_atom_site_fract_y
_atom_site_fract_z
Si Si1 0.978560 0.437300 0.744004
Si Si2 0.534860 0.136629 0.869126
Si Si3 0.833435 0.821897 0.994746
Si Si4 0.787335 0.700377 0.319407
Si Si5 0.315608 0.417817 0.329964
Si Si6 0.089661 0.773802 0.630761
O O1 0.712020 0.316011 0.842697
O O2 0.812818 0.510640 0.514524
O O3 0.007163 0.325900 0.828237
O O4 0.054046 0.617818 0.738165
O O5 0.287330 0.103359 0.990786
O O6 0.679256 0.144993 0.636331
O O7 0.500000 0.000000 0.000000
O O8 0.835379 0.821654 0.159632
O O9 0.616438 0.599953 0.116283
O O10 0.088226 0.890248 0.740981
O O11 0.500000 0.500000 0.500000
O O12 0.766908 0.729579 0.494791
O O13 0.156908 0.315655 0.301975
#
# Coordination Sequence:
#
# PCOD9053037 Si02
#       6
#     2   2   2   2   2   2
#     4   9  17  34  56  77 105 138 173 208 266 311
#     4  11  22  37  53  74 109 144 177 217 256 309
#     4  11  19  31  56  83 103 134 176 218 264 305
#     4   8  16  30  52  80 114 130 165 215 270 315
#     4   8  15  30  51  78 105 132 160 212 262 305
#     4  11  18  32  60  79 102 134 181 218 256 310
#
# _framework density 23.987296000000001
#
# number of rings (size 3 to 8) (size 9 to 14) (size 15 to 20)
#    1.000    1.333    3.333    1.500    0.000    1.333 
#    0.000    0.833    0.000    1.000    0.000    0.000 
#    0.000    0.000    0.000    0.000    0.000    0.000 
#
# Total GULP energy -66879.611786 kJ/mol
# GULP energy per Si atom -5573.300982 kJ/mol
# Density = 2.393270 g / cm^3
# Si number density = 23.987296 Si / 1000 Ang^3
#
#
#
# Elastic Constant Matrix: (Units=GPa)
#
#
# Indices 1 2 3 4 5 6 
#
# 1 101.0209 22.7960 24.5994 -0.5844 24.6414 -21.8585
# 2 22.7960 60.7897 40.0752 14.2274 9.4466 -23.8012
# 3 24.5994 40.0752 82.8714 4.5037 23.0047 -33.1359
# 4 -0.5844 14.2274 4.5037 35.8082 -9.6404 5.3441
# 5 24.6414 9.4466 23.0047 -9.6404 42.9112 -15.1671
# 6 -21.8585 -23.8012 -33.1359 5.3441 -15.1671 34.7595
#
#
#
# Elastic Compliance Matrix: (Units=1/GPa)
#
#
# Indices 1 2 3 4 5 6 
#
# 1 0.012668 -0.002206 0.001055 -0.001390 -0.005857 0.005120
# 2 -0.002206 0.031492 -0.008144 -0.013496 0.000933 0.014895
# 3 0.001055 -0.008144 0.024128 -0.004032 -0.007143 0.015591
# 4 -0.001390 -0.013496 -0.004032 0.038567 0.008945 -0.015985
# 5 -0.005857 0.000933 -0.007143 0.008945 0.033499 0.003387
# 6 0.005120 0.014895 0.015591 -0.015985 0.003387 0.060986
#
#
# Mechanical properties :
#
#
# Convention : Reuss Voigt Hill
#
# Bulk Modulus (GPa) = 20.12143 46.62480 33.37312
# Shear Modulus (GPa) = 21.14210 33.17654 27.15932
#
# Velocity S-wave (km/s) = 2.97204 3.72302 3.36852
# Velocity P-wave (km/s) = 4.49265 6.16122 5.39187
#
# Compressibility (1/GPa) = 0.04969826
#
# Stress axis : x y z
#
# Youngs Moduli (GPa) = 78.93708 31.75450 41.44576
#
# Poissons Ratio (x) = 0.07005 -0.04372
# Poissons Ratio (y) = 0.17413 0.33753
# Poissons Ratio (z) = -0.08327 0.25860
#
# Static dielectric constant tensor:
#      x y z
#    x 1.953970 0.041420 0.013610 
#    y 0.041420 2.035790 -0.129710 
#    z 0.013610 -0.129710 1.982610 
# 
# From -- ./inp_files/167354.got.cif
#   From: 2010.05.17/outbox.cif.g08.bks.cpg/sg2_84_cif.got.tgz:167354.got - 2010.06.03 11:33:40.
