data_PCOD9053599
_publ_section_title
;
Structure prediction by ZEFSAII (Michael W. Deem and Ramdas Pophale) SiO2 
 PCOD9053599
Probable space group: P -1
;
_chemical_formula_sum "Si O2"
_cell_formula_units_Z 14
_cell_length_a 24.316945
_cell_length_b 8.732514
_cell_length_c 14.081475
_cell_angle_alpha 45.929767
_cell_angle_beta 17.552971
_cell_angle_gamma 37.335400
_cell_volume 513.960373
_symmetry_space_group_name_H-M "P -1"
_symmetry_group_IT_number 2
_symmetry_cell_setting 'triclinic'
loop_
_space_group_symop_operation_xyz
x,y,z
-x,-y,-z
loop_
_atom_site_type_symbol
_atom_site_label
_atom_site_fract_x
_atom_site_fract_y
_atom_site_fract_z
Si Si1 0.598996 0.003873 0.586716
Si Si2 0.466657 0.769189 0.770110
Si Si3 0.805426 0.289152 0.544951
Si Si4 0.080469 0.671402 0.860438
Si Si5 0.851891 0.604343 0.486191
Si Si6 0.846265 0.239721 0.035294
Si Si7 0.887899 0.275241 0.731138
O O1 0.435897 0.008718 0.776037
O O2 0.625144 0.892843 0.697325
O O3 0.847698 0.737318 0.253432
O O4 0.641130 0.225939 0.410495
O O5 0.562026 0.536620 0.794360
O O6 0.678212 0.618949 0.410816
O O7 0.262424 0.799880 0.040679
O O8 0.964892 0.248658 0.210622
O O9 0.868410 0.376568 0.496156
O O10 0.856163 0.001669 0.588176
O O11 0.068570 0.919540 0.814825
O O12 0.845614 0.525862 0.638413
O O13 0.068402 0.611376 0.116143
O O14 0.824188 0.323653 0.925635
#
# Coordination Sequence:
#
# PCOD9053599 Si02
#       7
#     2   2   2   2   2   2   2
#     4   9  18  34  60  82 106 141 190 220 273 314
#     4   9  18  34  61  82 105 143 183 231 261 322
#     4   8  19  36  55  82 107 140 183 227 264 315
#     4   7  16  34  56  79  99 142 180 217 261 315
#     4  11  20  33  59  82 112 146 175 228 276 321
#     4   9  20  36  55  81 111 146 184 213 275 332
#     4  11  21  36  58  84 108 145 184 220 275 324
#
# _framework density 27.239457000000002
#
# number of rings (size 3 to 8) (size 9 to 14) (size 15 to 20)
#    1.714    1.143    0.000    1.714    0.000    2.857 
#    0.000    0.714    6.286    1.714    0.000    0.000 
#    0.000    0.000    0.000    0.000    0.000    0.000 
#
# Total GULP energy -78077.943508 kJ/mol
# GULP energy per Si atom -5576.995965 kJ/mol
# Density = 2.717746 g / cm^3
# Si number density = 27.239457 Si / 1000 Ang^3
#
#
#
# Elastic Constant Matrix: (Units=GPa)
#
#
# Indices 1 2 3 4 5 6 
#
# 1 120.2056 26.8485 29.1220 -16.0964 -10.4309 -8.3708
# 2 26.8485 110.7066 25.8929 -6.9527 -4.3540 -7.5539
# 3 29.1220 25.8929 95.7524 -17.3368 -18.7995 4.2500
# 4 -16.0964 -6.9527 -17.3368 23.2477 0.9488 3.1831
# 5 -10.4309 -4.3540 -18.7995 0.9488 41.0583 -11.2846
# 6 -8.3708 -7.5539 4.2500 3.1831 -11.2846 35.0231
#
#
#
# Elastic Compliance Matrix: (Units=1/GPa)
#
#
# Indices 1 2 3 4 5 6 
#
# 1 0.010049 -0.001533 -0.001386 0.005023 0.002337 0.002536
# 2 -0.001533 0.010102 -0.002337 -0.000088 0.000211 0.002172
# 3 -0.001386 -0.002337 0.014225 0.008966 0.005242 -0.001687
# 4 0.005023 -0.000088 0.008966 0.053544 0.003097 -0.003775
# 5 0.002337 0.000211 0.005242 0.003097 0.029858 0.009307
# 6 0.002536 0.002172 -0.001687 -0.003775 0.009307 0.033174
#
#
# Mechanical properties :
#
#
# Convention : Reuss Voigt Hill
#
# Bulk Modulus (GPa) = 41.90210 54.48794 48.19502
# Shear Modulus (GPa) = 29.51293 36.18589 32.84941
#
# Velocity S-wave (km/s) = 3.29517 3.64873 3.47645
# Velocity P-wave (km/s) = 5.46752 6.14798 5.81771
#
# Compressibility (1/GPa) = 0.02386515
#
# Stress axis : x y z
#
# Youngs Moduli (GPa) = 99.51013 98.99016 70.30072
#
# Poissons Ratio (x) = 0.15170 0.09745
# Poissons Ratio (y) = 0.15250 0.16427
# Poissons Ratio (z) = 0.13794 0.23130
#
# Static dielectric constant tensor:
#      x y z
#    x 2.224200 -0.053010 0.082810 
#    y -0.053010 2.167120 0.029220 
#    z 0.082810 0.029220 2.200500 
# 
# From -- ./inp_files/542508.got.cif
#   From: 2010.05.17/outbox.cif.g08.bks.cpg/sg2_272_cif.got.tgz:542508.got - 2010.06.03 11:33:40.
