data_PCOD9053312
_publ_section_title
;
Structure prediction by ZEFSAII (Michael W. Deem and Ramdas Pophale) SiO2 
 PCOD9053312
Probable space group: P -1
;
_chemical_formula_sum "Si O2"
_cell_formula_units_Z 12
_cell_length_a 9.519806
_cell_length_b 15.053628
_cell_length_c 11.782858
_cell_angle_alpha 154.017276
_cell_angle_beta 69.406025
_cell_angle_gamma 124.804473
_cell_volume 542.899332
_symmetry_space_group_name_H-M "P -1"
_symmetry_group_IT_number 2
_symmetry_cell_setting 'triclinic'
loop_
_space_group_symop_operation_xyz
x,y,z
-x,-y,-z
loop_
_atom_site_type_symbol
_atom_site_label
_atom_site_fract_x
_atom_site_fract_y
_atom_site_fract_z
Si Si1 0.879314 0.531570 0.348679
Si Si2 0.257849 0.664988 0.289606
Si Si3 0.397448 0.723995 0.074985
Si Si4 0.718651 0.753581 0.768616
Si Si5 0.657898 0.550664 0.795469
Si Si6 0.698612 0.193509 0.228631
O O1 0.851557 0.741878 0.631674
O O2 0.845743 0.390565 0.316458
O O3 0.074049 0.627134 0.345912
O O4 0.711606 0.343613 0.090397
O O5 0.258219 0.633317 0.117880
O O6 0.267441 0.452515 0.105460
O O7 0.439538 0.966471 0.605688
O O8 0.489532 0.574883 0.885410
O O9 0.500000 0.500000 0.500000
O O10 0.756654 0.726475 0.856893
O O11 0.750241 0.017167 0.055315
O O12 0.645968 0.312446 0.475214
O O13 0.500000 0.000000 0.000000
#
# Coordination Sequence:
#
# PCOD9053312 Si02
#       6
#     2   2   2   2   2   2
#     4  11  23  41  67  95 128 165 213 261 314 385
#     4  11  26  41  64  97 124 170 218 262 310 370
#     4  11  23  45  66  87 132 171 211 264 315 368
#     4  11  20  36  66  99 123 168 208 255 325 383
#     4  11  21  39  65  90 129 166 208 260 317 377
#     4  11  19  36  64  96 123 162 206 255 320 373
#
# _framework density 22.103543999999999
#
# number of rings (size 3 to 8) (size 9 to 14) (size 15 to 20)
#    0.000    1.000    5.000    3.000    0.000    4.000 
#    0.000    5.000    0.000    9.000    0.000    0.000 
#    0.000    0.000    0.000    0.000    0.000    0.000 
#
# Total GULP energy -66977.627475 kJ/mol
# GULP energy per Si atom -5581.468956 kJ/mol
# Density = 2.205324 g / cm^3
# Si number density = 22.103544 Si / 1000 Ang^3
#
#
#
# Elastic Constant Matrix: (Units=GPa)
#
#
# Indices 1 2 3 4 5 6 
#
# 1 99.1485 38.6689 33.2462 2.8785 -22.7722 -5.2999
# 2 38.6689 126.3876 38.7381 -27.0093 -9.9948 4.6508
# 3 33.2462 38.7381 76.6265 -1.7506 -22.2241 -9.0938
# 4 2.8785 -27.0093 -1.7506 29.9837 0.5696 -5.3528
# 5 -22.7722 -9.9948 -22.2241 0.5696 38.5826 3.1912
# 6 -5.2999 4.6508 -9.0938 -5.3528 3.1912 47.9864
#
#
#
# Elastic Compliance Matrix: (Units=1/GPa)
#
#
# Indices 1 2 3 4 5 6 
#
# 1 0.014073 -0.004314 -0.002267 -0.005384 0.005917 0.000549
# 2 -0.004314 0.013292 -0.005392 0.011882 -0.002276 -0.001310
# 3 -0.002267 -0.005392 0.019448 -0.003115 0.008260 0.003061
# 4 -0.005384 0.011882 -0.003115 0.044954 -0.002794 0.002864
# 5 0.005917 -0.002276 0.008260 -0.002794 0.033629 -0.000109
# 6 0.000549 -0.001310 0.003061 0.002864 -0.000109 0.021934
#
#
# Mechanical properties :
#
#
# Convention : Reuss Voigt Hill
#
# Bulk Modulus (GPa) = 43.73054 58.16322 50.94688
# Shear Modulus (GPa) = 27.94885 36.07784 32.01334
#
# Velocity S-wave (km/s) = 3.55977 4.04446 3.80983
# Velocity P-wave (km/s) = 6.05998 6.94127 6.51554
#
# Compressibility (1/GPa) = 0.02286731
#
# Stress axis : x y z
#
# Youngs Moduli (GPa) = 71.05796 75.23216 51.41997
#
# Poissons Ratio (x) = 0.32452 0.11656
# Poissons Ratio (y) = 0.30652 0.27727
# Poissons Ratio (z) = 0.16108 0.40567
#
# Static dielectric constant tensor:
#      x y z
#    x 1.869320 -0.044830 0.031840 
#    y -0.044830 1.834360 0.033260 
#    z 0.031840 0.033260 1.839610 
# 
# From -- ./inp_files/399906.got.cif
#   From: 2010.05.17/outbox.cif.g08.bks.cpg/sg2_200_cif.got.tgz:399906.got - 2010.06.03 11:33:40.
