data_PCOD9053851
_publ_section_title
;
Structure prediction by ZEFSAII (Michael W. Deem and Ramdas Pophale) SiO2 
 PCOD9053851
Probable space group: P -1
;
_chemical_formula_sum "Si O2"
_cell_formula_units_Z 14
_cell_length_a 10.877037
_cell_length_b 8.766543
_cell_length_c 11.254731
_cell_angle_alpha 76.253240
_cell_angle_beta 49.003390
_cell_angle_gamma 87.557152
_cell_volume 777.335415
_symmetry_space_group_name_H-M "P -1"
_symmetry_group_IT_number 2
_symmetry_cell_setting 'triclinic'
loop_
_space_group_symop_operation_xyz
x,y,z
-x,-y,-z
loop_
_atom_site_type_symbol
_atom_site_label
_atom_site_fract_x
_atom_site_fract_y
_atom_site_fract_z
Si Si1 0.284642 0.480351 0.804022
Si Si2 0.859813 0.688872 0.853206
Si Si3 0.523457 0.783722 0.297346
Si Si4 0.825111 0.061490 0.101854
Si Si5 0.288425 0.650973 0.002628
Si Si6 0.212602 0.774895 0.656948
Si Si7 0.525525 0.817947 0.021210
O O1 0.404707 0.375945 0.684883
O O2 0.364967 0.592981 0.841168
O O3 0.209652 0.595303 0.741862
O O4 0.155697 0.356109 0.986304
O O5 0.041560 0.774572 0.697032
O O6 0.816662 0.513867 0.855481
O O7 0.714977 0.788991 0.897883
O O8 0.374318 0.815499 0.467852
O O9 0.469711 0.758541 0.199147
O O10 0.675060 0.928051 0.180672
O O11 0.819497 0.215946 0.994002
O O12 0.786917 0.112759 0.250097
O O13 0.000000 0.000000 0.000000
O O14 0.421454 0.722611 0.000611
O O15 0.500000 0.000000 0.000000
#
# Coordination Sequence:
#
# PCOD9053851 Si02
#       7
#     2   2   2   2   2   2   2
#     4   8  19  35  59  80 109 149 191 220 285 335
#     4   9  20  35  60  82 105 153 190 233 270 330
#     4  11  22  35  58  86 116 150 176 244 288 325
#     4  11  22  36  60  85 113 148 193 228 279 340
#     4   9  20  35  62  81 104 148 197 235 259 327
#     4  11  21  37  55  87 122 139 183 238 294 332
#     4  11  20  38  61  80 111 146 207 224 274 337
#
# _framework density 18.010244
#
# number of rings (size 3 to 8) (size 9 to 14) (size 15 to 20)
#    0.857    1.143    1.429    3.429    2.000    0.000 
#    0.000    1.429    0.000    0.000    0.000    0.000 
#    0.000    0.000    0.000    0.000    0.000    0.000 
#
# Total GULP energy -77984.040253 kJ/mol
# GULP energy per Si atom -5570.288589 kJ/mol
# Density = 1.796925 g / cm^3
# Si number density = 18.010244 Si / 1000 Ang^3
#
#
#
# Elastic Constant Matrix: (Units=GPa)
#
#
# Indices 1 2 3 4 5 6 
#
# 1 83.5941 35.2453 31.6068 13.4987 -14.0871 0.0745
# 2 35.2453 98.7828 24.2859 16.9339 -8.8162 -7.5348
# 3 31.6068 24.2859 77.6301 23.6367 -21.7417 -4.2760
# 4 13.4987 16.9339 23.6367 23.0326 0.3683 -0.9711
# 5 -14.0871 -8.8162 -21.7417 0.3683 13.9071 1.0699
# 6 0.0745 -7.5348 -4.2760 -0.9711 1.0699 30.6320
#
#
#
# Elastic Compliance Matrix: (Units=1/GPa)
#
#
# Indices 1 2 3 4 5 6 
#
# 1 0.017583 -0.003293 0.003345 -0.011721 0.021378 -0.001504
# 2 -0.003293 0.013818 0.005108 -0.013552 0.013521 0.003218
# 3 0.003345 0.005108 0.058383 -0.067060 0.099384 0.003801
# 4 -0.011721 -0.013552 -0.067060 0.130953 -0.128460 -0.004028
# 5 0.021378 0.013521 0.099384 -0.128460 0.260600 0.003972
# 6 -0.001504 0.003218 0.003801 -0.004028 0.003972 0.033705
#
#
# Mechanical properties :
#
#
# Convention : Reuss Voigt Hill
#
# Bulk Modulus (GPa) = 9.98960 49.14257 29.56608
# Shear Modulus (GPa) = 9.29212 24.77228 17.03220
#
# Velocity S-wave (km/s) = 2.27389 3.71274 3.07855
# Velocity P-wave (km/s) = 3.52884 6.76198 5.39338
#
# Compressibility (1/GPa) = 0.10010415
#
# Stress axis : x y z
#
# Youngs Moduli (GPa) = 56.87248 72.37109 17.12814
#
# Poissons Ratio (x) = 0.23834 -0.05729
# Poissons Ratio (y) = 0.18730 -0.08750
# Poissons Ratio (z) = -0.19023 -0.36970
#
# Static dielectric constant tensor:
#      x y z
#    x 1.626580 -0.009550 0.005680 
#    y -0.009550 1.666050 -0.006690 
#    z 0.005680 -0.006690 1.621510 
# 
# From -- ./inp_files/231957.got.cif
#   From: 2010.05.17/outbox.cif.g08.bks.cpg/sg2_116_cif.got.tgz:231957.got - 2010.06.03 11:33:40.
