data_PCOD9053833
_publ_section_title
;
Structure prediction by ZEFSAII (Michael W. Deem and Ramdas Pophale) SiO2 
 PCOD9053833
Probable space group: P -1
;
_chemical_formula_sum "Si O2"
_cell_formula_units_Z 16
_cell_length_a 7.475152
_cell_length_b 11.465280
_cell_length_c 11.659730
_cell_angle_alpha 85.278818
_cell_angle_beta 97.693067
_cell_angle_gamma 49.557181
_cell_volume 734.473117
_symmetry_space_group_name_H-M "P -1"
_symmetry_group_IT_number 2
_symmetry_cell_setting 'triclinic'
loop_
_space_group_symop_operation_xyz
x,y,z
-x,-y,-z
loop_
_atom_site_type_symbol
_atom_site_label
_atom_site_fract_x
_atom_site_fract_y
_atom_site_fract_z
Si Si1 0.960792 0.007762 0.634061
Si Si2 0.432619 0.128456 0.575971
Si Si3 0.557291 0.990984 0.183842
Si Si4 0.481753 0.738077 0.759474
Si Si5 0.315932 0.572079 0.084003
Si Si6 0.327811 0.407291 0.458161
Si Si7 0.127030 0.074440 0.002885
Si Si8 0.276641 0.665494 0.328876
O O1 0.188642 0.851143 0.731851
O O2 0.702083 0.061483 0.627151
O O3 0.919740 0.152697 0.672243
O O4 0.000000 0.000000 0.500000
O O5 0.253876 0.311140 0.505742
O O6 0.500000 0.000000 0.500000
O O7 0.341660 0.114518 0.686760
O O8 0.452331 0.159915 0.206112
O O9 0.745892 0.945213 0.104916
O O10 0.350680 0.994906 0.115189
O O11 0.645974 0.577505 0.857967
O O12 0.519781 0.699543 0.631350
O O13 0.349820 0.625585 0.204715
O O14 0.068405 0.738482 0.006286
O O15 0.500000 0.500000 0.000000
O O16 0.191784 0.576096 0.376668
O O17 0.487332 0.396146 0.573534
O O18 0.000000 0.000000 0.000000
#
# Coordination Sequence:
#
# PCOD9053833 Si02
#       8
#     2   2   2   2   2   2   2   2
#     4  11  20  37  70 104 134 189 231 281 357 431
#     4  11  21  37  66 105 145 177 224 287 357 428
#     4  11  25  44  74 101 142 180 235 302 346 428
#     4  11  21  42  67  97 137 177 232 287 349 421
#     4  11  25  41  69 101 135 184 243 292 345 420
#     4   9  18  36  60  95 133 172 216 283 348 413
#     4  11  27  50  72 101 133 188 246 292 355 413
#     4   9  19  35  62  96 135 173 229 287 338 416
#
# _framework density 21.784324000000002
#
# number of rings (size 3 to 8) (size 9 to 14) (size 15 to 20)
#    0.000    1.500    3.750    1.500    7.000    0.500 
#    0.000    0.000    2.750    3.000    0.000    0.000 
#    0.000    0.000    0.000    0.000    0.000    0.000 
#
# Total GULP energy -89153.681791 kJ/mol
# GULP energy per Si atom -5572.105112 kJ/mol
# Density = 2.173474 g / cm^3
# Si number density = 21.784324 Si / 1000 Ang^3
#
#
#
# Elastic Constant Matrix: (Units=GPa)
#
#
# Indices 1 2 3 4 5 6 
#
# 1 112.6634 36.9838 42.4127 5.9934 -1.3464 9.8105
# 2 36.9838 135.5813 37.4847 3.5801 -12.1854 15.8156
# 3 42.4127 37.4847 118.0291 16.9178 -26.7816 -0.1517
# 4 5.9934 3.5801 16.9178 36.2620 4.2347 -4.1407
# 5 -1.3464 -12.1854 -26.7816 4.2347 33.5626 -1.9926
# 6 9.8105 15.8156 -0.1517 -4.1407 -1.9926 30.8812
#
#
#
# Elastic Compliance Matrix: (Units=1/GPa)
#
#
# Indices 1 2 3 4 5 6 
#
# 1 0.011357 -0.001907 -0.004475 0.000547 -0.004046 -0.002841
# 2 -0.001907 0.008998 -0.001758 -0.000392 0.001602 -0.003960
# 3 -0.004475 -0.001758 0.014237 -0.006823 0.011536 0.002221
# 4 0.000547 -0.000392 -0.006823 0.032231 -0.009411 0.003708
# 5 -0.004046 0.001602 0.011536 -0.009411 0.040719 0.001887
# 6 -0.002841 -0.003960 0.002221 0.003708 0.001887 0.035943
#
#
# Mechanical properties :
#
#
# Convention : Reuss Voigt Hill
#
# Bulk Modulus (GPa) = 54.60997 66.67070 60.64034
# Shear Modulus (GPa) = 30.14428 36.76733 33.45581
#
# Velocity S-wave (km/s) = 3.72393 4.11273 3.92315
# Velocity P-wave (km/s) = 6.60402 7.29548 6.95834
#
# Compressibility (1/GPa) = 0.01831168
#
# Stress axis : x y z
#
# Youngs Moduli (GPa) = 88.05343 111.13337 70.23879
#
# Poissons Ratio (x) = 0.21196 0.31434
# Poissons Ratio (y) = 0.16794 0.12345
# Poissons Ratio (z) = 0.39407 0.19533
#
# Static dielectric constant tensor:
#      x y z
#    x 1.851280 0.004430 0.007960 
#    y 0.004430 1.785230 -0.007730 
#    z 0.007960 -0.007730 1.845930 
# 
# From -- ./inp_files/390228.got.cif
#   From: 2010.05.17/outbox.cif.g08.bks.cpg/sg2_196_cif.got.tgz:390228.got - 2010.06.03 11:33:40.
