data_PCOD9053337
_publ_section_title
;
Structure prediction by ZEFSAII (Michael W. Deem and Ramdas Pophale) SiO2 
 PCOD9053337
Probable space group: P -1
;
_chemical_formula_sum "Si O2"
_cell_formula_units_Z 16
_cell_length_a 14.114446
_cell_length_b 14.643884
_cell_length_c 25.591358
_cell_angle_alpha 18.937334
_cell_angle_beta 149.094592
_cell_angle_gamma 149.587598
_cell_volume 839.701013
_symmetry_space_group_name_H-M "P -1"
_symmetry_group_IT_number 2
_symmetry_cell_setting 'triclinic'
loop_
_space_group_symop_operation_xyz
x,y,z
-x,-y,-z
loop_
_atom_site_type_symbol
_atom_site_label
_atom_site_fract_x
_atom_site_fract_y
_atom_site_fract_z
Si Si1 0.987449 0.727960 0.304286
Si Si2 0.346061 0.730423 0.541584
Si Si3 0.855769 0.081338 0.344408
Si Si4 0.108436 0.701058 0.093725
Si Si5 0.639889 0.653533 0.638151
Si Si6 0.508888 0.251774 0.596595
Si Si7 0.102164 0.753835 0.180310
Si Si8 0.978313 0.268231 0.458505
O O1 0.789743 0.537727 0.342846
O O2 0.018965 0.492865 0.404216
O O3 0.178479 0.822282 0.380476
O O4 0.950588 0.017575 0.105252
O O5 0.479556 0.616371 0.626563
O O6 0.500000 0.000000 0.500000
O O7 0.932079 0.403386 0.181427
O O8 0.655792 0.027671 0.307689
O O9 0.000000 0.000000 0.500000
O O10 0.854292 0.859093 0.415753
O O11 0.253294 0.598300 0.179950
O O12 0.183145 0.746318 0.164424
O O13 0.548098 0.667026 0.530905
O O14 0.802050 0.976000 0.546110
O O15 0.500000 0.500000 0.500000
O O16 0.712932 0.193390 0.724149
O O17 0.949899 0.460829 0.290906
O O18 0.000000 0.000000 0.000000
#
# Coordination Sequence:
#
# PCOD9053337 Si02
#       8
#     2   2   2   2   2   2   2   2
#     4  11  25  44  70  93 125 168 216 279 333 374
#     4  11  25  48  71  92 122 168 229 272 328 391
#     4  11  19  37  61  93 134 172 208 252 307 395
#     4  11  22  41  62  97 134 163 212 268 322 377
#     4  11  22  40  69  92 125 175 219 263 312 392
#     4  12  20  36  62  97 129 178 216 243 320 399
#     4  12  22  34  57  94 137 166 207 261 313 381
#     4  11  19  38  65  90 129 172 207 256 324 386
#
# _framework density 19.054400999999999
#
# number of rings (size 3 to 8) (size 9 to 14) (size 15 to 20)
#    0.000    0.750    8.750    0.750    0.000    0.500 
#    4.500    1.875    0.000    0.000    0.000    0.000 
#    0.000    0.000    0.000    0.000    0.000    0.000 
#
# Total GULP energy -89165.814346 kJ/mol
# GULP energy per Si atom -5572.863397 kJ/mol
# Density = 1.901103 g / cm^3
# Si number density = 19.054401 Si / 1000 Ang^3
#
#
#
# Elastic Constant Matrix: (Units=GPa)
#
#
# Indices 1 2 3 4 5 6 
#
# 1 126.6848 40.9054 17.2038 -5.7728 6.6816 8.1722
# 2 40.9054 101.7932 42.7956 -0.7894 6.0610 -1.2256
# 3 17.2038 42.7956 91.2865 -8.7211 -1.5972 -5.4517
# 4 -5.7728 -0.7894 -8.7211 20.3183 1.1929 2.1331
# 5 6.6816 6.0610 -1.5972 1.1929 29.3358 -0.8717
# 6 8.1722 -1.2256 -5.4517 2.1331 -0.8717 34.1123
#
#
#
# Elastic Compliance Matrix: (Units=1/GPa)
#
#
# Indices 1 2 3 4 5 6 
#
# 1 0.009483 -0.003755 0.000071 0.002946 -0.001578 -0.002620
# 2 -0.003755 0.014047 -0.006180 -0.003100 -0.002241 0.000553
# 3 0.000071 -0.006180 0.014523 0.005718 0.001872 0.001772
# 4 0.002946 -0.003100 0.005718 0.052845 -0.001965 -0.003258
# 5 -0.001578 -0.002241 0.001872 -0.001965 0.035140 0.001617
# 6 -0.002620 0.000553 0.001772 -0.003258 0.001617 0.030491
#
#
# Mechanical properties :
#
#
# Convention : Reuss Voigt Hill
#
# Bulk Modulus (GPa) = 54.57213 57.95268 56.26240
# Shear Modulus (GPa) = 27.41732 31.34394 29.38063
#
# Velocity S-wave (km/s) = 3.79739 4.06022 3.93101
# Velocity P-wave (km/s) = 6.92310 7.24299 7.08485
#
# Compressibility (1/GPa) = 0.01832437
#
# Stress axis : x y z
#
# Youngs Moduli (GPa) = 105.45164 71.18917 68.85506
#
# Poissons Ratio (x) = 0.26733 -0.00487
# Poissons Ratio (y) = 0.39599 0.42552
# Poissons Ratio (z) = -0.00746 0.43995
#
# Static dielectric constant tensor:
#      x y z
#    x 1.704410 -0.017910 -0.001830 
#    y -0.017910 1.761240 -0.019130 
#    z -0.001830 -0.019130 1.654020 
# 
# From -- ./inp_files/619491.got.cif
#   From: 2010.05.17/outbox.cif.g08.bks.cpg/sg2_310_cif.got.tgz:619491.got - 2010.06.03 11:33:40.
