data_PCOD9053878
_publ_section_title
;
Structure prediction by ZEFSAII (Michael W. Deem and Ramdas Pophale) SiO2 
 PCOD9053878
Probable space group: P -1
;
_chemical_formula_sum "Si O2"
_cell_formula_units_Z 16
_cell_length_a 15.039923
_cell_length_b 16.338099
_cell_length_c 5.812411
_cell_angle_alpha 53.385592
_cell_angle_beta 131.292547
_cell_angle_gamma 133.420866
_cell_volume 752.255510
_symmetry_space_group_name_H-M "P -1"
_symmetry_group_IT_number 2
_symmetry_cell_setting 'triclinic'
loop_
_space_group_symop_operation_xyz
x,y,z
-x,-y,-z
loop_
_atom_site_type_symbol
_atom_site_label
_atom_site_fract_x
_atom_site_fract_y
_atom_site_fract_z
Si Si1 0.694991 0.632684 0.185663
Si Si2 0.117237 0.967797 0.323441
Si Si3 0.489974 0.612963 0.204266
Si Si4 0.274978 0.192768 0.435461
Si Si5 0.864899 0.525627 0.616886
Si Si6 0.067869 0.206484 0.333829
Si Si7 0.194516 0.586328 0.793040
Si Si8 0.919686 0.251518 0.617613
O O1 0.554763 0.621733 0.048745
O O2 0.721098 0.525291 0.368775
O O3 0.803886 0.702293 0.453465
O O4 0.735620 0.710886 0.899222
O O5 0.132657 0.882857 0.310135
O O6 0.056908 0.884186 0.579683
O O7 0.253878 0.086353 0.416556
O O8 0.000000 0.000000 0.000000
O O9 0.500000 0.500000 0.500000
O O10 0.591962 0.732376 0.313034
O O11 0.341426 0.595416 0.011642
O O12 0.137285 0.139879 0.436356
O O13 0.871502 0.469011 0.477294
O O14 0.983129 0.659857 0.562518
O O15 0.867651 0.474539 0.959929
O O16 0.016671 0.272435 0.965826
O O17 0.190330 0.707611 0.592885
#
# Coordination Sequence:
#
# PCOD9053878 Si02
#       8
#     2   2   2   2   2   2   2   2
#     4  11  21  38  70  97 133 169 226 283 331 397
#     4  12  22  39  66 101 132 170 223 285 348 403
#     4  11  25  42  67  95 134 181 230 273 327 398
#     4  11  23  39  64 100 130 170 224 286 337 394
#     4  12  23  45  68 100 138 177 226 277 343 398
#     4  11  20  38  64  99 139 164 220 281 353 394
#     4  12  29  44  67  99 143 187 225 274 337 411
#     4  12  26  40  66 101 139 174 219 280 351 410
#
# _framework density 21.269369999999999
#
# number of rings (size 3 to 8) (size 9 to 14) (size 15 to 20)
#    0.000    0.500    6.250    2.625    3.500    1.000 
#    0.000    0.625    0.000    1.500    0.000    0.000 
#    0.000    0.000    0.000    0.000    0.000    0.000 
#
# Total GULP energy -89261.304188 kJ/mol
# GULP energy per Si atom -5578.831512 kJ/mol
# Density = 2.122096 g / cm^3
# Si number density = 21.269370 Si / 1000 Ang^3
#
#
#
# Elastic Constant Matrix: (Units=GPa)
#
#
# Indices 1 2 3 4 5 6 
#
# 1 85.3177 16.2390 44.4396 4.4553 8.5029 -16.7939
# 2 16.2390 91.9715 30.1276 9.3700 12.1462 -23.0398
# 3 44.4396 30.1276 96.4593 1.8190 7.9727 -4.1441
# 4 4.4553 9.3700 1.8190 27.6967 -5.6216 4.9515
# 5 8.5029 12.1462 7.9727 -5.6216 39.6624 -2.7503
# 6 -16.7939 -23.0398 -4.1441 4.9515 -2.7503 36.3558
#
#
#
# Elastic Compliance Matrix: (Units=1/GPa)
#
#
# Indices 1 2 3 4 5 6 
#
# 1 0.018158 0.003103 -0.008528 -0.005850 -0.003269 0.009932
# 2 0.003103 0.016835 -0.005563 -0.009073 -0.005134 0.012315
# 3 -0.008528 -0.005563 0.015670 0.003406 0.000441 -0.006109
# 4 -0.005850 -0.009073 0.003406 0.044047 0.008661 -0.013408
# 5 -0.003269 -0.005134 0.000441 0.008661 0.028365 -0.003748
# 6 0.009932 0.012315 -0.006109 -0.013408 -0.003748 0.040745
#
#
# Mechanical properties :
#
#
# Convention : Reuss Voigt Hill
#
# Bulk Modulus (GPa) = 34.85774 50.59564 42.72669
# Shear Modulus (GPa) = 25.59395 32.93914 29.26654
#
# Velocity S-wave (km/s) = 3.47266 3.93958 3.71346
# Velocity P-wave (km/s) = 5.70118 6.67333 6.20632
#
# Compressibility (1/GPa) = 0.02868804
#
# Stress axis : x y z
#
# Youngs Moduli (GPa) = 55.07099 59.40014 63.81514
#
# Poissons Ratio (x) = -0.18432 0.54420
# Poissons Ratio (y) = -0.17089 0.35502
# Poissons Ratio (z) = 0.46963 0.33045
#
# Static dielectric constant tensor:
#      x y z
#    x 1.913980 -0.019340 -0.024130 
#    y -0.019340 1.856230 0.021730 
#    z -0.024130 0.021730 1.773410 
# 
# From -- ./inp_files/74997.got.cif
#   From: 2010.05.17/outbox.cif.g08.bks.cpg/sg2_38_cif.got.tgz:74997.got - 2010.06.03 11:33:40.
