data_PCOD9053358
_publ_section_title
;
Structure prediction by ZEFSAII (Michael W. Deem and Ramdas Pophale) SiO2 
 PCOD9053358
Probable space group: P -1
;
_chemical_formula_sum "Si O2"
_cell_formula_units_Z 14
_cell_length_a 19.479604
_cell_length_b 10.262747
_cell_length_c 8.889970
_cell_angle_alpha 67.117327
_cell_angle_beta 79.383683
_cell_angle_gamma 136.748518
_cell_volume 754.025813
_symmetry_space_group_name_H-M "P -1"
_symmetry_group_IT_number 2
_symmetry_cell_setting 'triclinic'
loop_
_space_group_symop_operation_xyz
x,y,z
-x,-y,-z
loop_
_atom_site_type_symbol
_atom_site_label
_atom_site_fract_x
_atom_site_fract_y
_atom_site_fract_z
Si Si1 0.093386 0.267827 0.452455
Si Si2 0.600423 0.300071 0.900778
Si Si3 0.092667 0.050312 0.032205
Si Si4 0.346466 0.684945 0.780560
Si Si5 0.754312 0.934461 0.172741
Si Si6 0.763971 0.260071 0.044781
Si Si7 0.489127 0.340735 0.744174
O O1 0.238604 0.434961 0.360129
O O2 0.152560 0.509729 0.227469
O O3 0.000000 0.000000 0.500000
O O4 0.997274 0.137191 0.693433
O O5 0.531183 0.328403 0.879472
O O6 0.623227 0.314634 0.061891
O O7 0.500000 0.000000 0.000000
O O8 0.251764 0.402343 0.854234
O O9 0.127577 0.970815 0.962840
O O10 0.000000 0.000000 0.000000
O O11 0.245636 0.645781 0.859453
O O12 0.500000 0.000000 0.500000
O O13 0.637371 0.669069 0.462986
O O14 0.357796 0.223081 0.850597
O O15 0.823207 0.208461 0.071167
O O16 0.592512 0.919395 0.216459
#
# Coordination Sequence:
#
# PCOD9053358 Si02
#       7
#     2   2   2   2   2   2   2
#     4  11  21  38  60  89 128 157 199 249 305 363
#     4  11  19  37  66  93 112 166 208 244 301 368
#     4  12  25  39  61  91 121 164 204 253 308 362
#     4  11  23  37  63  93 124 151 210 260 292 356
#     4   9  20  38  62  90 122 159 204 253 306 354
#     4   9  18  38  61  83 119 161 194 239 308 350
#     4   9  17  35  66  86 116 157 205 243 303 356
#
# _framework density 18.567004000000001
#
# number of rings (size 3 to 8) (size 9 to 14) (size 15 to 20)
#    0.857    0.857    5.714    1.714    2.000    0.571 
#    0.000    1.429    0.000    0.000    0.000    0.000 
#    0.000    0.000    0.000    0.000    0.000    0.000 
#
# Total GULP energy -77964.168580 kJ/mol
# GULP energy per Si atom -5568.869184 kJ/mol
# Density = 1.852475 g / cm^3
# Si number density = 18.567004 Si / 1000 Ang^3
#
#
#
# Elastic Constant Matrix: (Units=GPa)
#
#
# Indices 1 2 3 4 5 6 
#
# 1 128.4171 12.8366 24.9815 8.3443 3.1510 -3.5483
# 2 12.8366 35.5690 -10.2803 -5.8421 9.6673 3.1530
# 3 24.9815 -10.2803 82.7619 -4.4059 6.0993 -3.8727
# 4 8.3443 -5.8421 -4.4059 20.7600 -5.4538 -3.1741
# 5 3.1510 9.6673 6.0993 -5.4538 31.4562 -5.6627
# 6 -3.5483 3.1530 -3.8727 -3.1741 -5.6627 26.0573
#
#
#
# Elastic Compliance Matrix: (Units=1/GPa)
#
#
# Indices 1 2 3 4 5 6 
#
# 1 0.009530 -0.005828 -0.003932 -0.005989 0.000712 0.000844
# 2 -0.005828 0.037833 0.007632 0.010713 -0.011649 -0.005464
# 3 -0.003932 0.007632 0.014840 0.006020 -0.003662 0.000684
# 4 -0.005989 0.010713 0.006020 0.057995 0.007543 0.007487
# 5 0.000712 -0.011649 -0.003662 0.007543 0.039189 0.010398
# 6 0.000844 -0.005464 0.000684 0.007487 0.010398 0.042426
#
#
# Mechanical properties :
#
#
# Convention : Reuss Voigt Hill
#
# Bulk Modulus (GPa) = 17.25721 33.53593 25.39657
# Shear Modulus (GPa) = 22.18423 30.26871 26.22647
#
# Velocity S-wave (km/s) = 3.46037 4.04201 3.76244
# Velocity P-wave (km/s) = 5.02795 6.31546 5.70812
#
# Compressibility (1/GPa) = 0.05794679
#
# Stress axis : x y z
#
# Youngs Moduli (GPa) = 104.93650 26.43167 67.38475
#
# Poissons Ratio (x) = 0.15404 0.26497
# Poissons Ratio (y) = 0.61154 -0.51426
# Poissons Ratio (z) = 0.41263 -0.20172
#
# Static dielectric constant tensor:
#      x y z
#    x 1.554270 -0.297620 0.241430 
#    y -0.297620 0.913180 0.535850 
#    z 0.241430 0.535850 1.210580 
# 
# From -- ./inp_files/344157.got.cif
#   From: 2010.05.17/outbox.cif.g08.bks.cpg/sg2_173_cif.got.tgz:344157.got - 2010.06.03 11:33:40.
