data_PCOD9053775
_publ_section_title
;
Structure prediction by ZEFSAII (Michael W. Deem and Ramdas Pophale) SiO2 
 PCOD9053775
Probable space group: P -1
;
_chemical_formula_sum "Si O2"
_cell_formula_units_Z 14
_cell_length_a 11.734808
_cell_length_b 12.232354
_cell_length_c 12.547182
_cell_angle_alpha 113.014443
_cell_angle_beta 43.052295
_cell_angle_gamma 138.644527
_cell_volume 761.224749
_symmetry_space_group_name_H-M "P -1"
_symmetry_group_IT_number 2
_symmetry_cell_setting 'triclinic'
loop_
_space_group_symop_operation_xyz
x,y,z
-x,-y,-z
loop_
_atom_site_type_symbol
_atom_site_label
_atom_site_fract_x
_atom_site_fract_y
_atom_site_fract_z
Si Si1 0.038334 0.592030 0.116785
Si Si2 0.720954 0.727453 0.158384
Si Si3 0.530224 0.388777 0.492665
Si Si4 0.727103 0.888529 0.010062
Si Si5 0.575917 0.048972 0.089038
Si Si6 0.714208 0.868379 0.618057
Si Si7 0.556021 0.376062 0.089329
O O1 0.802035 0.487729 0.311072
O O2 0.139710 0.764981 0.058544
O O3 0.239780 0.621507 0.054975
O O4 0.000000 0.500000 0.000000
O O5 0.529790 0.637726 0.352567
O O6 0.689184 0.574966 0.077639
O O7 0.662984 0.783200 0.120381
O O8 0.989036 0.914309 0.091908
O O9 0.500000 0.500000 0.500000
O O10 0.339848 0.202560 0.490842
O O11 0.649115 0.762776 0.914715
O O12 0.572151 0.927611 0.111900
O O13 0.407536 0.065522 0.258227
O O14 0.500000 0.000000 0.000000
O O15 0.568425 0.710132 0.742862
O O16 0.000000 0.000000 0.500000
#
# Coordination Sequence:
#
# PCOD9053775 Si02
#       7
#     2   2   2   2   2   2   2
#     4  11  20  37  61  92 119 160 207 255 314 364
#     4  11  25  41  66  93 129 168 209 257 311 376
#     4  12  22  37  61  92 125 155 210 263 308 366
#     4  11  23  43  66  92 127 170 213 250 314 377
#     4  11  21  37  64  88 121 158 207 258 303 371
#     4  11  23  36  61  95 123 156 209 266 313 361
#     4  11  21  42  66  90 124 167 211 255 311 378
#
# _framework density 18.391414999999999
#
# number of rings (size 3 to 8) (size 9 to 14) (size 15 to 20)
#    0.000    0.857    7.143    3.000    2.000    0.000 
#    0.000    1.429    3.143    0.000    0.000    0.000 
#    0.000    0.000    0.000    0.000    0.000    0.000 
#
# Total GULP energy -77970.013014 kJ/mol
# GULP energy per Si atom -5569.286644 kJ/mol
# Density = 1.834956 g / cm^3
# Si number density = 18.391415 Si / 1000 Ang^3
#
#
#
# Elastic Constant Matrix: (Units=GPa)
#
#
# Indices 1 2 3 4 5 6 
#
# 1 117.2429 49.6347 44.6570 4.1523 8.1329 -16.0167
# 2 49.6347 106.0212 34.2078 8.7111 0.9662 -6.0542
# 3 44.6570 34.2078 90.4636 -2.6513 -1.1964 -10.1412
# 4 4.1523 8.7111 -2.6513 32.0391 7.9483 4.5631
# 5 8.1329 0.9662 -1.1964 7.9483 26.4453 -2.1109
# 6 -16.0167 -6.0542 -10.1412 4.5631 -2.1109 39.1147
#
#
#
# Elastic Compliance Matrix: (Units=1/GPa)
#
#
# Indices 1 2 3 4 5 6 
#
# 1 0.012711 -0.004296 -0.004343 -0.000421 -0.003561 0.003271
# 2 -0.004296 0.012596 -0.002723 -0.003539 0.001801 -0.000005
# 3 -0.004343 -0.002723 0.014464 0.001893 0.001634 0.001417
# 4 -0.000421 -0.003539 0.001893 0.035776 -0.010806 -0.004986
# 5 -0.003561 0.001801 0.001634 -0.010806 0.042388 0.002792
# 6 0.003271 -0.000005 0.001417 -0.004986 0.002792 0.028004
#
#
# Mechanical properties :
#
#
# Convention : Reuss Voigt Hill
#
# Bulk Modulus (GPa) = 58.66090 63.41409 61.03750
# Shear Modulus (GPa) = 28.67882 31.86836 30.27359
#
# Velocity S-wave (km/s) = 3.95316 4.16719 4.06158
# Velocity P-wave (km/s) = 7.26647 7.59665 7.43339
#
# Compressibility (1/GPa) = 0.01704713
#
# Stress axis : x y z
#
# Youngs Moduli (GPa) = 78.67289 79.39198 69.13831
#
# Poissons Ratio (x) = 0.34103 0.30028
# Poissons Ratio (y) = 0.33794 0.18826
# Poissons Ratio (z) = 0.34169 0.21618
#
# Static dielectric constant tensor:
#      x y z
#    x 1.642620 0.025740 -0.040050 
#    y 0.025740 1.732440 0.010980 
#    z -0.040050 0.010980 1.612990 
# 
# From -- ./inp_files/172292.got.cif
#   From: 2010.05.17/outbox.cif.g08.bks.cpg/sg2_87_cif.got.tgz:172292.got - 2010.06.03 11:33:40.
