data_PCOD9053114
_publ_section_title
;
Structure prediction by ZEFSAII (Michael W. Deem and Ramdas Pophale) SiO2 
 PCOD9053114
Probable space group: P -1
;
_chemical_formula_sum "Si O2"
_cell_formula_units_Z 14
_cell_length_a 8.293040
_cell_length_b 11.328370
_cell_length_c 9.498456
_cell_angle_alpha 83.657139
_cell_angle_beta 82.166195
_cell_angle_gamma 37.602973
_cell_volume 539.412366
_symmetry_space_group_name_H-M "P -1"
_symmetry_group_IT_number 2
_symmetry_cell_setting 'triclinic'
loop_
_space_group_symop_operation_xyz
x,y,z
-x,-y,-z
loop_
_atom_site_type_symbol
_atom_site_label
_atom_site_fract_x
_atom_site_fract_y
_atom_site_fract_z
Si Si1 0.330016 0.497001 0.946419
Si Si2 0.673272 0.290575 0.558307
Si Si3 0.087785 0.246613 0.253417
Si Si4 0.123487 0.505130 0.216742
Si Si5 0.715492 0.142035 0.283233
Si Si6 0.281949 0.899027 0.176775
Si Si7 0.867802 0.819776 0.407937
O O1 0.519487 0.273192 0.935001
O O2 0.204437 0.610297 0.798242
O O3 0.500000 0.500000 0.000000
O O4 0.091367 0.597441 0.065234
O O5 0.500000 0.500000 0.500000
O O6 0.779515 0.167800 0.421033
O O7 0.599471 0.223003 0.674797
O O8 0.877639 0.243362 0.637790
O O9 0.106716 0.375551 0.211580
O O10 0.130601 0.198786 0.421722
O O11 0.269870 0.047159 0.176266
O O12 0.427553 0.354403 0.245865
O O13 0.921655 0.668891 0.337407
O O14 0.662645 0.031272 0.337591
O O15 0.975974 0.028315 0.176701
#
# Coordination Sequence:
#
# PCOD9053114 Si02
#       7
#     2   2   2   2   2   2   2
#     4  12  28  48  72  99 135 186 238 287 340 409
#     4  11  18  37  70 101 134 174 226 293 331 389
#     4  12  26  47  71 101 142 183 232 281 347 414
#     4  12  28  44  68 104 145 187 222 282 348 419
#     4  11  22  40  70 103 137 169 235 283 344 395
#     4  11  24  42  72 101 133 181 231 285 342 397
#     4  11  22  42  71 103 138 180 229 286 341 404
#
# _framework density 25.954169
#
# number of rings (size 3 to 8) (size 9 to 14) (size 15 to 20)
#    0.000    0.571    4.286    5.143    0.000    5.714 
#    0.000    0.000    0.000    0.000    0.000    0.000 
#    0.000    0.000    0.000    0.000    0.000    0.000 
#
# Total GULP energy -78230.306926 kJ/mol
# GULP energy per Si atom -5587.879066 kJ/mol
# Density = 2.589510 g / cm^3
# Si number density = 25.954169 Si / 1000 Ang^3
#
#
#
# Elastic Constant Matrix: (Units=GPa)
#
#
# Indices 1 2 3 4 5 6 
#
# 1 96.1266 25.8009 19.2500 6.3677 10.6920 34.3898
# 2 25.8009 128.1246 31.5110 12.2571 14.8815 33.6922
# 3 19.2500 31.5110 91.3792 10.5662 5.0236 13.6260
# 4 6.3677 12.2571 10.5662 41.1140 13.3972 5.6430
# 5 10.6920 14.8815 5.0236 13.3972 23.5534 -2.0749
# 6 34.3898 33.6922 13.6260 5.6430 -2.0749 53.2361
#
#
#
# Elastic Compliance Matrix: (Units=1/GPa)
#
#
# Indices 1 2 3 4 5 6 
#
# 1 0.015165 0.001036 -0.001717 0.002313 -0.009424 -0.010625
# 2 0.001036 0.011023 -0.002574 0.000841 -0.008014 -0.007388
# 3 -0.001717 -0.002574 0.012440 -0.002530 0.001180 -0.000132
# 4 0.002313 0.000841 -0.002530 0.031438 -0.019405 -0.005467
# 5 -0.009424 -0.008014 0.001180 -0.019405 0.063941 0.015407
# 6 -0.010625 -0.007388 -0.000132 -0.005467 0.015407 0.031537
#
#
# Mechanical properties :
#
#
# Convention : Reuss Voigt Hill
#
# Bulk Modulus (GPa) = 31.13629 52.08378 41.61004
# Shear Modulus (GPa) = 27.35840 39.51859 33.43850
#
# Velocity S-wave (km/s) = 3.25022 3.90632 3.59328
# Velocity P-wave (km/s) = 5.10959 6.36058 5.76909
#
# Compressibility (1/GPa) = 0.03211686
#
# Stress axis : x y z
#
# Youngs Moduli (GPa) = 65.94216 90.72310 80.38533
#
# Poissons Ratio (x) = -0.09396 0.13801
# Poissons Ratio (y) = -0.06829 0.20692
# Poissons Ratio (z) = 0.11321 0.23354
#
# Static dielectric constant tensor:
#      x y z
#    x 2.055670 -0.059830 -0.023960 
#    y -0.059830 2.263360 -0.068700 
#    z -0.023960 -0.068700 2.075560 
# 
# From -- ./inp_files/187573.got.cif
#   From: 2010.05.17/outbox.cif.g08.bks.cpg/sg2_94_cif.got.tgz:187573.got - 2010.06.03 11:33:40.
