data_PCOD9053017
_publ_section_title
;
Structure prediction by ZEFSAII (Michael W. Deem and Ramdas Pophale) SiO2 
 PCOD9053017
Probable space group: P -1
;
_chemical_formula_sum "Si O2"
_cell_formula_units_Z 16
_cell_length_a 22.172522
_cell_length_b 12.446760
_cell_length_c 23.185411
_cell_angle_alpha 27.497446
_cell_angle_beta 159.938167
_cell_angle_gamma 161.591211
_cell_volume 692.624256
_symmetry_space_group_name_H-M "P -1"
_symmetry_group_IT_number 2
_symmetry_cell_setting 'triclinic'
loop_
_space_group_symop_operation_xyz
x,y,z
-x,-y,-z
loop_
_atom_site_type_symbol
_atom_site_label
_atom_site_fract_x
_atom_site_fract_y
_atom_site_fract_z
Si Si1 0.293317 0.333006 0.588809
Si Si2 0.863291 0.332063 0.736920
Si Si3 0.427232 0.543325 0.739517
Si Si4 0.797256 0.570790 0.920148
Si Si5 0.516930 0.314379 0.024113
Si Si6 0.765159 0.274558 0.440886
Si Si7 0.939218 0.233711 0.726250
Si Si8 0.722873 0.018204 0.919810
O O1 0.257688 0.532698 0.424166
O O2 0.400506 0.494722 0.671345
O O3 0.496406 0.333062 0.749837
O O4 0.000000 0.000000 0.500000
O O5 0.866517 0.309909 0.680969
O O6 0.674664 0.950691 0.773446
O O7 0.133787 0.531670 0.915357
O O8 0.438302 0.305333 0.893350
O O9 0.218304 0.481310 0.618938
O O10 0.906022 0.935550 0.858462
O O11 0.990196 0.672970 0.993849
O O12 0.621492 0.663605 0.977184
O O13 0.309741 0.018178 0.023234
O O14 0.774672 0.416854 0.201248
O O15 0.788230 0.101964 0.592975
O O16 0.498102 0.027877 0.283151
O O17 0.000000 0.500000 0.500000
#
# Coordination Sequence:
#
# PCOD9053017 Si02
#       8
#     2   2   2   2   2   2   2   2
#     4  12  27  42  59  86 124 166 204 246 301 360
#     4  12  21  39  63  91 117 151 205 254 305 359
#     4  11  20  38  58  90 120 154 198 251 299 358
#     4  11  22  36  61  87 122 159 197 250 307 355
#     4   9  17  30  51  86 125 151 186 241 306 353
#     4  11  19  29  52  90 130 150 185 246 307 355
#     4  11  18  30  57  90 120 154 184 248 302 353
#     4   9  18  31  48  88 127 154 187 239 305 355
#
# _framework density 23.100548
#
# number of rings (size 3 to 8) (size 9 to 14) (size 15 to 20)
#    0.000    1.250    7.500    2.250    1.750    0.500 
#    0.000    0.000    0.000    0.750    0.000    2.625 
#    0.000    0.000    0.000    0.000    0.000    0.000 
#
# Total GULP energy -89161.366926 kJ/mol
# GULP energy per Si atom -5572.585433 kJ/mol
# Density = 2.304797 g / cm^3
# Si number density = 23.100548 Si / 1000 Ang^3
#
#
#
# Elastic Constant Matrix: (Units=GPa)
#
#
# Indices 1 2 3 4 5 6 
#
# 1 57.2784 38.5307 45.2649 -0.9324 18.1535 39.1695
# 2 38.5307 48.5553 41.4885 15.3397 1.1138 23.3172
# 3 45.2649 41.4885 171.0046 3.5130 0.7818 33.5153
# 4 -0.9324 15.3397 3.5130 25.4116 25.9122 3.1871
# 5 18.1535 1.1138 0.7818 25.9122 23.8757 8.2916
# 6 39.1695 23.3172 33.5153 3.1871 8.2916 38.1345
#
#
#
# Elastic Compliance Matrix: (Units=1/GPa)
#
#
# Indices 1 2 3 4 5 6 
#
# 1 0.021000 0.010740 -0.001382 -0.037732 0.035460 -0.031479
# 2 0.010740 0.015644 -0.004542 0.021744 -0.028067 -0.012320
# 3 -0.001382 -0.004542 0.007881 0.001051 0.000911 -0.003015
# 4 -0.037732 0.021744 0.001051 -0.007586 0.029348 0.018790
# 5 0.035460 -0.028067 0.000911 0.029348 -0.008471 -0.020672
# 6 -0.031479 -0.012320 -0.003015 0.018790 -0.020672 0.071664
#
#
# Mechanical properties :
#
#
# Convention : Reuss Voigt Hill
#
# Bulk Modulus (GPa) = 18.46488 58.60072 38.53280
# Shear Modulus (GPa) = 46.06107 27.58798 36.82452
#
# Velocity S-wave (km/s) = 4.47020 3.45955 3.99695
# Velocity P-wave (km/s) = 5.88678 6.43279 6.16583
#
# Compressibility (1/GPa) = 0.05415687
#
# Stress axis : x y z
#
# Youngs Moduli (GPa) = 47.61939 63.92221 126.89030
#
# Poissons Ratio (x) = -0.68653 0.17533
# Poissons Ratio (y) = -0.51144 0.57637
# Poissons Ratio (z) = 0.06580 0.29035
#
# Static dielectric constant tensor:
#      x y z
#    x 1.878850 0.006880 0.001330 
#    y 0.006880 1.965870 0.040290 
#    z 0.001330 0.040290 2.079810 
# 
# From -- ./inp_files/614160.got.cif
#   From: 2010.05.17/outbox.cif.g08.bks.cpg/sg2_308_cif.got.tgz:614160.got - 2010.06.03 11:33:40.
