data_PCOD9053381
_publ_section_title
;
Structure prediction by ZEFSAII (Michael W. Deem and Ramdas Pophale) SiO2 
 PCOD9053381
Probable space group: P -1
;
_chemical_formula_sum "Si O2"
_cell_formula_units_Z 16
_cell_length_a 8.286201
_cell_length_b 11.575377
_cell_length_c 17.137508
_cell_angle_alpha 51.674935
_cell_angle_beta 119.058262
_cell_angle_gamma 78.899840
_cell_volume 782.307418
_symmetry_space_group_name_H-M "P -1"
_symmetry_group_IT_number 2
_symmetry_cell_setting 'triclinic'
loop_
_space_group_symop_operation_xyz
x,y,z
-x,-y,-z
loop_
_atom_site_type_symbol
_atom_site_label
_atom_site_fract_x
_atom_site_fract_y
_atom_site_fract_z
Si Si1 0.531589 0.354958 0.440544
Si Si2 0.211773 0.254026 0.388836
Si Si3 0.978471 0.844585 0.136999
Si Si4 0.263326 0.884475 0.562690
Si Si5 0.965263 0.300062 0.632494
Si Si6 0.168425 0.068069 0.101477
Si Si7 0.244014 0.254871 0.568343
Si Si8 0.851772 0.533379 0.874573
O O1 0.445993 0.233872 0.477100
O O2 0.258244 0.603899 0.279657
O O3 0.679266 0.265629 0.429441
O O4 0.739167 0.305229 0.569340
O O5 0.101145 0.304052 0.431075
O O6 0.102881 0.397934 0.224381
O O7 0.252626 0.060728 0.457246
O O8 0.875724 0.827813 0.198330
O O9 0.047724 0.973993 0.117120
O O10 0.786570 0.940184 0.977792
O O11 0.539671 0.720562 0.742712
O O12 0.000000 0.000000 0.500000
O O13 0.822768 0.538051 0.512676
O O14 0.127463 0.221031 0.624266
O O15 0.436827 0.940558 0.266305
O O16 0.952321 0.312204 0.973114
O O17 0.000000 0.500000 0.000000
#
# Coordination Sequence:
#
# PCOD9053381 Si02
#       8
#     2   2   2   2   2   2   2   2
#     4  11  19  38  64  88 121 163 214 255 309 373
#     4  11  22  42  65  91 122 168 216 260 308 386
#     4  11  21  38  61  91 128 168 214 257 313 380
#     4  11  24  43  67  96 124 164 218 272 318 373
#     4  11  22  37  60  94 127 165 212 267 306 371
#     4  11  22  38  62  91 130 171 212 255 322 386
#     4  11  22  37  62  92 127 167 212 259 320 368
#     4  11  23  42  67  96 128 170 215 260 320 385
#
# _framework density 20.452318999999999
#
# number of rings (size 3 to 8) (size 9 to 14) (size 15 to 20)
#    0.000    1.000    5.000    4.125    0.000    1.500 
#    0.000    1.875    0.000    0.000    0.000    0.000 
#    0.000    0.000    0.000    0.000    0.000    0.000 
#
# Total GULP energy -89126.249904 kJ/mol
# GULP energy per Si atom -5570.390619 kJ/mol
# Density = 2.040577 g / cm^3
# Si number density = 20.452319 Si / 1000 Ang^3
#
#
#
# Elastic Constant Matrix: (Units=GPa)
#
#
# Indices 1 2 3 4 5 6 
#
# 1 86.2714 38.6056 44.6771 -4.1579 -22.6068 -7.9413
# 2 38.6056 114.3156 44.1340 1.8759 -13.8251 -1.4295
# 3 44.6771 44.1340 103.1392 13.7374 -13.8285 -8.4639
# 4 -4.1579 1.8759 13.7374 47.3997 -5.8815 -10.8700
# 5 -22.6068 -13.8251 -13.8285 -5.8815 21.3836 4.4664
# 6 -7.9413 -1.4295 -8.4639 -10.8700 4.4664 38.9236
#
#
#
# Elastic Compliance Matrix: (Units=1/GPa)
#
#
# Indices 1 2 3 4 5 6 
#
# 1 0.021375 -0.002651 -0.006376 0.006679 0.018039 0.002672
# 2 -0.002651 0.011275 -0.003472 0.000403 0.002574 -0.001065
# 3 -0.006376 -0.003472 0.014467 -0.004615 -0.001013 0.000545
# 4 0.006679 0.000403 -0.004615 0.025723 0.010074 0.006401
# 5 0.018039 0.002574 -0.001013 0.010074 0.069962 -0.001660
# 6 0.002672 -0.001065 0.000545 0.006401 -0.001660 0.028294
#
#
# Mechanical properties :
#
#
# Convention : Reuss Voigt Hill
#
# Bulk Modulus (GPa) = 45.21311 62.06217 53.63764
# Shear Modulus (GPa) = 24.57404 33.29535 28.93469
#
# Velocity S-wave (km/s) = 3.47007 4.03916 3.76538
# Velocity P-wave (km/s) = 6.18140 7.22245 6.72211
#
# Compressibility (1/GPa) = 0.02211748
#
# Stress axis : x y z
#
# Youngs Moduli (GPa) = 46.78464 88.69203 69.12362
#
# Poissons Ratio (x) = 0.23516 0.44073
# Poissons Ratio (y) = 0.12405 0.23999
# Poissons Ratio (z) = 0.29830 0.30794
#
# Static dielectric constant tensor:
#      x y z
#    x 1.813670 -0.065800 -0.024410 
#    y -0.065800 1.786090 0.021740 
#    z -0.024410 0.021740 1.743730 
# 
# From -- ./inp_files/559051.got.cif
#   From: 2010.05.17/outbox.cif.g08.bks.cpg/sg2_280_cif.got.tgz:559051.got - 2010.06.03 11:33:40.
