data_PCOD9053214
_publ_section_title
;
Structure prediction by ZEFSAII (Michael W. Deem and Ramdas Pophale) SiO2 
 PCOD9053214
Probable space group: P -1
;
_chemical_formula_sum "Si O2"
_cell_formula_units_Z 12
_cell_length_a 14.127646
_cell_length_b 4.888015
_cell_length_c 12.771973
_cell_angle_alpha 105.417119
_cell_angle_beta 52.666258
_cell_angle_gamma 125.377820
_cell_volume 566.821644
_symmetry_space_group_name_H-M "P -1"
_symmetry_group_IT_number 2
_symmetry_cell_setting 'triclinic'
loop_
_space_group_symop_operation_xyz
x,y,z
-x,-y,-z
loop_
_atom_site_type_symbol
_atom_site_label
_atom_site_fract_x
_atom_site_fract_y
_atom_site_fract_z
Si Si1 0.382224 0.233140 0.469556
Si Si2 0.818452 0.284976 0.164226
Si Si3 0.389529 0.924222 0.976037
Si Si4 0.100879 0.018647 0.751185
Si Si5 0.803819 0.860844 0.934331
Si Si6 0.495852 0.797861 0.301316
O O1 0.500000 0.500000 0.500000
O O2 0.227075 0.135896 0.596599
O O3 0.395289 0.913358 0.423708
O O4 0.430273 0.418570 0.343882
O O5 0.651108 0.032070 0.273525
O O6 0.850221 0.657493 0.173939
O O7 0.904220 0.263030 0.200591
O O8 0.843447 0.133565 0.028336
O O9 0.292311 0.516188 0.991368
O O10 0.288050 0.066269 0.075829
O O11 0.471256 0.109932 0.833045
O O12 0.500000 0.000000 0.000000
O O13 0.947168 0.905010 0.800534
#
# Coordination Sequence:
#
# PCOD9053214 Si02
#       6
#     2   2   2   2   2   2
#     4  12  21  35  56  86 128 163 188 218 274 361
#     4  11  19  34  54  84 124 158 188 229 277 355
#     4  11  24  44  67  82 107 150 205 268 298 322
#     4  12  22  33  56  85 129 163 180 224 288 358
#     4  11  23  38  58  89 116 148 201 243 298 346
#     4  11  21  37  57  87 115 153 205 235 275 342
#
# _framework density 21.170680000000001
#
# number of rings (size 3 to 8) (size 9 to 14) (size 15 to 20)
#    0.000    0.667    3.333    8.000    0.000    0.000 
#    0.000    0.000    0.000    6.000    0.000    0.000 
#    0.000    0.000    0.000    0.000    0.000    0.000 
#
# Total GULP energy -67119.913005 kJ/mol
# GULP energy per Si atom -5593.326084 kJ/mol
# Density = 2.112249 g / cm^3
# Si number density = 21.170680 Si / 1000 Ang^3
#
#
#
# Elastic Constant Matrix: (Units=GPa)
#
#
# Indices 1 2 3 4 5 6 
#
# 1 133.6938 4.4006 53.8646 -6.3249 -23.2379 -24.7298
# 2 4.4006 57.9031 12.5983 -10.2412 -0.4325 -19.1785
# 3 53.8646 12.5983 101.9568 -13.7702 -36.5614 -0.9017
# 4 -6.3249 -10.2412 -13.7702 27.7660 -9.3050 -2.9847
# 5 -23.2379 -0.4325 -36.5614 -9.3050 33.2895 0.3974
# 6 -24.7298 -19.1785 -0.9017 -2.9847 0.3974 28.1474
#
#
#
# Elastic Compliance Matrix: (Units=1/GPa)
#
#
# Indices 1 2 3 4 5 6 
#
# 1 0.013913 0.007225 -0.004720 0.007585 0.006531 0.017708
# 2 0.007225 0.029570 -0.002384 0.016793 0.007167 0.028099
# 3 -0.004720 -0.002384 0.027533 0.022521 0.033244 -0.002971
# 4 0.007585 0.016793 0.022521 0.074961 0.050890 0.026058
# 5 0.006531 0.007167 0.033244 0.050890 0.085237 0.015879
# 6 0.017708 0.028099 -0.002971 0.026058 0.015879 0.072674
#
#
# Mechanical properties :
#
#
# Convention : Reuss Voigt Hill
#
# Bulk Modulus (GPa) = 14.03358 48.36451 31.19904
# Shear Modulus (GPa) = 15.27182 32.68660 23.97921
#
# Velocity S-wave (km/s) = 2.68874 3.93358 3.36915
# Velocity P-wave (km/s) = 4.03513 6.59738 5.46844
#
# Compressibility (1/GPa) = 0.07125768
#
# Stress axis : x y z
#
# Youngs Moduli (GPa) = 71.87448 33.81762 36.32015
#
# Poissons Ratio (x) = -0.24434 0.17144
# Poissons Ratio (y) = -0.51930 0.08659
# Poissons Ratio (z) = 0.33927 0.08063
#
# Static dielectric constant tensor:
#      x y z
#    x 1.782780 0.004870 -0.024660 
#    y 0.004870 1.746780 -0.014050 
#    z -0.024660 -0.014050 1.783280 
# 
# From -- ./inp_files/410424.got.cif
#   From: 2010.05.17/outbox.cif.g08.bks.cpg/sg2_206_cif.got.tgz:410424.got - 2010.06.03 11:33:40.
