data_PCOD9053964
_publ_section_title
;
Structure prediction by ZEFSAII (Michael W. Deem and Ramdas Pophale) SiO2 
 PCOD9053964
Probable space group: P -1
;
_chemical_formula_sum "Si O2"
_cell_formula_units_Z 16
_cell_length_a 12.216855
_cell_length_b 20.665352
_cell_length_c 17.756367
_cell_angle_alpha 19.762557
_cell_angle_beta 41.389262
_cell_angle_gamma 30.897815
_cell_volume 734.734486
_symmetry_space_group_name_H-M "P -1"
_symmetry_group_IT_number 2
_symmetry_cell_setting 'triclinic'
loop_
_space_group_symop_operation_xyz
x,y,z
-x,-y,-z
loop_
_atom_site_type_symbol
_atom_site_label
_atom_site_fract_x
_atom_site_fract_y
_atom_site_fract_z
Si Si1 0.300428 0.971721 0.212122
Si Si2 0.847860 0.709286 0.783050
Si Si3 0.754272 0.093974 0.524111
Si Si4 0.661374 0.124940 0.957694
Si Si5 0.487014 0.695655 0.998543
Si Si6 0.187900 0.298256 0.769824
Si Si7 0.005525 0.825867 0.304293
Si Si8 0.205748 0.624174 0.586083
O O1 0.260998 0.027048 0.260972
O O2 0.565804 0.795004 0.254717
O O3 0.234534 0.804590 0.414262
O O4 0.172731 0.201167 0.964465
O O5 0.671663 0.685977 0.874438
O O6 0.016787 0.649716 0.697488
O O7 0.730048 0.984803 0.581716
O O8 0.000000 0.500000 0.000000
O O9 0.579422 0.407789 0.274703
O O10 0.000000 0.000000 0.500000
O O11 0.451306 0.334084 0.781645
O O12 0.828260 0.172271 0.831681
O O13 0.549934 0.181313 0.034397
O O14 0.803398 0.852679 0.139510
O O15 0.243632 0.894739 0.868042
O O16 0.005668 0.607678 0.515071
O O17 0.125263 0.724653 0.433917
#
# Coordination Sequence:
#
# PCOD9053964 Si02
#       8
#     2   2   2   2   2   2   2   2
#     4  11  20  39  66 103 121 167 224 273 317 373
#     4  12  24  43  71  99 124 170 226 274 320 382
#     4  12  22  42  71  97 124 169 225 276 319 379
#     4  12  22  44  70  97 131 175 226 266 319 389
#     4  12  27  44  67  98 136 175 214 275 328 392
#     4  11  24  36  68  97 130 172 212 273 323 389
#     4  12  27  43  62 101 143 170 212 268 343 384
#     4  12  22  43  70  96 134 171 221 279 310 393
#
# _framework density 21.776575000000001
#
# number of rings (size 3 to 8) (size 9 to 14) (size 15 to 20)
#    0.000    0.250    7.500    3.000    1.750    2.000 
#    0.000    0.625    0.000    0.000    0.000    0.000 
#    0.000    0.000    0.000    0.000    0.000    0.000 
#
# Total GULP energy -89557.445377 kJ/mol
# GULP energy per Si atom -5597.340336 kJ/mol
# Density = 2.172701 g / cm^3
# Si number density = 21.776575 Si / 1000 Ang^3
#
#
#
# Elastic Constant Matrix: (Units=GPa)
#
#
# Indices 1 2 3 4 5 6 
#
# 1 32.9073 -7.4901 10.4736 -7.9783 -1.9640 6.3658
# 2 -7.4901 86.2341 36.4466 14.9389 1.2362 -8.3603
# 3 10.4736 36.4466 88.0063 -10.4434 -16.8534 -2.0963
# 4 -7.9783 14.9389 -10.4434 41.9786 0.0890 -8.1698
# 5 -1.9640 1.2362 -16.8534 0.0890 30.0176 -5.3594
# 6 6.3658 -8.3603 -2.0963 -8.1698 -5.3594 33.3262
#
#
#
# Elastic Compliance Matrix: (Units=1/GPa)
#
#
# Indices 1 2 3 4 5 6 
#
# 1 0.035103 0.004955 -0.006624 0.002140 -0.002665 -0.005783
# 2 0.004955 0.017692 -0.009995 -0.007832 -0.005997 -0.000021
# 3 -0.006624 -0.009995 0.019535 0.007869 0.011598 0.003781
# 4 0.002140 -0.007832 0.007869 0.030223 0.005949 0.006487
# 5 -0.002665 -0.005997 0.011598 0.005949 0.041279 0.007831
# 6 -0.005783 -0.000021 0.003781 0.006487 0.007831 0.034193
#
#
# Mechanical properties :
#
#
# Convention : Reuss Voigt Hill
#
# Bulk Modulus (GPa) = 20.40677 31.77865 26.09271
# Shear Modulus (GPa) = 22.96885 32.24566 27.60726
#
# Velocity S-wave (km/s) = 3.25122 3.85223 3.56441
# Velocity P-wave (km/s) = 4.84615 5.86608 5.38034
#
# Compressibility (1/GPa) = 0.04900334
#
# Stress axis : x y z
#
# Youngs Moduli (GPa) = 28.48751 56.52371 51.18956
#
# Poissons Ratio (x) = -0.28009 0.33908
# Poissons Ratio (y) = -0.14117 0.51163
# Poissons Ratio (z) = 0.18870 0.56494
#
# Static dielectric constant tensor:
#      x y z
#    x 1.820610 0.024780 -0.044470 
#    y 0.024780 1.785010 0.007560 
#    z -0.044470 0.007560 1.829700 
# 
# From -- ./inp_files/405339.got.cif
#   From: 2010.05.17/outbox.cif.g08.bks.cpg/sg2_203_cif.got.tgz:405339.got - 2010.06.03 11:33:40.
