data_PCOD9053866
_publ_section_title
;
Structure prediction by ZEFSAII (Michael W. Deem and Ramdas Pophale) SiO2 
 PCOD9053866
Probable space group: P -1
;
_chemical_formula_sum "Si O2"
_cell_formula_units_Z 16
_cell_length_a 13.906669
_cell_length_b 20.930114
_cell_length_c 13.767705
_cell_angle_alpha 21.760335
_cell_angle_beta 30.339155
_cell_angle_gamma 30.241451
_cell_volume 707.583061
_symmetry_space_group_name_H-M "P -1"
_symmetry_group_IT_number 2
_symmetry_cell_setting 'triclinic'
loop_
_space_group_symop_operation_xyz
x,y,z
-x,-y,-z
loop_
_atom_site_type_symbol
_atom_site_label
_atom_site_fract_x
_atom_site_fract_y
_atom_site_fract_z
Si Si1 0.499339 0.991032 0.261536
Si Si2 0.590651 0.433959 0.410456
Si Si3 0.883338 0.107017 0.711173
Si Si4 0.960394 0.153826 0.233109
Si Si5 0.483916 0.710419 0.949993
Si Si6 0.512141 0.394052 0.239593
Si Si7 0.247074 0.080117 0.557707
Si Si8 0.650847 0.824381 0.061342
O O1 0.560600 0.778923 0.473743
O O2 0.388039 0.020448 0.420959
O O3 0.691786 0.058973 0.987496
O O4 0.344878 0.109938 0.146215
O O5 0.500000 0.500000 0.500000
O O6 0.805209 0.283420 0.459464
O O7 0.457103 0.325210 0.632460
O O8 0.565892 0.610682 0.119947
O O9 0.022628 0.139167 0.629120
O O10 0.001903 0.941762 0.770037
O O11 0.737700 0.297657 0.222126
O O12 0.000000 0.000000 0.500000
O O13 0.134812 0.238142 0.985589
O O14 0.676718 0.770588 0.665469
O O15 0.302544 0.900930 0.829473
O O16 0.418838 0.562717 0.154978
O O17 0.500000 0.500000 0.000000
O O18 0.500000 0.000000 0.000000
#
# Coordination Sequence:
#
# PCOD9053866 Si02
#       8
#     2   2   2   2   2   2   2   2
#     4  11  21  41  69  92 134 171 216 274 329 386
#     4  11  24  41  66 101 134 166 221 280 328 381
#     4  11  23  42  70  96 129 179 220 265 334 399
#     4  12  21  36  65  97 126 177 219 264 336 392
#     4  11  24  43  67  94 135 177 211 283 329 381
#     4  12  23  41  65  99 135 168 223 277 325 385
#     4  11  24  47  67  91 133 184 218 256 344 403
#     4  11  20  38  63  94 128 167 217 274 323 387
#
# _framework density 22.612186999999999
#
# number of rings (size 3 to 8) (size 9 to 14) (size 15 to 20)
#    0.000    0.750    6.250    3.000    0.000    1.500 
#    2.250    6.875    0.000    0.000    0.000    0.000 
#    0.000    0.000    0.000    0.000    0.000    0.000 
#
# Total GULP energy -89406.259332 kJ/mol
# GULP energy per Si atom -5587.891208 kJ/mol
# Density = 2.256072 g / cm^3
# Si number density = 22.612187 Si / 1000 Ang^3
#
#
#
# Elastic Constant Matrix: (Units=GPa)
#
#
# Indices 1 2 3 4 5 6 
#
# 1 86.9672 -3.8726 31.4912 -2.6516 -2.3925 -24.5239
# 2 -3.8726 20.7821 26.1193 -3.7491 0.2670 2.1698
# 3 31.4912 26.1193 110.7311 -30.5429 9.2547 -18.9313
# 4 -2.6516 -3.7491 -30.5429 32.5782 -4.2439 -1.0271
# 5 -2.3925 0.2670 9.2547 -4.2439 48.8378 -4.5214
# 6 -24.5239 2.1698 -18.9313 -1.0271 -4.5214 46.9994
#
#
#
# Elastic Compliance Matrix: (Units=1/GPa)
#
#
# Indices 1 2 3 4 5 6 
#
# 1 0.016171 0.011609 -0.007881 -0.004284 0.002299 0.004855
# 2 0.011609 0.086719 -0.030713 -0.017752 0.003411 -0.010377
# 3 -0.007881 -0.030713 0.025466 0.019601 -0.002624 0.007739
# 4 -0.004284 -0.017752 0.019601 0.047046 0.000965 0.007600
# 5 0.002299 0.003411 -0.002624 0.000965 0.021342 0.002060
# 6 0.004855 -0.010377 0.007739 0.007600 0.002060 0.027771
#
#
# Mechanical properties :
#
#
# Convention : Reuss Voigt Hill
#
# Bulk Modulus (GPa) = 13.44328 36.21735 24.83031
# Shear Modulus (GPa) = 16.48652 36.66591 26.57622
#
# Velocity S-wave (km/s) = 2.70311 4.03117 3.43199
# Velocity P-wave (km/s) = 3.96238 6.14155 5.16813
#
# Compressibility (1/GPa) = 0.07438662
#
# Stress axis : x y z
#
# Youngs Moduli (GPa) = 61.83903 11.53151 39.26856
#
# Poissons Ratio (x) = -0.13387 0.30948
# Poissons Ratio (y) = -0.71790 1.20604
# Poissons Ratio (z) = 0.48736 0.35416
#
# Static dielectric constant tensor:
#      x y z
#    x 1.890870 0.048240 -0.004300 
#    y 0.048240 1.910370 0.004190 
#    z -0.004300 0.004190 1.879480 
# 
# From -- ./inp_files/535371.got.cif
#   From: 2010.05.17/outbox.cif.g08.bks.cpg/sg2_268_cif.got.tgz:535371.got - 2010.06.03 11:33:40.
