data_PCOD9053836
_publ_section_title
;
Structure prediction by ZEFSAII (Michael W. Deem and Ramdas Pophale) SiO2 
 PCOD9053836
Probable space group: P -1
;
_chemical_formula_sum "Si O2"
_cell_formula_units_Z 16
_cell_length_a 15.528281
_cell_length_b 10.802054
_cell_length_c 8.865107
_cell_angle_alpha 41.673724
_cell_angle_beta 93.073230
_cell_angle_gamma 121.784368
_cell_volume 671.544358
_symmetry_space_group_name_H-M "P -1"
_symmetry_group_IT_number 2
_symmetry_cell_setting 'triclinic'
loop_
_space_group_symop_operation_xyz
x,y,z
-x,-y,-z
loop_
_atom_site_type_symbol
_atom_site_label
_atom_site_fract_x
_atom_site_fract_y
_atom_site_fract_z
Si Si1 0.531107 0.373716 0.225174
Si Si2 0.157735 0.467286 0.800437
Si Si3 0.635448 0.658217 0.295442
Si Si4 0.781925 0.658648 0.542258
Si Si5 0.938413 0.205509 0.209052
Si Si6 0.052521 0.923519 0.348521
Si Si7 0.662211 0.242325 0.174711
Si Si8 0.852092 0.249677 0.668730
O O1 0.606778 0.566673 0.201569
O O2 0.593316 0.310843 0.183792
O O3 0.417457 0.071827 0.561786
O O4 0.500000 0.500000 0.000000
O O5 0.232870 0.644295 0.794919
O O6 0.201759 0.642823 0.498319
O O7 0.014126 0.297587 0.976875
O O8 0.147252 0.231192 0.018823
O O9 0.500000 0.500000 0.500000
O O10 0.695619 0.583535 0.463547
O O11 0.748286 0.992501 0.001085
O O12 0.915455 0.768012 0.412412
O O13 0.808376 0.894041 0.427106
O O14 0.716011 0.406077 0.875901
O O15 0.969118 0.128552 0.428093
O O16 0.000000 0.500000 0.000000
O O17 0.125031 0.851716 0.377407
O O18 0.000000 0.500000 0.500000
#
# Coordination Sequence:
#
# PCOD9053836 Si02
#       8
#     2   2   2   2   2   2   2   2
#     4  11  26  48  72  99 137 193 254 307 365 440
#     4  11  21  39  68 104 138 179 235 299 362 432
#     4  12  29  50  71 106 155 201 248 307 375 449
#     4  11  24  44  72 108 148 191 247 303 374 445
#     4  11  20  37  71 110 148 188 234 303 367 437
#     4  11  22  42  70 110 147 184 240 308 368 439
#     4  11  23  43  74 103 133 188 252 305 364 443
#     4  12  27  45  72 107 147 195 246 303 377 438
#
# _framework density 23.825679999999998
#
# number of rings (size 3 to 8) (size 9 to 14) (size 15 to 20)
#    0.000    0.750    3.750    4.500    0.000    7.500 
#    0.000    0.000    0.000    0.000    0.000    0.000 
#    0.000    0.000    0.000    0.000    0.000    0.000 
#
# Total GULP energy -89173.243203 kJ/mol
# GULP energy per Si atom -5573.327700 kJ/mol
# Density = 2.377145 g / cm^3
# Si number density = 23.825680 Si / 1000 Ang^3
#
#
#
# Elastic Constant Matrix: (Units=GPa)
#
#
# Indices 1 2 3 4 5 6 
#
# 1 86.5684 31.7150 49.4979 4.0001 8.5155 9.3219
# 2 31.7150 97.8044 45.1057 3.2700 19.8444 27.8590
# 3 49.4979 45.1057 184.7094 -8.9450 15.4922 17.7909
# 4 4.0001 3.2700 -8.9450 30.9303 5.0382 9.1348
# 5 8.5155 19.8444 15.4922 5.0382 43.0025 -0.0170
# 6 9.3219 27.8590 17.7909 9.1348 -0.0170 42.9108
#
#
#
# Elastic Compliance Matrix: (Units=1/GPa)
#
#
# Indices 1 2 3 4 5 6 
#
# 1 0.014745 -0.003486 -0.003361 -0.002863 0.000236 0.001063
# 2 -0.003486 0.015927 -0.001397 0.002207 -0.006418 -0.009476
# 3 -0.003361 -0.001397 0.007171 0.003549 -0.001690 -0.002092
# 4 -0.002863 0.002207 0.003549 0.037527 -0.006131 -0.010274
# 5 0.000236 -0.006418 -0.001690 -0.006131 0.027499 0.006133
# 6 0.001063 -0.009476 -0.002092 -0.010274 0.006133 0.032282
#
#
# Mechanical properties :
#
#
# Convention : Reuss Voigt Hill
#
# Bulk Modulus (GPa) = 46.82874 69.07995 57.95434
# Shear Modulus (GPa) = 31.49447 39.55295 35.52371
#
# Velocity S-wave (km/s) = 3.63970 4.07885 3.86552
# Velocity P-wave (km/s) = 6.11233 7.15818 6.65583
#
# Compressibility (1/GPa) = 0.02135441
#
# Stress axis : x y z
#
# Youngs Moduli (GPa) = 67.81940 62.78621 139.45412
#
# Poissons Ratio (x) = 0.21889 0.46867
# Poissons Ratio (y) = 0.23644 0.19484
# Poissons Ratio (z) = 0.22792 0.08772
#
# Static dielectric constant tensor:
#      x y z
#    x 2.012660 -0.029680 0.019610 
#    y -0.029680 1.924250 -0.209510 
#    z 0.019610 -0.209510 1.729840 
# 
# From -- ./inp_files/332741.got.cif
#   From: 2010.05.17/outbox.cif.g08.bks.cpg/sg2_167_cif.got.tgz:332741.got - 2010.06.03 11:33:40.
