data_PCOD9053130
_publ_section_title
;
Structure prediction by ZEFSAII (Michael W. Deem and Ramdas Pophale) SiO2 
 PCOD9053130
Probable space group: P -1
;
_chemical_formula_sum "Si O2"
_cell_formula_units_Z 16
_cell_length_a 12.674375
_cell_length_b 10.946427
_cell_length_c 11.660211
_cell_angle_alpha 93.539541
_cell_angle_beta 135.748087
_cell_angle_gamma 120.768845
_cell_volume 679.019276
_symmetry_space_group_name_H-M "P -1"
_symmetry_group_IT_number 2
_symmetry_cell_setting 'triclinic'
loop_
_space_group_symop_operation_xyz
x,y,z
-x,-y,-z
loop_
_atom_site_type_symbol
_atom_site_label
_atom_site_fract_x
_atom_site_fract_y
_atom_site_fract_z
Si Si1 0.666498 0.320996 0.086808
Si Si2 0.816864 0.676408 0.117854
Si Si3 0.265484 0.378394 0.392866
Si Si4 0.389463 0.798526 0.373868
Si Si5 0.332327 0.518152 0.696499
Si Si6 0.903383 0.075748 0.434961
Si Si7 0.069439 0.621047 0.896577
Si Si8 0.111734 0.024845 0.206914
O O1 0.720112 0.478472 0.060628
O O2 0.702404 0.380501 0.251347
O O3 0.844463 0.337410 0.165192
O O4 0.380623 0.098184 0.834314
O O5 0.046795 0.848991 0.392596
O O6 0.579628 0.613077 0.948693
O O7 0.933822 0.799489 0.097877
O O8 0.500000 0.500000 0.500000
O O9 0.361192 0.521787 0.583151
O O10 0.138609 0.165555 0.313734
O O11 0.049180 0.323157 0.166673
O O12 0.607217 0.843376 0.571290
O O13 0.150234 0.614856 0.255524
O O14 0.500000 0.000000 0.500000
O O15 0.295045 0.737162 0.165625
O O16 0.091025 0.280718 0.521678
O O17 0.000000 0.000000 0.500000
O O18 0.000000 0.000000 0.000000
#
# Coordination Sequence:
#
# PCOD9053130 Si02
#       8
#     2   2   2   2   2   2   2   2
#     4  11  23  42  70 104 142 184 237 296 357 421
#     4  11  22  37  67 105 137 181 233 291 352 422
#     4  12  26  48  69 102 144 187 239 291 358 430
#     4  11  24  46  71 104 141 186 239 294 354 426
#     4  11  24  39  69 103 141 183 235 295 350 426
#     4  11  18  39  64 104 137 181 233 288 352 417
#     4  11  26  46  71 101 144 193 234 294 362 423
#     4  12  25  43  73 107 142 188 237 296 356 428
#
# _framework density 23.563396000000001
#
# number of rings (size 3 to 8) (size 9 to 14) (size 15 to 20)
#    0.000    0.750    3.750    4.500    1.750    2.500 
#    0.000    0.625    0.000    0.000    0.000    0.000 
#    0.000    0.000    0.000    0.000    0.000    0.000 
#
# Total GULP energy -89504.336079 kJ/mol
# GULP energy per Si atom -5594.021005 kJ/mol
# Density = 2.350976 g / cm^3
# Si number density = 23.563396 Si / 1000 Ang^3
#
#
#
# Elastic Constant Matrix: (Units=GPa)
#
#
# Indices 1 2 3 4 5 6 
#
# 1 137.1076 16.2059 59.0224 -6.7026 -1.3764 10.5586
# 2 16.2059 60.1633 32.8386 4.1474 -1.1407 3.5577
# 3 59.0224 32.8386 141.2357 5.1418 -3.6351 2.2979
# 4 -6.7026 4.1474 5.1418 43.0590 0.3039 -3.5714
# 5 -1.3764 -1.1407 -3.6351 0.3039 35.2309 -4.3200
# 6 10.5586 3.5577 2.2979 -3.5714 -4.3200 37.5569
#
#
#
# Elastic Compliance Matrix: (Units=1/GPa)
#
#
# Indices 1 2 3 4 5 6 
#
# 1 0.009228 -0.000410 -0.003798 0.001750 -0.000329 -0.002195
# 2 -0.000410 0.019236 -0.004219 -0.001545 -0.000011 -0.001597
# 3 -0.003798 -0.004219 0.009702 -0.001279 0.000831 0.000848
# 4 0.001750 -0.001545 -0.001279 0.023964 -0.000075 0.002003
# 5 -0.000329 -0.000011 0.000831 -0.000075 0.028869 0.003356
# 6 -0.002195 -0.001597 0.000848 0.002003 0.003356 0.027919
#
#
# Mechanical properties :
#
#
# Convention : Reuss Voigt Hill
#
# Bulk Modulus (GPa) = 46.92040 61.62670 54.27355
# Shear Modulus (GPa) = 34.99537 38.53202 36.76369
#
# Velocity S-wave (km/s) = 3.85796 4.04821 3.95423
# Velocity P-wave (km/s) = 6.30878 6.93260 6.62804
#
# Compressibility (1/GPa) = 0.02131269
#
# Stress axis : x y z
#
# Youngs Moduli (GPa) = 108.36586 51.98718 103.06633
#
# Poissons Ratio (x) = 0.02132 0.39139
# Poissons Ratio (y) = 0.04443 0.43485
# Poissons Ratio (z) = 0.41152 0.21934
#
# Static dielectric constant tensor:
#      x y z
#    x 1.974120 0.029080 -0.030990 
#    y 0.029080 1.946220 -0.038370 
#    z -0.030990 -0.038370 1.881040 
# 
# From -- ./inp_files/428451.got.cif
#   From: 2010.05.17/outbox.cif.g08.bks.cpg/sg2_215_cif.got.tgz:428451.got - 2010.06.03 11:33:40.
