data_PCOD9053992
_publ_section_title
;
Structure prediction by ZEFSAII (Michael W. Deem and Ramdas Pophale) SiO2 
 PCOD9053992
Probable space group: P -1
;
_chemical_formula_sum "Si O2"
_cell_formula_units_Z 16
_cell_length_a 9.396063
_cell_length_b 14.773538
_cell_length_c 12.401256
_cell_angle_alpha 130.993473
_cell_angle_beta 128.665043
_cell_angle_gamma 39.718556
_cell_volume 804.097766
_symmetry_space_group_name_H-M "P -1"
_symmetry_group_IT_number 2
_symmetry_cell_setting 'triclinic'
loop_
_space_group_symop_operation_xyz
x,y,z
-x,-y,-z
loop_
_atom_site_type_symbol
_atom_site_label
_atom_site_fract_x
_atom_site_fract_y
_atom_site_fract_z
Si Si1 0.250567 0.932147 0.105405
Si Si2 0.287463 0.188037 0.268745
Si Si3 0.164593 0.543138 0.834942
Si Si4 0.483118 0.414983 0.083749
Si Si5 0.732007 0.132078 0.491232
Si Si6 0.052164 0.340735 0.509548
Si Si7 0.732607 0.980768 0.584460
Si Si8 0.517255 0.528028 0.404523
O O1 0.319134 0.032909 0.168648
O O2 0.230124 0.959566 0.244254
O O3 0.417361 0.757001 0.021175
O O4 0.000000 0.000000 0.000000
O O5 0.536919 0.145940 0.337113
O O6 0.175586 0.273222 0.398807
O O7 0.093017 0.303548 0.182074
O O8 0.336027 0.559202 0.858673
O O9 0.158575 0.410230 0.679266
O O10 0.258837 0.512301 0.977416
O O11 0.469123 0.445301 0.228187
O O12 0.664193 0.296676 0.575455
O O13 0.696916 0.087058 0.555454
O O14 0.000000 0.000000 0.500000
O O15 0.081073 0.201385 0.476371
O O16 0.779614 0.469154 0.465355
O O17 0.500000 0.000000 0.500000
O O18 0.500000 0.500000 0.500000
#
# Coordination Sequence:
#
# PCOD9053992 Si02
#       8
#     2   2   2   2   2   2   2   2
#     4  11  21  36  63 101 143 169 214 284 344 399
#     4  11  21  39  68 103 135 178 225 283 339 401
#     4  11  21  36  65 103 135 162 218 293 338 390
#     4  11  24  37  65 105 135 171 218 280 353 402
#     4  12  26  44  69  99 135 180 239 282 339 401
#     4  11  20  39  68  99 131 174 229 280 333 398
#     4  11  22  38  67 103 135 175 227 286 336 397
#     4  12  26  46  68  93 137 185 230 276 341 418
#
# _framework density 19.89808
#
# number of rings (size 3 to 8) (size 9 to 14) (size 15 to 20)
#    0.000    0.750    6.250    3.375    3.500    0.000 
#    0.000    0.625    0.000    2.250    0.000    0.000 
#    0.000    0.000    0.000    0.000    0.000    0.000 
#
# Total GULP energy -89357.474989 kJ/mol
# GULP energy per Si atom -5584.842187 kJ/mol
# Density = 1.985279 g / cm^3
# Si number density = 19.898080 Si / 1000 Ang^3
#
#
#
# Elastic Constant Matrix: (Units=GPa)
#
#
# Indices 1 2 3 4 5 6 
#
# 1 56.5485 40.7587 41.1496 -1.3559 -2.3723 0.9819
# 2 40.7587 161.3435 57.5212 -8.4322 -1.0711 6.2750
# 3 41.1496 57.5212 143.2807 -12.5309 5.9122 8.2809
# 4 -1.3559 -8.4322 -12.5309 46.5605 5.9367 13.0881
# 5 -2.3723 -1.0711 5.9122 5.9367 21.5405 -11.0569
# 6 0.9819 6.2750 8.2809 13.0881 -11.0569 38.5204
#
#
#
# Elastic Compliance Matrix: (Units=1/GPa)
#
#
# Indices 1 2 3 4 5 6 
#
# 1 0.026012 -0.004576 -0.006699 -0.004513 0.008548 0.005509
# 2 -0.004576 0.008083 -0.001682 0.001423 -0.000835 -0.001562
# 3 -0.006699 -0.001682 0.010708 0.005103 -0.008222 -0.005951
# 4 -0.004513 0.001423 0.005103 0.030099 -0.018759 -0.016825
# 5 0.008548 -0.000835 -0.008222 -0.018759 0.069063 0.027883
# 6 0.005509 -0.001562 -0.005951 -0.016825 0.027883 0.041074
#
#
# Mechanical properties :
#
#
# Convention : Reuss Voigt Hill
#
# Bulk Modulus (GPa) = 52.94066 71.11462 62.02764
# Shear Modulus (GPa) = 23.01513 36.10717 29.56115
#
# Velocity S-wave (km/s) = 3.40465 4.26444 3.85857
# Velocity P-wave (km/s) = 6.48993 7.75012 7.14785
#
# Compressibility (1/GPa) = 0.01888907
#
# Stress axis : x y z
#
# Youngs Moduli (GPa) = 38.44392 123.71497 93.38919
#
# Poissons Ratio (x) = 0.56614 0.62563
# Poissons Ratio (y) = 0.17593 0.15704
# Poissons Ratio (z) = 0.25754 0.20804
#
# Static dielectric constant tensor:
#      x y z
#    x 1.754270 0.022060 0.021230 
#    y 0.022060 1.736870 0.007430 
#    z 0.021230 0.007430 1.707310 
# 
# From -- ./inp_files/399669.got.cif
#   From: 2010.05.17/outbox.cif.g08.bks.cpg/sg2_200_cif.got.tgz:399669.got - 2010.06.03 11:33:40.
