data_PCOD9053732
_publ_section_title
;
Structure prediction by ZEFSAII (Michael W. Deem and Ramdas Pophale) SiO2 
 PCOD9053732
Probable space group: P -1
;
_chemical_formula_sum "Si O2"
_cell_formula_units_Z 14
_cell_length_a 6.380499
_cell_length_b 14.133514
_cell_length_c 11.643076
_cell_angle_alpha 131.206549
_cell_angle_beta 131.531554
_cell_angle_gamma 79.907395
_cell_volume 523.696850
_symmetry_space_group_name_H-M "P -1"
_symmetry_group_IT_number 2
_symmetry_cell_setting 'triclinic'
loop_
_space_group_symop_operation_xyz
x,y,z
-x,-y,-z
loop_
_atom_site_type_symbol
_atom_site_label
_atom_site_fract_x
_atom_site_fract_y
_atom_site_fract_z
Si Si1 0.877374 0.551628 0.887077
Si Si2 0.982763 0.221877 0.581209
Si Si3 0.611236 0.333576 0.013687
Si Si4 0.602837 0.705048 0.596297
Si Si5 0.506901 0.975034 0.348823
Si Si6 0.974398 0.062601 0.218468
Si Si7 0.373900 0.254436 0.100501
O O1 0.518792 0.434960 0.637675
O O2 0.891298 0.706985 0.021899
O O3 0.000000 0.500000 0.000000
O O4 0.081691 0.558168 0.854813
O O5 0.306047 0.337807 0.848625
O O6 0.041890 0.163313 0.434839
O O7 0.690764 0.257653 0.494364
O O8 0.832647 0.087870 0.503759
O O9 0.548847 0.177895 0.828378
O O10 0.632713 0.330049 0.156160
O O11 0.937047 0.826372 0.766221
O O12 0.605249 0.684030 0.715853
O O13 0.500000 0.000000 0.500000
O O14 0.222941 0.005152 0.231300
O O15 0.684903 0.908155 0.026895
#
# Coordination Sequence:
#
# PCOD9053732 Si02
#       7
#     2   2   2   2   2   2   2
#     4  12  28  49  72 100 138 186 239 290 344 413
#     4  11  23  40  70 106 140 171 233 287 346 400
#     4  12  24  41  73 102 136 181 236 287 344 404
#     4  11  28  46  69 104 147 187 225 283 350 422
#     4  11  20  36  66 105 138 174 226 289 346 394
#     4  11  22  43  73 105 141 180 230 290 343 411
#     4  12  26  47  73 103 140 186 235 283 350 416
#
# _framework density 26.733021999999998
#
# number of rings (size 3 to 8) (size 9 to 14) (size 15 to 20)
#    0.000    0.571    4.286    3.857    2.000    5.714 
#    0.000    0.000    0.000    0.000    0.000    0.000 
#    0.000    0.000    0.000    0.000    0.000    0.000 
#
# Total GULP energy -78207.951547 kJ/mol
# GULP energy per Si atom -5586.282253 kJ/mol
# Density = 2.667218 g / cm^3
# Si number density = 26.733022 Si / 1000 Ang^3
#
#
#
# Elastic Constant Matrix: (Units=GPa)
#
#
# Indices 1 2 3 4 5 6 
#
# 1 109.3830 54.2587 10.9340 3.1041 -7.7871 33.2969
# 2 54.2587 147.7843 40.0618 8.4425 -11.0294 27.6315
# 3 10.9340 40.0618 84.2008 6.2190 -18.5835 27.2985
# 4 3.1041 8.4425 6.2190 36.6024 7.5567 -7.1491
# 5 -7.7871 -11.0294 -18.5835 7.5567 46.6002 -2.3178
# 6 33.2969 27.6315 27.2985 -7.1491 -2.3178 74.0897
#
#
#
# Elastic Compliance Matrix: (Units=1/GPa)
#
#
# Indices 1 2 3 4 5 6 
#
# 1 0.012765 -0.004131 0.002698 -0.002104 0.002308 -0.005321
# 2 -0.004131 0.009456 -0.003654 -0.001356 0.000288 -0.000446
# 3 0.002698 -0.003654 0.017275 -0.005025 0.006967 -0.006481
# 4 -0.002104 -0.001356 -0.005025 0.031398 -0.007465 0.006099
# 5 0.002308 0.000288 0.006967 -0.007465 0.025722 -0.003627
# 6 -0.005321 -0.000446 -0.006481 0.006099 -0.003627 0.018918
#
#
# Mechanical properties :
#
#
# Convention : Reuss Voigt Hill
#
# Bulk Modulus (GPa) = 34.10490 61.31968 47.71229
# Shear Modulus (GPa) = 36.90495 47.19936 42.05216
#
# Velocity S-wave (km/s) = 3.71954 4.20644 3.97046
# Velocity P-wave (km/s) = 5.58855 6.82494 6.23746
#
# Compressibility (1/GPa) = 0.02932130
#
# Stress axis : x y z
#
# Youngs Moduli (GPa) = 78.33717 105.75085 57.88701
#
# Poissons Ratio (x) = 0.43683 -0.15615
# Poissons Ratio (y) = 0.32359 0.21155
# Poissons Ratio (z) = -0.21132 0.38646
#
# Static dielectric constant tensor:
#      x y z
#    x 2.131780 -0.076090 0.067650 
#    y -0.076090 2.233400 -0.023610 
#    z 0.067650 -0.023610 2.162190 
# 
# From -- ./inp_files/77956.got.cif
#   From: 2010.05.17/outbox.cif.g08.bks.cpg/sg2_39_cif.got.tgz:77956.got - 2010.06.03 11:33:40.
