data_PCOD9053731
_publ_section_title
;
Structure prediction by ZEFSAII (Michael W. Deem and Ramdas Pophale) SiO2 
 PCOD9053731
Probable space group: P -1
;
_chemical_formula_sum "Si O2"
_cell_formula_units_Z 16
_cell_length_a 8.987395
_cell_length_b 13.980385
_cell_length_c 9.031324
_cell_angle_alpha 43.126453
_cell_angle_beta 115.636229
_cell_angle_gamma 113.929574
_cell_volume 691.900415
_symmetry_space_group_name_H-M "P -1"
_symmetry_group_IT_number 2
_symmetry_cell_setting 'triclinic'
loop_
_space_group_symop_operation_xyz
x,y,z
-x,-y,-z
loop_
_atom_site_type_symbol
_atom_site_label
_atom_site_fract_x
_atom_site_fract_y
_atom_site_fract_z
Si Si1 0.239326 0.338034 0.417579
Si Si2 0.594846 0.290804 0.649922
Si Si3 0.179905 0.596983 0.955204
Si Si4 0.148616 0.430497 0.565659
Si Si5 0.625836 0.127733 0.117805
Si Si6 0.829006 0.904145 0.575193
Si Si7 0.417522 0.640030 0.772507
Si Si8 0.679430 0.800955 0.920454
O O1 0.404848 0.295356 0.607549
O O2 0.294498 0.492586 0.197710
O O3 0.113706 0.346315 0.490551
O O4 0.178231 0.239054 0.363471
O O5 0.716360 0.435211 0.573889
O O6 0.590268 0.297889 0.463108
O O7 0.645566 0.162779 0.912075
O O8 0.239886 0.746807 0.890106
O O9 0.234044 0.612635 0.791792
O O10 0.000000 0.500000 0.000000
O O11 0.000000 0.500000 0.500000
O O12 0.233011 0.325991 0.828802
O O13 0.434611 0.131956 0.084042
O O14 0.682864 0.983776 0.357688
O O15 0.810504 0.886277 0.765299
O O16 0.000000 0.000000 0.500000
O O17 0.533407 0.749280 0.799458
O O18 0.500000 0.500000 0.000000
#
# Coordination Sequence:
#
# PCOD9053731 Si02
#       8
#     2   2   2   2   2   2   2   2
#     4  12  24  46  70 101 143 193 236 293 363 429
#     4  12  22  43  71 106 142 176 243 288 362 425
#     4  11  23  39  67 104 142 180 239 296 357 415
#     4  12  27  42  73 113 148 181 234 309 369 422
#     4  11  25  45  73 102 146 193 235 295 356 432
#     4  12  28  49  72 103 146 193 245 297 357 427
#     4  11  20  36  66 101 135 182 228 291 348 421
#     4  11  23  47  70 101 143 190 240 290 356 437
#
# _framework density 23.124715999999999
#
# number of rings (size 3 to 8) (size 9 to 14) (size 15 to 20)
#    0.000    0.500    6.250    2.250    3.500    0.500 
#    0.000    0.625    0.000    0.000    0.000    0.000 
#    0.000    0.000    0.000    0.000    0.000    0.000 
#
# Total GULP energy -89283.923650 kJ/mol
# GULP energy per Si atom -5580.245228 kJ/mol
# Density = 2.307208 g / cm^3
# Si number density = 23.124716 Si / 1000 Ang^3
#
#
#
# Elastic Constant Matrix: (Units=GPa)
#
#
# Indices 1 2 3 4 5 6 
#
# 1 147.4076 27.6018 50.3398 14.8915 -19.6093 -5.5045
# 2 27.6018 52.2469 17.7161 -1.4058 -9.3850 -14.1952
# 3 50.3398 17.7161 172.9208 18.9401 -19.5600 -31.4275
# 4 14.8915 -1.4058 18.9401 34.1307 -5.0211 -11.1245
# 5 -19.6093 -9.3850 -19.5600 -5.0211 44.0844 1.2265
# 6 -5.5045 -14.1952 -31.4275 -11.1245 1.2265 34.2003
#
#
#
# Elastic Compliance Matrix: (Units=1/GPa)
#
#
# Indices 1 2 3 4 5 6 
#
# 1 0.008904 -0.004839 -0.002199 -0.003905 0.001619 -0.003924
# 2 -0.004839 0.025935 0.000758 0.007619 0.004211 0.013009
# 3 -0.002199 0.000758 0.007970 -0.000815 0.002434 0.006932
# 4 -0.003905 0.007619 -0.000815 0.036691 0.003324 0.013600
# 5 0.001619 0.004211 0.002434 0.003324 0.025636 0.004407
# 6 -0.003924 0.013009 0.006932 0.013600 0.004407 0.044644
#
#
# Mechanical properties :
#
#
# Convention : Reuss Voigt Hill
#
# Bulk Modulus (GPa) = 33.05800 62.65451 47.85626
# Shear Modulus (GPa) = 28.99853 40.94425 34.97139
#
# Velocity S-wave (km/s) = 3.54504 4.21240 3.89304
# Velocity P-wave (km/s) = 5.57521 7.12826 6.39902
#
# Compressibility (1/GPa) = 0.03024986
#
# Stress axis : x y z
#
# Youngs Moduli (GPa) = 112.30661 38.55764 125.47324
#
# Poissons Ratio (x) = 0.18657 0.27587
# Poissons Ratio (y) = 0.54343 -0.09508
# Poissons Ratio (z) = 0.24692 -0.02922
#
# Static dielectric constant tensor:
#      x y z
#    x 1.989430 -0.055400 -0.004080 
#    y -0.055400 1.960980 0.067910 
#    z -0.004080 0.067910 1.939330 
# 
# From -- ./inp_files/205434.got.cif
#   From: 2010.05.17/outbox.cif.g08.bks.cpg/sg2_103_cif.got.tgz:205434.got - 2010.06.03 11:33:40.
