data_PCOD9053098
_publ_section_title
;
Structure prediction by ZEFSAII (Michael W. Deem and Ramdas Pophale) SiO2 
 PCOD9053098
Probable space group: P -1
;
_chemical_formula_sum "Si O2"
_cell_formula_units_Z 12
_cell_length_a 14.387101
_cell_length_b 9.270707
_cell_length_c 8.960251
_cell_angle_alpha 99.665312
_cell_angle_beta 69.928619
_cell_angle_gamma 39.573419
_cell_volume 494.287507
_symmetry_space_group_name_H-M "P -1"
_symmetry_group_IT_number 2
_symmetry_cell_setting 'triclinic'
loop_
_space_group_symop_operation_xyz
x,y,z
-x,-y,-z
loop_
_atom_site_type_symbol
_atom_site_label
_atom_site_fract_x
_atom_site_fract_y
_atom_site_fract_z
Si Si1 0.877224 0.786914 0.328365
Si Si2 0.797950 0.560252 0.414171
Si Si3 0.884236 0.981096 0.111227
Si Si4 0.723769 0.380018 0.029991
Si Si5 0.401175 0.138060 0.911066
Si Si6 0.113061 0.001836 0.383687
O O1 0.805172 0.721476 0.399443
O O2 0.809580 0.996099 0.526132
O O3 0.801101 0.950483 0.239633
O O4 0.146134 0.428487 0.109233
O O5 0.920677 0.323626 0.165329
O O6 0.944016 0.324015 0.436285
O O7 0.549625 0.855626 0.658932
O O8 0.019265 0.903079 0.140151
O O9 0.701108 0.315446 0.181628
O O10 0.598660 0.693286 0.114428
O O11 0.711742 0.287491 0.882507
O O12 0.500000 0.000000 0.000000
O O13 0.000000 0.000000 0.500000
#
# Coordination Sequence:
#
# PCOD9053098 Si02
#       6
#     2   2   2   2   2   2
#     4  11  22  38  63  89 118 151 199 241 289 347
#     4  11  23  37  62  90 117 153 196 241 295 342
#     4   9  19  37  61  83 119 157 191 236 294 348
#     4   9  19  35  59  87 114 156 198 233 287 353
#     4  11  21  37  61  87 120 152 195 244 290 342
#     4  11  18  36  61  84 115 159 193 234 288 346
#
# _framework density 24.277367000000002
#
# number of rings (size 3 to 8) (size 9 to 14) (size 15 to 20)
#    0.000    1.667    5.000    1.000    0.000    2.667 
#    0.000    1.667    7.333    0.000    0.000    0.000 
#    0.000    0.000    0.000    0.000    0.000    0.000 
#
# Total GULP energy -67053.814403 kJ/mol
# GULP energy per Si atom -5587.817867 kJ/mol
# Density = 2.422211 g / cm^3
# Si number density = 24.277367 Si / 1000 Ang^3
#
#
#
# Elastic Constant Matrix: (Units=GPa)
#
#
# Indices 1 2 3 4 5 6 
#
# 1 70.4785 27.0248 32.7915 -8.4532 2.7819 10.1975
# 2 27.0248 181.6160 23.9655 -37.3427 -4.4988 16.3136
# 3 32.7915 23.9655 111.0018 -1.2183 13.3044 -12.0853
# 4 -8.4532 -37.3427 -1.2183 35.5033 0.5161 -1.4202
# 5 2.7819 -4.4988 13.3044 0.5161 36.5129 0.8745
# 6 10.1975 16.3136 -12.0853 -1.4202 0.8745 28.8928
#
#
#
# Elastic Compliance Matrix: (Units=1/GPa)
#
#
# Indices 1 2 3 4 5 6 
#
# 1 0.019149 -0.000391 -0.006665 0.003536 0.001091 -0.009185
# 2 -0.000391 0.008014 -0.002295 0.008030 0.001860 -0.005009
# 3 -0.006665 -0.002295 0.012987 -0.003124 -0.004680 0.009068
# 4 0.003536 0.008030 -0.003124 0.037114 0.001461 -0.005309
# 5 0.001091 0.001860 -0.004680 0.001461 0.029319 -0.004209
# 6 -0.009185 -0.005009 0.009068 -0.005309 -0.004209 0.044340
#
#
# Mechanical properties :
#
#
# Convention : Reuss Voigt Hill
#
# Bulk Modulus (GPa) = 46.61998 58.96224 52.79111
# Shear Modulus (GPa) = 28.28461 38.80276 33.54369
#
# Velocity S-wave (km/s) = 3.41700 4.00222 3.72114
# Velocity P-wave (km/s) = 5.90022 6.75993 6.34466
#
# Compressibility (1/GPa) = 0.02145003
#
# Stress axis : x y z
#
# Youngs Moduli (GPa) = 52.22072 124.77858 76.99915
#
# Poissons Ratio (x) = 0.04877 0.51317
# Poissons Ratio (y) = 0.02041 0.17671
# Poissons Ratio (z) = 0.34803 0.28636
#
# Static dielectric constant tensor:
#      x y z
#    x 1.906090 0.006110 -0.001860 
#    y 0.006110 1.941310 -0.013740 
#    z -0.001860 -0.013740 2.034230 
# 
# From -- ./inp_files/148202.got.cif
#   From: 2010.05.17/outbox.cif.g08.bks.cpg/sg2_75_cif.got.tgz:148202.got - 2010.06.03 11:33:40.
