data_PCOD9053069
_publ_section_title
;
Structure prediction by ZEFSAII (Michael W. Deem and Ramdas Pophale) SiO2 
 PCOD9053069
Probable space group: P -1
;
_chemical_formula_sum "Si O2"
_cell_formula_units_Z 16
_cell_length_a 12.831685
_cell_length_b 15.391682
_cell_length_c 9.275609
_cell_angle_alpha 76.305970
_cell_angle_beta 61.649100
_cell_angle_gamma 129.188734
_cell_volume 770.974579
_symmetry_space_group_name_H-M "P -1"
_symmetry_group_IT_number 2
_symmetry_cell_setting 'triclinic'
loop_
_space_group_symop_operation_xyz
x,y,z
-x,-y,-z
loop_
_atom_site_type_symbol
_atom_site_label
_atom_site_fract_x
_atom_site_fract_y
_atom_site_fract_z
Si Si1 0.796873 0.826536 0.599793
Si Si2 0.438156 0.973195 0.255678
Si Si3 0.398961 0.602956 0.173973
Si Si4 0.046079 0.802880 0.411205
Si Si5 0.266721 0.710632 0.277510
Si Si6 0.834935 0.131204 0.025424
Si Si7 0.775778 0.896578 0.272850
Si Si8 0.399464 0.530499 0.509521
O O1 0.793951 0.877906 0.432695
O O2 0.873371 0.774444 0.547423
O O3 0.551173 0.676909 0.906539
O O4 0.000000 0.000000 0.500000
O O5 0.221161 0.900949 0.394662
O O6 0.314914 0.797513 0.358010
O O7 0.635306 0.151394 0.952757
O O8 0.622247 0.062477 0.223911
O O9 0.420838 0.721255 0.154111
O O10 0.470272 0.594281 0.271967
O O11 0.124461 0.395452 0.407416
O O12 0.170285 0.892754 0.136035
O O13 0.000000 0.500000 0.500000
O O14 0.109924 0.343182 0.787312
O O15 0.789758 0.010861 0.189362
O O16 0.532823 0.693569 0.449577
O O17 0.000000 0.000000 0.000000
O O18 0.500000 0.500000 0.500000
#
# Coordination Sequence:
#
# PCOD9053069 Si02
#       8
#     2   2   2   2   2   2   2   2
#     4  12  26  40  63  96 131 171 210 265 333 386
#     4  11  21  35  62  97 128 160 218 272 308 369
#     4  11  23  39  63  99 129 165 214 267 325 380
#     4  11  20  40  61  96 131 165 212 270 315 381
#     4  11  18  34  61  92 130 163 210 262 315 365
#     4  11  21  38  63  94 124 160 219 262 315 370
#     4  12  22  41  65  89 129 169 212 264 319 385
#     4  11  22  37  63  91 128 162 211 262 319 377
#
# _framework density 20.752953999999999
#
# number of rings (size 3 to 8) (size 9 to 14) (size 15 to 20)
#    0.000    0.750    6.250    4.125    0.000    0.000 
#    0.000    0.000    0.000    3.750    0.000    0.000 
#    0.000    0.000    0.000    0.000    0.000    0.000 
#
# Total GULP energy -89210.167353 kJ/mol
# GULP energy per Si atom -5575.635460 kJ/mol
# Density = 2.070572 g / cm^3
# Si number density = 20.752954 Si / 1000 Ang^3
#
#
#
# Elastic Constant Matrix: (Units=GPa)
#
#
# Indices 1 2 3 4 5 6 
#
# 1 157.2952 25.3507 55.2224 6.6429 16.1300 6.2224
# 2 25.3507 64.7060 44.6397 -21.2491 11.6276 9.5435
# 3 55.2224 44.6397 97.7956 -8.8857 13.7189 11.9558
# 4 6.6429 -21.2491 -8.8857 40.8256 3.4044 -1.8431
# 5 16.1300 11.6276 13.7189 3.4044 26.9389 -8.7802
# 6 6.2224 9.5435 11.9558 -1.8431 -8.7802 37.9862
#
#
#
# Elastic Compliance Matrix: (Units=1/GPa)
#
#
# Indices 1 2 3 4 5 6 
#
# 1 0.008313 -0.000617 -0.004222 -0.002414 -0.002438 -0.000559
# 2 -0.000617 0.030118 -0.009686 0.014346 -0.011597 -0.006401
# 3 -0.004222 -0.009686 0.017890 -0.000324 -0.003442 -0.003317
# 4 -0.002414 0.014346 -0.000324 0.032944 -0.009989 -0.003817
# 5 -0.002438 -0.011597 -0.003442 -0.009989 0.051777 0.015880
# 6 -0.000559 -0.006401 -0.003317 -0.003817 0.015880 0.032554
#
#
# Mechanical properties :
#
#
# Convention : Reuss Voigt Hill
#
# Bulk Modulus (GPa) = 36.66893 63.35804 50.01348
# Shear Modulus (GPa) = 23.61422 34.12240 28.86831
#
# Velocity S-wave (km/s) = 3.37690 4.05930 3.73372
# Velocity P-wave (km/s) = 5.73691 7.25027 6.53753
#
# Compressibility (1/GPa) = 0.02727105
#
# Stress axis : x y z
#
# Youngs Moduli (GPa) = 120.29195 33.20276 55.89836
#
# Poissons Ratio (x) = 0.02048 0.23598
# Poissons Ratio (y) = 0.07419 0.54146
# Poissons Ratio (z) = 0.50783 0.32162
#
# Static dielectric constant tensor:
#      x y z
#    x 2.427710 -0.299410 -0.536240 
#    y -0.299410 1.935720 0.233840 
#    z -0.536240 0.233840 2.120380 
# 
# From -- ./inp_files/272490.got.cif
#   From: 2010.05.17/outbox.cif.g08.bks.cpg/sg2_137_cif.got.tgz:272490.got - 2010.06.03 11:33:40.
