data_PCOD9053873
_publ_section_title
;
Structure prediction by ZEFSAII (Michael W. Deem and Ramdas Pophale) SiO2 
 PCOD9053873
Probable space group: P -1
;
_chemical_formula_sum "Si O2"
_cell_formula_units_Z 16
_cell_length_a 14.337946
_cell_length_b 13.921574
_cell_length_c 8.630691
_cell_angle_alpha 115.192948
_cell_angle_beta 71.342703
_cell_angle_gamma 150.517714
_cell_volume 762.231511
_symmetry_space_group_name_H-M "P -1"
_symmetry_group_IT_number 2
_symmetry_cell_setting 'triclinic'
loop_
_space_group_symop_operation_xyz
x,y,z
-x,-y,-z
loop_
_atom_site_type_symbol
_atom_site_label
_atom_site_fract_x
_atom_site_fract_y
_atom_site_fract_z
Si Si1 0.081455 0.715436 0.506859
Si Si2 0.575567 0.648485 0.932071
Si Si3 0.036809 0.652116 0.144682
Si Si4 0.301723 0.708058 0.465540
Si Si5 0.480859 0.084526 0.177714
Si Si6 0.386962 0.469294 0.416008
Si Si7 0.609140 0.831604 0.307574
Si Si8 0.714074 0.498404 0.224151
O O1 0.985875 0.599691 0.315756
O O2 0.233970 0.762382 0.489365
O O3 0.900336 0.541721 0.596358
O O4 0.198233 0.931298 0.583327
O O5 0.698410 0.692791 0.774876
O O6 0.393929 0.522098 0.845837
O O7 0.500000 0.500000 0.000000
O O8 0.653491 0.815552 0.110082
O O9 0.899208 0.616470 0.130743
O O10 0.255354 0.886981 0.182527
O O11 0.000000 0.500000 0.000000
O O12 0.411773 0.823604 0.650925
O O13 0.446819 0.772293 0.331125
O O14 0.568955 0.267897 0.174266
O O15 0.500000 0.000000 0.000000
O O16 0.500000 0.500000 0.500000
O O17 0.521508 0.672603 0.379566
O O18 0.256374 0.418623 0.565827
#
# Coordination Sequence:
#
# PCOD9053873 Si02
#       8
#     2   2   2   2   2   2   2   2
#     4  11  23  37  58  90 132 163 214 244 313 381
#     4   9  22  39  68  96 118 164 213 269 320 370
#     4  12  23  37  59  93 131 166 208 249 304 385
#     4  11  23  38  58  90 127 176 199 259 303 382
#     4  12  23  38  60  92 131 168 214 248 308 379
#     4   9  18  39  66  89 120 162 210 263 322 365
#     4  11  20  38  64  90 124 162 206 256 325 369
#     4  11  21  40  66  91 127 172 199 262 318 366
#
# _framework density 20.990998000000001
#
# number of rings (size 3 to 8) (size 9 to 14) (size 15 to 20)
#    0.000    1.250    5.000    0.375    3.500    0.000 
#    0.000    0.000    0.000   60.000    0.000    0.000 
#    0.000    0.000    0.000    0.000    0.000    0.000 
#
# Total GULP energy -89215.144521 kJ/mol
# GULP energy per Si atom -5575.946533 kJ/mol
# Density = 2.094322 g / cm^3
# Si number density = 20.990998 Si / 1000 Ang^3
#
#
#
# Elastic Constant Matrix: (Units=GPa)
#
#
# Indices 1 2 3 4 5 6 
#
# 1 93.2410 20.6249 28.4675 4.1705 -4.1057 3.5700
# 2 20.6249 71.8726 12.0452 10.2412 -12.3511 10.6681
# 3 28.4675 12.0452 137.1885 7.0879 -32.1917 -1.9430
# 4 4.1705 10.2412 7.0879 19.5789 -0.5878 1.8140
# 5 -4.1057 -12.3511 -32.1917 -0.5878 36.1898 -10.3556
# 6 3.5700 10.6681 -1.9430 1.8140 -10.3556 14.3921
#
#
#
# Elastic Compliance Matrix: (Units=1/GPa)
#
#
# Indices 1 2 3 4 5 6 
#
# 1 0.012366 -0.003119 -0.003216 0.000409 -0.003615 -0.003843
# 2 -0.003119 0.017789 0.000051 -0.007709 0.002979 -0.009290
# 3 -0.003216 0.000051 0.011485 -0.004253 0.013366 0.012464
# 4 0.000409 -0.007709 -0.004253 0.057039 -0.007627 -0.007638
# 5 -0.003615 0.002979 0.013366 -0.007627 0.050900 0.038079
# 6 -0.003843 -0.009290 0.012464 -0.007638 0.038079 0.107366
#
#
# Mechanical properties :
#
#
# Convention : Reuss Voigt Hill
#
# Bulk Modulus (GPa) = 34.39671 47.17526 40.78599
# Shear Modulus (GPa) = 17.90800 30.10980 24.00890
#
# Velocity S-wave (km/s) = 2.92400 3.79148 3.38564
# Velocity P-wave (km/s) = 5.27463 6.45677 5.89540
#
# Compressibility (1/GPa) = 0.02907255
#
# Stress axis : x y z
#
# Youngs Moduli (GPa) = 80.86456 56.21314 87.07242
#
# Poissons Ratio (x) = 0.17532 0.28004
# Poissons Ratio (y) = 0.25221 -0.00445
# Poissons Ratio (z) = 0.26007 -0.00287
#
# Static dielectric constant tensor:
#      x y z
#    x 1.817050 0.057370 -0.055760 
#    y 0.057370 1.942500 -0.116710 
#    z -0.055760 -0.116710 1.851370 
# 
# From -- ./inp_files/314812.got.cif
#   From: 2010.05.17/outbox.cif.g08.bks.cpg/sg2_158_cif.got.tgz:314812.got - 2010.06.03 11:33:40.
