data_PCOD9053946
_publ_section_title
;
Structure prediction by ZEFSAII (Michael W. Deem and Ramdas Pophale) SiO2 
 PCOD9053946
Probable space group: P -1
;
_chemical_formula_sum "Si O2"
_cell_formula_units_Z 14
_cell_length_a 10.060782
_cell_length_b 17.348988
_cell_length_c 10.717472
_cell_angle_alpha 148.214578
_cell_angle_beta 100.896161
_cell_angle_gamma 56.257800
_cell_volume 625.185405
_symmetry_space_group_name_H-M "P -1"
_symmetry_group_IT_number 2
_symmetry_cell_setting 'triclinic'
loop_
_space_group_symop_operation_xyz
x,y,z
-x,-y,-z
loop_
_atom_site_type_symbol
_atom_site_label
_atom_site_fract_x
_atom_site_fract_y
_atom_site_fract_z
Si Si1 0.625919 0.037635 0.764922
Si Si2 0.826780 0.004238 0.305745
Si Si3 0.495972 0.907150 0.745582
Si Si4 0.260703 0.590786 0.839366
Si Si5 0.482899 0.701598 0.123483
Si Si6 0.683584 0.464685 0.506545
Si Si7 0.905758 0.234716 0.486470
O O1 0.586696 0.101378 0.699726
O O2 0.600432 0.903513 0.641922
O O3 0.440086 0.286521 0.137340
O O4 0.856287 0.909681 0.659092
O O5 0.740794 0.939688 0.121982
O O6 0.633655 0.202407 0.634595
O O7 0.877861 0.100914 0.361927
O O8 0.030812 0.800617 0.145095
O O9 0.614319 0.656413 0.443091
O O10 0.500000 0.000000 0.000000
O O11 0.208706 0.614759 0.716790
O O12 0.395926 0.625421 0.934916
O O13 0.733298 0.479769 0.861816
O O14 0.500000 0.500000 0.500000
O O15 0.833289 0.294838 0.412106
#
# Coordination Sequence:
#
# PCOD9053946 Si02
#       7
#     2   2   2   2   2   2   2
#     4  11  25  43  67 101 139 174 223 287 332 402
#     4  12  26  44  74  98 136 185 226 277 339 396
#     4  12  28  46  65 102 146 176 221 278 345 409
#     4  12  24  42  72 101 135 176 225 286 330 401
#     4  11  24  46  72 103 132 174 242 277 322 408
#     4  11  20  39  64 103 134 165 230 281 331 393
#     4  11  23  40  74 100 129 181 225 281 336 389
#
# _framework density 22.393355
#
# number of rings (size 3 to 8) (size 9 to 14) (size 15 to 20)
#    0.000    0.571    7.143    0.857    2.000    4.571 
#    0.000    1.429    0.000    0.000    0.000    0.000 
#    0.000    0.000    0.000    0.000    0.000    0.000 
#
# Total GULP energy -78308.921007 kJ/mol
# GULP energy per Si atom -5593.494358 kJ/mol
# Density = 2.234239 g / cm^3
# Si number density = 22.393355 Si / 1000 Ang^3
#
#
#
# Elastic Constant Matrix: (Units=GPa)
#
#
# Indices 1 2 3 4 5 6 
#
# 1 129.9448 39.8517 12.4358 12.2058 -0.7136 9.9807
# 2 39.8517 75.6288 35.4463 19.2971 -1.3359 8.0722
# 3 12.4358 35.4463 63.6618 10.1190 -9.2296 4.9129
# 4 12.2058 19.2971 10.1190 29.4122 -1.7791 -1.4417
# 5 -0.7136 -1.3359 -9.2296 -1.7791 25.6338 8.7144
# 6 9.9807 8.0722 4.9129 -1.4417 8.7144 36.7174
#
#
#
# Elastic Compliance Matrix: (Units=1/GPa)
#
#
# Indices 1 2 3 4 5 6 
#
# 1 0.009387 -0.005164 0.001521 -0.001058 0.001122 -0.001928
# 2 -0.005164 0.023763 -0.010882 -0.009976 -0.002805 -0.002090
# 3 0.001521 -0.010882 0.023179 -0.001091 0.008856 -0.003267
# 4 -0.001058 -0.009976 -0.001091 0.041594 0.000540 0.004132
# 5 0.001122 -0.002805 0.008856 0.000540 0.046134 -0.011801
# 6 -0.001928 -0.002090 -0.003267 0.004132 -0.011801 0.031619
#
#
# Mechanical properties :
#
#
# Convention : Reuss Voigt Hill
#
# Bulk Modulus (GPa) = 36.65736 49.41145 43.03440
# Shear Modulus (GPa) = 23.38427 30.45281 26.91854
#
# Velocity S-wave (km/s) = 3.23499 3.69169 3.47086
# Velocity P-wave (km/s) = 5.50989 6.34701 5.94321
#
# Compressibility (1/GPa) = 0.02727965
#
# Stress axis : x y z
#
# Youngs Moduli (GPa) = 106.52723 42.08269 43.14199
#
# Poissons Ratio (x) = 0.21732 -0.06562
# Poissons Ratio (y) = 0.55011 0.46946
# Poissons Ratio (z) = -0.16203 0.45794
#
# Static dielectric constant tensor:
#      x y z
#    x 1.814120 0.018100 -0.008810 
#    y 0.018100 1.862600 -0.025450 
#    z -0.008810 -0.025450 1.876380 
# 
# From -- ./inp_files/403005.got.cif
#   From: 2010.05.17/outbox.cif.g08.bks.cpg/sg2_202_cif.got.tgz:403005.got - 2010.06.03 11:33:40.
