data_PCOD9053305
_publ_section_title
;
Structure prediction by ZEFSAII (Michael W. Deem and Ramdas Pophale) SiO2 
 PCOD9053305
Probable space group: P -1
;
_chemical_formula_sum "Si O2"
_cell_formula_units_Z 16
_cell_length_a 7.767875
_cell_length_b 15.852381
_cell_length_c 9.798404
_cell_angle_alpha 40.070858
_cell_angle_beta 102.506199
_cell_angle_gamma 110.049802
_cell_volume 727.540789
_symmetry_space_group_name_H-M "P -1"
_symmetry_group_IT_number 2
_symmetry_cell_setting 'triclinic'
loop_
_space_group_symop_operation_xyz
x,y,z
-x,-y,-z
loop_
_atom_site_type_symbol
_atom_site_label
_atom_site_fract_x
_atom_site_fract_y
_atom_site_fract_z
Si Si1 0.964991 0.725274 0.896821
Si Si2 0.274294 0.598467 0.054624
Si Si3 0.897044 0.729588 0.563920
Si Si4 0.918907 0.851133 0.003405
Si Si5 0.435799 0.349834 0.738092
Si Si6 0.476668 0.219244 0.636481
Si Si7 0.656791 0.448817 0.165973
Si Si8 0.210915 0.902511 0.219887
O O1 0.937937 0.761576 0.690657
O O2 0.948701 0.834370 0.870106
O O3 0.811699 0.581620 0.073709
O O4 0.153591 0.686084 0.991912
O O5 0.185779 0.434968 0.260936
O O6 0.469435 0.643397 0.107001
O O7 0.273204 0.621784 0.863015
O O8 0.739579 0.800898 0.403771
O O9 0.077008 0.783460 0.435910
O O10 0.809231 0.960937 0.881855
O O11 0.782638 0.709195 0.210827
O O12 0.106702 0.889681 0.072783
O O13 0.500000 0.500000 0.500000
O O14 0.502423 0.257538 0.752544
O O15 0.574921 0.349576 0.397705
O O16 0.585184 0.111142 0.746965
O O17 0.500000 0.500000 0.000000
#
# Coordination Sequence:
#
# PCOD9053305 Si02
#       8
#     2   2   2   2   2   2   2   2
#     4  11  22  38  64  93 127 166 205 259 324 367
#     4  11  21  37  63  98 127 163 202 255 326 384
#     4  11  22  42  64  95 129 160 208 259 309 382
#     4  11  25  45  62  89 129 167 212 269 300 371
#     4  12  22  39  65  96 128 155 207 262 319 373
#     4  12  22  39  67  93 123 173 203 260 317 367
#     4  11  19  36  62  93 131 160 197 258 322 375
#     4  11  25  46  64  88 125 171 222 252 310 373
#
# _framework density 21.991896000000001
#
# number of rings (size 3 to 8) (size 9 to 14) (size 15 to 20)
#    0.000    0.750    5.000    5.250    0.000    1.000 
#    2.250    4.375    0.000    0.000    0.000    0.000 
#    0.000    0.000    0.000    0.000    0.000    0.000 
#
# Total GULP energy -89493.524765 kJ/mol
# GULP energy per Si atom -5593.345298 kJ/mol
# Density = 2.194184 g / cm^3
# Si number density = 21.991896 Si / 1000 Ang^3
#
#
#
# Elastic Constant Matrix: (Units=GPa)
#
#
# Indices 1 2 3 4 5 6 
#
# 1 106.4096 26.1776 3.2053 1.3259 18.1514 -16.4892
# 2 26.1776 115.3275 20.5832 32.7905 13.1086 -20.6895
# 3 3.2053 20.5832 64.1842 14.3439 -6.1258 0.9702
# 4 1.3259 32.7905 14.3439 25.7477 -1.1122 -4.5440
# 5 18.1514 13.1086 -6.1258 -1.1122 32.2851 0.1611
# 6 -16.4892 -20.6895 0.9702 -4.5440 0.1611 30.0770
#
#
#
# Elastic Compliance Matrix: (Units=1/GPa)
#
#
# Indices 1 2 3 4 5 6 
#
# 1 0.011743 -0.001427 -0.001438 0.002796 -0.006229 0.005959
# 2 -0.001427 0.017219 -0.001869 -0.019683 -0.007263 0.008188
# 3 -0.001438 -0.001869 0.018658 -0.008433 0.004837 -0.003976
# 4 0.002796 -0.019683 -0.008433 0.068519 0.007187 -0.001422
# 5 -0.006229 -0.007263 0.004837 0.007187 0.038629 -0.007688
# 6 0.005959 0.008188 -0.003976 -0.001422 -0.007688 0.042102
#
#
# Mechanical properties :
#
#
# Convention : Reuss Voigt Hill
#
# Bulk Modulus (GPa) = 26.21104 42.87263 34.54184
# Shear Modulus (GPa) = 22.82526 33.35230 28.08878
#
# Velocity S-wave (km/s) = 3.22513 3.89854 3.57772
# Velocity P-wave (km/s) = 5.08065 6.30888 5.72778
#
# Compressibility (1/GPa) = 0.03815186
#
# Stress axis : x y z
#
# Youngs Moduli (GPa) = 85.15653 58.07429 53.59742
#
# Poissons Ratio (x) = 0.08286 0.07709
# Poissons Ratio (y) = 0.12150 0.10017
# Poissons Ratio (z) = 0.12249 0.10853
#
# Static dielectric constant tensor:
#      x y z
#    x 1.859780 -0.021020 -0.019140 
#    y -0.021020 1.802740 -0.019180 
#    z -0.019140 -0.019180 1.821260 
# 
# From -- ./inp_files/199619.got.cif
#   From: 2010.05.17/outbox.cif.g08.bks.cpg/sg2_100_cif.got.tgz:199619.got - 2010.06.03 11:33:40.
