data_PCOD9053111
_publ_section_title
;
Structure prediction by ZEFSAII (Michael W. Deem and Ramdas Pophale) SiO2 
 PCOD9053111
Probable space group: P -1
;
_chemical_formula_sum "Si O2"
_cell_formula_units_Z 14
_cell_length_a 13.695681
_cell_length_b 10.413437
_cell_length_c 19.107169
_cell_angle_alpha 158.613559
_cell_angle_beta 35.273074
_cell_angle_gamma 134.668584
_cell_volume 552.273117
_symmetry_space_group_name_H-M "P -1"
_symmetry_group_IT_number 2
_symmetry_cell_setting 'triclinic'
loop_
_space_group_symop_operation_xyz
x,y,z
-x,-y,-z
loop_
_atom_site_type_symbol
_atom_site_label
_atom_site_fract_x
_atom_site_fract_y
_atom_site_fract_z
Si Si1 0.188159 0.747700 0.992113
Si Si2 0.079077 0.123535 0.378867
Si Si3 0.905202 0.754096 0.976130
Si Si4 0.774341 0.835884 0.432998
Si Si5 0.416786 0.268644 0.119021
Si Si6 0.182070 0.834949 0.630231
Si Si7 0.313078 0.784565 0.190472
O O1 0.271704 0.064308 0.076346
O O2 0.278143 0.382269 0.711380
O O3 0.187184 0.779595 0.093185
O O4 0.980374 0.870978 0.160141
O O5 0.111664 0.482137 0.509054
O O6 0.878205 0.124195 0.494233
O O7 0.157865 0.073141 0.384528
O O8 0.778194 0.540113 0.906017
O O9 0.066884 0.466622 0.774685
O O10 0.786407 0.002931 0.231879
O O11 0.000000 0.000000 0.000000
O O12 0.644631 0.033373 0.670409
O O13 0.343592 0.661899 0.397766
O O14 0.533687 0.294496 0.996673
O O15 0.500000 0.000000 0.000000
#
# Coordination Sequence:
#
# PCOD9053111 Si02
#       7
#     2   2   2   2   2   2   2
#     4  10  21  37  60  88 116 155 196 242 290 344
#     4  10  17  35  59  85 114 149 199 240 284 345
#     4  10  20  35  59  87 119 153 198 243 291 345
#     4  10  21  34  58  88 115 151 198 245 285 348
#     4  11  21  37  61  84 122 155 192 242 293 348
#     4  10  20  36  61  87 115 155 197 245 286 340
#     4  11  21  35  59  89 119 155 196 239 294 349
#
# _framework density 25.349777
#
# number of rings (size 3 to 8) (size 9 to 14) (size 15 to 20)
#    0.000    1.714    2.857    5.571    0.000    1.143 
#    0.000    0.000    3.143    6.857    0.000    0.000 
#    0.000    0.000    0.000    0.000    0.000    0.000 
#
# Total GULP energy -78265.756221 kJ/mol
# GULP energy per Si atom -5590.411159 kJ/mol
# Density = 2.529208 g / cm^3
# Si number density = 25.349777 Si / 1000 Ang^3
#
#
#
# Elastic Constant Matrix: (Units=GPa)
#
#
# Indices 1 2 3 4 5 6 
#
# 1 71.8592 5.4053 48.8037 2.9355 31.3360 -10.3311
# 2 5.4053 105.3187 48.2817 -1.3790 15.3477 -18.8089
# 3 48.8037 48.2817 153.3116 -20.4643 58.2332 -8.6967
# 4 2.9355 -1.3790 -20.4643 48.1994 -10.3835 3.2985
# 5 31.3360 15.3477 58.2332 -10.3835 60.2814 -2.4183
# 6 -10.3311 -18.8089 -8.6967 3.2985 -2.4183 24.7538
#
#
#
# Elastic Compliance Matrix: (Units=1/GPa)
#
#
# Indices 1 2 3 4 5 6 
#
# 1 0.022915 0.004585 -0.005906 -0.006251 -0.008009 0.011023
# 2 0.004585 0.013667 -0.005206 -0.003036 -0.000924 0.010784
# 3 -0.005906 -0.005206 0.013501 0.004427 -0.008007 -0.003049
# 4 -0.006251 -0.003036 0.004427 0.024133 0.003654 -0.006219
# 5 -0.008009 -0.000924 -0.008007 0.003654 0.029171 -0.004495
# 6 0.011023 0.010784 -0.003049 -0.006219 -0.004495 0.052511
#
#
# Mechanical properties :
#
#
# Convention : Reuss Voigt Hill
#
# Bulk Modulus (GPa) = 27.00512 59.49677 43.25095
# Shear Modulus (GPa) = 27.57937 41.84685 34.71311
#
# Velocity S-wave (km/s) = 3.30199 4.06738 3.70451
# Velocity P-wave (km/s) = 5.02132 6.75125 5.94950
#
# Compressibility (1/GPa) = 0.03703002
#
# Stress axis : x y z
#
# Youngs Moduli (GPa) = 43.64030 73.16821 74.06606
#
# Poissons Ratio (x) = -0.33548 0.43740
# Poissons Ratio (y) = -0.20010 0.38560
# Poissons Ratio (z) = 0.25772 0.38093
#
# Static dielectric constant tensor:
#      x y z
#    x 2.032410 -0.002050 -0.012240 
#    y -0.002050 2.015670 -0.010840 
#    z -0.012240 -0.010840 2.078900 
# 
# From -- ./inp_files/464164.got.cif
#   From: 2010.05.17/outbox.cif.g08.bks.cpg/sg2_233_cif.got.tgz:464164.got - 2010.06.03 11:33:40.
