data_PCOD9053009
_publ_section_title
;
Structure prediction by ZEFSAII (Michael W. Deem and Ramdas Pophale) SiO2 
 PCOD9053009
Probable space group: P -1
;
_chemical_formula_sum "Si O2"
_cell_formula_units_Z 14
_cell_length_a 10.728971
_cell_length_b 8.788593
_cell_length_c 11.789364
_cell_angle_alpha 63.777445
_cell_angle_beta 93.106118
_cell_angle_gamma 45.594943
_cell_volume 586.863821
_symmetry_space_group_name_H-M "P -1"
_symmetry_group_IT_number 2
_symmetry_cell_setting 'triclinic'
loop_
_space_group_symop_operation_xyz
x,y,z
-x,-y,-z
loop_
_atom_site_type_symbol
_atom_site_label
_atom_site_fract_x
_atom_site_fract_y
_atom_site_fract_z
Si Si1 0.525509 0.248552 0.687219
Si Si2 0.033519 0.326913 0.157883
Si Si3 0.066630 0.813126 0.458420
Si Si4 0.993795 0.490118 0.345166
Si Si5 0.570440 0.721594 0.072232
Si Si6 0.429292 0.034421 0.611868
Si Si7 0.682648 0.122285 0.189985
O O1 0.315085 0.566624 0.517937
O O2 0.518162 0.063037 0.700576
O O3 0.772195 0.012711 0.748977
O O4 0.483360 0.300922 0.801597
O O5 0.076990 0.382967 0.256947
O O6 0.000000 0.500000 0.000000
O O7 0.812767 0.478115 0.125309
O O8 0.066329 0.630020 0.579244
O O9 0.877920 0.015844 0.288053
O O10 0.000000 0.000000 0.500000
O O11 0.180832 0.342630 0.483945
O O12 0.808159 0.825776 0.235674
O O13 0.478496 0.685935 0.986838
O O14 0.500000 0.000000 0.000000
O O15 0.442323 0.827309 0.726232
O O16 0.500000 0.000000 0.500000
#
# Coordination Sequence:
#
# PCOD9053009 Si02
#       7
#     2   2   2   2   2   2   2
#     4  12  21  37  59  86 126 158 194 252 298 358
#     4  12  21  31  59  98 124 154 191 246 319 363
#     4  11  23  41  62  84 118 168 209 245 299 356
#     4  11  19  34  60  88 120 150 196 254 301 347
#     4  12  20  35  58  90 128 153 192 247 307 363
#     4  11  18  28  54  88 118 146 186 247 309 344
#     4  11  20  38  61  88 120 155 194 258 306 354
#
# _framework density 23.855618
#
# number of rings (size 3 to 8) (size 9 to 14) (size 15 to 20)
#    0.000    0.571   10.000    0.857    0.000    0.000 
#    0.000    1.429    0.000    0.857    0.000    0.000 
#    0.000    0.000    0.000    0.000    0.000    0.000 
#
# Total GULP energy -78034.612711 kJ/mol
# GULP energy per Si atom -5573.900908 kJ/mol
# Density = 2.380132 g / cm^3
# Si number density = 23.855618 Si / 1000 Ang^3
#
#
#
# Elastic Constant Matrix: (Units=GPa)
#
#
# Indices 1 2 3 4 5 6 
#
# 1 53.2664 60.4134 31.6997 3.7703 14.6742 -5.3655
# 2 60.4134 140.2026 40.4269 10.0408 22.1269 -28.1923
# 3 31.6997 40.4269 136.0157 34.6924 30.1303 -7.9053
# 4 3.7703 10.0408 34.6924 48.4365 -8.1472 7.4176
# 5 14.6742 22.1269 30.1303 -8.1472 45.6165 3.3857
# 6 -5.3655 -28.1923 -7.9053 7.4176 3.3857 40.3600
#
#
#
# Elastic Compliance Matrix: (Units=1/GPa)
#
#
# Indices 1 2 3 4 5 6 
#
# 1 0.043206 -0.019809 -0.007751 0.008591 0.003215 -0.011460
# 2 -0.019809 0.019235 0.003588 -0.008436 -0.007852 0.013715
# 3 -0.007751 0.003588 0.014816 -0.014013 -0.012127 0.007971
# 4 0.008591 -0.008436 -0.014013 0.037296 0.018425 -0.015896
# 5 0.003215 -0.007852 -0.012127 0.018425 0.037031 -0.013926
# 6 -0.011460 0.013715 0.007971 -0.015896 -0.013926 0.038484
#
#
# Mechanical properties :
#
#
# Convention : Reuss Voigt Hill
#
# Bulk Modulus (GPa) = 34.11583 66.06277 50.08930
# Shear Modulus (GPa) = 20.17891 40.01223 30.09557
#
# Velocity S-wave (km/s) = 2.91155 4.09989 3.55571
# Velocity P-wave (km/s) = 5.06309 7.08272 6.15629
#
# Compressibility (1/GPa) = 0.02931190
#
# Stress axis : x y z
#
# Youngs Moduli (GPa) = 23.14515 51.98845 67.49471
#
# Poissons Ratio (x) = 1.02986 0.52316
# Poissons Ratio (y) = 0.45849 -0.24218
# Poissons Ratio (z) = 0.17940 -0.18654
#
# Static dielectric constant tensor:
#      x y z
#    x 2.062550 -0.018240 0.004880 
#    y -0.018240 1.988750 -0.074160 
#    z 0.004880 -0.074160 2.035140 
# 
# From -- ./inp_files/417405.got.cif
#   From: 2010.05.17/outbox.cif.g08.bks.cpg/sg2_209_cif.got.tgz:417405.got - 2010.06.03 11:33:40.
