data_PCOD9053576
_publ_section_title
;
Structure prediction by ZEFSAII (Michael W. Deem and Ramdas Pophale) SiO2 
 PCOD9053576
Probable space group: P -1
;
_chemical_formula_sum "Si O2"
_cell_formula_units_Z 16
_cell_length_a 11.241159
_cell_length_b 8.019288
_cell_length_c 12.161294
_cell_angle_alpha 117.141044
_cell_angle_beta 50.405695
_cell_angle_gamma 106.806082
_cell_volume 751.754084
_symmetry_space_group_name_H-M "P -1"
_symmetry_group_IT_number 2
_symmetry_cell_setting 'triclinic'
loop_
_space_group_symop_operation_xyz
x,y,z
-x,-y,-z
loop_
_atom_site_type_symbol
_atom_site_label
_atom_site_fract_x
_atom_site_fract_y
_atom_site_fract_z
Si Si1 0.927972 0.167139 0.947701
Si Si2 0.405493 0.849304 0.938457
Si Si3 0.213675 0.916247 0.700472
Si Si4 0.668642 0.418510 0.897587
Si Si5 0.498293 0.201638 0.369307
Si Si6 0.099346 0.476370 0.054407
Si Si7 0.347924 0.790906 0.372940
Si Si8 0.362568 0.323617 0.700756
O O1 0.972075 0.316534 0.062712
O O2 0.756632 0.089456 0.004289
O O3 0.960274 0.310584 0.867398
O O4 0.043877 0.994993 0.844753
O O5 0.495399 0.761221 0.753872
O O6 0.356196 0.707917 0.019222
O O7 0.500000 0.000000 0.000000
O O8 0.327206 0.813732 0.688946
O O9 0.222017 0.810454 0.548083
O O10 0.305597 0.110607 0.684330
O O11 0.711767 0.302393 0.730112
O O12 0.500000 0.500000 0.000000
O O13 0.807256 0.550335 0.895960
O O14 0.406492 0.335709 0.549681
O O15 0.420407 0.994646 0.362457
O O16 0.227748 0.443877 0.871783
O O17 0.485572 0.670331 0.311096
#
# Coordination Sequence:
#
# PCOD9053576 Si02
#       8
#     2   2   2   2   2   2   2   2
#     4   9  19  33  50  76 108 137 177 213 259 314
#     4  11  22  35  52  80 111 135 172 222 271 314
#     4   8  16  30  53  76 102 135 176 219 251 302
#     4  11  20  32  55  81 109 140 174 217 262 311
#     4   9  17  31  52  80 105 134 171 217 265 305
#     4   9  17  32  52  76 107 137 177 216 253 309
#     4   9  15  29  53  81 103 132 176 217 257 301
#     4   8  14  28  53  77 101 134 177 218 250 303
#
# _framework density 21.283557999999999
#
# number of rings (size 3 to 8) (size 9 to 14) (size 15 to 20)
#    0.000    2.750    2.500    1.500    0.000    0.500 
#    0.000    5.000    2.750    0.000    0.000    2.625 
#    0.000    0.000    0.000    0.000    0.000    0.000 
#
# Total GULP energy -89070.977211 kJ/mol
# GULP energy per Si atom -5566.936076 kJ/mol
# Density = 2.123512 g / cm^3
# Si number density = 21.283558 Si / 1000 Ang^3
#
#
#
# Elastic Constant Matrix: (Units=GPa)
#
#
# Indices 1 2 3 4 5 6 
#
# 1 130.1378 20.8176 51.0825 9.8456 23.9381 26.1659
# 2 20.8176 36.2025 16.2545 1.5424 3.7555 5.8009
# 3 51.0825 16.2545 119.8181 7.3301 35.0876 0.0949
# 4 9.8456 1.5424 7.3301 19.8552 -1.3038 2.6724
# 5 23.9381 3.7555 35.0876 -1.3038 44.0166 3.3840
# 6 26.1659 5.8009 0.0949 2.6724 3.3840 33.0960
#
#
#
# Elastic Compliance Matrix: (Units=1/GPa)
#
#
# Indices 1 2 3 4 5 6 
#
# 1 0.012165 -0.003566 -0.003646 -0.003465 -0.002861 -0.008410
# 2 -0.003566 0.031432 -0.003488 0.001171 0.002304 -0.003010
# 3 -0.003646 -0.003488 0.013156 -0.003976 -0.008683 0.004665
# 4 -0.003465 0.001171 -0.003976 0.054243 0.006755 -0.002525
# 5 -0.002861 0.002304 -0.008683 0.006755 0.031344 -0.001867
# 6 -0.008410 -0.003010 0.004665 -0.002525 -0.001867 0.037773
#
#
# Mechanical properties :
#
#
# Convention : Reuss Voigt Hill
#
# Bulk Modulus (GPa) = 28.28562 51.38529 39.83545
# Shear Modulus (GPa) = 23.44136 32.59380 28.01758
#
# Velocity S-wave (km/s) = 3.32231 3.91757 3.63215
# Velocity P-wave (km/s) = 5.29488 6.68272 6.02887
#
# Compressibility (1/GPa) = 0.03535366
#
# Stress axis : x y z
#
# Youngs Moduli (GPa) = 82.20119 31.81422 76.01170
#
# Poissons Ratio (x) = 0.11346 0.27715
# Poissons Ratio (y) = 0.29315 0.26510
# Poissons Ratio (z) = 0.29971 0.11095
#
# Static dielectric constant tensor:
#      x y z
#    x 1.882650 0.016680 -0.003340 
#    y 0.016680 1.865410 0.001660 
#    z -0.003340 0.001660 1.829690 
# 
# From -- ./inp_files/257966.got.cif
#   From: 2010.05.17/outbox.cif.g08.bks.cpg/sg2_129_cif.got.tgz:257966.got - 2010.06.03 11:33:40.
