data_PCOD9053674
_publ_section_title
;
Structure prediction by ZEFSAII (Michael W. Deem and Ramdas Pophale) SiO2 
 PCOD9053674
Probable space group: P -1
;
_chemical_formula_sum "Si O2"
_cell_formula_units_Z 16
_cell_length_a 11.176734
_cell_length_b 17.699663
_cell_length_c 17.547416
_cell_angle_alpha 21.141822
_cell_angle_beta 138.353940
_cell_angle_gamma 140.579540
_cell_volume 789.599724
_symmetry_space_group_name_H-M "P -1"
_symmetry_group_IT_number 2
_symmetry_cell_setting 'triclinic'
loop_
_space_group_symop_operation_xyz
x,y,z
-x,-y,-z
loop_
_atom_site_type_symbol
_atom_site_label
_atom_site_fract_x
_atom_site_fract_y
_atom_site_fract_z
Si Si1 0.367471 0.756687 0.696434
Si Si2 0.936388 0.488242 0.740374
Si Si3 0.281552 0.001785 0.903251
Si Si4 0.550133 0.553176 0.102068
Si Si5 0.132422 0.307398 0.638587
Si Si6 0.600397 0.332844 0.483332
Si Si7 0.821052 0.003916 0.859699
Si Si8 0.629866 0.630818 0.510125
O O1 0.401797 0.594267 0.801407
O O2 0.138327 0.674007 0.670938
O O3 0.500000 0.000000 0.500000
O O4 0.424568 0.681312 0.877161
O O5 0.864124 0.539917 0.575253
O O6 0.786170 0.511495 0.710182
O O7 0.891018 0.225429 0.962407
O O8 0.257587 0.148972 0.825661
O O9 0.257541 0.133722 0.693153
O O10 0.500000 0.000000 0.000000
O O11 0.500883 0.395614 0.301960
O O12 0.725063 0.758175 0.018087
O O13 0.211056 0.461979 0.602268
O O14 0.918735 0.158659 0.690370
O O15 0.669891 0.117452 0.713367
O O16 0.480163 0.337650 0.497556
O O17 0.000000 0.000000 0.000000
O O18 0.500000 0.500000 0.500000
#
# Coordination Sequence:
#
# PCOD9053674 Si02
#       8
#     2   2   2   2   2   2   2   2
#     4  11  25  48  73  95 135 179 237 287 328 408
#     4  11  22  39  67  96 131 176 230 276 333 400
#     4  11  20  35  62  92 134 177 219 267 331 399
#     4  11  25  43  67  98 131 180 227 278 354 394
#     4  11  22  35  57  95 135 169 217 268 339 408
#     4  12  23  40  60  95 145 171 220 282 338 418
#     4  12  26  37  63 101 136 178 216 284 358 416
#     4  11  22  39  60  97 136 183 220 271 339 407
#
# _framework density 20.263432000000002
#
# number of rings (size 3 to 8) (size 9 to 14) (size 15 to 20)
#    0.000    0.750    5.000    3.375    5.250    4.000 
#    0.000    0.625    0.000    3.750    0.000    0.000 
#    0.000    0.000    0.000    0.000    0.000    0.000 
#
# Total GULP energy -89086.835541 kJ/mol
# GULP energy per Si atom -5567.927221 kJ/mol
# Density = 2.021731 g / cm^3
# Si number density = 20.263432 Si / 1000 Ang^3
#
#
#
# Elastic Constant Matrix: (Units=GPa)
#
#
# Indices 1 2 3 4 5 6 
#
# 1 86.0072 22.3093 25.5967 -0.2020 -11.2460 -2.9994
# 2 22.3093 99.6936 40.3999 -1.9821 -1.6143 1.5747
# 3 25.5967 40.3999 95.9792 -10.2422 -13.0294 -5.4290
# 4 -0.2020 -1.9821 -10.2422 43.3539 -3.8131 -5.8980
# 5 -11.2460 -1.6143 -13.0294 -3.8131 26.9338 -0.1114
# 6 -2.9994 1.5747 -5.4290 -5.8980 -0.1114 28.6639
#
#
#
# Elastic Compliance Matrix: (Units=1/GPa)
#
#
# Indices 1 2 3 4 5 6 
#
# 1 0.013406 -0.002138 -0.001990 0.000051 0.004519 0.001171
# 2 -0.002138 0.012669 -0.005424 -0.001273 -0.002947 -0.002221
# 3 -0.001990 -0.005424 0.014814 0.004346 0.006641 0.003816
# 4 0.000051 -0.001273 0.004346 0.025368 0.005664 0.006140
# 5 0.004519 -0.002947 0.006641 0.005664 0.042866 0.003225
# 6 0.001171 -0.002221 0.003816 0.006140 0.003225 0.037130
#
#
# Mechanical properties :
#
#
# Convention : Reuss Voigt Hill
#
# Bulk Modulus (GPa) = 45.90390 50.92132 48.41261
# Shear Modulus (GPa) = 28.96550 32.68191 30.82370
#
# Velocity S-wave (km/s) = 3.78490 4.02039 3.90442
# Velocity P-wave (km/s) = 6.46556 6.83634 6.65353
#
# Compressibility (1/GPa) = 0.02178464
#
# Stress axis : x y z
#
# Youngs Moduli (GPa) = 74.59613 78.93121 67.50373
#
# Poissons Ratio (x) = 0.16873 0.13434
# Poissons Ratio (y) = 0.15946 0.36615
# Poissons Ratio (z) = 0.14846 0.42814
#
# Static dielectric constant tensor:
#      x y z
#    x 1.809540 0.026320 0.029750 
#    y 0.026320 1.751740 0.030170 
#    z 0.029750 0.030170 1.860850 
# 
# From -- ./inp_files/570224.got.cif
#   From: 2010.05.17/outbox.cif.g08.bks.cpg/sg2_286_cif.got.tgz:570224.got - 2010.06.03 11:33:40.
