data_PCOD9053099
_publ_section_title
;
Structure prediction by ZEFSAII (Michael W. Deem and Ramdas Pophale) SiO2 
 PCOD9053099
Probable space group: P -1
;
_chemical_formula_sum "Si O2"
_cell_formula_units_Z 16
_cell_length_a 5.261719
_cell_length_b 10.641830
_cell_length_c 13.886311
_cell_angle_alpha 114.356504
_cell_angle_beta 104.181186
_cell_angle_gamma 109.786564
_cell_volume 595.678159
_symmetry_space_group_name_H-M "P -1"
_symmetry_group_IT_number 2
_symmetry_cell_setting 'triclinic'
loop_
_space_group_symop_operation_xyz
x,y,z
-x,-y,-z
loop_
_atom_site_type_symbol
_atom_site_label
_atom_site_fract_x
_atom_site_fract_y
_atom_site_fract_z
Si Si1 0.510838 0.117004 0.906369
Si Si2 0.399607 0.570923 0.922780
Si Si3 0.797097 0.291672 0.800272
Si Si4 0.108014 0.104985 0.336085
Si Si5 0.595836 0.621655 0.319617
Si Si6 0.113116 0.344733 0.297172
Si Si7 0.853467 0.100552 0.585644
Si Si8 0.420435 0.164225 0.198989
O O1 0.736384 0.238772 0.886588
O O2 0.628715 0.995970 0.908840
O O3 0.468562 0.240271 0.008084
O O4 0.200246 0.006601 0.786093
O O5 0.452771 0.501364 0.808687
O O6 0.037115 0.476467 0.869647
O O7 0.500000 0.500000 0.000000
O O8 0.506704 0.263739 0.705259
O O9 0.911167 0.186895 0.723558
O O10 0.156291 0.281550 0.384030
O O11 0.378544 0.118097 0.296117
O O12 0.075754 0.037792 0.418727
O O13 0.361124 0.522025 0.349353
O O14 0.949964 0.739054 0.406785
O O15 0.189563 0.233355 0.197372
O O16 0.764343 0.297987 0.248919
O O17 0.500000 0.000000 0.500000
#
# Coordination Sequence:
#
# PCOD9053099 Si02
#       8
#     2   2   2   2   2   2   2   2
#     4  11  18  36  61  93 122 171 220 257 314 382
#     4  11  23  34  57  97 134 166 210 266 325 385
#     4  11  21  36  62  88 130 165 207 263 329 383
#     4   9  19  39  64  88 127 167 214 259 318 381
#     4  11  24  40  60  93 130 168 210 268 328 383
#     4   9  21  40  64  88 129 177 216 261 321 384
#     4  11  23  40  65  99 126 157 213 277 329 385
#     4   9  20  36  65  86 121 176 221 251 313 377
#
# _framework density 26.860143000000001
#
# number of rings (size 3 to 8) (size 9 to 14) (size 15 to 20)
#    0.750    1.000    3.750    1.125    3.500    0.500 
#    0.000    3.750    0.000    1.500    0.000    0.000 
#    0.000    0.000    0.000    0.000    0.000    0.000 
#
# Total GULP energy -89283.856778 kJ/mol
# GULP energy per Si atom -5580.241049 kJ/mol
# Density = 2.679901 g / cm^3
# Si number density = 26.860143 Si / 1000 Ang^3
#
#
#
# Elastic Constant Matrix: (Units=GPa)
#
#
# Indices 1 2 3 4 5 6 
#
# 1 83.9388 11.9297 9.1902 10.1123 7.4329 7.9139
# 2 11.9297 143.2580 12.7957 9.7775 16.9190 27.2654
# 3 9.1902 12.7957 82.5800 6.1921 -3.7000 6.5810
# 4 10.1123 9.7775 6.1921 15.9542 1.4246 5.2337
# 5 7.4329 16.9190 -3.7000 1.4246 44.8233 14.5572
# 6 7.9139 27.2654 6.5810 5.2337 14.5572 55.8891
#
#
#
# Elastic Compliance Matrix: (Units=1/GPa)
#
#
# Indices 1 2 3 4 5 6 
#
# 1 0.013154 -0.000195 -0.000909 -0.007545 -0.001784 -0.000489
# 2 -0.000195 0.008108 -0.000835 -0.003360 -0.002019 -0.002989
# 3 -0.000909 -0.000835 0.012798 -0.003682 0.002013 -0.001151
# 4 -0.007545 -0.003360 -0.003682 0.072131 0.001198 -0.003925
# 5 -0.001784 -0.002019 0.002013 0.001198 0.025352 -0.005715
# 6 -0.000489 -0.002989 -0.001151 -0.003925 -0.005715 0.021411
#
#
# Mechanical properties :
#
#
# Convention : Reuss Voigt Hill
#
# Bulk Modulus (GPa) = 33.13314 41.95645 37.54479
# Shear Modulus (GPa) = 29.95939 41.72405 35.84172
#
# Velocity S-wave (km/s) = 3.34336 3.94557 3.65688
# Velocity P-wave (km/s) = 5.22171 6.03415 5.64257
#
# Compressibility (1/GPa) = 0.03018127
#
# Stress axis : x y z
#
# Youngs Moduli (GPa) = 76.02386 123.33581 78.13773
#
# Poissons Ratio (x) = 0.02411 0.07101
# Poissons Ratio (y) = 0.01486 0.06524
# Poissons Ratio (z) = 0.06909 0.10297
#
# Static dielectric constant tensor:
#      x y z
#    x 2.232310 -0.021040 0.020530 
#    y -0.021040 2.254300 0.011280 
#    z 0.020530 0.011280 2.125210 
# 
# From -- ./inp_files/549214.got.cif
#   From: 2010.05.17/outbox.cif.g08.bks.cpg/sg2_275_cif.got.tgz:549214.got - 2010.06.03 11:33:40.
