data_PCOD9053144
_publ_section_title
;
Structure prediction by ZEFSAII (Michael W. Deem and Ramdas Pophale) SiO2 
 PCOD9053144
Probable space group: P -1
;
_chemical_formula_sum "Si O2"
_cell_formula_units_Z 16
_cell_length_a 9.810656
_cell_length_b 25.195712
_cell_length_c 15.628524
_cell_angle_alpha 159.545137
_cell_angle_beta 143.793813
_cell_angle_gamma 34.039171
_cell_volume 746.470833
_symmetry_space_group_name_H-M "P -1"
_symmetry_group_IT_number 2
_symmetry_cell_setting 'triclinic'
loop_
_space_group_symop_operation_xyz
x,y,z
-x,-y,-z
loop_
_atom_site_type_symbol
_atom_site_label
_atom_site_fract_x
_atom_site_fract_y
_atom_site_fract_z
Si Si1 0.278758 0.627957 0.633965
Si Si2 0.906086 0.283133 0.504801
Si Si3 0.591036 0.615947 0.370754
Si Si4 0.470089 0.815143 0.441234
Si Si5 0.771238 0.023752 0.853934
Si Si6 0.950741 0.297854 0.973773
Si Si7 0.167190 0.501431 0.953331
Si Si8 0.343581 0.337736 0.339217
O O1 0.500000 0.500000 0.500000
O O2 0.080577 0.686592 0.546257
O O3 0.231104 0.523366 0.527938
O O4 0.326517 0.786425 0.929690
O O5 0.635505 0.283476 0.387317
O O6 0.979378 0.431602 0.800020
O O7 0.102177 0.104671 0.350966
O O8 0.527147 0.753902 0.474820
O O9 0.775585 0.451419 0.172922
O O10 0.693023 0.664501 0.582033
O O11 0.338132 0.581729 0.211012
O O12 0.635516 0.660885 0.234871
O O13 0.558012 0.964632 0.693009
O O14 0.192096 0.827794 0.297658
O O15 0.000000 0.000000 0.000000
O O16 0.961018 0.373708 0.999853
O O17 0.209003 0.242409 0.070139
#
# Coordination Sequence:
#
# PCOD9053144 Si02
#       8
#     2   2   2   2   2   2   2   2
#     4   9  18  31  52  81 104 128 171 223 257 298
#     4   9  17  30  50  74 104 139 174 210 256 314
#     4   9  18  28  46  80 108 138 178 217 260 311
#     4   8  16  31  52  75  98 140 184 213 252 309
#     4   9  17  32  57  79  96 134 185 216 248 309
#     4   9  16  29  48  73 107 142 177 217 254 310
#     4   8  14  29  48  70 102 141 182 217 246 305
#     4  11  19  28  49  86 111 131 167 222 272 300
#
# _framework density 21.434191999999999
#
# number of rings (size 3 to 8) (size 9 to 14) (size 15 to 20)
#    0.000    3.000    1.250    1.875    1.750    0.500 
#    0.000    0.000    0.000   20.250    0.000    0.000 
#    0.000    0.000    0.000    0.000    0.000    0.000 
#
# Total GULP energy -89131.629792 kJ/mol
# GULP energy per Si atom -5570.726862 kJ/mol
# Density = 2.138541 g / cm^3
# Si number density = 21.434192 Si / 1000 Ang^3
#
#
#
# Elastic Constant Matrix: (Units=GPa)
#
#
# Indices 1 2 3 4 5 6 
#
# 1 54.7595 27.0874 32.1628 -12.4715 15.7275 -7.9827
# 2 27.0874 48.6246 45.1927 -13.5222 -0.7269 -5.3828
# 3 32.1628 45.1927 117.3181 -18.6879 30.1370 -8.4371
# 4 -12.4715 -13.5222 -18.6879 27.9952 -2.7928 2.3061
# 5 15.7275 -0.7269 30.1370 -2.7928 31.2704 -12.4639
# 6 -7.9827 -5.3828 -8.4371 2.3061 -12.4639 23.8785
#
#
#
# Elastic Compliance Matrix: (Units=1/GPa)
#
#
# Indices 1 2 3 4 5 6 
#
# 1 0.035420 -0.027505 0.008864 0.006075 -0.029284 -0.007099
# 2 -0.027505 0.069222 -0.030917 0.004077 0.055113 0.023859
# 3 0.008864 -0.030917 0.027093 0.004612 -0.036410 -0.013884
# 4 0.006075 0.004077 0.004612 0.043198 -0.004274 -0.001823
# 5 -0.029284 0.055113 -0.036410 -0.004274 0.099481 0.042108
# 6 -0.007099 0.023859 -0.013884 -0.001823 0.042108 0.062134
#
#
# Mechanical properties :
#
#
# Convention : Reuss Voigt Hill
#
# Bulk Modulus (GPa) = 30.65645 47.73201 39.19423
# Shear Modulus (GPa) = 11.19732 24.37943 17.78838
#
# Velocity S-wave (km/s) = 2.28810 3.37621 2.88394
# Velocity P-wave (km/s) = 4.61673 6.12502 5.42356
#
# Compressibility (1/GPa) = 0.03261956
#
# Stress axis : x y z
#
# Youngs Moduli (GPa) = 28.23276 14.44630 36.91038
#
# Poissons Ratio (x) = 0.39734 -0.32719
# Poissons Ratio (y) = 0.77653 1.14117
# Poissons Ratio (z) = -0.25027 0.44664
#
# Static dielectric constant tensor:
#      x y z
#    x 1.830580 -0.066480 0.005660 
#    y -0.066480 1.849180 -0.029150 
#    z 0.005660 -0.029150 1.863440 
# 
# From -- ./inp_files/330729.got.cif
#   From: 2010.05.17/outbox.cif.g08.bks.cpg/sg2_166_cif.got.tgz:330729.got - 2010.06.03 11:33:40.
