data_PCOD9053060
_publ_section_title
;
Structure prediction by ZEFSAII (Michael W. Deem and Ramdas Pophale) SiO2 
 PCOD9053060
Probable space group: P -1
;
_chemical_formula_sum "Si O2"
_cell_formula_units_Z 16
_cell_length_a 17.759110
_cell_length_b 11.526977
_cell_length_c 18.142845
_cell_angle_alpha 26.247925
_cell_angle_beta 152.707740
_cell_angle_gamma 149.605587
_cell_volume 712.762646
_symmetry_space_group_name_H-M "P -1"
_symmetry_group_IT_number 2
_symmetry_cell_setting 'triclinic'
loop_
_space_group_symop_operation_xyz
x,y,z
-x,-y,-z
loop_
_atom_site_type_symbol
_atom_site_label
_atom_site_fract_x
_atom_site_fract_y
_atom_site_fract_z
Si Si1 0.333497 0.646145 0.393992
Si Si2 0.330754 0.493456 0.180364
Si Si3 0.818036 0.983924 0.884753
Si Si4 0.375638 0.863392 0.704909
Si Si5 0.444204 0.578150 0.075477
Si Si6 0.294697 0.394978 0.361179
Si Si7 0.026330 0.910214 0.236453
Si Si8 0.792503 0.525156 0.358230
O O1 0.483060 0.545291 0.617401
O O2 0.220116 0.729054 0.309177
O O3 0.220006 0.457590 0.337620
O O4 0.445165 0.936458 0.287352
O O5 0.372716 0.656178 0.046612
O O6 0.275906 0.563145 0.175473
O O7 0.176784 0.204880 0.196725
O O8 0.664932 0.743953 0.850801
O O9 0.000000 0.000000 0.000000
O O10 0.860259 0.915514 0.043215
O O11 0.297009 0.636416 0.702897
O O12 0.265527 0.074340 0.500989
O O13 0.405198 0.741492 0.878277
O O14 0.644978 0.592907 0.238318
O O15 0.500000 0.500000 0.500000
O O16 0.113383 0.687303 0.408497
O O17 0.942633 0.796213 0.307145
#
# Coordination Sequence:
#
# PCOD9053060 Si02
#       8
#     2   2   2   2   2   2   2   2
#     4  10  21  41  62  80 113 163 201 227 281 359
#     4  10  20  37  60  87 117 150 193 241 289 338
#     4  12  23  33  56  89 123 144 188 241 297 337
#     4  10  17  35  59  84 110 154 196 230 277 351
#     4  12  22  34  57  93 123 147 184 247 303 338
#     4   8  18  39  61  82 103 163 204 231 270 350
#     4  11  21  34  52  89 120 152 190 234 291 347
#     4  11  21  33  56  84 125 156 189 231 297 355
#
# _framework density 22.447865
#
# number of rings (size 3 to 8) (size 9 to 14) (size 15 to 20)
#    0.000    1.750    6.250    1.125    1.750    1.000 
#    0.000    6.250    0.000    0.750    0.000    0.875 
#    0.000    0.000    0.000    0.000    0.000    0.000 
#
# Total GULP energy -89132.762823 kJ/mol
# GULP energy per Si atom -5570.797676 kJ/mol
# Density = 2.239677 g / cm^3
# Si number density = 22.447865 Si / 1000 Ang^3
#
#
#
# Elastic Constant Matrix: (Units=GPa)
#
#
# Indices 1 2 3 4 5 6 
#
# 1 76.8097 21.8520 9.1691 5.6546 -7.1585 3.4646
# 2 21.8520 46.5017 -1.7135 11.3725 2.0377 3.3759
# 3 9.1691 -1.7135 44.9278 13.0800 -9.3287 0.9426
# 4 5.6546 11.3725 13.0800 15.4472 1.6258 -2.5259
# 5 -7.1585 2.0377 -9.3287 1.6258 36.4275 7.1961
# 6 3.4646 3.3759 0.9426 -2.5259 7.1961 22.4137
#
#
#
# Elastic Compliance Matrix: (Units=1/GPa)
#
#
# Indices 1 2 3 4 5 6 
#
# 1 0.015978 -0.008400 -0.003850 0.003038 0.002805 -0.001601
# 2 -0.008400 0.036050 0.015402 -0.038642 0.004064 -0.010438
# 3 -0.003850 0.015402 0.040684 -0.047962 0.013547 -0.013190
# 4 0.003038 -0.038642 -0.047962 0.139893 -0.021714 0.030104
# 5 0.002805 0.004064 0.013547 -0.021714 0.035252 -0.015380
# 6 -0.001601 -0.010438 -0.013190 0.030104 -0.015380 0.055321
#
#
# Mechanical properties :
#
#
# Convention : Reuss Voigt Hill
#
# Bulk Modulus (GPa) = 10.09945 25.20606 17.65275
# Shear Modulus (GPa) = 14.29062 24.11979 19.20520
#
# Velocity S-wave (km/s) = 2.52586 3.28148 2.92815
# Velocity P-wave (km/s) = 3.60769 5.06069 4.39466
#
# Compressibility (1/GPa) = 0.09901533
#
# Stress axis : x y z
#
# Youngs Moduli (GPa) = 62.58413 27.73962 24.57969
#
# Poissons Ratio (x) = 0.23302 0.09463
# Poissons Ratio (y) = 0.52572 -0.37857
# Poissons Ratio (z) = 0.24095 -0.42724
#
# Static dielectric constant tensor:
#      x y z
#    x 2.028080 -0.081640 -0.026880 
#    y -0.081640 1.846950 -0.008670 
#    z -0.026880 -0.008670 1.913670 
# 
# From -- ./inp_files/575925.got.cif
#   From: 2010.05.17/outbox.cif.g08.bks.cpg/sg2_288_cif.got.tgz:575925.got - 2010.06.03 11:33:40.
