data_PCOD9053571
_publ_section_title
;
Structure prediction by ZEFSAII (Michael W. Deem and Ramdas Pophale) SiO2 
 PCOD9053571
Probable space group: P -1
;
_chemical_formula_sum "Si O2"
_cell_formula_units_Z 14
_cell_length_a 7.929503
_cell_length_b 13.947684
_cell_length_c 8.937322
_cell_angle_alpha 94.861834
_cell_angle_beta 73.798477
_cell_angle_gamma 139.992195
_cell_volume 596.768437
_symmetry_space_group_name_H-M "P -1"
_symmetry_group_IT_number 2
_symmetry_cell_setting 'triclinic'
loop_
_space_group_symop_operation_xyz
x,y,z
-x,-y,-z
loop_
_atom_site_type_symbol
_atom_site_label
_atom_site_fract_x
_atom_site_fract_y
_atom_site_fract_z
Si Si1 0.332658 0.890821 0.667697
Si Si2 0.177841 0.659886 0.049569
Si Si3 0.185814 0.875984 0.999726
Si Si4 0.858636 0.493628 0.397482
Si Si5 0.902473 0.061279 0.680293
Si Si6 0.183617 0.333427 0.418233
Si Si7 0.601370 0.760134 0.748532
O O1 0.063348 0.731537 0.635861
O O2 0.500000 0.000000 0.500000
O O3 0.575325 0.938524 0.702152
O O4 0.214114 0.914809 0.824489
O O5 0.084601 0.722635 0.014187
O O6 0.101269 0.628313 0.238719
O O7 0.482318 0.758117 0.929255
O O8 0.000000 0.500000 0.000000
O O9 0.034095 0.877106 0.158298
O O10 0.500000 0.000000 0.000000
O O11 0.714937 0.529139 0.502314
O O12 0.630410 0.335266 0.340609
O O13 0.000000 0.500000 0.500000
O O14 0.066279 0.205138 0.551617
O O15 0.889516 0.939472 0.665462
O O16 0.362290 0.339961 0.267578
#
# Coordination Sequence:
#
# PCOD9053571 Si02
#       7
#     2   2   2   2   2   2   2
#     4   9  19  32  57  89 113 150 197 236 276 349
#     4  10  21  37  61  83 112 155 203 234 284 353
#     4  10  17  35  61  83 110 151 202 235 276 344
#     4  11  24  41  62  86 113 158 206 240 284 356
#     4  10  19  37  63  86 114 160 198 231 289 360
#     4  11  22  38  60  90 123 151 188 250 302 335
#     4  11  22  39  59  90 123 150 190 247 301 346
#
# _framework density 23.459686000000001
#
# number of rings (size 3 to 8) (size 9 to 14) (size 15 to 20)
#    0.000    1.714    4.286    1.714    2.000    0.000 
#    0.000    2.857    0.000    0.000    0.000    0.000 
#    0.000    0.000    0.000    0.000    0.000    0.000 
#
# Total GULP energy -77949.590275 kJ/mol
# GULP energy per Si atom -5567.827877 kJ/mol
# Density = 2.340629 g / cm^3
# Si number density = 23.459686 Si / 1000 Ang^3
#
#
#
# Elastic Constant Matrix: (Units=GPa)
#
#
# Indices 1 2 3 4 5 6 
#
# 1 69.1142 10.9431 31.3777 7.4014 -5.1338 -17.4775
# 2 10.9431 86.5565 16.2908 15.8331 -5.9689 -23.7413
# 3 31.3777 16.2908 128.5018 12.8181 7.3886 -12.2372
# 4 7.4014 15.8331 12.8181 35.0443 -5.9582 -8.6226
# 5 -5.1338 -5.9689 7.3886 -5.9582 26.7229 9.8721
# 6 -17.4775 -23.7413 -12.2372 -8.6226 9.8721 33.1557
#
#
#
# Elastic Compliance Matrix: (Units=1/GPa)
#
#
# Indices 1 2 3 4 5 6 
#
# 1 0.018340 0.000883 -0.003840 -0.000563 0.001606 0.008258
# 2 0.000883 0.015100 -0.000658 -0.004436 -0.001028 0.010188
# 3 -0.003840 -0.000658 0.009516 -0.002760 -0.004766 0.001718
# 4 -0.000563 -0.004436 -0.002760 0.033297 0.006234 0.002311
# 5 0.001606 -0.001028 -0.004766 0.006234 0.045188 -0.013482
# 6 0.008258 0.010188 0.001718 0.002311 -0.013482 0.047058
#
#
# Mechanical properties :
#
#
# Convention : Reuss Voigt Hill
#
# Bulk Modulus (GPa) = 27.99087 44.59952 36.29519
# Shear Modulus (GPa) = 26.64691 34.02197 30.33444
#
# Velocity S-wave (km/s) = 3.37391 3.81232 3.59980
# Velocity P-wave (km/s) = 5.20913 6.19926 5.72564
#
# Compressibility (1/GPa) = 0.03572593
#
# Stress axis : x y z
#
# Youngs Moduli (GPa) = 54.52481 66.22388 105.08585
#
# Poissons Ratio (x) = -0.05846 0.40354
# Poissons Ratio (y) = -0.04814 0.06916
# Poissons Ratio (z) = 0.20938 0.04358
#
# Static dielectric constant tensor:
#      x y z
#    x 2.072520 -0.002210 0.035170 
#    y -0.002210 1.937410 -0.050630 
#    z 0.035170 -0.050630 2.096610 
# 
# From -- ./inp_files/207684.got.cif
#   From: 2010.05.17/outbox.cif.g08.bks.cpg/sg2_104_cif.got.tgz:207684.got - 2010.06.03 11:33:40.
