data_PCOD9053474
_publ_section_title
;
Structure prediction by ZEFSAII (Michael W. Deem and Ramdas Pophale) SiO2 
 PCOD9053474
Probable space group: P -1
;
_chemical_formula_sum "Si O2"
_cell_formula_units_Z 16
_cell_length_a 11.582563
_cell_length_b 9.658010
_cell_length_c 18.570339
_cell_angle_alpha 36.140813
_cell_angle_beta 51.768350
_cell_angle_gamma 80.141507
_cell_volume 678.514894
_symmetry_space_group_name_H-M "P -1"
_symmetry_group_IT_number 2
_symmetry_cell_setting 'triclinic'
loop_
_space_group_symop_operation_xyz
x,y,z
-x,-y,-z
loop_
_atom_site_type_symbol
_atom_site_label
_atom_site_fract_x
_atom_site_fract_y
_atom_site_fract_z
Si Si1 0.973858 0.365360 0.356878
Si Si2 0.871674 0.188143 0.126111
Si Si3 0.192553 0.470163 0.096547
Si Si4 0.368507 0.937359 0.275353
Si Si5 0.258041 0.115834 0.118705
Si Si6 0.872527 0.964817 0.956052
Si Si7 0.405343 0.471831 0.399512
Si Si8 0.343825 0.595913 0.218712
O O1 0.003766 0.269934 0.309765
O O2 0.148378 0.458547 0.305136
O O3 0.754538 0.111914 0.587382
O O4 0.021539 0.696069 0.187677
O O5 0.703990 0.862163 0.376310
O O6 0.784046 0.263177 0.068582
O O7 0.000000 0.500000 0.000000
O O8 0.008316 0.145086 0.050664
O O9 0.182867 0.253122 0.134403
O O10 0.403861 0.690074 0.968619
O O11 0.394692 0.688878 0.363189
O O12 0.244222 0.883037 0.275902
O O13 0.141309 0.966581 0.150963
O O14 0.501780 0.408430 0.879796
O O15 0.642205 0.682066 0.196908
O O16 0.297624 0.431783 0.383114
O O17 0.500000 0.000000 0.000000
#
# Coordination Sequence:
#
# PCOD9053474 Si02
#       8
#     2   2   2   2   2   2   2   2
#     4  12  24  41  72 107 134 179 233 283 345 417
#     4  12  28  48  71  98 137 188 239 280 336 413
#     4  12  27  48  63  98 153 178 225 290 342 408
#     4  12  24  42  71 106 135 184 229 277 364 405
#     4  11  22  44  71  98 148 178 218 297 346 400
#     4  11  22  46  72 101 132 181 232 282 336 406
#     4  11  23  44  74 103 137 180 233 284 341 407
#     4  11  19  40  73 106 138 172 228 288 343 405
#
# _framework density 23.580912999999999
#
# number of rings (size 3 to 8) (size 9 to 14) (size 15 to 20)
#    0.000    0.500    8.750    0.375    1.750    4.000 
#    4.500    0.000    0.000    0.000    0.000    0.000 
#    0.000    0.000    0.000    0.000    0.000    0.000 
#
# Total GULP energy -89616.158368 kJ/mol
# GULP energy per Si atom -5601.009898 kJ/mol
# Density = 2.352724 g / cm^3
# Si number density = 23.580913 Si / 1000 Ang^3
#
#
#
# Elastic Constant Matrix: (Units=GPa)
#
#
# Indices 1 2 3 4 5 6 
#
# 1 68.5142 16.6061 9.0772 6.5843 12.3780 -7.1547
# 2 16.6061 141.7760 34.7665 35.8605 -6.4090 -17.2101
# 3 9.0772 34.7665 97.4563 30.1735 7.9331 -5.3694
# 4 6.5843 35.8605 30.1735 40.5559 0.3120 0.9583
# 5 12.3780 -6.4090 7.9331 0.3120 26.1164 6.8601
# 6 -7.1547 -17.2101 -5.3694 0.9583 6.8601 36.7993
#
#
#
# Elastic Compliance Matrix: (Units=1/GPa)
#
#
# Indices 1 2 3 4 5 6 
#
# 1 0.017375 -0.001594 0.000607 -0.001896 -0.010006 0.004636
# 2 -0.001594 0.010126 -0.000940 -0.008110 0.002567 0.004021
# 3 0.000607 -0.000940 0.014212 -0.009870 -0.005515 0.003037
# 4 -0.001896 -0.008110 -0.009870 0.039626 0.003339 -0.007256
# 5 -0.010006 0.002567 -0.005515 0.003339 0.048082 -0.010600
# 6 0.004636 0.004021 0.003037 -0.007256 -0.010600 0.032565
#
#
# Mechanical properties :
#
#
# Convention : Reuss Voigt Hill
#
# Bulk Modulus (GPa) = 26.41366 47.62732 37.02049
# Shear Modulus (GPa) = 28.01739 37.18077 32.59908
#
# Velocity S-wave (km/s) = 3.45068 3.97512 3.72214
# Velocity P-wave (km/s) = 5.20594 6.42728 5.84858
#
# Compressibility (1/GPa) = 0.03785920
#
# Stress axis : x y z
#
# Youngs Moduli (GPa) = 57.55249 98.75317 70.36242
#
# Poissons Ratio (x) = 0.15743 -0.04272
# Poissons Ratio (y) = 0.09175 0.06616
# Poissons Ratio (z) = -0.03494 0.09286
#
# Static dielectric constant tensor:
#      x y z
#    x 1.905030 0.006030 -0.017540 
#    y 0.006030 1.902590 -0.001100 
#    z -0.017540 -0.001100 1.879330 
# 
# From -- ./inp_files/566437.got.cif
#   From: 2010.05.17/outbox.cif.g08.bks.cpg/sg2_284_cif.got.tgz:566437.got - 2010.06.03 11:33:40.
