data_PCOD9053036
_publ_section_title
;
Structure prediction by ZEFSAII (Michael W. Deem and Ramdas Pophale) SiO2 
 PCOD9053036
Probable space group: P -1
;
_chemical_formula_sum "Si O2"
_cell_formula_units_Z 12
_cell_length_a 12.508561
_cell_length_b 6.904845
_cell_length_c 9.448169
_cell_angle_alpha 54.291489
_cell_angle_beta 64.207516
_cell_angle_gamma 98.958458
_cell_volume 494.139701
_symmetry_space_group_name_H-M "P -1"
_symmetry_group_IT_number 2
_symmetry_cell_setting 'triclinic'
loop_
_space_group_symop_operation_xyz
x,y,z
-x,-y,-z
loop_
_atom_site_type_symbol
_atom_site_label
_atom_site_fract_x
_atom_site_fract_y
_atom_site_fract_z
Si Si1 0.866198 0.286210 0.765867
Si Si2 0.555243 0.726050 0.543520
Si Si3 0.443551 0.843147 0.823931
Si Si4 0.327089 0.672748 0.332718
Si Si5 0.937927 0.663093 0.155105
Si Si6 0.244085 0.359927 0.957167
O O1 0.737542 0.316827 0.785065
O O2 0.000000 0.500000 0.500000
O O3 0.932011 0.352344 0.856833
O O4 0.818295 0.972945 0.872717
O O5 0.609035 0.957667 0.289015
O O6 0.621467 0.542408 0.604328
O O7 0.384256 0.508872 0.711035
O O8 0.559165 0.878710 0.622248
O O9 0.546723 0.007444 0.826257
O O10 0.684354 0.484718 0.001672
O O11 0.195690 0.534529 0.578748
O O12 0.871823 0.593779 0.065916
O O13 0.000000 0.000000 0.000000
#
# Coordination Sequence:
#
# PCOD9053036 Si02
#       6
#     2   2   2   2   2   2
#     4   9  20  32  52  79 104 147 177 205 257 318
#     4   9  18  31  54  87 102 134 169 221 273 299
#     4   9  18  32  53  84 108 129 165 234 261 305
#     4  11  18  32  57  81 107 134 174 213 274 313
#     4   9  17  32  53  73 102 144 180 205 241 313
#     4   9  17  34  54  79 103 135 176 216 265 301
#
# _framework density 24.284632999999999
#
# number of rings (size 3 to 8) (size 9 to 14) (size 15 to 20)
#    1.000    1.667    1.667    0.500    0.000    1.333 
#    0.000    0.000    0.000   32.000    0.000    0.000 
#    0.000    0.000    0.000    0.000    0.000    0.000 
#
# Total GULP energy -66928.250543 kJ/mol
# GULP energy per Si atom -5577.354212 kJ/mol
# Density = 2.422936 g / cm^3
# Si number density = 24.284633 Si / 1000 Ang^3
#
#
#
# Elastic Constant Matrix: (Units=GPa)
#
#
# Indices 1 2 3 4 5 6 
#
# 1 198.8757 65.8350 18.9956 -6.1094 6.1730 14.3772
# 2 65.8350 116.4349 18.6559 -6.3255 4.8285 20.8306
# 3 18.9956 18.6559 70.7856 -29.3491 -25.7164 13.5963
# 4 -6.1094 -6.3255 -29.3491 29.6276 7.1127 4.4323
# 5 6.1730 4.8285 -25.7164 7.1127 42.2970 -5.2432
# 6 14.3772 20.8306 13.5963 4.4323 -5.2432 29.2034
#
#
#
# Elastic Compliance Matrix: (Units=1/GPa)
#
#
# Indices 1 2 3 4 5 6 
#
# 1 0.006291 -0.003238 -0.001511 -0.000512 -0.001413 -0.000260
# 2 -0.003238 0.012197 -0.000429 0.003347 -0.002723 -0.007903
# 3 -0.001511 -0.000429 0.040716 0.039280 0.015812 -0.021029
# 4 -0.000512 0.003347 0.039280 0.076202 0.006950 -0.030741
# 5 -0.001413 -0.002723 0.015812 0.006950 0.032614 0.000077
# 6 -0.000260 -0.007903 -0.021029 -0.030741 0.000077 0.054478
#
#
# Mechanical properties :
#
#
# Convention : Reuss Voigt Hill
#
# Bulk Modulus (GPa) = 20.47170 65.89660 43.18415
# Shear Modulus (GPa) = 20.06938 39.06626 29.56782
#
# Velocity S-wave (km/s) = 2.87788 4.01519 3.49313
# Velocity P-wave (km/s) = 4.41487 6.97780 5.83870
#
# Compressibility (1/GPa) = 0.04884793
#
# Stress axis : x y z
#
# Youngs Moduli (GPa) = 158.94785 81.98979 24.56064
#
# Poissons Ratio (x) = 0.26547 0.03711
# Poissons Ratio (y) = 0.51465 0.01054
# Poissons Ratio (z) = 0.24014 0.03519
#
# Static dielectric constant tensor:
#      x y z
#    x 1.962750 -0.019990 0.000260 
#    y -0.019990 2.392930 0.481310 
#    z 0.000260 0.481310 2.360450 
# 
# From -- ./inp_files/161259.got.cif
#   From: 2010.05.17/outbox.cif.g08.bks.cpg/sg2_81_cif.got.tgz:161259.got - 2010.06.03 11:33:40.
