data_PCOD9053287
_publ_section_title
;
Structure prediction by ZEFSAII (Michael W. Deem and Ramdas Pophale) SiO2 
 PCOD9053287
Probable space group: P -1
;
_chemical_formula_sum "Si O2"
_cell_formula_units_Z 16
_cell_length_a 11.689228
_cell_length_b 14.409650
_cell_length_c 19.971341
_cell_angle_alpha 35.266963
_cell_angle_beta 140.100307
_cell_angle_gamma 148.763018
_cell_volume 980.070788
_symmetry_space_group_name_H-M "P -1"
_symmetry_group_IT_number 2
_symmetry_cell_setting 'triclinic'
loop_
_space_group_symop_operation_xyz
x,y,z
-x,-y,-z
loop_
_atom_site_type_symbol
_atom_site_label
_atom_site_fract_x
_atom_site_fract_y
_atom_site_fract_z
Si Si1 0.476690 0.256786 0.860191
Si Si2 0.805455 0.512300 0.052931
Si Si3 0.882234 0.179033 0.259353
Si Si4 0.684459 0.753880 0.058824
Si Si5 0.563513 0.277417 0.641658
Si Si6 0.857039 0.198833 0.079764
Si Si7 0.625175 0.554861 0.629301
Si Si8 0.063968 0.778397 0.144107
O O1 0.389136 0.277547 0.878565
O O2 0.534100 0.423916 0.733326
O O3 0.291497 0.031063 0.879791
O O4 0.698326 0.269330 0.964737
O O5 0.833276 0.335327 0.166486
O O6 0.928620 0.647069 0.094614
O O7 0.540833 0.405325 0.991529
O O8 0.934398 0.654773 0.962112
O O9 0.113288 0.253098 0.354797
O O10 0.918067 0.199369 0.183416
O O11 0.665463 0.950591 0.313669
O O12 0.881312 0.737358 0.140129
O O13 0.781882 0.983125 0.947484
O O14 0.612486 0.411166 0.650879
O O15 0.517988 0.374837 0.503391
O O16 0.770871 0.271069 0.728802
#
# Coordination Sequence:
#
# PCOD9053287 Si02
#       8
#     2   2   2   2   2   2   2   2
#     4  11  19  36  54  84 110 146 179 226 277 326
#     4  12  20  34  56  88 114 143 173 224 285 332
#     4  12  20  34  56  88 114 143 173 224 285 332
#     4  11  23  36  59  80 113 147 183 227 276 324
#     4  11  22  39  55  82 111 149 188 223 267 326
#     4  11  20  31  58  84 117 137 174 229 285 331
#     4  11  23  36  59  80 113 147 183 227 276 324
#     4  11  22  39  55  82 111 149 188 223 267 326
#
# _framework density 16.325351000000001
#
# number of rings (size 3 to 8) (size 9 to 14) (size 15 to 20)
#    0.000    0.750    7.500    1.875    0.000    0.000 
#    0.000    0.625    0.000    0.000    0.000    2.625 
#    0.000    0.000    0.000    0.000    0.000    0.000 
#
# Total GULP energy -89411.228404 kJ/mol
# GULP energy per Si atom -5588.201775 kJ/mol
# Density = 1.628819 g / cm^3
# Si number density = 16.325351 Si / 1000 Ang^3
#
#
#
# Elastic Constant Matrix: (Units=GPa)
#
#
# Indices 1 2 3 4 5 6 
#
# 1 86.3494 37.1787 55.5810 9.1708 7.7450 11.6458
# 2 37.1787 115.6781 43.7580 14.2763 5.2571 5.3619
# 3 55.5810 43.7580 108.9005 11.0627 13.6428 16.1125
# 4 9.1708 14.2763 11.0627 19.8622 3.4097 7.1613
# 5 7.7450 5.2571 13.6428 3.4097 22.7629 -0.2214
# 6 11.6458 5.3619 16.1125 7.1613 -0.2214 12.4687
#
#
#
# Elastic Compliance Matrix: (Units=1/GPa)
#
#
# Indices 1 2 3 4 5 6 
#
# 1 0.018408 -0.002900 -0.007028 0.000303 -0.001496 -0.007065
# 2 -0.002900 0.011484 -0.003578 -0.007677 0.001695 0.006833
# 3 -0.007028 -0.003578 0.017245 0.003420 -0.007789 -0.016284
# 4 0.000303 -0.007677 0.003420 0.071082 -0.011440 -0.042430
# 5 -0.001496 0.001695 -0.007789 -0.011440 0.050607 0.018202
# 6 -0.007065 0.006833 -0.016284 -0.042430 0.018202 0.129597
#
#
# Mechanical properties :
#
#
# Convention : Reuss Voigt Hill
#
# Bulk Modulus (GPa) = 49.68841 64.88481 57.28661
# Shear Modulus (GPa) = 15.05378 22.64611 18.84994
#
# Velocity S-wave (km/s) = 3.03992 3.72852 3.40169
# Velocity P-wave (km/s) = 6.54400 7.63982 7.11305
#
# Compressibility (1/GPa) = 0.02012542
#
# Stress axis : x y z
#
# Youngs Moduli (GPa) = 54.32434 87.07958 57.98759
#
# Poissons Ratio (x) = 0.25251 0.40754
# Poissons Ratio (y) = 0.15753 0.20747
# Poissons Ratio (z) = 0.38180 0.31156
#
# Static dielectric constant tensor:
#      x y z
#    x 1.522460 -0.003220 0.001620 
#    y -0.003220 1.565350 0.005550 
#    z 0.001620 0.005550 1.524190 
# 
# From -- ./inp_files/283457.got.cif
#   From: 2010.05.17/outbox.cif.g08.bks.cpg/sg2_142_cif.got.tgz:283457.got - 2010.06.03 11:33:40.
