data_PCOD9053039
_publ_section_title
;
Structure prediction by ZEFSAII (Michael W. Deem and Ramdas Pophale) SiO2 
 PCOD9053039
Probable space group: P -1
;
_chemical_formula_sum "Si O2"
_cell_formula_units_Z 14
_cell_length_a 9.142650
_cell_length_b 15.323540
_cell_length_c 7.828070
_cell_angle_alpha 37.897050
_cell_angle_beta 94.608687
_cell_angle_gamma 78.260727
_cell_volume 604.321946
_symmetry_space_group_name_H-M "P -1"
_symmetry_group_IT_number 2
_symmetry_cell_setting 'triclinic'
loop_
_space_group_symop_operation_xyz
x,y,z
-x,-y,-z
loop_
_atom_site_type_symbol
_atom_site_label
_atom_site_fract_x
_atom_site_fract_y
_atom_site_fract_z
Si Si1 0.742907 0.437832 0.508282
Si Si2 0.912607 0.784437 0.028386
Si Si3 0.699459 0.296592 0.363093
Si Si4 0.974316 0.962775 0.250394
Si Si5 0.401999 0.984358 0.175970
Si Si6 0.702776 0.954895 0.449429
Si Si7 0.578057 0.310098 0.978309
O O1 0.725134 0.371636 0.423506
O O2 0.669229 0.366394 0.758295
O O3 0.611282 0.620345 0.203921
O O4 0.933724 0.378213 0.658014
O O5 0.765108 0.861865 0.031600
O O6 0.820597 0.809493 0.801377
O O7 0.995544 0.906584 0.843165
O O8 0.639363 0.164229 0.613615
O O9 0.879806 0.206241 0.438956
O O10 0.592404 0.378976 0.059050
O O11 0.805509 0.962003 0.282845
O O12 0.000000 0.000000 0.000000
O O13 0.535833 0.951714 0.387106
O O14 0.500000 0.000000 0.000000
O O15 0.661510 0.121297 0.281607
#
# Coordination Sequence:
#
# PCOD9053039 Si02
#       7
#     2   2   2   2   2   2   2
#     4  11  23  39  61  96 122 157 206 250 303 359
#     4  11  21  36  59  89 117 154 200 254 299 345
#     4  11  22  39  63  90 121 161 203 252 305 357
#     4  11  18  32  60  89 117 146 198 262 295 343
#     4  11  24  37  61  91 122 157 199 258 306 357
#     4  12  21  38  61  92 120 156 202 248 309 363
#     4  11  22  38  63  91 125 161 197 253 302 364
#
# _framework density 23.166460000000001
#
# number of rings (size 3 to 8) (size 9 to 14) (size 15 to 20)
#    0.000    0.857    5.714    4.714    0.000    0.000 
#    0.000    0.714    0.000    0.857    0.000    0.000 
#    0.000    0.000    0.000    0.000    0.000    0.000 
#
# Total GULP energy -78231.308202 kJ/mol
# GULP energy per Si atom -5587.950586 kJ/mol
# Density = 2.311373 g / cm^3
# Si number density = 23.166460 Si / 1000 Ang^3
#
#
#
# Elastic Constant Matrix: (Units=GPa)
#
#
# Indices 1 2 3 4 5 6 
#
# 1 148.5738 33.1132 46.4481 -4.7895 27.3908 -24.5995
# 2 33.1132 65.3620 22.2003 18.2105 5.5688 -8.9633
# 3 46.4481 22.2003 103.2986 13.7948 52.7018 -14.0139
# 4 -4.7895 18.2105 13.7948 24.3403 -0.5437 0.1431
# 5 27.3908 5.5688 52.7018 -0.5437 47.8015 3.6842
# 6 -24.5995 -8.9633 -14.0139 0.1431 3.6842 44.2676
#
#
#
# Elastic Compliance Matrix: (Units=1/GPa)
#
#
# Indices 1 2 3 4 5 6 
#
# 1 0.010135 -0.005631 -0.002482 0.007532 -0.002630 0.003901
# 2 -0.005631 0.023593 0.000459 -0.019040 -0.000390 0.001887
# 3 -0.002482 0.000459 0.034942 -0.021570 -0.038406 0.013041
# 4 0.007532 -0.019040 -0.021570 0.069603 0.023141 -0.008649
# 5 -0.002630 -0.000390 -0.038406 0.023141 0.066567 -0.019314
# 6 0.003901 0.001887 0.013041 -0.008649 -0.019314 0.030904
#
#
# Mechanical properties :
#
#
# Convention : Reuss Voigt Hill
#
# Bulk Modulus (GPa) = 18.73969 57.86196 38.30083
# Shear Modulus (GPa) = 18.59854 37.64674 28.12264
#
# Velocity S-wave (km/s) = 2.83649 4.03557 3.48794
# Velocity P-wave (km/s) = 4.33984 6.83705 5.72623
#
# Compressibility (1/GPa) = 0.05336268
#
# Stress axis : x y z
#
# Youngs Moduli (GPa) = 98.66629 42.38568 28.61909
#
# Poissons Ratio (x) = 0.23868 0.07103
# Poissons Ratio (y) = 0.55561 -0.01315
# Poissons Ratio (z) = 0.24486 -0.01947
#
# Static dielectric constant tensor:
#      x y z
#    x 1.838760 -0.013210 0.056610 
#    y -0.013210 1.909190 0.026120 
#    z 0.056610 0.026120 1.943700 
# 
# From -- ./inp_files/211713.got.cif
#   From: 2010.05.17/outbox.cif.g08.bks.cpg/sg2_106_cif.got.tgz:211713.got - 2010.06.03 11:33:40.
