data_PCOD9053274
_publ_section_title
;
Structure prediction by ZEFSAII (Michael W. Deem and Ramdas Pophale) SiO2 
 PCOD9053274
Probable space group: P -1
;
_chemical_formula_sum "Si O2"
_cell_formula_units_Z 16
_cell_length_a 7.619096
_cell_length_b 9.343721
_cell_length_c 14.345664
_cell_angle_alpha 78.102326
_cell_angle_beta 107.330755
_cell_angle_gamma 47.705990
_cell_volume 589.572552
_symmetry_space_group_name_H-M "P -1"
_symmetry_group_IT_number 2
_symmetry_cell_setting 'triclinic'
loop_
_space_group_symop_operation_xyz
x,y,z
-x,-y,-z
loop_
_atom_site_type_symbol
_atom_site_label
_atom_site_fract_x
_atom_site_fract_y
_atom_site_fract_z
Si Si1 0.374424 0.366781 0.548735
Si Si2 0.119533 0.168501 0.286457
Si Si3 0.726621 0.354310 0.720385
Si Si4 0.774747 0.139589 0.355537
Si Si5 0.777823 0.501795 0.024076
Si Si6 0.619008 0.017105 0.185694
Si Si7 0.302224 0.724053 0.079071
Si Si8 0.910115 0.555723 0.327014
O O1 0.612808 0.341137 0.612835
O O2 0.161299 0.513085 0.407877
O O3 0.160027 0.494283 0.586283
O O4 0.556531 0.101369 0.609949
O O5 0.052348 0.359538 0.302886
O O6 0.905585 0.176387 0.296266
O O7 0.050187 0.258066 0.157448
O O8 0.534296 0.615509 0.681461
O O9 0.609093 0.327158 0.792179
O O10 0.083768 0.133305 0.809148
O O11 0.698045 0.043780 0.294606
O O12 0.000000 0.000000 0.500000
O O13 0.527734 0.640435 0.047804
O O14 0.738783 0.417834 0.941913
O O15 0.681228 0.721623 0.938918
O O16 0.641204 0.827734 0.216961
O O17 0.000000 0.000000 0.000000
#
# Coordination Sequence:
#
# PCOD9053274 Si02
#       8
#     2   2   2   2   2   2   2   2
#     4  11  24  45  69  94 131 186 229 275 336 414
#     4  12  24  46  69  98 135 188 223 272 346 410
#     4  12  22  41  70 101 134 177 223 275 348 392
#     4  12  25  40  68 104 140 170 229 289 335 396
#     4  11  22  40  66  99 141 172 225 279 330 413
#     4  12  26  43  68 108 138 173 230 288 332 404
#     4  11  19  35  63  98 132 174 216 271 340 394
#     4  11  27  46  66  95 139 182 228 277 342 402
#
# _framework density 27.138301999999999
#
# number of rings (size 3 to 8) (size 9 to 14) (size 15 to 20)
#    0.000    0.500    6.250    2.625    3.500    2.500 
#    0.000    0.625    0.000    0.000    0.000    0.000 
#    0.000    0.000    0.000    0.000    0.000    0.000 
#
# Total GULP energy -89500.529050 kJ/mol
# GULP energy per Si atom -5593.783066 kJ/mol
# Density = 2.707653 g / cm^3
# Si number density = 27.138302 Si / 1000 Ang^3
#
#
#
# Elastic Constant Matrix: (Units=GPa)
#
#
# Indices 1 2 3 4 5 6 
#
# 1 62.6949 6.2887 -3.4061 3.8958 -16.9261 2.4984
# 2 6.2887 175.5644 47.4628 -19.5342 8.2335 1.1289
# 3 -3.4061 47.4628 138.5622 -15.2429 -8.1753 -2.7747
# 4 3.8958 -19.5342 -15.2429 48.6335 -2.9784 6.4087
# 5 -16.9261 8.2335 -8.1753 -2.9784 43.1078 -4.1911
# 6 2.4984 1.1289 -2.7747 6.4087 -4.1911 47.3726
#
#
#
# Elastic Compliance Matrix: (Units=1/GPa)
#
#
# Indices 1 2 3 4 5 6 
#
# 1 0.018304 -0.001492 0.001279 -0.001195 0.007631 -0.000018
# 2 -0.001492 0.006694 -0.002248 0.002059 -0.002215 -0.000687
# 3 0.001279 -0.002248 0.008376 0.001721 0.002686 0.000481
# 4 -0.001195 0.002059 0.001721 0.022446 0.000737 -0.002857
# 5 0.007631 -0.002215 0.002686 0.000737 0.027384 0.002131
# 6 -0.000018 -0.000687 0.000481 -0.002857 0.002131 0.021730
#
#
# Mechanical properties :
#
#
# Convention : Reuss Voigt Hill
#
# Bulk Modulus (GPa) = 35.14487 53.05692 44.10090
# Shear Modulus (GPa) = 41.89716 49.58786 45.74251
#
# Velocity S-wave (km/s) = 3.93343 4.27925 4.10998
# Velocity P-wave (km/s) = 5.79721 6.63392 6.22963
#
# Compressibility (1/GPa) = 0.02845365
#
# Stress axis : x y z
#
# Youngs Moduli (GPa) = 54.63140 149.37811 119.39178
#
# Poissons Ratio (x) = 0.22291 -0.15276
# Poissons Ratio (y) = 0.08152 0.26836
# Poissons Ratio (z) = -0.06990 0.33577
#
# Static dielectric constant tensor:
#      x y z
#    x 2.284550 -0.000250 0.040270 
#    y -0.000250 2.001480 -0.034270 
#    z 0.040270 -0.034270 2.156280 
# 
# From -- ./inp_files/494907.got.cif
#   From: 2010.05.17/outbox.cif.g08.bks.cpg/sg2_248_cif.got.tgz:494907.got - 2010.06.03 11:33:40.
