data_PCOD9053078
_publ_section_title
;
Structure prediction by ZEFSAII (Michael W. Deem and Ramdas Pophale) SiO2 
 PCOD9053078
Probable space group: P -1
;
_chemical_formula_sum "Si O2"
_cell_formula_units_Z 12
_cell_length_a 16.152941
_cell_length_b 9.715106
_cell_length_c 16.655361
_cell_angle_alpha 112.733772
_cell_angle_beta 37.464387
_cell_angle_gamma 143.141786
_cell_volume 697.936389
_symmetry_space_group_name_H-M "P -1"
_symmetry_group_IT_number 2
_symmetry_cell_setting 'triclinic'
loop_
_space_group_symop_operation_xyz
x,y,z
-x,-y,-z
loop_
_atom_site_type_symbol
_atom_site_label
_atom_site_fract_x
_atom_site_fract_y
_atom_site_fract_z
Si Si1 0.671638 0.736371 0.993721
Si Si2 0.875909 0.741041 0.984779
Si Si3 0.696278 0.546627 0.372695
Si Si4 0.540849 0.875847 0.402035
Si Si5 0.705178 0.377710 0.168823
Si Si6 0.397374 0.041109 0.809070
O O1 0.729976 0.672678 0.004507
O O2 0.500000 0.500000 0.000000
O O3 0.978491 0.089526 0.806214
O O4 0.530716 0.746317 0.145266
O O5 0.664387 0.446315 0.139926
O O6 0.137327 0.884225 0.789792
O O7 0.000000 0.000000 0.000000
O O8 0.500000 0.500000 0.500000
O O9 0.642283 0.414042 0.468549
O O10 0.618214 0.360972 0.317627
O O11 0.500000 0.000000 0.500000
O O12 0.465232 0.814522 0.352216
O O13 0.564320 0.079796 0.203624
O O14 0.053143 0.707910 0.981646
#
# Coordination Sequence:
#
# PCOD9053078 Si02
#       6
#     2   2   2   2   2   2
#     4  11  23  38  56  81 117 155 188 227 284 348
#     4  11  18  35  58  83 109 148 195 231 270 335
#     4  11  19  32  57  87 109 140 193 236 276 327
#     4  11  19  30  58  91 112 132 187 250 283 310
#     4   9  17  30  55  81 105 141 191 235 268 323
#     4   9  18  33  52  79 112 145 185 230 278 332
#
# _framework density 17.193542000000001
#
# number of rings (size 3 to 8) (size 9 to 14) (size 15 to 20)
#    0.000    1.667    8.333    0.000    2.333    0.000 
#    0.000    1.667    0.000    2.000    0.000    0.000 
#    0.000    0.000    0.000    0.000    0.000    0.000 
#
# Total GULP energy -66863.017541 kJ/mol
# GULP energy per Si atom -5571.918128 kJ/mol
# Density = 1.715441 g / cm^3
# Si number density = 17.193542 Si / 1000 Ang^3
#
#
#
# Elastic Constant Matrix: (Units=GPa)
#
#
# Indices 1 2 3 4 5 6 
#
# 1 127.4470 75.7287 32.7672 4.7333 37.2102 -16.7195
# 2 75.7287 117.4964 39.2997 28.8096 12.4590 -7.3389
# 3 32.7672 39.2997 69.0561 21.5384 23.2901 -7.4557
# 4 4.7333 28.8096 21.5384 25.4295 -7.2018 4.0421
# 5 37.2102 12.4590 23.2901 -7.2018 36.0225 -3.5728
# 6 -16.7195 -7.3389 -7.4557 4.0421 -3.5728 33.3655
#
#
#
# Elastic Compliance Matrix: (Units=1/GPa)
#
#
# Indices 1 2 3 4 5 6 
#
# 1 0.020334 -0.012074 0.004536 -0.000424 -0.019197 0.006543
# 2 -0.012074 0.021972 0.001002 -0.023893 -0.000367 0.001861
# 3 0.004536 0.001002 0.045361 -0.055166 -0.043941 0.014608
# 4 -0.000424 -0.023893 -0.055166 0.137057 0.069093 -0.027000
# 5 -0.019197 -0.000367 -0.043941 0.069093 0.088110 -0.018454
# 6 0.006543 0.001861 0.014608 -0.027000 -0.018454 0.038218
#
#
# Mechanical properties :
#
#
# Convention : Reuss Voigt Hill
#
# Bulk Modulus (GPa) = 13.40578 67.73230 40.56904
# Shear Modulus (GPa) = 12.85388 30.04374 21.44881
#
# Velocity S-wave (km/s) = 2.73719 4.18471 3.53582
# Velocity P-wave (km/s) = 4.21942 7.92645 6.34949
#
# Compressibility (1/GPa) = 0.07459468
#
# Stress axis : x y z
#
# Youngs Moduli (GPa) = 49.17983 45.51330 22.04533
#
# Poissons Ratio (x) = 0.54955 -0.10000
# Poissons Ratio (y) = 0.59382 -0.02210
# Poissons Ratio (z) = -0.22309 -0.04562
#
# Static dielectric constant tensor:
#      x y z
#    x 1.595430 -0.032100 -0.007760 
#    y -0.032100 1.555790 0.060710 
#    z -0.007760 0.060710 1.554830 
# 
# From -- ./inp_files/145314.got.cif
#   From: 2010.05.17/outbox.cif.g08.bks.cpg/sg2_73_cif.got.tgz:145314.got - 2010.06.03 11:33:40.
