data_PCOD9053294
_publ_section_title
;
Structure prediction by ZEFSAII (Michael W. Deem and Ramdas Pophale) SiO2 
 PCOD9053294
Probable space group: P -1
;
_chemical_formula_sum "Si O2"
_cell_formula_units_Z 16
_cell_length_a 7.456056
_cell_length_b 17.377607
_cell_length_c 7.868977
_cell_angle_alpha 88.883900
_cell_angle_beta 126.929165
_cell_angle_gamma 120.408649
_cell_volume 640.200158
_symmetry_space_group_name_H-M "P -1"
_symmetry_group_IT_number 2
_symmetry_cell_setting 'triclinic'
loop_
_space_group_symop_operation_xyz
x,y,z
-x,-y,-z
loop_
_atom_site_type_symbol
_atom_site_label
_atom_site_fract_x
_atom_site_fract_y
_atom_site_fract_z
Si Si1 0.570554 0.128443 0.229945
Si Si2 0.056677 0.923932 0.575276
Si Si3 0.336463 0.651011 0.286497
Si Si4 0.213804 0.169790 0.225780
Si Si5 0.523716 0.236530 0.931010
Si Si6 0.166609 0.338816 0.613330
Si Si7 0.682718 0.678092 0.945059
Si Si8 0.197380 0.506484 0.469720
O O1 0.315538 0.114645 0.188238
O O2 0.546858 0.156343 0.024545
O O3 0.645868 0.055111 0.299906
O O4 0.865714 0.232512 0.444807
O O5 0.001032 0.896011 0.743684
O O6 0.794422 0.829741 0.327029
O O7 0.000000 0.000000 0.500000
O O8 0.503057 0.735006 0.522811
O O9 0.570493 0.651448 0.317156
O O10 0.142803 0.545573 0.269480
O O11 0.249975 0.693504 0.089973
O O12 0.114636 0.217467 0.041616
O O13 0.518314 0.300563 0.072653
O O14 0.152319 0.407438 0.474332
O O15 0.222403 0.358437 0.847226
O O16 0.517164 0.593905 0.713542
O O17 0.000000 0.500000 0.500000
#
# Coordination Sequence:
#
# PCOD9053294 Si02
#       8
#     2   2   2   2   2   2   2   2
#     4  11  21  40  66  85 122 165 192 242 308 346
#     4  11  23  43  64  91 124 149 192 256 299 356
#     4   9  18  37  55  81 121 156 201 249 283 354
#     4   9  19  39  60  91 117 153 205 237 288 378
#     4   9  19  40  62  87 119 156 205 239 291 374
#     4  11  19  36  59  83 116 167 199 242 302 334
#     4   9  18  36  58  80 122 154 201 248 282 356
#     4  11  21  33  50  86 121 156 208 248 284 341
#
# _framework density 24.992184000000002
#
# number of rings (size 3 to 8) (size 9 to 14) (size 15 to 20)
#    0.000    2.000    3.750    3.000    0.000    1.000 
#    6.750    9.375    0.000    0.000    0.000    0.000 
#    0.000    0.000    0.000    0.000    0.000    0.000 
#
# Total GULP energy -89269.030336 kJ/mol
# GULP energy per Si atom -5579.314396 kJ/mol
# Density = 2.493530 g / cm^3
# Si number density = 24.992184 Si / 1000 Ang^3
#
#
#
# Elastic Constant Matrix: (Units=GPa)
#
#
# Indices 1 2 3 4 5 6 
#
# 1 44.1237 -3.0745 6.9736 -9.4505 -4.6858 -1.7360
# 2 -3.0745 69.9877 15.7077 -19.5721 -4.3281 -13.2556
# 3 6.9736 15.7077 81.5847 -26.2460 -9.0078 2.0547
# 4 -9.4505 -19.5721 -26.2460 36.0948 5.5988 2.6899
# 5 -4.6858 -4.3281 -9.0078 5.5988 29.9042 -12.2924
# 6 -1.7360 -13.2556 2.0547 2.6899 -12.2924 30.0787
#
#
#
# Elastic Compliance Matrix: (Units=1/GPa)
#
#
# Indices 1 2 3 4 5 6 
#
# 1 0.025436 0.004599 -0.000057 0.007947 0.005159 0.004896
# 2 0.004599 0.019716 -0.000685 0.009699 0.005884 0.010538
# 3 -0.000057 -0.000685 0.016279 0.011254 0.002034 -0.001592
# 4 0.007947 0.009699 0.011254 0.043696 -0.002547 -0.000984
# 5 0.005159 0.005884 0.002034 -0.002547 0.044968 0.021357
# 6 0.004896 0.010538 -0.001592 -0.000984 0.021357 0.047098
#
#
# Mechanical properties :
#
#
# Convention : Reuss Voigt Hill
#
# Bulk Modulus (GPa) = 14.46222 26.10106 20.28164
# Shear Modulus (GPa) = 23.52643 30.95483 27.24063
#
# Velocity S-wave (km/s) = 3.07147 3.52317 3.30504
# Velocity P-wave (km/s) = 4.28694 5.19775 4.76416
#
# Compressibility (1/GPa) = 0.06914567
#
# Stress axis : x y z
#
# Youngs Moduli (GPa) = 39.31502 50.72010 61.42858
#
# Poissons Ratio (x) = -0.23325 0.00348
# Poissons Ratio (y) = -0.18080 0.04205
# Poissons Ratio (z) = 0.00223 0.03472
#
# Static dielectric constant tensor:
#      x y z
#    x 1.974660 -0.052780 0.025540 
#    y -0.052780 2.139050 -0.068730 
#    z 0.025540 -0.068730 2.162960 
# 
# From -- ./inp_files/212153.got.cif
#   From: 2010.05.17/outbox.cif.g08.bks.cpg/sg2_107_cif.got.tgz:212153.got - 2010.06.03 11:33:40.
