data_PCOD9053797
_publ_section_title
;
Structure prediction by ZEFSAII (Michael W. Deem and Ramdas Pophale) SiO2 
 PCOD9053797
Probable space group: P -1
;
_chemical_formula_sum "Si O2"
_cell_formula_units_Z 16
_cell_length_a 23.983915
_cell_length_b 14.723861
_cell_length_c 8.004375
_cell_angle_alpha 62.555127
_cell_angle_beta 110.997530
_cell_angle_gamma 161.461344
_cell_volume 765.954416
_symmetry_space_group_name_H-M "P -1"
_symmetry_group_IT_number 2
_symmetry_cell_setting 'triclinic'
loop_
_space_group_symop_operation_xyz
x,y,z
-x,-y,-z
loop_
_atom_site_type_symbol
_atom_site_label
_atom_site_fract_x
_atom_site_fract_y
_atom_site_fract_z
Si Si1 0.709415 0.737460 0.618992
Si Si2 0.307350 0.664736 0.658707
Si Si3 0.023457 0.370436 0.592285
Si Si4 0.188121 0.823270 0.218722
Si Si5 0.676046 0.807440 0.194388
Si Si6 0.108938 0.180649 0.637914
Si Si7 0.753962 0.613452 0.932634
Si Si8 0.614127 0.514097 0.177238
O O1 0.743544 0.846429 0.385096
O O2 0.521076 0.473978 0.717059
O O3 0.696430 0.592916 0.732943
O O4 0.875011 0.049856 0.640501
O O5 0.196232 0.585343 0.658310
O O6 0.190147 0.418338 0.595208
O O7 0.500000 0.000000 0.500000
O O8 0.330617 0.625289 0.874076
O O9 0.092818 0.559186 0.360537
O O10 0.929616 0.289935 0.698235
O O11 0.395960 0.149004 0.236771
O O12 0.210869 0.912057 0.986466
O O13 0.655728 0.698572 0.107563
O O14 0.282237 0.386017 0.657711
O O15 0.000000 0.000000 0.500000
O O16 0.956909 0.908831 0.846703
O O17 0.707963 0.621137 0.021830
#
# Coordination Sequence:
#
# PCOD9053797 Si02
#       8
#     2   2   2   2   2   2   2   2
#     4  11  22  39  60  94 125 165 206 262 317 380
#     4  11  24  42  68  94 128 173 213 264 318 384
#     4  11  23  40  63  91 128 159 220 251 326 372
#     4  11  23  39  63  94 123 169 206 270 303 389
#     4  11  23  36  64  91 128 164 209 260 321 366
#     4  11  24  40  65  97 130 167 214 267 320 377
#     4  11  22  40  64  93 121 167 216 261 309 387
#     4  11  20  37  64  91 121 161 218 255 315 370
#
# _framework density 20.888971000000002
#
# number of rings (size 3 to 8) (size 9 to 14) (size 15 to 20)
#    0.000    1.000    3.750    4.875    1.750    0.500 
#    0.000    0.625    0.000    0.000    0.000    0.000 
#    0.000    0.000    0.000    0.000    0.000    0.000 
#
# Total GULP energy -89176.169277 kJ/mol
# GULP energy per Si atom -5573.510580 kJ/mol
# Density = 2.084143 g / cm^3
# Si number density = 20.888971 Si / 1000 Ang^3
#
#
#
# Elastic Constant Matrix: (Units=GPa)
#
#
# Indices 1 2 3 4 5 6 
#
# 1 92.8259 18.2613 36.2228 -1.7716 10.6851 31.0876
# 2 18.2613 51.1177 36.8483 -4.7563 5.8964 22.3288
# 3 36.2228 36.8483 174.2822 -12.7523 24.2688 12.9987
# 4 -1.7716 -4.7563 -12.7523 40.4713 3.9501 6.5041
# 5 10.6851 5.8964 24.2688 3.9501 36.9997 2.7254
# 6 31.0876 22.3288 12.9987 6.5041 2.7254 29.5914
#
#
#
# Elastic Compliance Matrix: (Units=1/GPa)
#
#
# Indices 1 2 3 4 5 6 
#
# 1 0.019478 0.007008 -0.002750 0.005240 -0.003630 -0.025361
# 2 0.007008 0.037578 -0.005804 0.008746 -0.002572 -0.034853
# 3 -0.002750 -0.005804 0.007899 0.001450 -0.003900 0.003839
# 4 0.005240 0.008746 0.001450 0.030000 -0.005675 -0.018813
# 5 -0.003630 -0.002572 -0.003900 -0.005675 0.031219 0.005839
# 6 -0.025361 -0.034853 0.003839 -0.018813 0.005839 0.088647
#
#
# Mechanical properties :
#
#
# Convention : Reuss Voigt Hill
#
# Bulk Modulus (GPa) = 16.16461 55.65453 35.90957
# Shear Modulus (GPa) = 20.96131 36.53870 28.75000
#
# Velocity S-wave (km/s) = 3.17119 4.18686 3.71391
# Velocity P-wave (km/s) = 4.60040 7.07630 5.96815
#
# Compressibility (1/GPa) = 0.06186355
#
# Stress axis : x y z
#
# Youngs Moduli (GPa) = 51.33901 26.61148 126.59343
#
# Poissons Ratio (x) = -0.18648 0.34809
# Poissons Ratio (y) = -0.35976 0.73473
# Poissons Ratio (z) = 0.14117 0.15445
#
# Static dielectric constant tensor:
#      x y z
#    x 1.792240 0.016130 -0.036470 
#    y 0.016130 1.787680 0.082560 
#    z -0.036470 0.082560 2.049410 
# 
# From -- ./inp_files/354332.got.cif
#   From: 2010.05.17/outbox.cif.g08.bks.cpg/sg2_178_cif.got.tgz:354332.got - 2010.06.03 11:33:40.
