data_PCOD9053034
_publ_section_title
;
Structure prediction by ZEFSAII (Michael W. Deem and Ramdas Pophale) SiO2 
 PCOD9053034
Probable space group: P -1
;
_chemical_formula_sum "Si O2"
_cell_formula_units_Z 16
_cell_length_a 10.443069
_cell_length_b 12.863032
_cell_length_c 13.328406
_cell_angle_alpha 51.724720
_cell_angle_beta 146.316517
_cell_angle_gamma 116.263334
_cell_volume 768.500428
_symmetry_space_group_name_H-M "P -1"
_symmetry_group_IT_number 2
_symmetry_cell_setting 'triclinic'
loop_
_space_group_symop_operation_xyz
x,y,z
-x,-y,-z
loop_
_atom_site_type_symbol
_atom_site_label
_atom_site_fract_x
_atom_site_fract_y
_atom_site_fract_z
Si Si1 0.928624 0.658917 0.471881
Si Si2 0.097719 0.883023 0.910277
Si Si3 0.091969 0.893534 0.210081
Si Si4 0.587124 0.812473 0.325280
Si Si5 0.236237 0.925803 0.751104
Si Si6 0.373785 0.791015 0.727646
Si Si7 0.621285 0.897044 0.518004
Si Si8 0.151804 0.352812 0.805761
O O1 0.752768 0.722804 0.407327
O O2 0.810835 0.661369 0.283182
O O3 0.156024 0.734315 0.571691
O O4 0.032264 0.504649 0.655683
O O5 0.174946 0.884189 0.845270
O O6 0.837759 0.847346 0.762291
O O7 0.316069 0.794805 0.159698
O O8 0.051570 0.033984 0.833221
O O9 0.370058 0.882767 0.406287
O O10 0.020778 0.752667 0.223188
O O11 0.000000 0.000000 0.000000
O O12 0.663347 0.816266 0.488610
O O13 0.591548 0.965522 0.200013
O O14 0.323945 0.806496 0.804918
O O15 0.000000 0.000000 0.500000
O O16 0.385699 0.943828 0.607901
O O17 0.621668 0.693128 0.949116
#
# Coordination Sequence:
#
# PCOD9053034 Si02
#       8
#     2   2   2   2   2   2   2   2
#     4  11  23  39  59  88 117 157 194 237 295 355
#     4  12  21  34  59  86 117 155 183 252 299 332
#     4  12  22  41  60  86 121 156 199 240 288 347
#     4  11  20  35  57  83 121 149 194 241 294 348
#     4  11  18  32  56  90 118 143 189 240 303 346
#     4  11  19  37  61  87 120 148 189 247 297 345
#     4  11  22  37  60  91 117 150 199 245 290 349
#     4  11  24  39  59  84 120 158 197 236 290 350
#
# _framework density 20.819766999999999
#
# number of rings (size 3 to 8) (size 9 to 14) (size 15 to 20)
#    0.000    0.750    6.250    4.125    0.000    0.000 
#    0.000    0.625    0.000    0.750    0.000    0.000 
#    0.000    0.000    0.000    0.000    0.000    0.000 
#
# Total GULP energy -89370.088406 kJ/mol
# GULP energy per Si atom -5585.630525 kJ/mol
# Density = 2.077238 g / cm^3
# Si number density = 20.819767 Si / 1000 Ang^3
#
#
#
# Elastic Constant Matrix: (Units=GPa)
#
#
# Indices 1 2 3 4 5 6 
#
# 1 54.9646 22.0569 11.0563 3.0303 15.6772 -5.3769
# 2 22.0569 79.4775 45.3259 -0.5483 12.5770 -4.2229
# 3 11.0563 45.3259 125.7942 23.5554 23.7419 5.9423
# 4 3.0303 -0.5483 23.5554 21.6132 8.7913 -2.9260
# 5 15.6772 12.5770 23.7419 8.7913 34.7560 8.7581
# 6 -5.3769 -4.2229 5.9423 -2.9260 8.7581 28.2489
#
#
#
# Elastic Compliance Matrix: (Units=1/GPa)
#
#
# Indices 1 2 3 4 5 6 
#
# 1 0.024110 -0.005318 0.001613 0.000602 -0.012031 0.007247
# 2 -0.005318 0.020166 -0.008883 0.013372 -0.003837 0.006446
# 3 0.001613 -0.008883 0.014709 -0.016307 -0.002140 -0.005140
# 4 0.000602 0.013372 -0.016307 0.073859 -0.017332 0.018567
# 5 -0.012031 -0.003837 -0.002140 -0.017332 0.046095 -0.018500
# 6 0.007247 0.006446 -0.005140 0.018567 -0.018500 0.046483
#
#
# Mechanical properties :
#
#
# Convention : Reuss Voigt Hill
#
# Bulk Modulus (GPa) = 29.57790 46.34605 37.96197
# Shear Modulus (GPa) = 19.09363 29.04344 24.06853
#
# Velocity S-wave (km/s) = 3.03164 3.73901 3.40375
# Velocity P-wave (km/s) = 5.14703 6.39916 5.80694
#
# Compressibility (1/GPa) = 0.03380903
#
# Stress axis : x y z
#
# Youngs Moduli (GPa) = 41.47578 49.58889 67.98653
#
# Poissons Ratio (x) = 0.26370 -0.10963
# Poissons Ratio (y) = 0.22056 0.60391
# Poissons Ratio (z) = -0.06688 0.44049
#
# Static dielectric constant tensor:
#      x y z
#    x 1.793920 -0.005710 0.002420 
#    y -0.005710 1.772360 0.055950 
#    z 0.002420 0.055950 1.818790 
# 
# From -- ./inp_files/425394.got.cif
#   From: 2010.05.17/outbox.cif.g08.bks.cpg/sg2_213_cif.got.tgz:425394.got - 2010.06.03 11:33:40.
