data_PCOD9053395
_publ_section_title
;
Structure prediction by ZEFSAII (Michael W. Deem and Ramdas Pophale) SiO2 
 PCOD9053395
Probable space group: P -1
;
_chemical_formula_sum "Si O2"
_cell_formula_units_Z 14
_cell_length_a 13.889215
_cell_length_b 9.352991
_cell_length_c 12.137303
_cell_angle_alpha 58.721746
_cell_angle_beta 38.740885
_cell_angle_gamma 89.309263
_cell_volume 572.151179
_symmetry_space_group_name_H-M "P -1"
_symmetry_group_IT_number 2
_symmetry_cell_setting 'triclinic'
loop_
_space_group_symop_operation_xyz
x,y,z
-x,-y,-z
loop_
_atom_site_type_symbol
_atom_site_label
_atom_site_fract_x
_atom_site_fract_y
_atom_site_fract_z
Si Si1 0.685059 0.650282 0.554304
Si Si2 0.191661 0.362896 0.161368
Si Si3 0.214424 0.552092 0.298388
Si Si4 0.731987 0.193704 0.147974
Si Si5 0.185908 0.388443 0.751326
Si Si6 0.930059 0.126914 0.288932
Si Si7 0.457093 0.929047 0.291336
O O1 0.780311 0.552099 0.555032
O O2 0.749245 0.714761 0.342983
O O3 0.418626 0.446780 0.894477
O O4 0.794448 0.879648 0.440862
O O5 0.198404 0.410162 0.266242
O O6 0.060554 0.739144 0.012540
O O7 0.989298 0.125650 0.362739
O O8 0.203908 0.561122 0.020932
O O9 0.000000 0.500000 0.500000
O O10 0.434536 0.848971 0.977326
O O11 0.500000 0.000000 0.500000
O O12 0.234846 0.844440 0.571938
O O13 0.656715 0.069101 0.145822
O O14 0.156010 0.335198 0.929733
O O15 0.370745 0.677063 0.441099
#
# Coordination Sequence:
#
# PCOD9053395 Si02
#       7
#     2   2   2   2   2   2   2
#     4  12  26  46  68 103 146 182 227 290 349 408
#     4  11  24  42  68 100 137 183 227 285 345 408
#     4  11  26  50  73 100 138 182 242 288 344 413
#     4  11  19  38  67  99 135 181 226 278 334 403
#     4  12  25  43  72 108 142 183 233 282 345 421
#     4  12  24  43  72 106 141 183 228 281 357 410
#     4  11  23  42  72 100 136 184 235 287 336 411
#
# _framework density 24.469058
#
# number of rings (size 3 to 8) (size 9 to 14) (size 15 to 20)
#    0.000    0.571    5.714    3.857    0.000    4.000 
#    0.000    0.000    0.000    0.000    0.000    0.000 
#    0.000    0.000    0.000    0.000    0.000    0.000 
#
# Total GULP energy -78347.496375 kJ/mol
# GULP energy per Si atom -5596.249741 kJ/mol
# Density = 2.441337 g / cm^3
# Si number density = 24.469058 Si / 1000 Ang^3
#
#
#
# Elastic Constant Matrix: (Units=GPa)
#
#
# Indices 1 2 3 4 5 6 
#
# 1 68.8315 3.1503 -1.0410 3.1511 -8.1708 8.9952
# 2 3.1503 59.4697 18.7797 5.7433 -11.5757 11.5297
# 3 -1.0410 18.7797 66.6099 0.9736 -14.0616 10.9110
# 4 3.1511 5.7433 0.9736 50.4599 1.3743 -1.6818
# 5 -8.1708 -11.5757 -14.0616 1.3743 37.7592 5.0063
# 6 8.9952 11.5297 10.9110 -1.6818 5.0063 35.0627
#
#
#
# Elastic Compliance Matrix: (Units=1/GPa)
#
#
# Indices 1 2 3 4 5 6 
#
# 1 0.015989 0.000795 0.002132 -0.001470 0.005328 -0.005858
# 2 0.000795 0.020665 -0.003294 -0.002743 0.006309 -0.007006
# 3 0.002132 -0.003294 0.018533 -0.000521 0.007205 -0.006285
# 4 -0.001470 -0.002743 -0.000521 0.020391 -0.002463 0.002771
# 5 0.005328 0.006309 0.007205 -0.002463 0.033752 -0.010621
# 6 -0.005858 -0.007006 -0.006285 0.002771 -0.010621 0.035932
#
#
# Mechanical properties :
#
#
# Convention : Reuss Voigt Hill
#
# Bulk Modulus (GPa) = 18.36506 26.29879 22.33192
# Shear Modulus (GPa) = 30.46021 36.25783 33.35902
#
# Velocity S-wave (km/s) = 3.53207 3.85357 3.69631
# Velocity P-wave (km/s) = 4.91484 5.52911 5.23100
#
# Compressibility (1/GPa) = 0.05445123
#
# Stress axis : x y z
#
# Youngs Moduli (GPa) = 62.54164 48.39142 53.95799
#
# Poissons Ratio (x) = -0.03845 -0.11501
# Poissons Ratio (y) = -0.04969 0.17774
# Poissons Ratio (z) = -0.13331 0.15940
#
# Static dielectric constant tensor:
#      x y z
#    x 1.959980 0.035010 0.076840 
#    y 0.035010 1.949440 -0.063340 
#    z 0.076840 -0.063340 1.996930 
# 
# From -- ./inp_files/527327.got.cif
#   From: 2010.05.17/outbox.cif.g08.bks.cpg/sg2_264_cif.got.tgz:527327.got - 2010.06.03 11:33:40.
