data_PCOD9053155
_publ_section_title
;
Structure prediction by ZEFSAII (Michael W. Deem and Ramdas Pophale) SiO2 
 PCOD9053155
Probable space group: P -1
;
_chemical_formula_sum "Si O2"
_cell_formula_units_Z 14
_cell_length_a 12.376025
_cell_length_b 6.655614
_cell_length_c 21.741508
_cell_angle_alpha 66.381604
_cell_angle_beta 26.777330
_cell_angle_gamma 69.233999
_cell_volume 739.215782
_symmetry_space_group_name_H-M "P -1"
_symmetry_group_IT_number 2
_symmetry_cell_setting 'triclinic'
loop_
_space_group_symop_operation_xyz
x,y,z
-x,-y,-z
loop_
_atom_site_type_symbol
_atom_site_label
_atom_site_fract_x
_atom_site_fract_y
_atom_site_fract_z
Si Si1 0.713729 0.553240 0.578219
Si Si2 0.684247 0.150117 0.308271
Si Si3 0.619341 0.263853 0.469992
Si Si4 0.022638 0.508585 0.302882
Si Si5 0.154942 0.980820 0.128853
Si Si6 0.679882 0.849694 0.842484
Si Si7 0.086703 0.853500 0.417714
O O1 0.459995 0.653966 0.674790
O O2 0.714692 0.317193 0.638363
O O3 0.895681 0.533922 0.429932
O O4 0.852520 0.717926 0.532464
O O5 0.658048 0.190525 0.389690
O O6 0.537577 0.926106 0.395369
O O7 0.968348 0.109732 0.164434
O O8 0.500000 0.500000 0.500000
O O9 0.862845 0.322863 0.373283
O O10 0.027073 0.750278 0.241784
O O11 0.279832 0.394345 0.176496
O O12 0.222631 0.109094 0.142157
O O13 0.402007 0.915825 0.979204
O O14 0.810834 0.012833 0.708216
O O15 0.000000 0.000000 0.500000
#
# Coordination Sequence:
#
# PCOD9053155 Si02
#       7
#     2   2   2   2   2   2   2
#     4  11  23  35  62  89 113 150 198 254 284 339
#     4  11  21  35  53  91 121 148 194 236 297 349
#     4  11  19  30  57  87 123 149 179 245 300 343
#     4  12  19  36  59  91 118 148 195 241 298 343
#     4  11  23  37  58  87 126 152 187 236 294 370
#     4  11  23  39  58  85 119 162 192 232 294 347
#     4  11  23  42  60  84 115 154 203 246 285 334
#
# _framework density 18.93899
#
# number of rings (size 3 to 8) (size 9 to 14) (size 15 to 20)
#    0.000    0.857    7.143    2.143    0.000    0.000 
#    0.000    0.714    0.000    0.857    0.000    0.000 
#    0.000    0.000    0.000    0.000    0.000    0.000 
#
# Total GULP energy -78072.482527 kJ/mol
# GULP energy per Si atom -5576.605895 kJ/mol
# Density = 1.889588 g / cm^3
# Si number density = 18.938990 Si / 1000 Ang^3
#
#
#
# Elastic Constant Matrix: (Units=GPa)
#
#
# Indices 1 2 3 4 5 6 
#
# 1 74.4155 35.4553 16.8385 14.3983 -18.0616 -13.1015
# 2 35.4553 92.4566 17.3281 24.0809 -7.2937 -10.6790
# 3 16.8385 17.3281 44.2093 22.5541 -11.1284 -8.7834
# 4 14.3983 24.0809 22.5541 34.6853 -7.1866 -6.1022
# 5 -18.0616 -7.2937 -11.1284 -7.1866 27.0457 6.5356
# 6 -13.1015 -10.6790 -8.7834 -6.1022 6.5356 46.9268
#
#
#
# Elastic Compliance Matrix: (Units=1/GPa)
#
#
# Indices 1 2 3 4 5 6 
#
# 1 0.019664 -0.006062 -0.002059 -0.000125 0.010059 0.002308
# 2 -0.006062 0.015252 0.000333 -0.008588 -0.002334 0.001049
# 3 -0.002059 0.000333 0.036400 -0.021048 0.007486 0.002534
# 4 -0.000125 -0.008588 -0.021048 0.048957 0.001907 0.000172
# 5 0.010059 -0.002334 0.007486 0.001907 0.047293 -0.002660
# 6 0.002308 0.001049 0.002534 0.000172 -0.002660 0.023060
#
#
# Mechanical properties :
#
#
# Convention : Reuss Voigt Hill
#
# Bulk Modulus (GPa) = 17.94071 38.92502 28.43287
# Shear Modulus (GPa) = 22.24372 31.16219 26.70295
#
# Velocity S-wave (km/s) = 3.43081 4.06075 3.75900
# Velocity P-wave (km/s) = 5.01870 6.52562 5.82113
#
# Compressibility (1/GPa) = 0.05573916
#
# Stress axis : x y z
#
# Youngs Moduli (GPa) = 50.85334 65.56458 27.47283
#
# Poissons Ratio (x) = 0.39748 0.05658
# Poissons Ratio (y) = 0.30829 -0.00915
# Poissons Ratio (z) = 0.10473 -0.02185
#
# Static dielectric constant tensor:
#      x y z
#    x 1.705730 -0.032450 -0.087510 
#    y -0.032450 1.720920 0.054400 
#    z -0.087510 0.054400 1.747800 
# 
# From -- ./inp_files/65800.got.cif
#   From: 2010.05.17/outbox.cif.g08.bks.cpg/sg2_33_cif.got.tgz:65800.got - 2010.06.03 11:33:40.
