data_PCOD9053429
_publ_section_title
;
Structure prediction by ZEFSAII (Michael W. Deem and Ramdas Pophale) SiO2 
 PCOD9053429
Probable space group: P -1
;
_chemical_formula_sum "Si O2"
_cell_formula_units_Z 16
_cell_length_a 17.736797
_cell_length_b 9.157907
_cell_length_c 12.660351
_cell_angle_alpha 130.539045
_cell_angle_beta 141.455746
_cell_angle_gamma 78.193547
_cell_volume 747.096302
_symmetry_space_group_name_H-M "P -1"
_symmetry_group_IT_number 2
_symmetry_cell_setting 'triclinic'
loop_
_space_group_symop_operation_xyz
x,y,z
-x,-y,-z
loop_
_atom_site_type_symbol
_atom_site_label
_atom_site_fract_x
_atom_site_fract_y
_atom_site_fract_z
Si Si1 0.465159 0.423072 0.758607
Si Si2 0.545545 0.158846 0.018934
Si Si3 0.933729 0.428318 0.012296
Si Si4 0.435957 0.954454 0.579139
Si Si5 0.096200 0.625764 0.498112
Si Si6 0.898984 0.948419 0.763882
Si Si7 0.428686 0.313947 0.433659
Si Si8 0.918127 0.129542 0.202324
O O1 0.521179 0.688475 0.987827
O O2 0.492297 0.462990 0.682316
O O3 0.493783 0.228673 0.735107
O O4 0.281902 0.259689 0.506706
O O5 0.735892 0.316726 0.291523
O O6 0.500000 0.000000 0.000000
O O7 0.463921 0.975787 0.744577
O O8 0.038587 0.618681 0.313303
O O9 0.747474 0.284425 0.754489
O O10 0.935357 0.205070 0.920965
O O11 0.000000 0.500000 0.000000
O O12 0.536632 0.879055 0.611380
O O13 0.104662 0.811753 0.677336
O O14 0.966282 0.353909 0.282850
O O15 0.945412 0.885076 0.678217
O O16 0.000000 0.000000 0.000000
O O17 0.500000 0.500000 0.500000
O O18 0.240786 0.133643 0.133749
#
# Coordination Sequence:
#
# PCOD9053429 Si02
#       8
#     2   2   2   2   2   2   2   2
#     4  11  23  40  65  95 134 177 222 278 336 405
#     4  12  23  42  68 102 135 173 230 282 332 401
#     4  11  24  42  66  98 135 175 215 281 345 393
#     4  11  25  44  62  98 139 176 220 277 353 397
#     4  11  23  42  69  99 132 180 229 274 329 409
#     4  11  19  39  68  94 121 175 236 264 315 406
#     4  12  25  42  68 101 135 180 227 281 340 407
#     4  11  22  41  69  96 130 172 239 270 322 398
#
# _framework density 21.416248
#
# number of rings (size 3 to 8) (size 9 to 14) (size 15 to 20)
#    0.000    0.750    5.000    3.000    1.750    0.000 
#    0.000    0.625    0.000    0.000    0.000    0.000 
#    0.000    0.000    0.000    0.000    0.000    0.000 
#
# Total GULP energy -89175.524923 kJ/mol
# GULP energy per Si atom -5573.470308 kJ/mol
# Density = 2.136750 g / cm^3
# Si number density = 21.416248 Si / 1000 Ang^3
#
#
#
# Elastic Constant Matrix: (Units=GPa)
#
#
# Indices 1 2 3 4 5 6 
#
# 1 100.3547 7.0633 1.7333 -6.3958 -16.8445 1.9678
# 2 7.0633 -165.3051 -13.1809 -7.0890 59.6970 -42.5384
# 3 1.7333 -13.1809 32.1001 -8.6686 -8.5212 1.4227
# 4 -6.3958 -7.0890 -8.6686 22.7218 5.8001 -5.5571
# 5 -16.8445 59.6970 -8.5212 5.8001 31.5322 13.7161
# 6 1.9678 -42.5384 1.4227 -5.5571 13.7161 21.8721
#
#
#
# Elastic Compliance Matrix: (Units=1/GPa)
#
#
# Indices 1 2 3 4 5 6 
#
# 1 0.010566 0.001226 0.001611 0.003249 0.003057 0.000238
# 2 0.001226 -0.001214 0.000765 -0.003559 0.007293 -0.007998
# 3 0.001611 0.000765 0.037048 0.011663 0.008876 -0.003671
# 4 0.003249 -0.003559 0.011663 0.048980 0.000924 0.003892
# 5 0.003057 0.007293 0.008876 0.000924 0.021819 -0.000117
# 6 0.000238 -0.007998 -0.003671 0.003892 -0.000117 0.031445
#
#
# Mechanical properties :
#
#
# Convention : Reuss Voigt Hill
#
# Bulk Modulus (GPa) = 18.65484 -4.62432 7.01526
# Shear Modulus (GPa) = 31.38571 13.32749 22.35660
#
# Velocity S-wave (km/s) = 3.83235 2.49732 3.23446
# Velocity P-wave (km/s) = 5.32091 2.48022 4.15112
#
# Compressibility (1/GPa) = 0.05360538
#
# Stress axis : x y z
#
# Youngs Moduli (GPa) = 94.64285 -824.04485 26.99202
#
# Poissons Ratio (x) = 1.01052 -0.04350
# Poissons Ratio (y) = -0.11606 -0.02064
# Poissons Ratio (z) = -0.15251 0.63016
#
# Static dielectric constant tensor:
#      x y z
#    x 1.800660 -0.032240 -0.030520 
#    y -0.032240 1.780440 -0.045450 
#    z -0.030520 -0.045450 1.906220 
# 
# From -- ./inp_files/462477.got.cif
#   From: 2010.05.17/outbox.cif.g08.bks.cpg/sg2_232_cif.got.tgz:462477.got - 2010.06.03 11:33:40.
