data_PCOD9053334
_publ_section_title
;
Structure prediction by ZEFSAII (Michael W. Deem and Ramdas Pophale) SiO2 
 PCOD9053334
Probable space group: P -1
;
_chemical_formula_sum "Si O2"
_cell_formula_units_Z 16
_cell_length_a 6.533494
_cell_length_b 9.958893
_cell_length_c 25.143887
_cell_angle_alpha 42.929347
_cell_angle_beta 50.601718
_cell_angle_gamma 40.841377
_cell_volume 716.621528
_symmetry_space_group_name_H-M "P -1"
_symmetry_group_IT_number 2
_symmetry_cell_setting 'triclinic'
loop_
_space_group_symop_operation_xyz
x,y,z
-x,-y,-z
loop_
_atom_site_type_symbol
_atom_site_label
_atom_site_fract_x
_atom_site_fract_y
_atom_site_fract_z
Si Si1 0.243873 0.223234 0.028413
Si Si2 0.393489 0.667384 0.132052
Si Si3 0.315282 0.027099 0.876092
Si Si4 0.313694 0.827117 0.832122
Si Si5 0.282905 0.901847 0.614328
Si Si6 0.487166 0.408126 0.742076
Si Si7 0.185942 0.171406 0.659640
Si Si8 0.973308 0.630561 0.522248
O O1 0.032199 0.120241 0.108680
O O2 0.530045 0.112133 0.055323
O O3 0.382756 0.234844 0.945137
O O4 0.000000 0.500000 0.000000
O O5 0.523548 0.420514 0.152408
O O6 0.404063 0.614331 0.207977
O O7 0.057346 0.844028 0.108465
O O8 0.365706 0.239517 0.801964
O O9 0.473091 0.839876 0.855929
O O10 0.295171 0.017770 0.739528
O O11 0.236529 0.687344 0.691714
O O12 0.619874 0.768190 0.566326
O O13 0.323050 0.998587 0.636113
O O14 0.012452 0.141814 0.559246
O O15 0.803341 0.297072 0.686470
O O16 0.209771 0.400349 0.586043
O O17 0.000000 0.500000 0.500000
#
# Coordination Sequence:
#
# PCOD9053334 Si02
#       8
#     2   2   2   2   2   2   2   2
#     4  10  24  43  64  85 122 162 209 264 318 365
#     4  11  24  40  63  89 119 165 210 260 317 369
#     4  12  24  40  61  92 120 162 212 258 313 370
#     4  11  23  41  61  89 124 164 207 261 312 367
#     4   9  17  32  59  91 125 160 201 246 300 364
#     4  11  22  37  61  89 125 164 205 255 310 363
#     4  10  17  35  60  85 125 162 204 250 302 362
#     4   8  16  29  56  98 121 154 204 246 295 362
#
# _framework density 22.326986999999999
#
# number of rings (size 3 to 8) (size 9 to 14) (size 15 to 20)
#    0.000    1.750    3.750    0.375    0.000    8.000 
#    0.000    0.000    0.000    0.750    0.000   13.125 
#    0.000    0.000    0.000    0.000    0.000    0.000 
#
# Total GULP energy -89171.639547 kJ/mol
# GULP energy per Si atom -5573.227472 kJ/mol
# Density = 2.227617 g / cm^3
# Si number density = 22.326987 Si / 1000 Ang^3
#
#
#
# Elastic Constant Matrix: (Units=GPa)
#
#
# Indices 1 2 3 4 5 6 
#
# 1 54.2108 32.9140 21.6173 1.1102 7.6617 8.6091
# 2 32.9140 131.5174 49.4975 -2.9211 2.0109 19.1642
# 3 21.6173 49.4975 119.8223 -19.8073 17.5726 5.6241
# 4 1.1102 -2.9211 -19.8073 56.2346 4.8664 1.3205
# 5 7.6617 2.0109 17.5726 4.8664 11.6391 -1.4400
# 6 8.6091 19.1642 5.6241 1.3205 -1.4400 29.9803
#
#
#
# Elastic Compliance Matrix: (Units=1/GPa)
#
#
# Indices 1 2 3 4 5 6 
#
# 1 0.024657 -0.005509 0.000802 0.001135 -0.017535 -0.004602
# 2 -0.005509 0.011381 -0.005289 -0.001926 0.009939 -0.004139
# 3 0.000802 -0.005289 0.015568 0.007512 -0.026429 -0.001370
# 4 0.001135 -0.001926 0.007512 0.022213 -0.021354 -0.002508
# 5 -0.017535 0.009939 -0.026429 -0.021354 0.146008 0.011593
# 6 -0.004602 -0.004139 -0.001370 -0.002508 0.011593 0.038247
#
#
# Mechanical properties :
#
#
# Convention : Reuss Voigt Hill
#
# Bulk Modulus (GPa) = 31.63080 57.06757 44.34919
# Shear Modulus (GPa) = 17.32482 33.00560 25.16521
#
# Velocity S-wave (km/s) = 2.78863 3.84902 3.36090
# Velocity P-wave (km/s) = 4.95645 6.73562 5.91333
#
# Compressibility (1/GPa) = 0.03161475
#
# Stress axis : x y z
#
# Youngs Moduli (GPa) = 40.55639 87.86373 64.23437
#
# Poissons Ratio (x) = 0.48403 -0.05155
# Poissons Ratio (y) = 0.22342 0.33976
# Poissons Ratio (z) = -0.03255 0.46474
#
# Static dielectric constant tensor:
#      x y z
#    x 1.781940 0.003300 -0.038680 
#    y 0.003300 1.888510 -0.014960 
#    z -0.038680 -0.014960 1.922990 
# 
# From -- ./inp_files/603967.got.cif
#   From: 2010.05.17/outbox.cif.g08.bks.cpg/sg2_302_cif.got.tgz:603967.got - 2010.06.03 11:33:40.
