data_PCOD9053396
_publ_section_title
;
Structure prediction by ZEFSAII (Michael W. Deem and Ramdas Pophale) SiO2 
 PCOD9053396
Probable space group: P -1
;
_chemical_formula_sum "Si O2"
_cell_formula_units_Z 16
_cell_length_a 10.262626
_cell_length_b 8.480358
_cell_length_c 16.659568
_cell_angle_alpha 87.363999
_cell_angle_beta 123.370928
_cell_angle_gamma 45.607577
_cell_volume 598.739458
_symmetry_space_group_name_H-M "P -1"
_symmetry_group_IT_number 2
_symmetry_cell_setting 'triclinic'
loop_
_space_group_symop_operation_xyz
x,y,z
-x,-y,-z
loop_
_atom_site_type_symbol
_atom_site_label
_atom_site_fract_x
_atom_site_fract_y
_atom_site_fract_z
Si Si1 0.668895 0.358938 0.843199
Si Si2 0.519049 0.923059 0.179189
Si Si3 0.031285 0.276460 0.865164
Si Si4 0.529672 0.215818 0.554836
Si Si5 0.843520 0.778005 0.538462
Si Si6 0.385790 0.819998 0.857000
Si Si7 0.933536 0.715719 0.827129
Si Si8 0.816316 0.317553 0.453659
O O1 0.421668 0.631752 0.820899
O O2 0.483300 0.417349 0.714570
O O3 0.766569 0.429537 0.825913
O O4 0.000000 0.000000 0.000000
O O5 0.829637 0.545358 0.298541
O O6 0.622665 0.013336 0.202698
O O7 0.291921 0.103621 0.175204
O O8 0.322178 0.048847 0.030359
O O9 0.947376 0.525272 0.800835
O O10 0.124553 0.076456 0.830245
O O11 0.349711 0.212232 0.519571
O O12 0.311324 0.549277 0.502872
O O13 0.645550 0.089977 0.507417
O O14 0.825110 0.938112 0.720494
O O15 0.953070 0.740919 0.490050
O O16 0.724448 0.536218 0.021293
O O17 0.000000 0.000000 0.500000
#
# Coordination Sequence:
#
# PCOD9053396 Si02
#       8
#     2   2   2   2   2   2   2   2
#     4  12  26  43  64  93 132 187 225 263 331 413
#     4  11  19  38  68  98 131 164 218 291 337 384
#     4  11  22  38  64  97 131 169 219 279 339 393
#     4  11  25  45  72  98 127 174 232 281 330 398
#     4  11  25  45  72  98 127 174 232 281 330 398
#     4  11  22  38  64  97 131 169 219 279 339 393
#     4  11  19  38  68  98 131 164 218 291 337 384
#     4  12  29  46  68  99 145 183 219 276 343 403
#
# _framework density 26.722808000000001
#
# number of rings (size 3 to 8) (size 9 to 14) (size 15 to 20)
#    0.000    0.750    3.750    5.625    3.500    2.000 
#    0.000    0.000    0.000    0.000    0.000    0.000 
#    0.000    0.000    0.000    0.000    0.000    0.000 
#
# Total GULP energy -89714.514291 kJ/mol
# GULP energy per Si atom -5607.157143 kJ/mol
# Density = 2.666199 g / cm^3
# Si number density = 26.722808 Si / 1000 Ang^3
#
#
#
# Elastic Constant Matrix: (Units=GPa)
#
#
# Indices 1 2 3 4 5 6 
#
# 1 42.4828 -1.0732 -0.9930 -0.8095 4.5156 -7.3477
# 2 -1.0732 206.9639 11.6260 -6.3290 -5.6431 -30.8704
# 3 -0.9930 11.6260 84.3148 -0.9048 1.3878 -6.2879
# 4 -0.8095 -6.3290 -0.9048 32.5113 -1.8836 -3.9303
# 5 4.5156 -5.6431 1.3878 -1.8836 19.9724 4.9783
# 6 -7.3477 -30.8704 -6.2879 -3.9303 4.9783 44.8351
#
#
#
# Elastic Compliance Matrix: (Units=1/GPa)
#
#
# Indices 1 2 3 4 5 6 
#
# 1 0.025301 0.000778 0.000736 0.001087 -0.006855 0.005641
# 2 0.000778 0.005512 -0.000450 0.001589 0.000582 0.003934
# 3 0.000736 -0.000450 0.012088 0.000385 -0.001523 0.001709
# 4 0.001087 0.001589 0.000385 0.031700 0.002204 0.003861
# 5 -0.006855 0.000582 -0.001523 0.002204 0.053771 -0.006714
# 6 0.005641 0.003934 0.001709 0.003861 -0.006714 0.027261
#
#
# Mechanical properties :
#
#
# Convention : Reuss Voigt Hill
#
# Bulk Modulus (GPa) = 22.20834 39.20900 30.70867
# Shear Modulus (GPa) = 29.67093 41.07720 35.37406
#
# Velocity S-wave (km/s) = 3.33576 3.92492 3.64227
# Velocity P-wave (km/s) = 4.81301 5.93669 5.40414
#
# Compressibility (1/GPa) = 0.04502814
#
# Stress axis : x y z
#
# Youngs Moduli (GPa) = 39.52428 181.40895 82.72877
#
# Poissons Ratio (x) = -0.14107 -0.06089
# Poissons Ratio (y) = -0.03074 0.03723
# Poissons Ratio (z) = -0.02909 0.08164
#
# Static dielectric constant tensor:
#      x y z
#    x 2.036100 0.033430 0.007370 
#    y 0.033430 2.100770 -0.004910 
#    z 0.007370 -0.004910 2.107860 
# 
# From -- ./inp_files/256017.got.cif
#   From: 2010.05.17/outbox.cif.g08.bks.cpg/sg2_129_cif.got.tgz:256017.got - 2010.06.03 11:33:40.
