data_PCOD9053837
_publ_section_title
;
Structure prediction by ZEFSAII (Michael W. Deem and Ramdas Pophale) SiO2 
 PCOD9053837
Probable space group: P -1
;
_chemical_formula_sum "Si O2"
_cell_formula_units_Z 15
_cell_length_a 11.423950
_cell_length_b 15.078312
_cell_length_c 11.753873
_cell_angle_alpha 152.113678
_cell_angle_beta 126.664114
_cell_angle_gamma 50.031156
_cell_volume 723.313580
_symmetry_space_group_name_H-M "P -1"
_symmetry_group_IT_number 2
_symmetry_cell_setting 'triclinic'
loop_
_space_group_symop_operation_xyz
x,y,z
-x,-y,-z
loop_
_atom_site_type_symbol
_atom_site_label
_atom_site_fract_x
_atom_site_fract_y
_atom_site_fract_z
Si Si1 0.962041 0.524311 0.741615
Si Si2 0.324921 0.129506 0.779177
Si Si3 0.500000 0.000000 0.500000
Si Si4 0.296200 0.532011 0.322155
Si Si5 0.903273 0.887111 0.969672
Si Si6 0.986282 0.229544 0.731129
Si Si7 0.369973 0.904110 0.781175
Si Si8 0.838026 0.917092 0.700466
O O1 0.083676 0.311985 0.550079
O O2 0.800594 0.495653 0.655191
O O3 0.941751 0.658810 0.770470
O O4 0.009631 0.650954 0.014120
O O5 0.424359 0.035098 0.623696
O O6 0.144244 0.220931 0.749495
O O7 0.334955 0.973023 0.708870
O O8 0.371777 0.315450 0.067614
O O9 0.332045 0.005474 0.356416
O O10 0.161020 0.657666 0.300241
O O11 0.406674 0.668198 0.550498
O O12 0.841919 0.925956 0.850037
O O13 0.777215 0.004210 0.120431
O O14 0.053090 0.959626 0.144224
O O15 0.000000 0.000000 0.500000
O O16 0.500000 0.000000 0.000000
#
# Coordination Sequence:
#
# PCOD9053837 Si02
#       8
#     2   2   1   2   2   2   2   2
#     4  11  21  40  71 103 130 176 235 278 332 411
#     4  11  24  42  65  96 135 169 216 276 337 404
#     4  12  26  46  66 100 140 182 222 282 352 396
#     4  11  21  40  66 103 128 168 223 281 332 395
#     4  11  23  45  69 102 135 186 227 275 344 404
#     4  11  20  37  71  99 127 167 223 277 336 398
#     4  12  24  42  69  99 135 174 223 278 339 400
#     4  11  25  44  70  97 145 181 227 280 337 414
#
# _framework density 20.737893
#
# number of rings (size 3 to 8) (size 9 to 14) (size 15 to 20)
#    0.000    0.800    5.333    4.400    1.867    0.533 
#    0.000    4.000    0.000    0.000    0.000    0.000 
#    0.000    0.000    0.000    0.000    0.000    0.000 
#
# Total GULP energy -83653.629218 kJ/mol
# GULP energy per Si atom -5576.908615 kJ/mol
# Density = 2.069069 g / cm^3
# Si number density = 20.737893 Si / 1000 Ang^3
#
#
#
# Elastic Constant Matrix: (Units=GPa)
#
#
# Indices 1 2 3 4 5 6 
#
# 1 159.7658 57.2870 62.7884 -24.7415 -3.0718 20.7139
# 2 57.2870 74.9621 33.6507 -6.6847 20.5169 11.8965
# 3 62.7884 33.6507 110.9940 4.0334 25.2271 15.1395
# 4 -24.7415 -6.6847 4.0334 32.0491 2.7220 16.2032
# 5 -3.0718 20.5169 25.2271 2.7220 43.9266 -3.8994
# 6 20.7139 11.8965 15.1395 16.2032 -3.8994 26.0447
#
#
#
# Elastic Compliance Matrix: (Units=1/GPa)
#
#
# Indices 1 2 3 4 5 6 
#
# 1 0.017893 -0.006343 -0.007361 0.023575 0.005120 -0.020955
# 2 -0.006343 0.024706 0.001003 0.008588 -0.014362 -0.014316
# 3 -0.007361 0.001003 0.015451 -0.005926 -0.009608 -0.001337
# 4 0.023575 0.008588 -0.005926 0.092691 -0.011684 -0.078643
# 5 0.005120 -0.014362 -0.009608 -0.011684 0.037940 0.021023
# 6 -0.020955 -0.014316 -0.001337 -0.078643 0.021023 0.114451
#
#
# Mechanical properties :
#
#
# Convention : Reuss Voigt Hill
#
# Bulk Modulus (GPa) = 30.63039 72.57492 51.60265
# Shear Modulus (GPa) = 14.73118 33.20381 23.96749
#
# Velocity S-wave (km/s) = 2.66813 4.00574 3.40330
# Velocity P-wave (km/s) = 4.92892 7.51444 6.35457
#
# Compressibility (1/GPa) = 0.03264732
#
# Stress axis : x y z
#
# Youngs Moduli (GPa) = 55.88924 40.47611 64.72096
#
# Poissons Ratio (x) = 0.25674 0.47640
# Poissons Ratio (y) = 0.35450 -0.06490
# Poissons Ratio (z) = 0.41139 -0.04059
#
# Static dielectric constant tensor:
#      x y z
#    x 1.706130 -0.002450 0.011860 
#    y -0.002450 1.789470 -0.019870 
#    z 0.011860 -0.019870 1.791930 
# 
# From -- ./inp_files/398002.got.cif
#   From: 2010.05.17/outbox.cif.g08.bks.cpg/sg2_200_cif.got.tgz:398002.got - 2010.06.03 11:33:40.
