data_PCOD9053926
_publ_section_title
;
Structure prediction by ZEFSAII (Michael W. Deem and Ramdas Pophale) SiO2 
 PCOD9053926
Probable space group: P -1
;
_chemical_formula_sum "Si O2"
_cell_formula_units_Z 14
_cell_length_a 10.830744
_cell_length_b 11.411561
_cell_length_c 14.197534
_cell_angle_alpha 119.461888
_cell_angle_beta 151.333327
_cell_angle_gamma 46.138419
_cell_volume 571.697485
_symmetry_space_group_name_H-M "P -1"
_symmetry_group_IT_number 2
_symmetry_cell_setting 'triclinic'
loop_
_space_group_symop_operation_xyz
x,y,z
-x,-y,-z
loop_
_atom_site_type_symbol
_atom_site_label
_atom_site_fract_x
_atom_site_fract_y
_atom_site_fract_z
Si Si1 0.779403 0.983080 0.738704
Si Si2 0.537941 0.379865 0.896681
Si Si3 0.688807 0.820812 0.325545
Si Si4 0.048786 0.989138 0.416839
Si Si5 0.223525 0.554894 0.097414
Si Si6 0.614032 0.601740 0.663625
Si Si7 0.185114 0.071597 0.937477
O O1 0.500000 0.000000 0.500000
O O2 0.603509 0.083236 0.755876
O O3 0.915718 0.060207 0.799117
O O4 0.094976 0.794231 0.904008
O O5 0.256967 0.356491 0.713401
O O6 0.561121 0.433675 0.828692
O O7 0.500000 0.500000 0.000000
O O8 0.933205 0.858750 0.537250
O O9 0.524986 0.927811 0.161613
O O10 0.395224 0.797181 0.558171
O O11 0.806876 0.981834 0.186018
O O12 0.000000 0.000000 0.500000
O O13 0.428062 0.412062 0.258312
O O14 0.965820 0.734897 0.055689
O O15 0.992647 0.523891 0.875545
O O16 0.500000 0.500000 0.500000
#
# Coordination Sequence:
#
# PCOD9053926 Si02
#       7
#     2   2   2   2   2   2   2
#     4  11  20  38  73  98 124 172 225 262 319 408
#     4  11  24  42  67 102 135 166 212 283 342 375
#     4  11  22  44  67  95 130 176 221 261 328 408
#     4  12  26  41  63 101 132 168 219 272 327 383
#     4  11  22  42  68  93 126 174 220 259 320 395
#     4  11  24  41  67  93 127 175 223 260 313 389
#     4  11  20  39  70  93 123 173 222 265 316 395
#
# _framework density 24.488477
#
# number of rings (size 3 to 8) (size 9 to 14) (size 15 to 20)
#    0.000    0.857    7.143    0.857    0.000    4.000 
#    0.000    0.714    0.000    0.000    0.000    0.000 
#    0.000    0.000    0.000    0.000    0.000    0.000 
#
# Total GULP energy -78280.446332 kJ/mol
# GULP energy per Si atom -5591.460452 kJ/mol
# Density = 2.443274 g / cm^3
# Si number density = 24.488477 Si / 1000 Ang^3
#
#
#
# Elastic Constant Matrix: (Units=GPa)
#
#
# Indices 1 2 3 4 5 6 
#
# 1 97.3375 16.4208 21.1125 20.8281 -9.8648 17.1013
# 2 16.4208 70.5321 21.5547 33.0978 7.1965 13.2641
# 3 21.1125 21.5547 137.6552 31.9757 -5.3099 8.5249
# 4 20.8281 33.0978 31.9757 44.5112 10.0763 -6.0785
# 5 -9.8648 7.1965 -5.3099 10.0763 44.3337 12.3076
# 6 17.1013 13.2641 8.5249 -6.0785 12.3076 39.4434
#
#
#
# Elastic Compliance Matrix: (Units=1/GPa)
#
#
# Indices 1 2 3 4 5 6 
#
# 1 0.017046 0.006384 0.002438 -0.019535 0.012173 -0.016873
# 2 0.006384 0.030690 0.004004 -0.034270 0.011000 -0.022667
# 3 0.002438 0.004004 0.010442 -0.014424 0.006933 -0.009046
# 4 -0.019535 -0.034270 -0.014424 0.080772 -0.031467 0.045378
# 5 0.012173 0.011000 0.006933 -0.031467 0.039103 -0.027526
# 6 -0.016873 -0.022667 -0.009046 0.045378 -0.027526 0.057828
#
#
# Mechanical properties :
#
#
# Convention : Reuss Voigt Hill
#
# Bulk Modulus (GPa) = 11.92884 47.07786 29.50335
# Shear Modulus (GPa) = 20.99332 42.08679 31.54006
#
# Velocity S-wave (km/s) = 2.93110 4.15014 3.59270
# Velocity P-wave (km/s) = 4.04189 6.49855 5.41147
#
# Compressibility (1/GPa) = 0.08383047
#
# Stress axis : x y z
#
# Youngs Moduli (GPa) = 58.66532 32.58416 95.76826
#
# Poissons Ratio (x) = -0.20803 -0.23350
# Poissons Ratio (y) = -0.37455 -0.38344
# Poissons Ratio (z) = -0.14304 -0.13046
#
# Static dielectric constant tensor:
#      x y z
#    x 1.955330 0.006200 0.001760 
#    y 0.006200 2.018500 0.048840 
#    z 0.001760 0.048840 1.985250 
# 
# From -- ./inp_files/270721.got.cif
#   From: 2010.05.17/outbox.cif.g08.bks.cpg/sg2_136_cif.got.tgz:270721.got - 2010.06.03 11:33:40.
