data_PCOD9053007
_publ_section_title
;
Structure prediction by ZEFSAII (Michael W. Deem and Ramdas Pophale) SiO2 
 PCOD9053007
Probable space group: P -1
;
_chemical_formula_sum "Si O2"
_cell_formula_units_Z 16
_cell_length_a 10.206690
_cell_length_b 15.605482
_cell_length_c 10.340444
_cell_angle_alpha 106.475426
_cell_angle_beta 53.714011
_cell_angle_gamma 62.868140
_cell_volume 751.639814
_symmetry_space_group_name_H-M "P -1"
_symmetry_group_IT_number 2
_symmetry_cell_setting 'triclinic'
loop_
_space_group_symop_operation_xyz
x,y,z
-x,-y,-z
loop_
_atom_site_type_symbol
_atom_site_label
_atom_site_fract_x
_atom_site_fract_y
_atom_site_fract_z
Si Si1 0.965766 0.319643 0.185138
Si Si2 0.214607 0.329144 0.842500
Si Si3 0.768764 0.984210 0.071032
Si Si4 0.157648 0.940773 0.673410
Si Si5 0.431710 0.436446 0.941026
Si Si6 0.154699 0.253708 0.589223
Si Si7 0.129820 0.806746 0.244398
Si Si8 0.548072 0.452368 0.257388
O O1 0.752611 0.378342 0.225215
O O2 0.758588 0.435190 0.470884
O O3 0.131680 0.326902 0.028181
O O4 0.165858 0.149436 0.028143
O O5 0.525281 0.224934 0.605397
O O6 0.195346 0.256620 0.719184
O O7 0.000000 0.500000 0.000000
O O8 0.838231 0.991658 0.177478
O O9 0.444621 0.145302 0.307574
O O10 0.963687 0.947689 0.839860
O O11 0.038611 0.039898 0.657346
O O12 0.657094 0.270218 0.796401
O O13 0.459248 0.453902 0.783753
O O14 0.500000 0.500000 0.000000
O O15 0.108549 0.568159 0.217221
O O16 0.067127 0.189104 0.598898
O O17 0.319670 0.682937 0.965178
#
# Coordination Sequence:
#
# PCOD9053007 Si02
#       8
#     2   2   2   2   2   2   2   2
#     4  11  19  31  52  76 108 139 162 215 265 316
#     4  11  22  32  51  78 110 137 169 217 265 315
#     4  10  20  32  51  76 112 135 168 221 264 307
#     4  10  21  32  49  80 105 137 176 216 260 307
#     4   8  16  32  55  80  99 137 178 218 243 307
#     4   9  17  34  53  76 104 139 176 210 260 309
#     4  10  17  35  59  76 106 136 181 212 251 310
#     4   9  18  28  53  79 101 133 175 203 261 305
#
# _framework density 21.286791999999998
#
# number of rings (size 3 to 8) (size 9 to 14) (size 15 to 20)
#    0.000    2.500    3.750    0.750    3.500    3.000 
#    0.000    0.625    0.000   16.500    0.000    0.000 
#    0.000    0.000    0.000    0.000    0.000    0.000 
#
# Total GULP energy -89283.893134 kJ/mol
# GULP energy per Si atom -5580.243321 kJ/mol
# Density = 2.123834 g / cm^3
# Si number density = 21.286792 Si / 1000 Ang^3
#
#
#
# Elastic Constant Matrix: (Units=GPa)
#
#
# Indices 1 2 3 4 5 6 
#
# 1 34.1893 5.9790 11.0138 7.4696 -12.1105 -2.2938
# 2 5.9790 121.4343 61.7753 20.6448 -25.8195 -0.6510
# 3 11.0138 61.7753 186.0159 4.0887 -37.2720 5.5522
# 4 7.4696 20.6448 4.0887 22.8472 0.0061 -9.9936
# 5 -12.1105 -25.8195 -37.2720 0.0061 25.4043 7.7726
# 6 -2.2938 -0.6510 5.5522 -9.9936 7.7726 27.2528
#
#
#
# Elastic Compliance Matrix: (Units=1/GPa)
#
#
# Indices 1 2 3 4 5 6 
#
# 1 0.051549 0.013202 0.005006 -0.041429 0.053555 -0.026832
# 2 0.013202 0.019167 0.000545 -0.029936 0.032312 -0.018735
# 3 0.005006 0.000545 0.009335 -0.008228 0.019731 -0.010112
# 4 -0.041429 -0.029936 -0.008228 0.113021 -0.081272 0.062098
# 5 0.053555 0.032312 0.019731 -0.081272 0.148382 -0.070862
# 6 -0.026832 -0.018735 -0.010112 0.062098 -0.070862 0.079029
#
#
# Mechanical properties :
#
#
# Convention : Reuss Voigt Hill
#
# Bulk Modulus (GPa) = 8.50666 55.46394 31.98530
# Shear Modulus (GPa) = 11.84377 32.62564 22.23470
#
# Velocity S-wave (km/s) = 2.36135 3.91918 3.23543
# Velocity P-wave (km/s) = 3.38224 6.82584 5.38663
#
# Compressibility (1/GPa) = 0.11755501
#
# Stress axis : x y z
#
# Youngs Moduli (GPa) = 19.39906 52.17296 107.12536
#
# Poissons Ratio (x) = -0.68877 -0.53626
# Poissons Ratio (y) = -0.25610 -0.05834
# Poissons Ratio (z) = -0.09711 -0.02841
#
# Static dielectric constant tensor:
#      x y z
#    x 1.833130 -0.008060 0.008290 
#    y -0.008060 1.791930 0.017060 
#    z 0.008290 0.017060 1.779070 
# 
# From -- ./inp_files/416824.got.cif
#   From: 2010.05.17/outbox.cif.g08.bks.cpg/sg2_209_cif.got.tgz:416824.got - 2010.06.03 11:33:40.
