data_PCOD9053260
_publ_section_title
;
Structure prediction by ZEFSAII (Michael W. Deem and Ramdas Pophale) SiO2 
 PCOD9053260
Probable space group: P -1
;
_chemical_formula_sum "Si O2"
_cell_formula_units_Z 14
_cell_length_a 6.935403
_cell_length_b 16.039675
_cell_length_c 11.594081
_cell_angle_alpha 45.510062
_cell_angle_beta 125.443099
_cell_angle_gamma 135.443367
_cell_volume 637.119945
_symmetry_space_group_name_H-M "P -1"
_symmetry_group_IT_number 2
_symmetry_cell_setting 'triclinic'
loop_
_space_group_symop_operation_xyz
x,y,z
-x,-y,-z
loop_
_atom_site_type_symbol
_atom_site_label
_atom_site_fract_x
_atom_site_fract_y
_atom_site_fract_z
Si Si1 0.786000 0.798991 0.866313
Si Si2 0.197511 0.386644 0.743724
Si Si3 0.235746 0.516102 0.217516
Si Si4 0.797208 0.586538 0.954458
Si Si5 0.364338 0.699020 0.497404
Si Si6 0.250044 0.773261 0.621250
Si Si7 0.963628 0.929780 0.430651
O O1 0.845038 0.736329 0.833066
O O2 0.466140 0.760974 0.791000
O O3 0.826008 0.718725 0.062896
O O4 0.977663 0.961038 0.756442
O O5 0.437141 0.402266 0.723569
O O6 0.302720 0.546809 0.656480
O O7 0.896546 0.328185 0.642147
O O8 0.226704 0.474880 0.119755
O O9 0.042811 0.370601 0.351308
O O10 0.060230 0.589032 0.100068
O O11 0.500000 0.500000 0.000000
O O12 0.378189 0.787415 0.526822
O O13 0.659712 0.792800 0.448233
O O14 0.188103 0.885439 0.534562
O O15 0.000000 0.000000 0.500000
#
# Coordination Sequence:
#
# PCOD9053260 Si02
#       7
#     2   2   2   2   2   2   2
#     4  12  23  40  72  99 132 175 230 279 331 402
#     4  11  24  46  68 102 138 180 223 281 337 403
#     4  11  20  35  65  96 133 168 222 277 334 389
#     4  11  19  35  59 101 134 162 217 289 326 375
#     4  11  26  48  68  96 145 178 223 279 343 405
#     4  12  23  43  70  99 134 181 227 273 339 402
#     4  12  26  46  71  99 136 182 225 282 341 397
#
# _framework density 21.973882
#
# number of rings (size 3 to 8) (size 9 to 14) (size 15 to 20)
#    0.000    0.571    5.714    3.857    0.000    1.143 
#    2.571    0.714    0.000    0.000    0.000    0.000 
#    0.000    0.000    0.000    0.000    0.000    0.000 
#
# Total GULP energy -78183.592670 kJ/mol
# GULP energy per Si atom -5584.542334 kJ/mol
# Density = 2.192387 g / cm^3
# Si number density = 21.973882 Si / 1000 Ang^3
#
#
#
# Elastic Constant Matrix: (Units=GPa)
#
#
# Indices 1 2 3 4 5 6 
#
# 1 148.4175 40.7212 58.4464 -10.1762 37.7204 14.5267
# 2 40.7212 72.1831 57.3769 -8.4583 18.3710 22.6735
# 3 58.4464 57.3769 157.2864 -13.8180 27.7799 14.3842
# 4 -10.1762 -8.4583 -13.8180 32.4359 4.1924 8.7294
# 5 37.7204 18.3710 27.7799 4.1924 44.9395 -8.5811
# 6 14.5267 22.6735 14.3842 8.7294 -8.5811 42.7717
#
#
#
# Elastic Compliance Matrix: (Units=1/GPa)
#
#
# Indices 1 2 3 4 5 6 
#
# 1 0.010829 0.000286 -0.001135 0.006156 -0.010375 -0.006786
# 2 0.000286 0.028605 -0.005475 0.011899 -0.013191 -0.018495
# 3 -0.001135 -0.005475 0.009780 0.003182 -0.003407 -0.001335
# 4 0.006156 0.011899 0.003182 0.046093 -0.020696 -0.023028
# 5 -0.010375 -0.013191 -0.003407 -0.020696 0.045153 0.024945
# 6 -0.006786 -0.018495 -0.001335 -0.023028 0.024945 0.045642
#
#
# Mechanical properties :
#
#
# Convention : Reuss Voigt Hill
#
# Bulk Modulus (GPa) = 27.34624 76.77510 52.06067
# Shear Modulus (GPa) = 23.70374 38.78559 31.24467
#
# Velocity S-wave (km/s) = 3.28796 4.20584 3.77490
# Velocity P-wave (km/s) = 5.18518 7.65510 6.53784
#
# Compressibility (1/GPa) = 0.03656810
#
# Stress axis : x y z
#
# Youngs Moduli (GPa) = 92.34260 34.95927 102.25096
#
# Poissons Ratio (x) = -0.01001 0.11600
# Poissons Ratio (y) = -0.02643 0.55978
# Poissons Ratio (z) = 0.10476 0.19139
#
# Static dielectric constant tensor:
#      x y z
#    x 1.844050 0.016280 -0.020810 
#    y 0.016280 1.865740 0.015910 
#    z -0.020810 0.015910 1.850010 
# 
# From -- ./inp_files/367548.got.cif
#   From: 2010.05.17/outbox.cif.g08.bks.cpg/sg2_184_cif.got.tgz:367548.got - 2010.06.03 11:33:40.
