data_PCOD9053509
_publ_section_title
;
Structure prediction by ZEFSAII (Michael W. Deem and Ramdas Pophale) SiO2 
 PCOD9053509
Probable space group: P -1
;
_chemical_formula_sum "Si O2"
_cell_formula_units_Z 16
_cell_length_a 8.502852
_cell_length_b 14.272428
_cell_length_c 11.130522
_cell_angle_alpha 119.373286
_cell_angle_beta 58.731088
_cell_angle_gamma 71.494377
_cell_volume 644.464266
_symmetry_space_group_name_H-M "P -1"
_symmetry_group_IT_number 2
_symmetry_cell_setting 'triclinic'
loop_
_space_group_symop_operation_xyz
x,y,z
-x,-y,-z
loop_
_atom_site_type_symbol
_atom_site_label
_atom_site_fract_x
_atom_site_fract_y
_atom_site_fract_z
Si Si1 0.884858 0.799748 0.981426
Si Si2 0.828747 0.952407 0.854693
Si Si3 0.085535 0.680309 0.422604
Si Si4 0.851726 0.222469 0.760473
Si Si5 0.630453 0.130791 0.398301
Si Si6 0.459059 0.832700 0.278369
Si Si7 0.548928 0.422526 0.246770
Si Si8 0.673161 0.684141 0.613242
O O1 0.707799 0.772672 0.062588
O O2 0.730088 0.965076 0.222574
O O3 0.872673 0.849987 0.882981
O O4 0.210820 0.641922 0.799054
O O5 0.845430 0.875984 0.678495
O O6 0.081629 0.926946 0.740899
O O7 0.537570 0.147622 0.115592
O O8 0.155277 0.667528 0.248474
O O9 0.340325 0.592272 0.359381
O O10 0.973987 0.610638 0.445031
O O11 0.657810 0.224831 0.766543
O O12 0.727934 0.288550 0.983136
O O13 0.176827 0.035209 0.519734
O O14 0.460112 0.213227 0.642407
O O15 0.455623 0.251367 0.429062
O O16 0.357083 0.421109 0.390753
#
# Coordination Sequence:
#
# PCOD9053509 Si02
#       8
#     2   2   2   2   2   2   2   2
#     4  11  22  39  66  99 125 166 208 263 318 365
#     4  11  21  42  67  93 128 157 218 268 307 364
#     4  12  27  42  63  94 131 174 205 255 321 379
#     4  11  24  43  63  94 131 165 211 262 312 371
#     4  11  19  42  66  95 125 157 213 270 310 359
#     4  11  23  39  70  98 122 163 217 267 306 367
#     4  12  25  44  63  92 136 167 206 258 320 383
#     4  11  23  42  69  94 121 169 214 263 311 369
#
# _framework density 24.826820999999999
#
# number of rings (size 3 to 8) (size 9 to 14) (size 15 to 20)
#    0.000    0.750    5.000    3.750    5.250    0.500 
#    0.000    0.625    0.000    0.000    0.000    0.000 
#    0.000    0.000    0.000    0.000    0.000    0.000 
#
# Total GULP energy -89711.958944 kJ/mol
# GULP energy per Si atom -5606.997434 kJ/mol
# Density = 2.477031 g / cm^3
# Si number density = 24.826821 Si / 1000 Ang^3
#
#
#
# Elastic Constant Matrix: (Units=GPa)
#
#
# Indices 1 2 3 4 5 6 
#
# 1 62.9188 16.8117 23.4844 -11.0925 -8.2278 0.4827
# 2 16.8117 105.4220 27.1050 -19.1250 -7.7705 -10.7964
# 3 23.4844 27.1050 44.0094 -20.4819 -0.2813 6.7300
# 4 -11.0925 -19.1250 -20.4819 37.5454 1.6826 -2.1516
# 5 -8.2278 -7.7705 -0.2813 1.6826 43.1196 -15.9713
# 6 0.4827 -10.7964 6.7300 -2.1516 -15.9713 25.1165
#
#
#
# Elastic Compliance Matrix: (Units=1/GPa)
#
#
# Indices 1 2 3 4 5 6 
#
# 1 0.021518 0.001524 -0.013817 -0.000242 0.007525 0.008708
# 2 0.001524 0.014541 -0.010799 0.002432 0.008109 0.014480
# 3 -0.013817 -0.010799 0.047736 0.015669 -0.014055 -0.024762
# 4 -0.000242 0.002432 0.015669 0.036358 -0.001226 -0.000813
# 5 0.007525 0.008109 -0.014055 -0.001226 0.037462 0.030823
# 6 0.008708 0.014480 -0.024762 -0.000813 0.030823 0.072037
#
#
# Mechanical properties :
#
#
# Convention : Reuss Voigt Hill
#
# Bulk Modulus (GPa) = 26.58931 38.57250 32.58090
# Shear Modulus (GPa) = 17.33858 30.81958 24.07908
#
# Velocity S-wave (km/s) = 2.64556 3.52715 3.11767
# Velocity P-wave (km/s) = 4.47941 5.67081 5.10995
#
# Compressibility (1/GPa) = 0.03760910
#
# Stress axis : x y z
#
# Youngs Moduli (GPa) = 46.47205 68.77029 20.94860
#
# Poissons Ratio (x) = -0.10478 0.28946
# Poissons Ratio (y) = -0.07080 0.22623
# Poissons Ratio (z) = 0.64213 0.74267
#
# Static dielectric constant tensor:
#      x y z
#    x 1.928450 0.004150 0.003580 
#    y 0.004150 1.939100 0.027200 
#    z 0.003580 0.027200 1.978400 
# 
# From -- ./inp_files/184332.got.cif
#   From: 2010.05.17/outbox.cif.g08.bks.cpg/sg2_93_cif.got.tgz:184332.got - 2010.06.03 11:33:40.
