data_PCOD9053605
_publ_section_title
;
Structure prediction by ZEFSAII (Michael W. Deem and Ramdas Pophale) SiO2 
 PCOD9053605
Probable space group: P -1
;
_chemical_formula_sum "Si O2"
_cell_formula_units_Z 16
_cell_length_a 14.696568
_cell_length_b 8.589672
_cell_length_c 13.666455
_cell_angle_alpha 132.593578
_cell_angle_beta 140.535654
_cell_angle_gamma 65.403743
_cell_volume 786.156706
_symmetry_space_group_name_H-M "P -1"
_symmetry_group_IT_number 2
_symmetry_cell_setting 'triclinic'
loop_
_space_group_symop_operation_xyz
x,y,z
-x,-y,-z
loop_
_atom_site_type_symbol
_atom_site_label
_atom_site_fract_x
_atom_site_fract_y
_atom_site_fract_z
Si Si1 0.828871 0.953440 0.733623
Si Si2 0.756887 0.536732 0.586844
Si Si3 0.089231 0.321102 0.028260
Si Si4 0.777366 0.056920 0.390969
Si Si5 0.473907 0.650695 0.451865
Si Si6 0.882342 0.776912 0.200055
Si Si7 0.295919 0.682989 0.123231
Si Si8 0.421389 0.103048 0.662879
O O1 0.761325 0.095202 0.818151
O O2 0.975279 0.118408 0.891265
O O3 0.867589 0.729747 0.705160
O O4 0.712182 0.906349 0.527966
O O5 0.740837 0.289925 0.438510
O O6 0.610185 0.622358 0.487135
O O7 0.800451 0.562344 0.747897
O O8 0.155678 0.235298 0.951127
O O9 0.000000 0.500000 0.000000
O O10 0.942049 0.126763 0.604574
O O11 0.798573 0.923987 0.255776
O O12 0.656660 0.914919 0.303343
O O13 0.500000 0.500000 0.500000
O O14 0.350171 0.638409 0.259676
O O15 0.473741 0.879073 0.598063
O O16 0.832078 0.530215 0.094415
O O17 0.433783 0.720349 0.178254
#
# Coordination Sequence:
#
# PCOD9053605 Si02
#       8
#     2   2   2   2   2   2   2   2
#     4  11  20  36  62  98 121 155 201 264 303 355
#     4  12  21  37  63  95 124 155 205 256 306 362
#     4  12  21  38  65  94 117 158 213 259 301 352
#     4  11  24  42  65  85 121 173 205 244 306 372
#     4  11  20  33  61  95 125 156 200 252 308 361
#     4  11  24  42  63  87 124 162 212 248 304 364
#     4  11  21  38  62  93 127 155 200 259 306 356
#     4  11  20  38  64  91 124 160 201 249 312 359
#
# _framework density 20.352177000000001
#
# number of rings (size 3 to 8) (size 9 to 14) (size 15 to 20)
#    0.000    0.750    7.500    1.875    0.000    0.500 
#    0.000    1.250    2.750    0.000    0.000    0.000 
#    0.000    0.000    0.000    0.000    0.000    0.000 
#
# Total GULP energy -89179.827670 kJ/mol
# GULP energy per Si atom -5573.739229 kJ/mol
# Density = 2.030585 g / cm^3
# Si number density = 20.352177 Si / 1000 Ang^3
#
#
#
# Elastic Constant Matrix: (Units=GPa)
#
#
# Indices 1 2 3 4 5 6 
#
# 1 133.9307 20.8085 29.0370 21.1972 2.0402 -1.8933
# 2 20.8085 79.6149 8.5641 7.9677 -16.2084 9.1221
# 3 29.0370 8.5641 34.4798 15.1092 1.0958 1.5438
# 4 21.1972 7.9677 15.1092 21.1734 -3.7561 4.7604
# 5 2.0402 -16.2084 1.0958 -3.7561 35.9772 9.1365
# 6 -1.8933 9.1221 1.5438 4.7604 9.1365 28.6064
#
#
#
# Elastic Compliance Matrix: (Units=1/GPa)
#
#
# Indices 1 2 3 4 5 6 
#
# 1 0.010169 -0.002560 -0.004805 -0.007294 -0.003371 0.004039
# 2 -0.002560 0.016373 -0.002780 0.002153 0.010070 -0.008815
# 3 -0.004805 -0.002780 0.046857 -0.029971 -0.006861 0.005218
# 4 -0.007294 0.002153 -0.029971 0.081923 0.015451 -0.018120
# 5 -0.003371 0.010070 -0.006861 0.015451 0.038934 -0.018070
# 6 0.004039 -0.008815 0.005218 -0.018120 -0.018070 0.046540
#
#
# Mechanical properties :
#
#
# Convention : Reuss Voigt Hill
#
# Bulk Modulus (GPa) = 18.82910 40.53827 29.68369
# Shear Modulus (GPa) = 17.93463 29.79245 23.86354
#
# Velocity S-wave (km/s) = 2.97175 3.83017 3.42794
# Velocity P-wave (km/s) = 4.58767 6.28665 5.50312
#
# Compressibility (1/GPa) = 0.05310927
#
# Stress axis : x y z
#
# Youngs Moduli (GPa) = 98.33795 61.07583 21.34137
#
# Poissons Ratio (x) = 0.15635 0.10255
# Poissons Ratio (y) = 0.25175 0.05932
# Poissons Ratio (z) = 0.47254 0.16978
#
# Static dielectric constant tensor:
#      x y z
#    x 1.865050 0.043100 0.110350 
#    y 0.043100 1.709080 0.006030 
#    z 0.110350 0.006030 1.775820 
# 
# From -- ./inp_files/314224.got.cif
#   From: 2010.05.17/outbox.cif.g08.bks.cpg/sg2_158_cif.got.tgz:314224.got - 2010.06.03 11:33:40.
