data_PCOD9053548
_publ_section_title
;
Structure prediction by ZEFSAII (Michael W. Deem and Ramdas Pophale) SiO2 
 PCOD9053548
Probable space group: P -1
;
_chemical_formula_sum "Si O2"
_cell_formula_units_Z 14
_cell_length_a 11.157781
_cell_length_b 8.603851
_cell_length_c 9.298035
_cell_angle_alpha 100.625205
_cell_angle_beta 123.929053
_cell_angle_gamma 52.116761
_cell_volume 567.200031
_symmetry_space_group_name_H-M "P -1"
_symmetry_group_IT_number 2
_symmetry_cell_setting 'triclinic'
loop_
_space_group_symop_operation_xyz
x,y,z
-x,-y,-z
loop_
_atom_site_type_symbol
_atom_site_label
_atom_site_fract_x
_atom_site_fract_y
_atom_site_fract_z
Si Si1 0.258339 0.786125 0.318951
Si Si2 0.620618 0.043766 0.795568
Si Si3 0.480285 0.698171 0.977776
Si Si4 0.080996 0.880651 0.682938
Si Si5 0.429154 0.866714 0.679781
Si Si6 0.036758 0.311906 0.567821
Si Si7 0.008253 0.663665 0.112947
O O1 0.361158 0.820422 0.275688
O O2 0.377519 0.743267 0.535068
O O3 0.187685 0.657897 0.214213
O O4 0.064041 0.006586 0.266925
O O5 0.544454 0.922161 0.681444
O O6 0.485175 0.200340 0.856961
O O7 0.828223 0.870870 0.960755
O O8 0.259796 0.852692 0.835157
O O9 0.542525 0.730446 0.873189
O O10 0.500000 0.500000 0.000000
O O11 0.120804 0.679338 0.622445
O O12 0.000000 0.000000 0.500000
O O13 0.234080 0.092408 0.623056
O O14 0.011559 0.337078 0.726847
O O15 0.000000 0.500000 0.500000
O O16 0.000000 0.500000 0.000000
#
# Coordination Sequence:
#
# PCOD9053548 Si02
#       7
#     2   2   2   2   2   2   2
#     4  11  23  48  72  96 138 192 234 282 361 418
#     4  12  26  45  68 105 149 180 228 302 360 415
#     4  12  25  42  74 105 140 188 237 296 362 410
#     4  11  19  45  76  94 132 190 238 292 344 415
#     4  11  24  49  70 100 146 188 234 296 350 426
#     4  11  24  41  74 101 134 183 246 287 343 426
#     4  12  26  44  70 106 142 179 234 300 355 417
#
# _framework density 24.682652000000001
#
# number of rings (size 3 to 8) (size 9 to 14) (size 15 to 20)
#    0.000    0.571    7.143    1.286    6.000    1.143 
#    0.000    1.429    0.000    0.000    0.000    0.000 
#    0.000    0.000    0.000    0.000    0.000    0.000 
#
# Total GULP energy -78082.978109 kJ/mol
# GULP energy per Si atom -5577.355579 kJ/mol
# Density = 2.462647 g / cm^3
# Si number density = 24.682652 Si / 1000 Ang^3
#
#
#
# Elastic Constant Matrix: (Units=GPa)
#
#
# Indices 1 2 3 4 5 6 
#
# 1 125.3028 18.6174 42.3694 13.5271 6.2927 31.8311
# 2 18.6174 101.2452 35.6026 19.0518 -1.6001 28.6589
# 3 42.3694 35.6026 62.2144 30.1313 3.2037 6.5886
# 4 13.5271 19.0518 30.1313 54.0473 15.6772 10.0168
# 5 6.2927 -1.6001 3.2037 15.6772 46.1676 5.4774
# 6 31.8311 28.6589 6.5886 10.0168 5.4774 47.3152
#
#
#
# Elastic Compliance Matrix: (Units=1/GPa)
#
#
# Indices 1 2 3 4 5 6 
#
# 1 0.014159 0.004261 -0.013093 0.004645 -0.001130 -0.011135
# 2 0.004261 0.016265 -0.011751 0.001405 0.001694 -0.011575
# 3 -0.013093 -0.011751 0.038581 -0.017541 0.003005 0.013919
# 4 0.004645 0.001405 -0.017541 0.030494 -0.008896 -0.006960
# 5 -0.001130 0.001694 0.003005 -0.008896 0.024885 -0.001682
# 6 -0.011135 -0.011575 0.013919 -0.006960 -0.001682 0.035367
#
#
# Mechanical properties :
#
#
# Convention : Reuss Voigt Hill
#
# Bulk Modulus (GPa) = 35.92240 53.54903 44.73571
# Shear Modulus (GPa) = 23.78716 42.31756 33.05236
#
# Velocity S-wave (km/s) = 3.10775 4.14510 3.66333
# Velocity P-wave (km/s) = 5.24049 6.68216 6.00475
#
# Compressibility (1/GPa) = 0.02783779
#
# Stress axis : x y z
#
# Youngs Moduli (GPa) = 70.62702 61.48298 25.91918
#
# Poissons Ratio (x) = -0.26195 0.33936
# Poissons Ratio (y) = -0.30091 0.30458
# Poissons Ratio (z) = 0.92472 0.72250
#
# Static dielectric constant tensor:
#      x y z
#    x 1.965180 -0.114260 -0.046570 
#    y -0.114260 1.863080 0.008600 
#    z -0.046570 0.008600 2.072360 
# 
# From -- ./inp_files/239917.got.cif
#   From: 2010.05.17/outbox.cif.g08.bks.cpg/sg2_120_cif.got.tgz:239917.got - 2010.06.03 11:33:40.
