data_PCOD9053204
_publ_section_title
;
Structure prediction by ZEFSAII (Michael W. Deem and Ramdas Pophale) SiO2 
 PCOD9053204
Probable space group: P -1
;
_chemical_formula_sum "Si O2"
_cell_formula_units_Z 14
_cell_length_a 15.914578
_cell_length_b 24.205259
_cell_length_c 24.319959
_cell_angle_alpha 162.985942
_cell_angle_beta 16.088679
_cell_angle_gamma 155.113860
_cell_volume 751.812126
_symmetry_space_group_name_H-M "P -1"
_symmetry_group_IT_number 2
_symmetry_cell_setting 'triclinic'
loop_
_space_group_symop_operation_xyz
x,y,z
-x,-y,-z
loop_
_atom_site_type_symbol
_atom_site_label
_atom_site_fract_x
_atom_site_fract_y
_atom_site_fract_z
Si Si1 0.266808 0.177552 0.789155
Si Si2 0.632172 0.491042 0.828359
Si Si3 0.593082 0.269129 0.899314
Si Si4 0.306116 0.136768 0.594556
Si Si5 0.262210 0.456169 0.838307
Si Si6 0.984033 0.166118 0.228317
Si Si7 0.880540 0.242944 0.191922
O O1 0.427907 0.368367 0.876330
O O2 0.229635 0.149273 0.719823
O O3 0.500000 0.000000 0.500000
O O4 0.946397 0.206268 0.050695
O O5 0.408662 0.578955 0.003630
O O6 0.884630 0.325205 0.487821
O O7 0.821608 0.658064 0.885561
O O8 0.695516 0.356753 0.974713
O O9 0.238413 0.242964 0.105332
O O10 0.756776 0.063956 0.581808
O O11 0.180881 0.304215 0.790636
O O12 0.672907 0.145002 0.371978
O O13 0.575531 0.369617 0.527031
O O14 0.000000 0.500000 0.000000
O O15 0.102102 0.964755 0.989777
#
# Coordination Sequence:
#
# PCOD9053204 Si02
#       7
#     2   2   2   2   2   2   2
#     4  11  21  38  60 100 132 156 187 248 327 388
#     4  11  20  33  62  96 129 158 189 242 333 381
#     4  12  20  37  63  91 122 162 204 258 309 363
#     4  11  22  38  63  91 128 153 199 255 313 368
#     4  12  27  43  60  86 121 173 224 254 286 349
#     4  11  19  33  62  97 123 149 191 257 325 364
#     4  12  22  39  62  94 132 156 198 256 308 376
#
# _framework density 18.621673999999999
#
# number of rings (size 3 to 8) (size 9 to 14) (size 15 to 20)
#    0.000    0.571   10.000    2.143    0.000    0.571 
#    0.000    0.714    0.000    0.857    0.000    0.000 
#    0.000    0.000    0.000    0.000    0.000    0.000 
#
# Total GULP energy -78077.697845 kJ/mol
# GULP energy per Si atom -5576.978417 kJ/mol
# Density = 1.857929 g / cm^3
# Si number density = 18.621674 Si / 1000 Ang^3
#
#
#
# Elastic Constant Matrix: (Units=GPa)
#
#
# Indices 1 2 3 4 5 6 
#
# 1 143.3005 45.0190 54.8074 6.2639 2.2161 -7.9422
# 2 45.0190 71.9577 26.4613 25.6783 -4.9490 -10.1355
# 3 54.8074 26.4613 45.5828 14.0785 0.4908 5.8868
# 4 6.2639 25.6783 14.0785 23.1925 1.6052 5.1981
# 5 2.2161 -4.9490 0.4908 1.6052 34.7391 1.0640
# 6 -7.9422 -10.1355 5.8868 5.1981 1.0640 38.2489
#
#
#
# Elastic Compliance Matrix: (Units=1/GPa)
#
#
# Indices 1 2 3 4 5 6 
#
# 1 0.017657 -0.009855 -0.021602 0.019054 -0.003163 0.001878
# 2 -0.009855 0.037095 0.001810 -0.042969 0.007471 0.013137
# 3 -0.021602 0.001810 0.056907 -0.028886 0.002439 -0.008907
# 4 0.019054 -0.042969 -0.028886 0.107748 -0.011378 -0.017311
# 5 -0.003163 0.007471 0.002439 -0.011378 0.030493 0.001645
# 6 0.001878 0.013137 -0.008907 -0.017311 0.001645 0.033693
#
#
# Mechanical properties :
#
#
# Convention : Reuss Voigt Hill
#
# Bulk Modulus (GPa) = 19.09727 57.04626 38.07176
# Shear Modulus (GPa) = 13.87571 28.20631 21.04101
#
# Velocity S-wave (km/s) = 2.73268 3.89614 3.36508
# Velocity P-wave (km/s) = 4.49827 7.13728 5.96553
#
# Compressibility (1/GPa) = 0.05236351
#
# Stress axis : x y z
#
# Youngs Moduli (GPa) = 56.63611 26.95784 17.57252
#
# Poissons Ratio (x) = 0.26567 0.37960
# Poissons Ratio (y) = 0.55815 -0.03180
# Poissons Ratio (z) = 1.22346 -0.04878
#
# Static dielectric constant tensor:
#      x y z
#    x 1.733850 -0.006540 0.069640 
#    y -0.006540 1.647340 0.030420 
#    z 0.069640 0.030420 1.661430 
# 
# From -- ./inp_files/455454.got.cif
#   From: 2010.05.17/outbox.cif.g08.bks.cpg/sg2_228_cif.got.tgz:455454.got - 2010.06.03 11:33:40.
