data_PCOD9053117
_publ_section_title
;
Structure prediction by ZEFSAII (Michael W. Deem and Ramdas Pophale) SiO2 
 PCOD9053117
Probable space group: P -1
;
_chemical_formula_sum "Si O2"
_cell_formula_units_Z 14
_cell_length_a 10.458326
_cell_length_b 10.996902
_cell_length_c 9.194978
_cell_angle_alpha 107.450793
_cell_angle_beta 60.403343
_cell_angle_gamma 62.950485
_cell_volume 602.521272
_symmetry_space_group_name_H-M "P -1"
_symmetry_group_IT_number 2
_symmetry_cell_setting 'triclinic'
loop_
_space_group_symop_operation_xyz
x,y,z
-x,-y,-z
loop_
_atom_site_type_symbol
_atom_site_label
_atom_site_fract_x
_atom_site_fract_y
_atom_site_fract_z
Si Si1 0.715929 0.831437 0.902441
Si Si2 0.905443 0.753028 0.471305
Si Si3 0.751426 0.126923 0.666283
Si Si4 0.303382 0.384106 0.527484
Si Si5 0.747870 0.145643 0.353569
Si Si6 0.997421 0.795085 0.938282
Si Si7 0.654188 0.583747 0.829976
O O1 0.893711 0.734012 0.644018
O O2 0.782436 0.884924 0.009118
O O3 0.709875 0.689594 0.898991
O O4 0.500000 0.000000 0.000000
O O5 0.802007 0.690644 0.439048
O O6 0.160802 0.614889 0.265880
O O7 0.757921 0.968012 0.602424
O O8 0.685889 0.217521 0.577649
O O9 0.589056 0.281546 0.933538
O O10 0.000000 0.000000 0.500000
O O11 0.534341 0.247946 0.422539
O O12 0.332513 0.411036 0.351415
O O13 0.147654 0.577258 0.773331
O O14 0.874059 0.181795 0.220311
O O15 0.913150 0.921599 0.172960
#
# Coordination Sequence:
#
# PCOD9053117 Si02
#       7
#     2   2   2   2   2   2   2
#     4  11  18  37  72 103 127 168 225 281 318 382
#     4  11  22  42  71 104 130 175 226 271 337 390
#     4  12  29  47  64  97 143 178 218 271 345 412
#     4  11  23  43  75 101 128 171 233 282 322 390
#     4  11  28  42  66  98 136 185 215 271 344 398
#     4  11  22  45  68  96 137 169 229 279 326 389
#     4  11  23  41  74 101 128 174 226 280 327 389
#
# _framework density 23.235693999999999
#
# number of rings (size 3 to 8) (size 9 to 14) (size 15 to 20)
#    0.000    0.857    4.286    3.857    4.000    2.286 
#    0.000    1.429    0.000    0.000    0.000    0.000 
#    0.000    0.000    0.000    0.000    0.000    0.000 
#
# Total GULP energy -78215.873445 kJ/mol
# GULP energy per Si atom -5586.848103 kJ/mol
# Density = 2.318281 g / cm^3
# Si number density = 23.235694 Si / 1000 Ang^3
#
#
#
# Elastic Constant Matrix: (Units=GPa)
#
#
# Indices 1 2 3 4 5 6 
#
# 1 74.6252 2.6319 9.8646 -1.8478 -9.2580 -12.4153
# 2 2.6319 32.3434 7.7112 13.1573 -9.1543 -6.8016
# 3 9.8646 7.7112 76.3301 16.4009 -18.0397 -12.2342
# 4 -1.8478 13.1573 16.4009 32.8428 3.0507 -0.3234
# 5 -9.2580 -9.1543 -18.0397 3.0507 31.2324 9.5002
# 6 -12.4153 -6.8016 -12.2342 -0.3234 9.5002 37.0015
#
#
#
# Elastic Compliance Matrix: (Units=1/GPa)
#
#
# Indices 1 2 3 4 5 6 
#
# 1 0.014509 0.000186 -0.000863 0.000975 0.002554 0.003970
# 2 0.000186 0.044304 0.004877 -0.021636 0.016316 0.005441
# 3 -0.000863 0.004877 0.018872 -0.012525 0.012201 0.003605
# 4 0.000975 -0.021636 -0.012525 0.046970 -0.016954 -0.003028
# 5 0.002554 0.016316 0.012201 -0.016954 0.047625 -0.004486
# 6 0.003970 0.005441 0.003605 -0.003028 -0.004486 0.031675
#
#
# Mechanical properties :
#
#
# Convention : Reuss Voigt Hill
#
# Bulk Modulus (GPa) = 11.61628 24.85712 18.23670
# Shear Modulus (GPa) = 22.29642 31.08808 26.69225
#
# Velocity S-wave (km/s) = 3.10106 3.66176 3.39301
# Velocity P-wave (km/s) = 4.22283 5.34781 4.81826
#
# Compressibility (1/GPa) = 0.08608607
#
# Stress axis : x y z
#
# Youngs Moduli (GPa) = 68.92119 22.57130 52.98752
#
# Poissons Ratio (x) = -0.00421 0.04575
# Poissons Ratio (y) = -0.01285 -0.25843
# Poissons Ratio (z) = 0.05951 -0.11009
#
# Static dielectric constant tensor:
#      x y z
#    x 1.879440 0.019030 -0.041040 
#    y 0.019030 1.915670 0.055910 
#    z -0.041040 0.055910 1.927170 
# 
# From -- ./inp_files/189853.got.cif
#   From: 2010.05.17/outbox.cif.g08.bks.cpg/sg2_95_cif.got.tgz:189853.got - 2010.06.03 11:33:40.
