data_PCOD9053631
_publ_section_title
;
Structure prediction by ZEFSAII (Michael W. Deem and Ramdas Pophale) SiO2 
 PCOD9053631
Probable space group: P -1
;
_chemical_formula_sum "Si O2"
_cell_formula_units_Z 16
_cell_length_a 8.922790
_cell_length_b 9.570166
_cell_length_c 19.168180
_cell_angle_alpha 119.954566
_cell_angle_beta 85.116120
_cell_angle_gamma 45.621623
_cell_volume 722.474969
_symmetry_space_group_name_H-M "P -1"
_symmetry_group_IT_number 2
_symmetry_cell_setting 'triclinic'
loop_
_space_group_symop_operation_xyz
x,y,z
-x,-y,-z
loop_
_atom_site_type_symbol
_atom_site_label
_atom_site_fract_x
_atom_site_fract_y
_atom_site_fract_z
Si Si1 0.593021 0.126649 0.618405
Si Si2 0.019466 0.428084 0.267090
Si Si3 0.839302 0.564003 0.459314
Si Si4 0.747906 0.037077 0.438208
Si Si5 0.558815 0.185366 0.967123
Si Si6 0.950829 0.104966 0.856864
Si Si7 0.285011 0.815626 0.906460
Si Si8 0.114789 0.931865 0.302078
O O1 0.638510 0.904985 0.534055
O O2 0.693768 0.127745 0.544957
O O3 0.242443 0.441715 0.724720
O O4 0.795270 0.985422 0.641552
O O5 0.021445 0.373002 0.334280
O O6 0.934424 0.696687 0.334023
O O7 0.327164 0.085708 0.137717
O O8 0.000000 0.500000 0.500000
O O9 0.583514 0.669941 0.507415
O O10 0.924698 0.008569 0.383514
O O11 0.750961 0.151129 0.913350
O O12 0.233453 0.558896 0.062359
O O13 0.632836 0.112969 0.028426
O O14 0.023208 0.964479 0.743100
O O15 0.212656 0.901475 0.849479
O O16 0.562029 0.443860 0.811075
O O17 0.000000 0.000000 0.000000
#
# Coordination Sequence:
#
# PCOD9053631 Si02
#       8
#     2   2   2   2   2   2   2   2
#     4   9  18  34  57  78 106 151 185 214 268 331
#     4   9  18  35  59  77 103 152 186 215 271 333
#     4   9  19  36  54  80 113 139 185 229 259 322
#     4   9  20  38  53  79 115 146 181 221 277 329
#     4   9  17  32  56  77 104 141 186 228 265 319
#     4   9  19  32  50  85 113 133 183 231 272 321
#     4   9  18  35  53  78 112 143 178 228 272 323
#     4  11  20  34  59  83 115 146 175 230 281 320
#
# _framework density 22.146097999999999
#
# number of rings (size 3 to 8) (size 9 to 14) (size 15 to 20)
#    0.000    2.750    0.000    4.125    1.750    0.000 
#    6.750    3.125    0.000    1.500    0.000    0.000 
#    0.000    0.000    0.000    0.000    0.000    0.000 
#
# Total GULP energy -89067.495894 kJ/mol
# GULP energy per Si atom -5566.718493 kJ/mol
# Density = 2.209569 g / cm^3
# Si number density = 22.146098 Si / 1000 Ang^3
#
#
#
# Elastic Constant Matrix: (Units=GPa)
#
#
# Indices 1 2 3 4 5 6 
#
# 1 49.7939 16.8788 17.6115 -8.9241 5.6913 -3.1479
# 2 16.8788 94.6984 1.7519 -24.5006 16.5156 -16.2584
# 3 17.6115 1.7519 68.4222 -2.1243 27.4821 -0.2988
# 4 -8.9241 -24.5006 -2.1243 26.3544 2.4384 6.7258
# 5 5.6913 16.5156 27.4821 2.4384 32.3939 -5.9418
# 6 -3.1479 -16.2584 -0.2988 6.7258 -5.9418 20.5733
#
#
#
# Elastic Compliance Matrix: (Units=1/GPa)
#
#
# Indices 1 2 3 4 5 6 
#
# 1 0.024318 -0.003917 -0.007695 0.003448 0.004098 0.000570
# 2 -0.003917 0.019164 0.007486 0.017462 -0.015952 0.004339
# 3 -0.007695 0.007486 0.028095 0.010926 -0.028334 -0.006609
# 4 0.003448 0.017462 0.010926 0.062004 -0.025877 -0.013258
# 5 0.004098 -0.015952 -0.028334 -0.025877 0.067102 0.015449
# 6 0.000570 0.004339 -0.006609 -0.013258 0.015449 0.060823
#
#
# Mechanical properties :
#
#
# Convention : Reuss Voigt Hill
#
# Bulk Modulus (GPa) = 15.79179 31.71098 23.75139
# Shear Modulus (GPa) = 17.18999 27.64248 22.41623
#
# Velocity S-wave (km/s) = 2.78907 3.53680 3.18496
# Velocity P-wave (km/s) = 4.18547 5.57034 4.92681
#
# Compressibility (1/GPa) = 0.06332403
#
# Stress axis : x y z
#
# Youngs Moduli (GPa) = 41.12201 52.18100 35.59330
#
# Poissons Ratio (x) = 0.20437 0.27391
# Poissons Ratio (y) = 0.16106 -0.26644
# Poissons Ratio (z) = 0.31645 -0.39060
#
# Static dielectric constant tensor:
#      x y z
#    x 1.867210 0.065770 0.066710 
#    y 0.065770 1.912800 0.107950 
#    z 0.066710 0.107950 1.940850 
# 
# From -- ./inp_files/270569.got.cif
#   From: 2010.05.17/outbox.cif.g08.bks.cpg/sg2_136_cif.got.tgz:270569.got - 2010.06.03 11:33:40.
