data_PCOD9053535
_publ_section_title
;
Structure prediction by ZEFSAII (Michael W. Deem and Ramdas Pophale) SiO2 
 PCOD9053535
Probable space group: P -1
;
_chemical_formula_sum "Si O2"
_cell_formula_units_Z 16
_cell_length_a 21.252131
_cell_length_b 11.594935
_cell_length_c 9.585464
_cell_angle_alpha 68.435871
_cell_angle_beta 138.920789
_cell_angle_gamma 143.350247
_cell_volume 737.812310
_symmetry_space_group_name_H-M "P -1"
_symmetry_group_IT_number 2
_symmetry_cell_setting 'triclinic'
loop_
_space_group_symop_operation_xyz
x,y,z
-x,-y,-z
loop_
_atom_site_type_symbol
_atom_site_label
_atom_site_fract_x
_atom_site_fract_y
_atom_site_fract_z
Si Si1 0.396331 0.877721 0.233898
Si Si2 0.695624 0.485565 0.894227
Si Si3 0.676047 0.201068 0.310981
Si Si4 0.361322 0.453116 0.733955
Si Si5 0.718801 0.994039 0.094404
Si Si6 0.304281 0.040129 0.594025
Si Si7 0.899659 0.699524 0.412911
Si Si8 0.210610 0.204826 0.295740
O O1 0.306319 0.644678 0.140923
O O2 0.500000 0.000000 0.500000
O O3 0.570420 0.095066 0.325530
O O4 0.255697 0.836345 0.989526
O O5 0.519490 0.279031 0.796285
O O6 0.675604 0.581462 0.716938
O O7 0.867460 0.694728 0.197330
O O8 0.806170 0.460201 0.379552
O O9 0.780419 0.185964 0.489259
O O10 0.500000 0.000000 0.000000
O O11 0.214643 0.337240 0.657587
O O12 0.261193 0.297557 0.496492
O O13 0.500000 0.500000 0.000000
O O14 0.511316 0.724644 0.820212
O O15 0.882747 0.081804 0.284685
O O16 0.710803 0.975146 0.257611
O O17 0.228459 0.076937 0.376331
O O18 0.000000 0.000000 0.000000
#
# Coordination Sequence:
#
# PCOD9053535 Si02
#       8
#     2   2   2   2   2   2   2   2
#     4  11  22  41  68 100 142 185 227 286 368 409
#     4  11  22  42  71 101 141 189 233 291 350 423
#     4  11  19  43  73  97 138 179 234 291 337 423
#     4  12  25  49  71  98 145 185 232 293 344 424
#     4  12  23  43  73 102 137 182 238 293 349 414
#     4  11  21  44  69 102 136 192 234 280 354 413
#     4  12  24  43  75 110 132 185 247 286 351 424
#     4  12  27  46  67 103 146 186 232 296 352 420
#
# _framework density 21.685734
#
# number of rings (size 3 to 8) (size 9 to 14) (size 15 to 20)
#    0.000    0.500    7.500    1.875    0.000    3.500 
#    9.000    0.625    0.000    0.000    0.000    0.000 
#    0.000    0.000    0.000    0.000    0.000    0.000 
#
# Total GULP energy -89386.029109 kJ/mol
# GULP energy per Si atom -5586.626819 kJ/mol
# Density = 2.163638 g / cm^3
# Si number density = 21.685734 Si / 1000 Ang^3
#
#
#
# Elastic Constant Matrix: (Units=GPa)
#
#
# Indices 1 2 3 4 5 6 
#
# 1 106.9976 33.0436 58.7564 -16.5457 14.8668 1.5927
# 2 33.0436 93.9394 27.3538 -35.7621 7.0958 -8.4531
# 3 58.7564 27.3538 111.5267 -25.7817 7.9372 2.8011
# 4 -16.5457 -35.7621 -25.7817 40.0779 2.3842 12.2063
# 5 14.8668 7.0958 7.9372 2.3842 37.2935 -18.7747
# 6 1.5927 -8.4531 2.8011 12.2063 -18.7747 31.8496
#
#
#
# Elastic Compliance Matrix: (Units=1/GPa)
#
#
# Indices 1 2 3 4 5 6 
#
# 1 0.014935 -0.002635 -0.006018 0.002258 -0.007413 -0.006152
# 2 -0.002635 0.018153 0.002039 0.018992 -0.007557 -0.006963
# 3 -0.006018 0.002039 0.015156 0.012225 -0.006544 -0.009033
# 4 0.002258 0.018992 0.012225 0.064425 -0.030892 -0.039049
# 5 -0.007413 -0.007557 -0.006544 -0.030892 0.056882 0.044311
# 6 -0.006152 -0.006963 -0.009033 -0.039049 0.044311 0.071738
#
#
# Mechanical properties :
#
#
# Convention : Reuss Voigt Hill
#
# Bulk Modulus (GPa) = 28.55913 61.19681 44.87797
# Shear Modulus (GPa) = 18.78364 34.73152 26.75758
#
# Velocity S-wave (km/s) = 2.94628 4.00632 3.51647
# Velocity P-wave (km/s) = 4.97717 7.04854 6.10140
#
# Compressibility (1/GPa) = 0.03501507
#
# Stress axis : x y z
#
# Youngs Moduli (GPa) = 66.95520 55.08802 65.98251
#
# Poissons Ratio (x) = 0.14518 0.39709
# Poissons Ratio (y) = 0.17645 -0.13455
# Poissons Ratio (z) = 0.40295 -0.11234
#
# Static dielectric constant tensor:
#      x y z
#    x 1.843860 -0.057420 0.017350 
#    y -0.057420 1.869700 -0.008130 
#    z 0.017350 -0.008130 1.890420 
# 
# From -- ./inp_files/346104.got.cif
#   From: 2010.05.17/outbox.cif.g08.bks.cpg/sg2_174_cif.got.tgz:346104.got - 2010.06.03 11:33:40.
