data_PCOD9053317
_publ_section_title
;
Structure prediction by ZEFSAII (Michael W. Deem and Ramdas Pophale) SiO2 
 PCOD9053317
Probable space group: P -1
;
_chemical_formula_sum "Si O2"
_cell_formula_units_Z 14
_cell_length_a 10.877265
_cell_length_b 9.810901
_cell_length_c 9.035035
_cell_angle_alpha 128.033447
_cell_angle_beta 71.991537
_cell_angle_gamma 72.340780
_cell_volume 543.054356
_symmetry_space_group_name_H-M "P -1"
_symmetry_group_IT_number 2
_symmetry_cell_setting 'triclinic'
loop_
_space_group_symop_operation_xyz
x,y,z
-x,-y,-z
loop_
_atom_site_type_symbol
_atom_site_label
_atom_site_fract_x
_atom_site_fract_y
_atom_site_fract_z
Si Si1 0.858600 0.696238 0.511240
Si Si2 0.641426 0.793071 0.912132
Si Si3 0.670411 0.377413 0.696290
Si Si4 0.694650 0.822571 0.361214
Si Si5 0.291930 0.588664 0.959840
Si Si6 0.032338 0.055778 0.193070
Si Si7 0.134751 0.186739 0.964750
O O1 0.800352 0.635411 0.632599
O O2 0.710506 0.843464 0.542980
O O3 0.912179 0.831583 0.646656
O O4 0.004884 0.461161 0.216967
O O5 0.611726 0.630485 0.876886
O O6 0.692973 0.892421 0.076260
O O7 0.500000 0.000000 0.000000
O O8 0.498151 0.426211 0.746999
O O9 0.833681 0.202578 0.413228
O O10 0.727056 0.310247 0.801919
O O11 0.752553 0.575172 0.136975
O O12 0.500000 0.000000 0.500000
O O13 0.813002 0.858771 0.256677
O O14 0.167868 0.790238 0.021475
O O15 0.065327 0.098505 0.041530
#
# Coordination Sequence:
#
# PCOD9053317 Si02
#       7
#     2   2   2   2   2   2   2
#     4  11  22  40  72 101 131 174 227 284 336 400
#     4  11  19  36  68 102 132 170 230 280 328 399
#     4  11  21  41  70 102 136 174 231 282 339 397
#     4  12  27  46  65 100 142 179 222 281 356 406
#     4  11  26  42  68 102 141 179 225 282 343 413
#     4  11  22  45  77 101 130 176 239 285 334 400
#     4  11  21  43  68 102 132 176 232 280 334 409
#
# _framework density 25.780108999999999
#
# number of rings (size 3 to 8) (size 9 to 14) (size 15 to 20)
#    0.000    0.857    4.286    4.286    4.000    0.000 
#    2.571    3.571    0.000    0.000    0.000    0.000 
#    0.000    0.000    0.000    0.000    0.000    0.000 
#
# Total GULP energy -78433.587624 kJ/mol
# GULP energy per Si atom -5602.399116 kJ/mol
# Density = 2.572143 g / cm^3
# Si number density = 25.780109 Si / 1000 Ang^3
#
#
#
# Elastic Constant Matrix: (Units=GPa)
#
#
# Indices 1 2 3 4 5 6 
#
# 1 92.9616 57.1863 23.7593 -7.1866 -19.6584 11.3966
# 2 57.1863 171.1709 48.0382 0.9449 -5.7477 4.0062
# 3 23.7593 48.0382 109.0191 -17.0792 -13.9052 -2.7244
# 4 -7.1866 0.9449 -17.0792 51.4545 -1.0089 0.4222
# 5 -19.6584 -5.7477 -13.9052 -1.0089 29.9526 2.0128
# 6 11.3966 4.0062 -2.7244 0.4222 2.0128 66.9750
#
#
#
# Elastic Compliance Matrix: (Units=1/GPa)
#
#
# Indices 1 2 3 4 5 6 
#
# 1 0.016662 -0.005274 0.000382 0.002778 0.010385 -0.002834
# 2 -0.005274 0.008421 -0.003319 -0.002064 -0.003481 0.000376
# 3 0.000382 -0.003319 0.011883 0.004158 0.005241 0.000433
# 4 0.002778 -0.002064 0.004158 0.021325 0.004105 -0.000438
# 5 0.010385 -0.003481 0.005241 0.004105 0.042283 -0.002642
# 6 -0.002834 0.000376 0.000433 -0.000438 -0.002642 0.015490
#
#
# Mechanical properties :
#
#
# Convention : Reuss Voigt Hill
#
# Bulk Modulus (GPa) = 48.67945 70.12437 59.40191
# Shear Modulus (GPa) = 35.88461 45.95427 40.91944
#
# Velocity S-wave (km/s) = 3.73493 4.22660 3.98835
# Velocity P-wave (km/s) = 6.12562 7.14695 6.65590
#
# Compressibility (1/GPa) = 0.02054255
#
# Stress axis : x y z
#
# Youngs Moduli (GPa) = 60.01624 118.74542 84.15458
#
# Poissons Ratio (x) = 0.62626 -0.03211
# Poissons Ratio (y) = 0.31653 0.27935
# Poissons Ratio (z) = -0.02290 0.39417
#
# Static dielectric constant tensor:
#      x y z
#    x 2.089810 0.009730 -0.010660 
#    y 0.009730 2.031670 0.024360 
#    z -0.010660 0.024360 2.049790 
# 
# From -- ./inp_files/158990.got.cif
#   From: 2010.05.17/outbox.cif.g08.bks.cpg/sg2_80_cif.got.tgz:158990.got - 2010.06.03 11:33:40.
