data_PCOD9053640
_publ_section_title
;
Structure prediction by ZEFSAII (Michael W. Deem and Ramdas Pophale) SiO2 
 PCOD9053640
Probable space group: P -1
;
_chemical_formula_sum "Si O2"
_cell_formula_units_Z 12
_cell_length_a 14.122164
_cell_length_b 20.376618
_cell_length_c 8.974789
_cell_angle_alpha 34.606280
_cell_angle_beta 147.083695
_cell_angle_gamma 150.571560
_cell_volume 647.394428
_symmetry_space_group_name_H-M "P -1"
_symmetry_group_IT_number 2
_symmetry_cell_setting 'triclinic'
loop_
_space_group_symop_operation_xyz
x,y,z
-x,-y,-z
loop_
_atom_site_type_symbol
_atom_site_label
_atom_site_fract_x
_atom_site_fract_y
_atom_site_fract_z
Si Si1 0.078906 0.668218 0.184122
Si Si2 0.361783 0.633825 0.826414
Si Si3 0.846616 0.484313 0.693896
Si Si4 0.915175 0.838710 0.673986
Si Si5 0.294942 0.348243 0.956116
Si Si6 0.480824 0.362050 0.668045
O O1 0.234174 0.689697 0.481366
O O2 0.144142 0.610339 0.242528
O O3 0.824866 0.537815 0.115639
O O4 0.090330 0.808984 0.920787
O O5 0.583257 0.686812 0.937032
O O6 0.417510 0.672240 0.000390
O O7 0.866251 0.619386 0.392094
O O8 0.620110 0.406365 0.621454
O O9 0.000000 0.500000 0.000000
O O10 0.750852 0.764192 0.457821
O O11 0.812142 0.759663 0.845082
O O12 0.000000 0.000000 0.500000
O O13 0.500000 0.500000 0.000000
O O14 0.500000 0.500000 0.500000
#
# Coordination Sequence:
#
# PCOD9053640 Si02
#       6
#     2   2   2   2   2   2
#     4  11  20  36  59  94 124 157 203 261 304 360
#     4  11  20  34  65  94 118 155 213 260 297 356
#     4  12  21  32  65 102 121 151 217 264 297 354
#     4  12  26  43  61  90 131 169 202 254 321 371
#     4  12  19  39  63  89 123 164 205 253 309 361
#     4  12  20  39  64  94 124 162 208 252 302 370
#
# _framework density 18.535841000000001
#
# number of rings (size 3 to 8) (size 9 to 14) (size 15 to 20)
#    0.000    0.333   10.000    1.000    0.000    0.000 
#    0.000    5.000    0.000    0.000    0.000    0.000 
#    0.000    0.000    0.000    0.000    0.000    0.000 
#
# Total GULP energy -66893.665485 kJ/mol
# GULP energy per Si atom -5574.472124 kJ/mol
# Density = 1.849365 g / cm^3
# Si number density = 18.535841 Si / 1000 Ang^3
#
#
#
# Elastic Constant Matrix: (Units=GPa)
#
#
# Indices 1 2 3 4 5 6 
#
# 1 125.1528 26.4964 41.9434 -7.8270 3.8176 -1.8364
# 2 26.4964 75.5464 71.5208 -6.2307 0.3403 -18.9062
# 3 41.9434 71.5208 170.0565 12.8698 -9.8264 -19.4540
# 4 -7.8270 -6.2307 12.8698 31.0586 -9.7077 -4.3859
# 5 3.8176 0.3403 -9.8264 -9.7077 39.4868 1.0774
# 6 -1.8364 -18.9062 -19.4540 -4.3859 1.0774 17.3685
#
#
#
# Elastic Compliance Matrix: (Units=1/GPa)
#
#
# Indices 1 2 3 4 5 6 
#
# 1 0.009166 -0.001771 -0.002026 0.002183 -0.000767 -0.002629
# 2 -0.001771 0.032082 -0.011187 0.014241 -0.000092 0.025807
# 3 -0.002026 -0.011187 0.011562 -0.007298 0.001413 -0.001372
# 4 0.002183 0.014241 -0.007298 0.043716 0.008104 0.018095
# 5 -0.000767 -0.000092 0.001413 0.008104 0.027697 0.001729
# 6 -0.002629 0.025807 -0.001372 0.018095 0.001729 0.088315
#
#
# Mechanical properties :
#
#
# Convention : Reuss Voigt Hill
#
# Bulk Modulus (GPa) = 43.77923 72.29743 58.03833
# Shear Modulus (GPa) = 19.99047 32.96913 26.47980
#
# Velocity S-wave (km/s) = 3.28758 4.22200 3.78375
# Velocity P-wave (km/s) = 6.17097 7.92817 7.10411
#
# Compressibility (1/GPa) = 0.02284188
#
# Stress axis : x y z
#
# Youngs Moduli (GPa) = 109.10448 31.17004 86.49032
#
# Poissons Ratio (x) = 0.05520 0.17524
# Poissons Ratio (y) = 0.19322 0.96755
# Poissons Ratio (z) = 0.22106 0.34869
#
# Static dielectric constant tensor:
#      x y z
#    x 1.713740 0.041990 0.015380 
#    y 0.041990 1.645340 0.020360 
#    z 0.015380 0.020360 1.743460 
# 
# From -- ./inp_files/155640.got.cif
#   From: 2010.05.17/outbox.cif.g08.bks.cpg/sg2_78_cif.got.tgz:155640.got - 2010.06.03 11:33:40.
