data_PCOD9053221
_publ_section_title
;
Structure prediction by ZEFSAII (Michael W. Deem and Ramdas Pophale) SiO2 
 PCOD9053221
Probable space group: P -1
;
_chemical_formula_sum "Si O2"
_cell_formula_units_Z 16
_cell_length_a 12.233816
_cell_length_b 10.977585
_cell_length_c 18.088855
_cell_angle_alpha 52.076848
_cell_angle_beta 148.073290
_cell_angle_gamma 105.844312
_cell_volume 813.796409
_symmetry_space_group_name_H-M "P -1"
_symmetry_group_IT_number 2
_symmetry_cell_setting 'triclinic'
loop_
_space_group_symop_operation_xyz
x,y,z
-x,-y,-z
loop_
_atom_site_type_symbol
_atom_site_label
_atom_site_fract_x
_atom_site_fract_y
_atom_site_fract_z
Si Si1 0.832135 0.198935 0.958738
Si Si2 0.685729 0.480334 0.018164
Si Si3 0.620217 0.138526 0.579754
Si Si4 0.147615 0.714348 0.230732
Si Si5 0.743647 0.685460 0.566062
Si Si6 0.592640 0.000405 0.867165
Si Si7 0.284056 0.834750 0.758862
Si Si8 0.719973 0.554677 0.839299
O O1 0.837407 0.208902 0.868784
O O2 0.689712 0.409638 0.830309
O O3 0.701534 0.093982 0.944190
O O4 0.128905 0.078852 0.199871
O O5 0.449657 0.670750 0.852169
O O6 0.691614 0.526046 0.919082
O O7 0.699393 0.292153 0.115682
O O8 0.956649 0.416531 0.229574
O O9 0.736639 0.232395 0.657663
O O10 0.385154 0.194355 0.477225
O O11 0.499749 0.235164 0.396489
O O12 0.278025 0.489847 0.384218
O O13 0.846507 0.827759 0.034717
O O14 0.595809 0.832754 0.360656
O O15 0.433622 0.925249 0.832822
O O16 0.000000 0.000000 0.500000
O O17 0.000000 0.500000 0.000000
#
# Coordination Sequence:
#
# PCOD9053221 Si02
#       8
#     2   2   2   2   2   2   2   2
#     4  11  22  37  59  92 129 166 203 248 305 370
#     4  11  25  42  61  94 123 161 210 251 309 373
#     4  11  21  34  57  93 125 172 195 240 310 367
#     4  11  19  34  58  92 131 155 208 252 298 367
#     4  12  18  33  61  90 125 157 196 252 310 359
#     4  11  21  36  63  95 117 156 213 268 301 346
#     4  11  24  44  69  88 116 160 218 270 303 345
#     4  12  25  40  59  90 138 169 192 244 313 388
#
# _framework density 19.660938000000002
#
# number of rings (size 3 to 8) (size 9 to 14) (size 15 to 20)
#    0.000    0.750    7.500    1.875    0.000    1.500 
#    0.000    0.625    0.000    3.750    0.000    0.000 
#    0.000    0.000    0.000    0.000    0.000    0.000 
#
# Total GULP energy -89327.986083 kJ/mol
# GULP energy per Si atom -5582.999130 kJ/mol
# Density = 1.961619 g / cm^3
# Si number density = 19.660938 Si / 1000 Ang^3
#
#
#
# Elastic Constant Matrix: (Units=GPa)
#
#
# Indices 1 2 3 4 5 6 
#
# 1 73.2422 13.8508 36.0761 -0.1213 -7.1912 15.7468
# 2 13.8508 71.1552 6.4714 0.4544 3.8544 26.5840
# 3 36.0761 6.4714 136.9023 -11.0652 -0.6146 5.7635
# 4 -0.1213 0.4544 -11.0652 24.9233 6.0343 1.5376
# 5 -7.1912 3.8544 -0.6146 6.0343 33.4460 1.5541
# 6 15.7468 26.5840 5.7635 1.5376 1.5541 30.6195
#
#
#
# Elastic Compliance Matrix: (Units=1/GPa)
#
#
# Indices 1 2 3 4 5 6 
#
# 1 0.018248 -0.000220 -0.004631 -0.002586 0.004722 -0.008431
# 2 -0.000220 0.020920 -0.000090 0.001130 -0.001828 -0.017997
# 3 -0.004631 -0.000090 0.008838 0.004254 -0.001621 0.000665
# 4 -0.002586 0.001130 0.004254 0.044168 -0.008473 -0.002240
# 5 0.004722 -0.001828 -0.001621 -0.008473 0.032706 -0.001771
# 6 -0.008431 -0.017997 0.000665 -0.002240 -0.001771 0.052697
#
#
# Mechanical properties :
#
#
# Convention : Reuss Voigt Hill
#
# Bulk Modulus (GPa) = 26.23057 43.78850 35.00954
# Shear Modulus (GPa) = 24.97890 32.79117 28.88503
#
# Velocity S-wave (km/s) = 3.56825 4.08834 3.83712
# Velocity P-wave (km/s) = 5.50881 6.67879 6.12181
#
# Compressibility (1/GPa) = 0.03812346
#
# Stress axis : x y z
#
# Youngs Moduli (GPa) = 54.79990 47.80016 113.15134
#
# Poissons Ratio (x) = 0.01052 0.52403
# Poissons Ratio (y) = 0.01207 0.01019
# Poissons Ratio (z) = 0.25379 0.00431
#
# Static dielectric constant tensor:
#      x y z
#    x 1.691270 0.040520 0.015280 
#    y 0.040520 1.749320 0.000270 
#    z 0.015280 0.000270 1.718540 
# 
# From -- ./inp_files/433137.got.cif
#   From: 2010.05.17/outbox.cif.g08.bks.cpg/sg2_217_cif.got.tgz:433137.got - 2010.06.03 11:33:40.
