data_PCOD9053379
_publ_section_title
;
Structure prediction by ZEFSAII (Michael W. Deem and Ramdas Pophale) SiO2 
 PCOD9053379
Probable space group: P -1
;
_chemical_formula_sum "Si O2"
_cell_formula_units_Z 16
_cell_length_a 16.452615
_cell_length_b 7.065313
_cell_length_c 19.408473
_cell_angle_alpha 63.410878
_cell_angle_beta 157.874016
_cell_angle_gamma 104.422460
_cell_volume 661.738766
_symmetry_space_group_name_H-M "P -1"
_symmetry_group_IT_number 2
_symmetry_cell_setting 'triclinic'
loop_
_space_group_symop_operation_xyz
x,y,z
-x,-y,-z
loop_
_atom_site_type_symbol
_atom_site_label
_atom_site_fract_x
_atom_site_fract_y
_atom_site_fract_z
Si Si1 0.487162 0.355597 0.880758
Si Si2 0.210671 0.316600 0.788781
Si Si3 0.931137 0.164078 0.351700
Si Si4 0.302222 0.563209 0.561932
Si Si5 0.326716 0.871666 0.155442
Si Si6 0.544189 0.229530 0.576932
Si Si7 0.803670 0.976692 0.678816
Si Si8 0.468044 0.868597 0.807138
O O1 0.276928 0.318030 0.760449
O O2 0.479636 0.376117 0.790169
O O3 0.455146 0.622484 0.828770
O O4 0.744575 0.159422 0.149828
O O5 0.190093 0.567206 0.758522
O O6 0.961395 0.340048 0.621157
O O7 0.445423 0.120333 0.048819
O O8 0.000000 0.000000 0.500000
O O9 0.196452 0.083171 0.541140
O O10 0.415093 0.379701 0.615669
O O11 0.292880 0.809739 0.489410
O O12 0.299730 0.901854 0.211037
O O13 0.343983 0.098016 0.099481
O O14 0.095925 0.863374 0.940268
O O15 0.500000 0.500000 0.500000
O O16 0.679351 0.102324 0.633206
O O17 0.293515 0.209339 0.385551
#
# Coordination Sequence:
#
# PCOD9053379 Si02
#       8
#     2   2   2   2   2   2   2   2
#     4  11  24  37  63  99 132 194 247 300 353 413
#     4  11  21  40  63  90 137 189 239 297 353 409
#     4  11  19  38  63  89 127 182 252 295 351 419
#     4  12  25  43  63 104 146 182 242 299 358 429
#     4  12  25  46  73 107 146 192 235 297 369 434
#     4  11  25  51  83 110 142 190 231 293 368 446
#     4  11  26  51  76 110 152 182 237 298 362 443
#     4  11  21  40  66  91 135 185 238 297 359 412
#
# _framework density 24.178725
#
# number of rings (size 3 to 8) (size 9 to 14) (size 15 to 20)
#    0.000    0.750    6.250    2.250    0.000    2.500 
#    4.500    1.250    0.000    0.000    0.000    0.000 
#    0.000    0.000    0.000    0.000    0.000    0.000 
#
# Total GULP energy -89408.082953 kJ/mol
# GULP energy per Si atom -5588.005185 kJ/mol
# Density = 2.412369 g / cm^3
# Si number density = 24.178725 Si / 1000 Ang^3
#
#
#
# Elastic Constant Matrix: (Units=GPa)
#
#
# Indices 1 2 3 4 5 6 
#
# 1 138.7269 44.8499 40.9661 3.0720 -16.3877 23.9370
# 2 44.8499 115.4827 27.4019 -2.0388 2.9703 28.8713
# 3 40.9661 27.4019 120.7828 16.4834 -2.0390 15.3436
# 4 3.0720 -2.0388 16.4834 30.3890 3.3342 2.8489
# 5 -16.3877 2.9703 -2.0390 3.3342 47.1976 0.3438
# 6 23.9370 28.8713 15.3436 2.8489 0.3438 43.3534
#
#
#
# Elastic Compliance Matrix: (Units=1/GPa)
#
#
# Indices 1 2 3 4 5 6 
#
# 1 0.009596 -0.002579 -0.002250 -0.000034 0.003420 -0.002809
# 2 -0.002579 0.011564 -0.001370 0.002537 -0.001818 -0.005944
# 3 -0.002250 -0.001370 0.010223 -0.005320 0.000130 -0.001115
# 4 -0.000034 0.002537 -0.005320 0.036494 -0.002964 -0.002162
# 5 0.003420 -0.001818 0.000130 -0.002964 0.022710 -0.000709
# 6 -0.002809 -0.005944 -0.001115 -0.002162 -0.000709 0.029118
#
#
# Mechanical properties :
#
#
# Convention : Reuss Voigt Hill
#
# Bulk Modulus (GPa) = 52.67773 66.82535 59.75154
# Shear Modulus (GPa) = 36.11879 41.63962 38.87921
#
# Velocity S-wave (km/s) = 3.86920 4.15439 4.01433
# Velocity P-wave (km/s) = 6.46491 7.12110 6.80092
#
# Compressibility (1/GPa) = 0.01898335
#
# Stress axis : x y z
#
# Youngs Moduli (GPa) = 104.20726 86.47705 97.81635
#
# Poissons Ratio (x) = 0.22304 0.22012
# Poissons Ratio (y) = 0.26877 0.13405
# Poissons Ratio (z) = 0.23450 0.11851
#
# Static dielectric constant tensor:
#      x y z
#    x 1.972000 -0.041030 0.013440 
#    y -0.041030 1.979840 0.017640 
#    z 0.013440 0.017640 2.002620 
# 
# From -- ./inp_files/106474.got.cif
#   From: 2010.05.17/outbox.cif.g08.bks.cpg/sg2_54_cif.got.tgz:106474.got - 2010.06.03 11:33:40.
