data_PCOD9053139
_publ_section_title
;
Structure prediction by ZEFSAII (Michael W. Deem and Ramdas Pophale) SiO2 
 PCOD9053139
Probable space group: P -1
;
_chemical_formula_sum "Si O2"
_cell_formula_units_Z 16
_cell_length_a 10.714695
_cell_length_b 14.474342
_cell_length_c 9.447107
_cell_angle_alpha 101.537519
_cell_angle_beta 70.866638
_cell_angle_gamma 151.194514
_cell_volume 654.607420
_symmetry_space_group_name_H-M "P -1"
_symmetry_group_IT_number 2
_symmetry_cell_setting 'triclinic'
loop_
_space_group_symop_operation_xyz
x,y,z
-x,-y,-z
loop_
_atom_site_type_symbol
_atom_site_label
_atom_site_fract_x
_atom_site_fract_y
_atom_site_fract_z
Si Si1 0.549763 0.272483 0.819214
Si Si2 0.285153 0.386404 0.915608
Si Si3 0.376428 0.160591 0.373654
Si Si4 0.292718 0.206386 0.150630
Si Si5 0.723103 0.087263 0.175676
Si Si6 0.508751 0.631831 0.381488
Si Si7 0.117758 0.618726 0.849486
Si Si8 0.968080 0.177403 0.392486
O O1 0.525299 0.294324 0.676263
O O2 0.851420 0.487100 0.824415
O O3 0.511216 0.137407 0.814867
O O4 0.326909 0.186906 0.974517
O O5 0.410091 0.560144 0.858942
O O6 0.310953 0.323084 0.769449
O O7 0.500000 0.500000 0.000000
O O8 0.987464 0.212083 0.034068
O O9 0.262803 0.104230 0.241704
O O10 0.357611 0.249692 0.487607
O O11 0.696875 0.337211 0.293755
O O12 0.217629 0.982281 0.465381
O O13 0.083401 0.159218 0.252817
O O14 0.686297 0.167025 0.146853
O O15 0.804332 0.138062 0.327536
O O16 0.222500 0.396710 0.424918
O O17 0.000000 0.500000 0.000000
#
# Coordination Sequence:
#
# PCOD9053139 Si02
#       8
#     2   2   2   2   2   2   2   2
#     4  12  23  43  73 100 130 184 234 274 336 403
#     4  11  18  39  72  97 140 177 223 281 328 406
#     4  12  27  44  67  99 143 180 221 284 345 401
#     4  11  22  45  68 100 143 176 220 289 341 393
#     4  12  23  41  73 106 128 184 234 275 335 408
#     4  11  23  42  69 104 135 177 226 276 346 395
#     4  12  26  51  69  92 142 181 233 285 330 406
#     4  11  23  43  68 102 141 172 224 279 344 413
#
# _framework density 24.442129999999999
#
# number of rings (size 3 to 8) (size 9 to 14) (size 15 to 20)
#    0.000    0.500    8.750    0.375    1.750    5.500 
#    4.500    0.000    0.000    0.000    0.000    0.000 
#    0.000    0.000    0.000    0.000    0.000    0.000 
#
# Total GULP energy -89559.498147 kJ/mol
# GULP energy per Si atom -5597.468634 kJ/mol
# Density = 2.438650 g / cm^3
# Si number density = 24.442130 Si / 1000 Ang^3
#
#
#
# Elastic Constant Matrix: (Units=GPa)
#
#
# Indices 1 2 3 4 5 6 
#
# 1 46.9690 8.2744 17.2540 -13.4719 5.2139 -19.5001
# 2 8.2744 110.6650 37.0211 -14.2851 8.3071 -25.8018
# 3 17.2540 37.0211 100.0770 -33.1263 12.9454 -4.3475
# 4 -13.4719 -14.2851 -33.1263 36.7498 -9.5813 6.7214
# 5 5.2139 8.3071 12.9454 -9.5813 35.9170 -13.2820
# 6 -19.5001 -25.8018 -4.3475 6.7214 -13.2820 38.2134
#
#
#
# Elastic Compliance Matrix: (Units=1/GPa)
#
#
# Indices 1 2 3 4 5 6 
#
# 1 0.031435 0.004029 -0.004429 0.006944 0.004881 0.018733
# 2 0.004029 0.012884 -0.005142 0.000492 0.002466 0.010941
# 3 -0.004429 -0.005142 0.016735 0.011811 -0.003709 -0.007195
# 4 0.006944 0.000492 0.011811 0.042138 0.005796 -0.000178
# 5 0.004881 0.002466 -0.003709 0.005796 0.034941 0.014859
# 6 0.018733 0.010941 -0.007195 -0.000178 0.014859 0.047493
#
#
# Mechanical properties :
#
#
# Convention : Reuss Voigt Hill
#
# Bulk Modulus (GPa) = 20.01181 42.53444 31.27312
# Shear Modulus (GPa) = 23.43379 35.18679 29.31029
#
# Velocity S-wave (km/s) = 3.09972 3.79832 3.46666
# Velocity P-wave (km/s) = 4.58435 6.05608 5.37087
#
# Compressibility (1/GPa) = 0.04997049
#
# Stress axis : x y z
#
# Youngs Moduli (GPa) = 31.81163 77.61279 59.75557
#
# Poissons Ratio (x) = -0.31269 0.26467
# Poissons Ratio (y) = -0.12816 0.30724
# Poissons Ratio (z) = 0.14090 0.39905
#
# Static dielectric constant tensor:
#      x y z
#    x 1.978350 -0.041070 -0.003360 
#    y -0.041070 1.945530 -0.012040 
#    z -0.003360 -0.012040 1.923400 
# 
# From -- ./inp_files/273356.got.cif
#   From: 2010.05.17/outbox.cif.g08.bks.cpg/sg2_137_cif.got.tgz:273356.got - 2010.06.03 11:33:40.
