data_PCOD9053142
_publ_section_title
;
Structure prediction by ZEFSAII (Michael W. Deem and Ramdas Pophale) SiO2 
 PCOD9053142
Probable space group: P -1
;
_chemical_formula_sum "Si O2"
_cell_formula_units_Z 14
_cell_length_a 15.151874
_cell_length_b 10.913789
_cell_length_c 12.944444
_cell_angle_alpha 126.913058
_cell_angle_beta 41.357953
_cell_angle_gamma 152.993559
_cell_volume 625.478404
_symmetry_space_group_name_H-M "P -1"
_symmetry_group_IT_number 2
_symmetry_cell_setting 'triclinic'
loop_
_space_group_symop_operation_xyz
x,y,z
-x,-y,-z
loop_
_atom_site_type_symbol
_atom_site_label
_atom_site_fract_x
_atom_site_fract_y
_atom_site_fract_z
Si Si1 0.234632 0.167085 0.943580
Si Si2 0.629673 0.411950 0.228247
Si Si3 0.011435 0.639127 0.854247
Si Si4 0.892860 0.259869 0.407827
Si Si5 0.000530 0.967671 0.717474
Si Si6 0.359084 0.696350 0.610935
Si Si7 0.318461 0.335996 0.346020
O O1 0.460497 0.431606 0.811669
O O2 0.208480 0.958990 0.868961
O O3 0.208823 0.205743 0.101056
O O4 0.000000 0.000000 0.000000
O O5 0.596547 0.285134 0.296828
O O6 0.391755 0.259934 0.311709
O O7 0.793446 0.715083 0.271068
O O8 0.781103 0.459437 0.035635
O O9 0.964201 0.613346 0.761222
O O10 0.132051 0.590557 0.742105
O O11 0.000000 0.500000 0.500000
O O12 0.915143 0.123499 0.381761
O O13 0.608389 0.005239 0.504778
O O14 0.909631 0.904649 0.649613
O O15 0.315340 0.490556 0.491351
#
# Coordination Sequence:
#
# PCOD9053142 Si02
#       7
#     2   2   2   2   2   2   2
#     4  11  18  40  68  94 132 169 216 276 317 386
#     4  11  24  48  67  94 138 173 219 273 318 402
#     4  11  22  43  68  93 132 177 214 265 338 385
#     4  12  24  42  65 100 136 165 222 280 321 388
#     4  11  23  40  69 101 127 173 222 267 328 390
#     4  12  25  43  68  96 136 179 212 271 339 377
#     4  12  22  40  70  96 131 172 222 270 326 387
#
# _framework density 22.382868999999999
#
# number of rings (size 3 to 8) (size 9 to 14) (size 15 to 20)
#    0.000    0.571    7.143    2.571    2.000    0.571 
#    5.143    0.714    0.000    0.000    0.000    0.000 
#    0.000    0.000    0.000    0.000    0.000    0.000 
#
# Total GULP energy -78400.253857 kJ/mol
# GULP energy per Si atom -5600.018133 kJ/mol
# Density = 2.233192 g / cm^3
# Si number density = 22.382869 Si / 1000 Ang^3
#
#
#
# Elastic Constant Matrix: (Units=GPa)
#
#
# Indices 1 2 3 4 5 6 
#
# 1 132.8819 4.4128 44.0660 3.8557 0.8024 21.5952
# 2 4.4128 40.2052 39.7032 -2.7495 1.4853 12.5983
# 3 44.0660 39.7032 121.3408 8.7121 2.0888 12.7123
# 4 3.8557 -2.7495 8.7121 27.9668 -2.2172 5.6738
# 5 0.8024 1.4853 2.0888 -2.2172 45.6918 2.2433
# 6 21.5952 12.5983 12.7123 5.6738 2.2433 32.5843
#
#
#
# Elastic Compliance Matrix: (Units=1/GPa)
#
#
# Indices 1 2 3 4 5 6 
#
# 1 0.010241 0.006677 -0.005275 0.002491 0.000347 -0.007768
# 2 0.006677 0.047550 -0.016982 0.012841 0.000643 -0.018464
# 3 -0.005275 -0.016982 0.015678 -0.006933 -0.000664 0.005198
# 4 0.002491 0.012841 -0.006933 0.041314 0.002414 -0.011271
# 5 0.000347 0.000643 -0.000664 0.002414 0.022112 -0.002162
# 6 -0.007768 -0.018464 0.005198 -0.011271 -0.002162 0.043061
#
#
# Mechanical properties :
#
#
# Convention : Reuss Voigt Hill
#
# Bulk Modulus (GPa) = 23.63562 52.31020 37.97291
# Shear Modulus (GPa) = 22.20074 34.99831 28.59952
#
# Velocity S-wave (km/s) = 3.15280 3.95855 3.57843
# Velocity P-wave (km/s) = 4.88223 6.65694 5.83743
#
# Compressibility (1/GPa) = 0.04230902
#
# Stress axis : x y z
#
# Youngs Moduli (GPa) = 97.64609 21.03070 63.78380
#
# Poissons Ratio (x) = -0.14041 0.33644
# Poissons Ratio (y) = -0.65195 1.08316
# Poissons Ratio (z) = 0.51506 0.35714
#
# Static dielectric constant tensor:
#      x y z
#    x 1.828870 0.011740 0.006530 
#    y 0.011740 1.813870 -0.034600 
#    z 0.006530 -0.034600 1.842410 
# 
# From -- ./inp_files/451757.got.cif
#   From: 2010.05.17/outbox.cif.g08.bks.cpg/sg2_226_cif.got.tgz:451757.got - 2010.06.03 11:33:40.
