data_PCOD9053593
_publ_section_title
;
Structure prediction by ZEFSAII (Michael W. Deem and Ramdas Pophale) SiO2 
 PCOD9053593
Probable space group: P -1
;
_chemical_formula_sum "Si O2"
_cell_formula_units_Z 16
_cell_length_a 18.033753
_cell_length_b 7.561033
_cell_length_c 14.334889
_cell_angle_alpha 103.240260
_cell_angle_beta 21.486884
_cell_angle_gamma 92.798696
_cell_volume 618.529672
_symmetry_space_group_name_H-M "P -1"
_symmetry_group_IT_number 2
_symmetry_cell_setting 'triclinic'
loop_
_space_group_symop_operation_xyz
x,y,z
-x,-y,-z
loop_
_atom_site_type_symbol
_atom_site_label
_atom_site_fract_x
_atom_site_fract_y
_atom_site_fract_z
Si Si1 0.545298 0.726019 0.072837
Si Si2 0.962748 0.338392 0.086634
Si Si3 0.932406 0.827279 0.722053
Si Si4 0.784651 0.641692 0.606447
Si Si5 0.293311 0.985902 0.545326
Si Si6 0.826101 0.263894 0.754662
Si Si7 0.420610 0.306275 0.346338
Si Si8 0.685211 0.860971 0.190396
O O1 0.307053 0.873156 0.418558
O O2 0.734052 0.791602 0.897707
O O3 0.562976 0.747484 0.944714
O O4 0.640660 0.491044 0.962493
O O5 0.700713 0.466113 0.440554
O O6 0.058710 0.125334 0.890589
O O7 0.116211 0.295346 0.994590
O O8 0.000000 0.500000 0.000000
O O9 0.107916 0.598725 0.525259
O O10 0.067365 0.863865 0.481192
O O11 0.815795 0.934010 0.970196
O O12 0.715671 0.688468 0.586988
O O13 0.975195 0.705658 0.423034
O O14 0.377486 0.156457 0.446934
O O15 0.508087 0.814572 0.330872
O O16 0.678875 0.218792 0.999135
O O17 0.500000 0.000000 0.500000
#
# Coordination Sequence:
#
# PCOD9053593 Si02
#       8
#     2   2   2   2   2   2   2   2
#     4   8  16  32  51  76 109 149 178 221 279 325
#     4   9  18  32  53  83 108 140 191 229 264 331
#     4   8  14  29  49  77 106 141 182 217 267 328
#     4   9  17  32  54  77 112 146 183 222 274 326
#     4   9  19  33  55  79 113 147 181 225 282 327
#     4   9  19  33  55  82 113 144 186 227 267 329
#     4  11  20  33  57  87 107 145 189 227 270 326
#     4   9  15  29  52  77 103 144 183 218 269 324
#
# _framework density 25.867794
#
# number of rings (size 3 to 8) (size 9 to 14) (size 15 to 20)
#    0.000    3.000    1.250    1.500    0.000    2.500 
#    0.000    6.250    2.750    6.750    0.000    0.000 
#    0.000    0.000    0.000    0.000    0.000    0.000 
#
# Total GULP energy -89238.702357 kJ/mol
# GULP energy per Si atom -5577.418897 kJ/mol
# Density = 2.580892 g / cm^3
# Si number density = 25.867794 Si / 1000 Ang^3
#
#
#
# Elastic Constant Matrix: (Units=GPa)
#
#
# Indices 1 2 3 4 5 6 
#
# 1 64.2520 20.3132 57.1721 -9.6135 18.0172 -14.1863
# 2 20.3132 56.6821 49.5100 -29.3650 12.5032 -0.5894
# 3 57.1721 49.5100 218.8530 13.9407 44.1006 17.2335
# 4 -9.6135 -29.3650 13.9407 49.2856 -1.3416 11.7424
# 5 18.0172 12.5032 44.1006 -1.3416 47.0335 -5.3427
# 6 -14.1863 -0.5894 17.2335 11.7424 -5.3427 30.8530
#
#
#
# Elastic Compliance Matrix: (Units=1/GPa)
#
#
# Indices 1 2 3 4 5 6 
#
# 1 0.027391 -0.000011 -0.008526 0.003982 -0.000594 0.015739
# 2 -0.000011 0.042802 -0.011100 0.029667 -0.000618 -0.004386
# 3 -0.008526 -0.011100 0.011779 -0.009866 -0.006017 -0.007999
# 4 0.003982 0.029667 -0.009866 0.043602 0.000098 -0.008669
# 5 -0.000594 -0.000618 -0.006017 0.000098 0.028198 0.007922
# 6 0.015739 -0.004386 -0.007999 -0.008669 0.007922 0.048703
#
#
# Mechanical properties :
#
#
# Convention : Reuss Voigt Hill
#
# Bulk Modulus (GPa) = 23.42067 65.97531 44.69799
# Shear Modulus (GPa) = 19.53263 39.62055 29.57659
#
# Velocity S-wave (km/s) = 2.75088 3.91788 3.38505
# Velocity P-wave (km/s) = 4.37761 6.78429 5.70920
#
# Compressibility (1/GPa) = 0.04269733
#
# Stress axis : x y z
#
# Youngs Moduli (GPa) = 36.50777 23.36339 84.90012
#
# Poissons Ratio (x) = 0.00026 0.72390
# Poissons Ratio (y) = 0.00040 0.94238
# Poissons Ratio (z) = 0.31128 0.25933
#
# Static dielectric constant tensor:
#      x y z
#    x 2.082130 -0.054480 0.079840 
#    y -0.054480 2.103220 0.026120 
#    z 0.079840 0.026120 2.141290 
# 
# From -- ./inp_files/540244.got.cif
#   From: 2010.05.17/outbox.cif.g08.bks.cpg/sg2_271_cif.got.tgz:540244.got - 2010.06.03 11:33:40.
