data_PCOD9053166
_publ_section_title
;
Structure prediction by ZEFSAII (Michael W. Deem and Ramdas Pophale) SiO2 
 PCOD9053166
Probable space group: P -1
;
_chemical_formula_sum "Si O2"
_cell_formula_units_Z 14
_cell_length_a 24.613661
_cell_length_b 14.582951
_cell_length_c 17.754065
_cell_angle_alpha 21.723841
_cell_angle_beta 159.700448
_cell_angle_gamma 160.041692
_cell_volume 691.508548
_symmetry_space_group_name_H-M "P -1"
_symmetry_group_IT_number 2
_symmetry_cell_setting 'triclinic'
loop_
_space_group_symop_operation_xyz
x,y,z
-x,-y,-z
loop_
_atom_site_type_symbol
_atom_site_label
_atom_site_fract_x
_atom_site_fract_y
_atom_site_fract_z
Si Si1 0.934225 0.175562 0.488932
Si Si2 0.701859 0.566213 0.730017
Si Si3 0.829667 0.328016 0.850759
Si Si4 0.874535 0.213343 0.209500
Si Si5 0.331670 0.360797 0.829761
Si Si6 0.367499 0.703687 0.001777
Si Si7 0.369236 0.406033 0.673663
O O1 0.876670 0.122912 0.366523
O O2 0.802797 0.286516 0.262369
O O3 0.156425 0.370769 0.625840
O O4 0.857827 0.868504 0.665286
O O5 0.500000 0.500000 0.500000
O O6 0.728106 0.309135 0.930399
O O7 0.716800 0.551645 0.850313
O O8 0.673366 0.408808 0.582031
O O9 0.934105 0.488032 0.786897
O O10 0.000000 0.500000 0.000000
O O11 0.745752 0.986921 0.008531
O O12 0.813745 0.922664 0.306624
O O13 0.401727 0.502977 0.729063
O O14 0.500000 0.500000 0.000000
O O15 0.481551 0.646833 0.131904
O O16 0.500000 0.000000 0.000000
#
# Coordination Sequence:
#
# PCOD9053166 Si02
#       7
#     2   2   2   2   2   2   2
#     4  11  21  41  62  93 136 171 217 276 329 397
#     4  11  19  31  59  93 134 167 206 253 338 398
#     4  12  24  37  69 100 130 169 218 279 349 385
#     4  11  20  34  60 100 126 162 206 275 333 380
#     4  12  28  46  67  95 134 186 230 271 330 398
#     4  11  22  35  62  99 135 171 209 279 345 395
#     4  12  23  41  62 100 144 164 219 283 329 402
#
# _framework density 20.245591999999998
#
# number of rings (size 3 to 8) (size 9 to 14) (size 15 to 20)
#    0.000    0.571    8.571    1.286    2.000    1.714 
#    0.000    0.714    0.000    1.714    0.000    0.000 
#    0.000    0.000    0.000    0.000    0.000    0.000 
#
# Total GULP energy -78053.592071 kJ/mol
# GULP energy per Si atom -5575.256576 kJ/mol
# Density = 2.019951 g / cm^3
# Si number density = 20.245592 Si / 1000 Ang^3
#
#
#
# Elastic Constant Matrix: (Units=GPa)
#
#
# Indices 1 2 3 4 5 6 
#
# 1 90.8545 21.7641 38.5826 8.8893 -2.3853 17.9729
# 2 21.7641 53.5887 31.0686 18.4251 -4.4381 0.2529
# 3 38.5826 31.0686 135.8708 16.9661 9.8261 3.6098
# 4 8.8893 18.4251 16.9661 36.9581 14.9194 -6.9959
# 5 -2.3853 -4.4381 9.8261 14.9194 47.4734 0.0330
# 6 17.9729 0.2529 3.6098 -6.9959 0.0330 20.7430
#
#
#
# Elastic Compliance Matrix: (Units=1/GPa)
#
#
# Indices 1 2 3 4 5 6 
#
# 1 0.016761 -0.002774 -0.003256 -0.005315 0.002938 -0.015719
# 2 -0.002774 0.028158 -0.004290 -0.015122 0.008135 -0.002306
# 3 -0.003256 -0.004290 0.009437 -0.000197 -0.002457 0.001169
# 4 -0.005315 -0.015122 -0.000197 0.046400 -0.016236 0.020499
# 5 0.002938 0.008135 -0.002457 -0.016236 0.027589 -0.007737
# 6 -0.015719 -0.002306 0.001169 0.020499 -0.007737 0.068580
#
#
# Mechanical properties :
#
#
# Convention : Reuss Voigt Hill
#
# Bulk Modulus (GPa) = 29.66014 51.46049 40.56032
# Shear Modulus (GPa) = 21.85277 33.62813 27.74045
#
# Velocity S-wave (km/s) = 3.28896 4.07997 3.70563
# Velocity P-wave (km/s) = 5.39491 6.90421 6.19569
#
# Compressibility (1/GPa) = 0.03371528
#
# Stress axis : x y z
#
# Youngs Moduli (GPa) = 59.66316 35.51350 105.96880
#
# Poissons Ratio (x) = 0.09852 0.34506
# Poissons Ratio (y) = 0.16552 0.45458
# Poissons Ratio (z) = 0.19428 0.15234
#
# Static dielectric constant tensor:
#      x y z
#    x 1.826600 0.044220 0.057190 
#    y 0.044220 1.709970 0.010380 
#    z 0.057190 0.010380 1.811050 
# 
# From -- ./inp_files/579871.got.cif
#   From: 2010.05.17/outbox.cif.g08.bks.cpg/sg2_290_cif.got.tgz:579871.got - 2010.06.03 11:33:40.
