data_PCOD9053427
_publ_section_title
;
Structure prediction by ZEFSAII (Michael W. Deem and Ramdas Pophale) SiO2 
 PCOD9053427
Probable space group: P -1
;
_chemical_formula_sum "Si O2"
_cell_formula_units_Z 16
_cell_length_a 21.251619
_cell_length_b 10.851329
_cell_length_c 9.255828
_cell_angle_alpha 123.945536
_cell_angle_beta 151.730691
_cell_angle_gamma 46.348221
_cell_volume 723.766036
_symmetry_space_group_name_H-M "P -1"
_symmetry_group_IT_number 2
_symmetry_cell_setting 'triclinic'
loop_
_space_group_symop_operation_xyz
x,y,z
-x,-y,-z
loop_
_atom_site_type_symbol
_atom_site_label
_atom_site_fract_x
_atom_site_fract_y
_atom_site_fract_z
Si Si1 0.413539 0.428363 0.674172
Si Si2 0.898171 0.359342 0.510039
Si Si3 0.690938 0.044384 0.256288
Si Si4 0.277495 0.847824 0.938271
Si Si5 0.335738 0.262172 0.665942
Si Si6 0.886135 0.848854 0.963448
Si Si7 0.857644 0.232966 0.796637
Si Si8 0.037790 0.304863 0.453595
O O1 0.352245 0.331632 0.587667
O O2 0.275803 0.586107 0.418222
O O3 0.500000 0.500000 0.000000
O O4 0.546980 0.287679 0.750752
O O5 0.811501 0.257758 0.312368
O O6 0.773703 0.557662 0.357448
O O7 0.997636 0.276916 0.515413
O O8 0.012866 0.325169 0.852239
O O9 0.708287 0.093433 0.156523
O O10 0.777730 0.118578 0.576793
O O11 0.786434 0.838316 0.320295
O O12 0.510639 0.142092 0.992369
O O13 0.191679 0.999967 0.978012
O O14 0.243856 0.162731 0.395887
O O15 0.006222 0.858349 0.105333
O O16 0.930298 0.271968 0.106786
O O17 0.000000 0.500000 0.500000
#
# Coordination Sequence:
#
# PCOD9053427 Si02
#       8
#     2   2   2   2   2   2   2   2
#     4  11  19  39  68 100 132 163 215 270 331 380
#     4  12  21  44  67  98 132 169 224 268 322 389
#     4  11  22  46  67  95 135 172 218 265 332 390
#     4  11  21  39  71 102 127 165 219 280 320 374
#     4  11  23  38  69 101 129 169 213 281 330 374
#     4  12  23  37  68 104 129 162 224 275 320 373
#     4  12  23  44  69  96 129 179 217 261 329 399
#     4  12  29  43  62  96 140 177 212 270 329 391
#
# _framework density 22.106591000000002
#
# number of rings (size 3 to 8) (size 9 to 14) (size 15 to 20)
#    0.000    0.500    7.500    2.625    1.750    3.000 
#    0.000    6.250    0.000    0.000    0.000    0.000 
#    0.000    0.000    0.000    0.000    0.000    0.000 
#
# Total GULP energy -89536.588047 kJ/mol
# GULP energy per Si atom -5596.036753 kJ/mol
# Density = 2.205628 g / cm^3
# Si number density = 22.106591 Si / 1000 Ang^3
#
#
#
# Elastic Constant Matrix: (Units=GPa)
#
#
# Indices 1 2 3 4 5 6 
#
# 1 43.6955 5.9634 25.2958 -4.6663 3.5580 -11.6910
# 2 5.9634 149.9248 62.3466 -20.7464 9.0708 -15.9858
# 3 25.2958 62.3466 121.2793 -16.2730 14.1060 -12.7406
# 4 -4.6663 -20.7464 -16.2730 40.0746 -3.1859 2.7469
# 5 3.5580 9.0708 14.1060 -3.1859 30.7414 -4.5026
# 6 -11.6910 -15.9858 -12.7406 2.7469 -4.5026 34.7730
#
#
#
# Elastic Compliance Matrix: (Units=1/GPa)
#
#
# Indices 1 2 3 4 5 6 
#
# 1 0.028514 0.002536 -0.006181 0.001562 0.000178 0.008388
# 2 0.002536 0.009207 -0.004506 0.003001 -0.000166 0.003176
# 3 -0.006181 -0.004506 0.012477 0.001746 -0.003525 -0.000172
# 4 0.001562 0.003001 0.001746 0.027446 0.001052 0.000513
# 5 0.000178 -0.000166 -0.003525 0.001052 0.034739 0.003107
# 6 0.008388 0.003176 -0.000172 0.000513 0.003107 0.033336
#
#
# Mechanical properties :
#
#
# Convention : Reuss Voigt Hill
#
# Bulk Modulus (GPa) = 29.50223 55.79014 42.64619
# Shear Modulus (GPa) = 28.84797 35.87071 32.35934
#
# Velocity S-wave (km/s) = 3.61633 4.03255 3.83010
# Velocity P-wave (km/s) = 5.55081 6.85373 6.23639
#
# Compressibility (1/GPa) = 0.03389575
#
# Stress axis : x y z
#
# Youngs Moduli (GPa) = 35.07010 108.61186 80.14525
#
# Poissons Ratio (x) = -0.27544 0.49538
# Poissons Ratio (y) = -0.08894 0.36117
# Poissons Ratio (z) = 0.21677 0.48946
#
# Static dielectric constant tensor:
#      x y z
#    x 1.820970 0.019040 -0.003630 
#    y 0.019040 1.846780 -0.029070 
#    z -0.003630 -0.029070 1.807570 
# 
# From -- ./inp_files/259113.got.cif
#   From: 2010.05.17/outbox.cif.g08.bks.cpg/sg2_130_cif.got.tgz:259113.got - 2010.06.03 11:33:40.
