data_PCOD9053168
_publ_section_title
;
Structure prediction by ZEFSAII (Michael W. Deem and Ramdas Pophale) SiO2 
 PCOD9053168
Probable space group: P -1
;
_chemical_formula_sum "Si O2"
_cell_formula_units_Z 16
_cell_length_a 20.721969
_cell_length_b 9.187076
_cell_length_c 12.806109
_cell_angle_alpha 76.613969
_cell_angle_beta 23.379743
_cell_angle_gamma 64.588993
_cell_volume 779.042499
_symmetry_space_group_name_H-M "P -1"
_symmetry_group_IT_number 2
_symmetry_cell_setting 'triclinic'
loop_
_space_group_symop_operation_xyz
x,y,z
-x,-y,-z
loop_
_atom_site_type_symbol
_atom_site_label
_atom_site_fract_x
_atom_site_fract_y
_atom_site_fract_z
Si Si1 0.429837 0.917479 0.479818
Si Si2 0.162740 0.799629 0.834750
Si Si3 0.154886 0.272944 0.929662
Si Si4 0.890025 0.654686 0.800437
Si Si5 0.072390 0.248410 0.629709
Si Si6 0.879905 0.937986 0.620088
Si Si7 0.770056 0.491775 0.343756
Si Si8 0.410743 0.177843 0.287516
O O1 0.322567 0.816295 0.651650
O O2 0.317744 0.062449 0.714446
O O3 0.388070 0.048679 0.421430
O O4 0.660694 0.772625 0.153536
O O5 0.283255 0.644974 0.593449
O O6 0.051380 0.746612 0.088338
O O7 0.000000 0.000000 0.000000
O O8 0.250310 0.384192 0.743913
O O9 0.027234 0.330582 0.214022
O O10 0.998267 0.344170 0.056862
O O11 0.918312 0.760742 0.651629
O O12 0.972469 0.447671 0.695965
O O13 0.071989 0.119302 0.563561
O O14 0.283306 0.196072 0.372055
O O15 0.000000 0.000000 0.500000
O O16 0.643851 0.084754 0.945372
O O17 0.673618 0.631887 0.559044
#
# Coordination Sequence:
#
# PCOD9053168 Si02
#       8
#     2   2   2   2   2   2   2   2
#     4  10  22  35  61 100 132 166 198 260 328 381
#     4  12  21  36  64 101 132 155 208 265 316 377
#     4  10  17  35  59  90 125 161 203 248 317 382
#     4  11  23  42  64  89 129 172 214 255 323 386
#     4  12  23  44  69  92 129 176 215 258 316 386
#     4  11  28  46  65  92 127 170 221 273 315 368
#     4  10  18  34  64  95 123 157 207 258 312 372
#     4  10  21  45  69  91 124 172 219 256 317 393
#
# _framework density 20.538032999999999
#
# number of rings (size 3 to 8) (size 9 to 14) (size 15 to 20)
#    0.000    1.250    5.000    1.875    1.750    1.500 
#    0.000    0.625    0.000    0.000    0.000    0.000 
#    0.000    0.000    0.000    0.000    0.000    0.000 
#
# Total GULP energy -89121.860765 kJ/mol
# GULP energy per Si atom -5570.116298 kJ/mol
# Density = 2.049129 g / cm^3
# Si number density = 20.538033 Si / 1000 Ang^3
#
#
#
# Elastic Constant Matrix: (Units=GPa)
#
#
# Indices 1 2 3 4 5 6 
#
# 1 99.8500 33.1952 33.0488 12.2753 4.4555 22.2321
# 2 33.1952 89.9778 29.0749 15.9121 -10.8276 19.3103
# 3 33.0488 29.0749 70.5523 6.3078 -10.0346 12.1180
# 4 12.2753 15.9121 6.3078 25.1330 2.5692 2.3174
# 5 4.4555 -10.8276 -10.0346 2.5692 24.6838 0.6674
# 6 22.2321 19.3103 12.1180 2.3174 0.6674 36.7319
#
#
#
# Elastic Compliance Matrix: (Units=1/GPa)
#
#
# Indices 1 2 3 4 5 6 
#
# 1 0.014425 -0.002587 -0.005273 -0.003037 -0.005422 -0.005341
# 2 -0.002587 0.016736 -0.002773 -0.008886 0.007765 -0.005898
# 3 -0.005273 -0.002773 0.019297 -0.001139 0.007747 -0.001786
# 4 -0.003037 -0.008886 -0.001139 0.047720 -0.008889 0.004037
# 5 -0.005422 0.007765 0.007747 -0.008889 0.049071 -0.003687
# 6 -0.005341 -0.005898 -0.001786 0.004037 -0.003687 0.033959
#
#
# Mechanical properties :
#
#
# Convention : Reuss Voigt Hill
#
# Bulk Modulus (GPa) = 34.25621 50.11310 42.18465
# Shear Modulus (GPa) = 23.56199 28.31383 25.93791
#
# Velocity S-wave (km/s) = 3.39076 3.71698 3.55761
# Velocity P-wave (km/s) = 5.66086 6.54786 6.12045
#
# Compressibility (1/GPa) = 0.02919179
#
# Stress axis : x y z
#
# Youngs Moduli (GPa) = 69.32465 59.75104 51.82086
#
# Poissons Ratio (x) = 0.15456 0.27326
# Poissons Ratio (y) = 0.17933 0.14371
# Poissons Ratio (z) = 0.36556 0.16571
#
# Static dielectric constant tensor:
#      x y z
#    x 1.826530 0.002050 -0.020430 
#    y 0.002050 1.762510 0.011010 
#    z -0.020430 0.011010 1.727910 
# 
# From -- ./inp_files/542537.got.cif
#   From: 2010.05.17/outbox.cif.g08.bks.cpg/sg2_272_cif.got.tgz:542537.got - 2010.06.03 11:33:40.
