data_PCOD9053229
_publ_section_title
;
Structure prediction by ZEFSAII (Michael W. Deem and Ramdas Pophale) SiO2 
 PCOD9053229
Probable space group: P -1
;
_chemical_formula_sum "Si O2"
_cell_formula_units_Z 16
_cell_length_a 11.661237
_cell_length_b 17.661160
_cell_length_c 9.623339
_cell_angle_alpha 68.289053
_cell_angle_beta 87.742372
_cell_angle_gamma 149.818865
_cell_volume 591.776959
_symmetry_space_group_name_H-M "P -1"
_symmetry_group_IT_number 2
_symmetry_cell_setting 'triclinic'
loop_
_space_group_symop_operation_xyz
x,y,z
-x,-y,-z
loop_
_atom_site_type_symbol
_atom_site_label
_atom_site_fract_x
_atom_site_fract_y
_atom_site_fract_z
Si Si1 0.614103 0.443677 0.484438
Si Si2 0.791441 0.164367 0.184976
Si Si3 0.576386 0.192001 0.230866
Si Si4 0.475995 0.278491 0.335647
Si Si5 0.726617 0.220701 0.754165
Si Si6 0.826767 0.755154 0.132808
Si Si7 0.538343 0.242377 0.914512
Si Si8 0.444148 0.581727 0.032432
O O1 0.375739 0.237403 0.521701
O O2 0.786911 0.634926 0.260417
O O3 0.402598 0.345351 0.681762
O O4 0.908755 0.579786 0.434216
O O5 0.574620 0.094224 0.308122
O O6 0.053916 0.295721 0.189264
O O7 0.519693 0.929704 0.266618
O O8 0.091849 0.412019 0.905429
O O9 0.424543 0.151086 0.380432
O O10 0.404208 0.100888 0.152945
O O11 0.000000 0.500000 0.000000
O O12 0.352840 0.251273 0.230000
O O13 0.786859 0.342939 0.758013
O O14 0.500000 0.000000 0.000000
O O15 0.660812 0.662077 0.054674
O O16 0.228356 0.049356 0.949232
O O17 0.632201 0.390046 0.885637
#
# Coordination Sequence:
#
# PCOD9053229 Si02
#       8
#     2   2   2   2   2   2   2   2
#     4  11  22  36  57  85 116 146 185 240 280 326
#     4   9  16  28  54  85 107 137 188 236 271 309
#     4   9  13  26  52  82 105 129 181 238 269 301
#     4   8  16  30  53  81 101 143 186 230 265 321
#     4  12  17  32  60  90 103 139 205 240 258 322
#     4  11  23  38  53  82 122 154 177 224 296 339
#     4  11  19  34  62  84 110 147 196 231 270 332
#     4   9  21  36  56  83 116 151 183 228 281 342
#
# _framework density 27.037210000000002
#
# number of rings (size 3 to 8) (size 9 to 14) (size 15 to 20)
#    0.750    1.250    5.000    1.125    0.000    0.500 
#    0.000    3.750    0.000    0.000    0.000    0.000 
#    0.000    0.000    0.000    0.000    0.000    0.000 
#
# Total GULP energy -89566.591965 kJ/mol
# GULP energy per Si atom -5597.911998 kJ/mol
# Density = 2.697567 g / cm^3
# Si number density = 27.037210 Si / 1000 Ang^3
#
#
#
# Elastic Constant Matrix: (Units=GPa)
#
#
# Indices 1 2 3 4 5 6 
#
# 1 113.7013 58.0542 29.7511 9.9117 -5.7374 0.3199
# 2 58.0542 187.5608 23.3381 8.4494 -6.6475 22.7311
# 3 29.7511 23.3381 53.6792 -0.7862 6.1893 1.2057
# 4 9.9117 8.4494 -0.7862 37.0138 -0.0389 -12.7340
# 5 -5.7374 -6.6475 6.1893 -0.0389 34.7436 7.1401
# 6 0.3199 22.7311 1.2057 -12.7340 7.1401 61.9441
#
#
#
# Elastic Compliance Matrix: (Units=1/GPa)
#
#
# Indices 1 2 3 4 5 6 
#
# 1 0.012123 -0.002861 -0.005800 -0.002617 0.002427 0.000283
# 2 -0.002861 0.006940 -0.001595 -0.001917 0.001774 -0.003100
# 3 -0.005800 -0.001595 0.023203 0.002890 -0.005683 0.001413
# 4 -0.002617 -0.001917 0.002890 0.030724 -0.002779 0.007297
# 5 0.002427 0.001774 -0.005683 -0.002779 0.031509 -0.004756
# 6 0.000283 -0.003100 0.001413 0.007297 -0.004756 0.019300
#
#
# Mechanical properties :
#
#
# Convention : Reuss Voigt Hill
#
# Bulk Modulus (GPa) = 45.96577 64.13646 55.05111
# Shear Modulus (GPa) = 32.98957 42.99349 37.99153
#
# Velocity S-wave (km/s) = 3.49686 3.99201 3.75261
# Velocity P-wave (km/s) = 5.77424 6.70978 6.25952
#
# Compressibility (1/GPa) = 0.02175532
#
# Stress axis : x y z
#
# Youngs Moduli (GPa) = 82.48713 144.08195 43.09812
#
# Poissons Ratio (x) = 0.41223 0.24995
# Poissons Ratio (y) = 0.23600 0.06873
# Poissons Ratio (z) = 0.47840 0.22979
#
# Static dielectric constant tensor:
#      x y z
#    x 2.080330 0.013700 0.058000 
#    y 0.013700 2.098920 0.026740 
#    z 0.058000 0.026740 2.233610 
# 
# From -- ./inp_files/435745.got.cif
#   From: 2010.05.17/outbox.cif.g08.bks.cpg/sg2_218_cif.got.tgz:435745.got - 2010.06.03 11:33:40.
