data_PCOD9053065
_publ_section_title
;
Structure prediction by ZEFSAII (Michael W. Deem and Ramdas Pophale) SiO2 
 PCOD9053065
Probable space group: P -1
;
_chemical_formula_sum "Si O2"
_cell_formula_units_Z 16
_cell_length_a 16.624647
_cell_length_b 14.267907
_cell_length_c 8.031056
_cell_angle_alpha 58.282009
_cell_angle_beta 136.970631
_cell_angle_gamma 138.444776
_cell_volume 861.318745
_symmetry_space_group_name_H-M "P -1"
_symmetry_group_IT_number 2
_symmetry_cell_setting 'triclinic'
loop_
_space_group_symop_operation_xyz
x,y,z
-x,-y,-z
loop_
_atom_site_type_symbol
_atom_site_label
_atom_site_fract_x
_atom_site_fract_y
_atom_site_fract_z
Si Si1 0.494010 0.846571 0.968753
Si Si2 0.303906 0.402043 0.491382
Si Si3 0.734980 0.664855 0.136300
Si Si4 0.940914 0.061096 0.729343
Si Si5 0.967984 0.903422 0.695712
Si Si6 0.599451 0.440771 0.844442
Si Si7 0.639931 0.992259 0.408783
Si Si8 0.683240 0.890416 0.894680
O O1 0.387059 0.677132 0.971084
O O2 0.564594 0.903377 0.207345
O O3 0.614027 0.891324 0.962287
O O4 0.409358 0.910578 0.739514
O O5 0.310148 0.426126 0.677521
O O6 0.132919 0.260909 0.335457
O O7 0.424688 0.376014 0.658496
O O8 0.346557 0.513083 0.307799
O O9 0.914148 0.794364 0.266006
O O10 0.682622 0.572035 0.977009
O O11 0.668848 0.749919 0.979308
O O12 0.862598 0.927399 0.614375
O O13 0.819708 0.078774 0.582058
O O14 0.000000 0.000000 0.000000
O O15 0.000000 0.000000 0.500000
O O16 0.135457 0.977864 0.950458
O O17 0.605067 0.903265 0.606719
#
# Coordination Sequence:
#
# PCOD9053065 Si02
#       8
#     2   2   2   2   2   2   2   2
#     4  11  25  43  60  88 126 165 203 245 295 372
#     4  11  22  35  57  91 124 159 196 248 305 353
#     4  11  22  35  60  94 121 156 192 255 307 356
#     4  11  19  34  60  91 118 148 197 254 302 346
#     4  11  18  34  58  92 121 146 192 259 304 343
#     4  11  24  37  57  88 128 162 202 238 303 369
#     4  11  24  41  64  90 120 162 205 250 306 353
#     4  11  22  37  66  91 122 152 201 259 306 353
#
# _framework density 18.576166000000001
#
# number of rings (size 3 to 8) (size 9 to 14) (size 15 to 20)
#    0.000    1.000    6.250    3.000    3.500    0.000 
#    0.000    0.625    0.000    0.750    0.000    0.000 
#    0.000    0.000    0.000    0.000    0.000    0.000 
#
# Total GULP energy -89078.055510 kJ/mol
# GULP energy per Si atom -5567.378469 kJ/mol
# Density = 1.853389 g / cm^3
# Si number density = 18.576166 Si / 1000 Ang^3
#
#
#
# Elastic Constant Matrix: (Units=GPa)
#
#
# Indices 1 2 3 4 5 6 
#
# 1 76.3330 21.7273 39.0135 -9.4751 -5.3977 -0.5554
# 2 21.7273 60.7797 29.8308 0.9088 2.1304 -3.6321
# 3 39.0135 29.8308 94.4528 -5.4482 -9.2271 -3.4235
# 4 -9.4751 0.9088 -5.4482 18.6135 2.0523 -0.7661
# 5 -5.3977 2.1304 -9.2271 2.0523 33.8054 -7.6513
# 6 -0.5554 -3.6321 -3.4235 -0.7661 -7.6513 30.3296
#
#
#
# Elastic Compliance Matrix: (Units=1/GPa)
#
#
# Indices 1 2 3 4 5 6 
#
# 1 0.018150 -0.003831 -0.005758 0.007613 0.001032 -0.000324
# 2 -0.003831 0.020723 -0.005457 -0.004196 -0.002938 0.000948
# 3 -0.005758 -0.005457 0.015230 0.001440 0.003945 0.001992
# 4 0.007613 -0.004196 0.001440 0.058426 -0.001469 0.000905
# 5 0.001032 -0.002938 0.003945 -0.001469 0.032998 0.008400
# 6 -0.000324 0.000948 0.001992 0.000905 0.008400 0.035445
#
#
# Mechanical properties :
#
#
# Convention : Reuss Voigt Hill
#
# Bulk Modulus (GPa) = 41.65057 45.85652 43.75354
# Shear Modulus (GPa) = 22.82387 25.94929 24.38658
#
# Velocity S-wave (km/s) = 3.50903 3.74158 3.62717
# Velocity P-wave (km/s) = 6.23602 6.58826 6.41456
#
# Compressibility (1/GPa) = 0.02400928
#
# Stress axis : x y z
#
# Youngs Moduli (GPa) = 55.09701 48.25505 65.66005
#
# Poissons Ratio (x) = 0.18488 0.37810
# Poissons Ratio (y) = 0.21109 0.35832
# Poissons Ratio (z) = 0.31727 0.26334
#
# Static dielectric constant tensor:
#      x y z
#    x 1.687750 0.002920 -0.073250 
#    y 0.002920 1.637710 0.035360 
#    z -0.073250 0.035360 1.697040 
# 
# From -- ./inp_files/334712.got.cif
#   From: 2010.05.17/outbox.cif.g08.bks.cpg/sg2_168_cif.got.tgz:334712.got - 2010.06.03 11:33:40.
