data_PCOD9053311
_publ_section_title
;
Structure prediction by ZEFSAII (Michael W. Deem and Ramdas Pophale) SiO2 
 PCOD9053311
Probable space group: P -1
;
_chemical_formula_sum "Si O2"
_cell_formula_units_Z 16
_cell_length_a 10.520114
_cell_length_b 21.571542
_cell_length_c 7.889189
_cell_angle_alpha 55.804364
_cell_angle_beta 137.743940
_cell_angle_gamma 144.965095
_cell_volume 686.623121
_symmetry_space_group_name_H-M "P -1"
_symmetry_group_IT_number 2
_symmetry_cell_setting 'triclinic'
loop_
_space_group_symop_operation_xyz
x,y,z
-x,-y,-z
loop_
_atom_site_type_symbol
_atom_site_label
_atom_site_fract_x
_atom_site_fract_y
_atom_site_fract_z
Si Si1 0.074715 0.247777 0.700998
Si Si2 0.483902 0.256683 0.226118
Si Si3 0.060764 0.867657 0.586645
Si Si4 0.563519 0.492280 0.767139
Si Si5 0.589545 0.658350 0.657426
Si Si6 0.031068 0.021917 0.196080
Si Si7 0.632359 0.044196 0.754610
Si Si8 0.975006 0.481420 0.300041
O O1 0.277067 0.374371 0.725024
O O2 0.947182 0.199777 0.463705
O O3 0.849191 0.173245 0.738628
O O4 0.267575 0.228402 0.922895
O O5 0.458029 0.312335 0.260243
O O6 0.344591 0.142038 0.337844
O O7 0.787411 0.351947 0.302425
O O8 0.848788 0.773832 0.654696
O O9 0.963604 0.925031 0.367670
O O10 0.385546 0.977007 0.744966
O O11 0.500000 0.500000 0.500000
O O12 0.646204 0.586332 0.819651
O O13 0.794436 0.494734 0.014392
O O14 0.286845 0.573777 0.399090
O O15 0.819188 0.027314 0.017132
O O16 0.000000 0.000000 0.000000
O O17 0.500000 0.000000 0.500000
O O18 0.000000 0.500000 0.500000
#
# Coordination Sequence:
#
# PCOD9053311 Si02
#       8
#     2   2   2   2   2   2   2   2
#     4   9  18  37  58  86 118 151 210 252 297 375
#     4   9  20  40  62  87 119 159 213 254 304 384
#     4  11  21  37  57  87 126 154 199 262 308 364
#     4  11  22  40  65  94 127 166 209 264 323 366
#     4  11  24  41  60  89 131 166 201 266 314 371
#     4  11  19  36  64  86 115 163 202 258 316 362
#     4   9  18  34  57  88 116 149 207 253 297 377
#     4   9  22  43  64  92 130 165 216 256 311 392
#
# _framework density 23.302447000000001
#
# number of rings (size 3 to 8) (size 9 to 14) (size 15 to 20)
#    0.000    2.000    5.000    0.000    0.000    7.500 
#    0.000    6.250    0.000    0.000    0.000    0.000 
#    0.000    0.000    0.000    0.000    0.000    0.000 
#
# Total GULP energy -89139.633018 kJ/mol
# GULP energy per Si atom -5571.227064 kJ/mol
# Density = 2.324941 g / cm^3
# Si number density = 23.302447 Si / 1000 Ang^3
#
#
#
# Elastic Constant Matrix: (Units=GPa)
#
#
# Indices 1 2 3 4 5 6 
#
# 1 61.5067 33.8168 24.8067 -1.6863 10.0154 19.0502
# 2 33.8168 185.0495 30.2838 -14.4336 4.1202 22.0344
# 3 24.8067 30.2838 70.9769 -0.4365 11.4794 15.4551
# 4 -1.6863 -14.4336 -0.4365 30.3162 1.3440 9.1262
# 5 10.0154 4.1202 11.4794 1.3440 32.8504 10.9639
# 6 19.0502 22.0344 15.4551 9.1262 10.9639 49.3844
#
#
#
# Elastic Compliance Matrix: (Units=1/GPa)
#
#
# Indices 1 2 3 4 5 6 
#
# 1 0.021740 -0.002301 -0.004943 0.001830 -0.002845 -0.005519
# 2 -0.002301 0.006658 -0.001651 0.003722 0.001127 -0.002505
# 3 -0.004943 -0.001651 0.017566 -0.000035 -0.003750 -0.002015
# 4 0.001830 0.003722 -0.000035 0.037678 0.000600 -0.009452
# 5 -0.002845 0.001127 -0.003750 0.000600 0.034453 -0.005992
# 6 -0.005519 -0.002505 -0.002015 -0.009452 -0.005992 0.027203
#
#
# Mechanical properties :
#
#
# Convention : Reuss Voigt Hill
#
# Bulk Modulus (GPa) = 35.49265 55.03861 45.26563
# Shear Modulus (GPa) = 28.98904 37.75191 33.37048
#
# Velocity S-wave (km/s) = 3.53091 4.02939 3.78836
# Velocity P-wave (km/s) = 5.64690 6.73190 6.21313
#
# Compressibility (1/GPa) = 0.02817485
#
# Stress axis : x y z
#
# Youngs Moduli (GPa) = 45.99837 150.19571 56.92740
#
# Poissons Ratio (x) = 0.34553 0.28142
# Poissons Ratio (y) = 0.10582 0.09397
# Poissons Ratio (z) = 0.22739 0.24793
#
# Static dielectric constant tensor:
#      x y z
#    x 3.418820 0.638140 -0.393180 
#    y 0.638140 2.195940 -0.126970 
#    z -0.393180 -0.126970 2.071950 
# 
# From -- ./inp_files/284769.got.cif
#   From: 2010.05.17/outbox.cif.g08.bks.cpg/sg2_143_cif.got.tgz:284769.got - 2010.06.03 11:33:40.
