data_PCOD9053561
_publ_section_title
;
Structure prediction by ZEFSAII (Michael W. Deem and Ramdas Pophale) SiO2 
 PCOD9053561
Probable space group: P -1
;
_chemical_formula_sum "Si O2"
_cell_formula_units_Z 16
_cell_length_a 23.339295
_cell_length_b 12.304334
_cell_length_c 11.479638
_cell_angle_alpha 148.085600
_cell_angle_beta 30.685306
_cell_angle_gamma 137.846828
_cell_volume 888.592199
_symmetry_space_group_name_H-M "P -1"
_symmetry_group_IT_number 2
_symmetry_cell_setting 'triclinic'
loop_
_space_group_symop_operation_xyz
x,y,z
-x,-y,-z
loop_
_atom_site_type_symbol
_atom_site_label
_atom_site_fract_x
_atom_site_fract_y
_atom_site_fract_z
Si Si1 0.334172 0.553498 0.341870
Si Si2 0.087410 0.985534 0.130802
Si Si3 0.974971 0.727877 0.887579
Si Si4 0.883840 0.366803 0.071532
Si Si5 0.528968 0.792426 0.328319
Si Si6 0.176998 0.905006 0.551005
Si Si7 0.894247 0.296177 0.729961
Si Si8 0.683237 0.055286 0.438559
O O1 0.209660 0.535975 0.594716
O O2 0.417088 0.645783 0.382208
O O3 0.338521 0.727834 0.390900
O O4 0.380736 0.342959 0.020298
O O5 0.103715 0.864531 0.111846
O O6 0.206713 0.025663 0.895222
O O7 0.008262 0.176623 0.447965
O O8 0.021131 0.824026 0.015083
O O9 0.929438 0.502479 0.788343
O O10 0.080176 0.754196 0.640839
O O11 0.878090 0.872805 0.144345
O O12 0.845981 0.351756 0.990277
O O13 0.000000 0.500000 0.000000
O O14 0.500000 0.000000 0.500000
O O15 0.584102 0.884743 0.433487
O O16 0.183998 0.839629 0.344794
O O17 0.282906 0.906665 0.452453
#
# Coordination Sequence:
#
# PCOD9053561 Si02
#       8
#     2   2   2   2   2   2   2   2
#     4   9  20  36  54  80 107 130 172 218 259 314
#     4   9  19  32  46  75 107 139 182 212 248 313
#     4   9  17  32  44  67 104 143 179 217 252 297
#     4  11  21  34  51  78 112 144 175 205 257 320
#     4   9  18  36  57  78 100 130 170 224 272 296
#     4   9  19  31  46  73 104 135 182 215 252 307
#     4  11  20  31  49  68 112 151 172 206 257 304
#     4   9  18  31  54  78 101 132 172 222 263 300
#
# _framework density 18.00601
#
# number of rings (size 3 to 8) (size 9 to 14) (size 15 to 20)
#    0.000    2.500    1.250    1.500    1.750    1.000 
#    2.250    0.000    0.000    0.750    0.000    8.750 
#    0.000    0.000    0.000    0.000    0.000    0.000 
#
# Total GULP energy -89157.583655 kJ/mol
# GULP energy per Si atom -5572.348978 kJ/mol
# Density = 1.796503 g / cm^3
# Si number density = 18.006010 Si / 1000 Ang^3
#
#
#
# Elastic Constant Matrix: (Units=GPa)
#
#
# Indices 1 2 3 4 5 6 
#
# 1 114.6422 28.1398 23.3999 7.0164 3.3003 7.0888
# 2 28.1398 44.9783 15.4960 4.1669 -2.3389 -1.1254
# 3 23.3999 15.4960 51.2767 1.1170 -4.7168 -2.3908
# 4 7.0164 4.1669 1.1170 12.9502 2.1708 -3.0741
# 5 3.3003 -2.3389 -4.7168 2.1708 22.4558 -0.5615
# 6 7.0888 -1.1254 -2.3908 -3.0741 -0.5615 24.3714
#
#
#
# Elastic Compliance Matrix: (Units=1/GPa)
#
#
# Indices 1 2 3 4 5 6 
#
# 1 0.011589 -0.005718 -0.003931 -0.004745 -0.002783 -0.004683
# 2 -0.005718 0.028440 -0.005479 -0.005698 0.003248 0.001795
# 3 -0.003931 -0.005479 0.023523 0.001893 0.004854 0.003549
# 4 -0.004745 -0.005698 0.001893 0.085542 -0.007470 0.011921
# 5 -0.002783 0.003248 0.004854 -0.007470 0.047060 0.001578
# 6 -0.004683 0.001795 0.003549 0.011921 0.001578 0.044365
#
#
# Mechanical properties :
#
#
# Convention : Reuss Voigt Hill
#
# Bulk Modulus (GPa) = 30.03487 38.32985 34.18236
# Shear Modulus (GPa) = 17.73851 21.54626 19.64238
#
# Velocity S-wave (km/s) = 3.14211 3.46296 3.30643
# Velocity P-wave (km/s) = 5.46630 6.10925 5.79670
#
# Compressibility (1/GPa) = 0.03329464
#
# Stress axis : x y z
#
# Youngs Moduli (GPa) = 86.28918 35.16217 42.51246
#
# Poissons Ratio (x) = 0.20106 0.16714
# Poissons Ratio (y) = 0.49342 0.23291
# Poissons Ratio (z) = 0.33925 0.19264
#
# Static dielectric constant tensor:
#      x y z
#    x 1.665370 0.006950 -0.001220 
#    y 0.006950 1.609580 0.012980 
#    z -0.001220 0.012980 1.629240 
# 
# From -- ./inp_files/66800.got.cif
#   From: 2010.05.17/outbox.cif.g08.bks.cpg/sg2_34_cif.got.tgz:66800.got - 2010.06.03 11:33:40.
