data_PCOD9053444
_publ_section_title
;
Structure prediction by ZEFSAII (Michael W. Deem and Ramdas Pophale) SiO2 
 PCOD9053444
Probable space group: P -1
;
_chemical_formula_sum "Si O2"
_cell_formula_units_Z 14
_cell_length_a 14.362463
_cell_length_b 20.455447
_cell_length_c 10.993954
_cell_angle_alpha 150.688710
_cell_angle_beta 29.255388
_cell_angle_gamma 154.561534
_cell_volume 621.214818
_symmetry_space_group_name_H-M "P -1"
_symmetry_group_IT_number 2
_symmetry_cell_setting 'triclinic'
loop_
_space_group_symop_operation_xyz
x,y,z
-x,-y,-z
loop_
_atom_site_type_symbol
_atom_site_label
_atom_site_fract_x
_atom_site_fract_y
_atom_site_fract_z
Si Si1 0.510199 0.536971 0.690428
Si Si2 0.825985 0.014150 0.581742
Si Si3 0.055332 0.835381 0.947588
Si Si4 0.030258 0.171282 0.233658
Si Si5 0.410090 0.718752 0.727533
Si Si6 0.023739 0.357950 0.039564
Si Si7 0.386115 0.909784 0.269744
O O1 0.500000 0.500000 0.500000
O O2 0.506727 0.396026 0.537906
O O3 0.279059 0.518647 0.970386
O O4 0.756128 0.705944 0.720215
O O5 0.621382 0.896069 0.720224
O O6 0.974506 0.943489 0.272376
O O7 0.694904 0.009596 0.602558
O O8 0.979496 0.201391 0.759988
O O9 0.998226 0.695461 0.882250
O O10 0.924059 0.769091 0.860866
O O11 0.337412 0.960424 0.806585
O O12 0.793297 0.147432 0.508494
O O13 0.000000 0.000000 0.000000
O O14 0.346817 0.755987 0.990657
O O15 0.188185 0.637858 0.758951
#
# Coordination Sequence:
#
# PCOD9053444 Si02
#       7
#     2   2   2   2   2   2   2
#     4  12  28  47  70 100 140 184 227 293 348 400
#     4  11  19  39  73 109 138 174 233 284 331 420
#     4  12  22  41  72 100 138 183 228 275 345 407
#     4  12  29  48  66 100 144 188 233 278 343 421
#     4  11  22  42  73 109 137 168 240 289 335 410
#     4  11  22  40  72 106 135 180 229 280 345 401
#     4  11  22  42  72 103 137 182 231 283 333 408
#
# _framework density 22.536487999999999
#
# number of rings (size 3 to 8) (size 9 to 14) (size 15 to 20)
#    0.000    0.571    5.714    4.286    2.000    2.857 
#    2.571    0.714    0.000    0.000    0.000    0.000 
#    0.000    0.000    0.000    0.000    0.000    0.000 
#
# Total GULP energy -78421.194892 kJ/mol
# GULP energy per Si atom -5601.513921 kJ/mol
# Density = 2.248519 g / cm^3
# Si number density = 22.536488 Si / 1000 Ang^3
#
#
#
# Elastic Constant Matrix: (Units=GPa)
#
#
# Indices 1 2 3 4 5 6 
#
# 1 128.7877 17.6195 11.8896 -5.4125 10.0487 18.2501
# 2 17.6195 65.9313 13.9005 -22.0539 -3.3111 20.8654
# 3 11.8896 13.9005 43.8947 -25.7660 -3.8365 8.5319
# 4 -5.4125 -22.0539 -25.7660 34.9189 -0.7150 -5.7005
# 5 10.0487 -3.3111 -3.8365 -0.7150 37.5278 -8.5627
# 6 18.2501 20.8654 8.5319 -5.7005 -8.5627 29.9516
#
#
#
# Elastic Compliance Matrix: (Units=1/GPa)
#
#
# Indices 1 2 3 4 5 6 
#
# 1 0.009205 -0.001040 -0.002758 -0.002287 -0.004190 -0.005731
# 2 -0.001040 0.024685 0.005255 0.016878 -0.000078 -0.014870
# 3 -0.002758 0.005255 0.043544 0.034055 0.004813 -0.006526
# 4 -0.002287 0.016878 0.034055 0.063112 0.005293 -0.006540
# 5 -0.004190 -0.000078 0.004813 0.005293 0.030881 0.011072
# 6 -0.005731 -0.014870 -0.006526 -0.006540 0.011072 0.051018
#
#
# Mechanical properties :
#
#
# Convention : Reuss Voigt Hill
#
# Bulk Modulus (GPa) = 12.44599 36.15921 24.30260
# Shear Modulus (GPa) = 20.29938 33.49328 26.89633
#
# Velocity S-wave (km/s) = 3.00448 3.85928 3.45839
# Velocity P-wave (km/s) = 4.19171 5.99486 5.17246
#
# Compressibility (1/GPa) = 0.08034719
#
# Stress axis : x y z
#
# Youngs Moduli (GPa) = 108.64125 40.51091 22.96521
#
# Poissons Ratio (x) = 0.04212 0.06335
# Poissons Ratio (y) = 0.11296 -0.12068
# Poissons Ratio (z) = 0.29968 -0.21289
#
# Static dielectric constant tensor:
#      x y z
#    x 1.832650 0.005540 0.011950 
#    y 0.005540 1.840480 -0.015470 
#    z 0.011950 -0.015470 1.831030 
# 
# From -- ./inp_files/279996.got.cif
#   From: 2010.05.17/outbox.cif.g08.bks.cpg/sg2_140_cif.got.tgz:279996.got - 2010.06.03 11:33:40.
