data_PCOD9053902
_publ_section_title
;
Structure prediction by ZEFSAII (Michael W. Deem and Ramdas Pophale) SiO2 
 PCOD9053902
Probable space group: P -1
;
_chemical_formula_sum "Si O2"
_cell_formula_units_Z 14
_cell_length_a 10.688428
_cell_length_b 9.523473
_cell_length_c 12.834806
_cell_angle_alpha 86.246835
_cell_angle_beta 35.127300
_cell_angle_gamma 70.814304
_cell_volume 658.418003
_symmetry_space_group_name_H-M "P -1"
_symmetry_group_IT_number 2
_symmetry_cell_setting 'triclinic'
loop_
_space_group_symop_operation_xyz
x,y,z
-x,-y,-z
loop_
_atom_site_type_symbol
_atom_site_label
_atom_site_fract_x
_atom_site_fract_y
_atom_site_fract_z
Si Si1 0.225657 0.997341 0.781691
Si Si2 0.468544 0.806685 0.934306
Si Si3 0.311852 0.614997 0.537978
Si Si4 0.972323 0.827733 0.314633
Si Si5 0.552912 0.132498 0.666417
Si Si6 0.649176 0.677364 0.586149
Si Si7 0.749327 0.812163 0.935580
O O1 0.131229 0.079174 0.729972
O O2 0.357394 0.089600 0.743558
O O3 0.437952 0.812012 0.648623
O O4 0.000000 0.000000 0.000000
O O5 0.560790 0.735965 0.760843
O O6 0.323349 0.000847 0.019711
O O7 0.263304 0.763139 0.119475
O O8 0.688669 0.767046 0.866564
O O9 0.500000 0.500000 0.500000
O O10 0.393552 0.740547 0.434924
O O11 0.315500 0.496676 0.450781
O O12 0.037090 0.708221 0.767631
O O13 0.892400 0.692131 0.392257
O O14 0.811422 0.965994 0.501723
O O15 0.431941 0.200895 0.856428
#
# Coordination Sequence:
#
# PCOD9053902 Si02
#       7
#     2   2   2   2   2   2   2
#     4  11  20  38  68  95 129 166 223 272 317 383
#     4  11  23  43  72  95 129 173 228 274 314 386
#     4  12  27  44  65  98 142 171 209 274 339 390
#     4  11  20  39  67  97 125 170 225 268 320 388
#     4  11  23  41  67  97 130 175 215 270 329 387
#     4  11  24  40  65  99 129 176 216 271 328 383
#     4  11  25  44  66 101 130 172 225 273 320 387
#
# _framework density 21.263089000000001
#
# number of rings (size 3 to 8) (size 9 to 14) (size 15 to 20)
#    0.000    0.857    5.714    3.429    2.000    4.000 
#    0.000    1.429    0.000    0.000    0.000    0.000 
#    0.000    0.000    0.000    0.000    0.000    0.000 
#
# Total GULP energy -78324.232761 kJ/mol
# GULP energy per Si atom -5594.588054 kJ/mol
# Density = 2.121469 g / cm^3
# Si number density = 21.263089 Si / 1000 Ang^3
#
#
#
# Elastic Constant Matrix: (Units=GPa)
#
#
# Indices 1 2 3 4 5 6 
#
# 1 55.6169 11.5159 34.0527 0.4850 7.0202 6.3487
# 2 11.5159 80.2232 23.9268 -12.5535 -2.0262 31.1283
# 3 34.0527 23.9268 106.3761 -23.6064 -0.6618 10.6865
# 4 0.4850 -12.5535 -23.6064 28.3238 10.5919 -8.7775
# 5 7.0202 -2.0262 -0.6618 10.5919 30.5912 2.9631
# 6 6.3487 31.1283 10.6865 -8.7775 2.9631 26.9309
#
#
#
# Elastic Compliance Matrix: (Units=1/GPa)
#
#
# Indices 1 2 3 4 5 6 
#
# 1 0.024657 -0.000677 -0.009307 -0.008762 -0.002491 -0.003918
# 2 -0.000677 0.023923 -0.002855 -0.002259 0.005139 -0.027661
# 3 -0.009307 -0.002855 0.015808 0.014603 -0.003187 0.004331
# 4 -0.008762 -0.002259 0.014603 0.061005 -0.020986 0.021074
# 5 -0.002491 0.005139 -0.003187 -0.020986 0.042308 -0.015584
# 6 -0.003918 -0.027661 0.004331 0.021074 -0.015584 0.076893
#
#
# Mechanical properties :
#
#
# Convention : Reuss Voigt Hill
#
# Bulk Modulus (GPa) = 25.83292 42.35634 34.09463
# Shear Modulus (GPa) = 17.65695 28.68389 23.17042
#
# Velocity S-wave (km/s) = 2.88480 3.67686 3.30464
# Velocity P-wave (km/s) = 4.82407 6.16353 5.53447
#
# Compressibility (1/GPa) = 0.03871030
#
# Stress axis : x y z
#
# Youngs Moduli (GPa) = 40.55648 41.80025 63.26025
#
# Poissons Ratio (x) = 0.02831 0.58877
# Poissons Ratio (y) = 0.02747 0.18058
# Poissons Ratio (z) = 0.37746 0.11932
#
# Static dielectric constant tensor:
#      x y z
#    x 1.805770 0.016550 0.010750 
#    y 0.016550 1.765690 -0.008860 
#    z 0.010750 -0.008860 1.761450 
# 
# From -- ./inp_files/600878.got.cif
#   From: 2010.05.17/outbox.cif.g08.bks.cpg/sg2_301_cif.got.tgz:600878.got - 2010.06.03 11:33:40.
