data_PCOD9053464
_publ_section_title
;
Structure prediction by ZEFSAII (Michael W. Deem and Ramdas Pophale) SiO2 
 PCOD9053464
Probable space group: P -1
;
_chemical_formula_sum "Si O2"
_cell_formula_units_Z 14
_cell_length_a 9.377352
_cell_length_b 11.625254
_cell_length_c 18.063402
_cell_angle_alpha 29.661907
_cell_angle_beta 49.056887
_cell_angle_gamma 60.661116
_cell_volume 719.276935
_symmetry_space_group_name_H-M "P -1"
_symmetry_group_IT_number 2
_symmetry_cell_setting 'triclinic'
loop_
_space_group_symop_operation_xyz
x,y,z
-x,-y,-z
loop_
_atom_site_type_symbol
_atom_site_label
_atom_site_fract_x
_atom_site_fract_y
_atom_site_fract_z
Si Si1 0.384830 0.585029 0.427161
Si Si2 0.612404 0.413552 0.325462
Si Si3 0.279744 0.051442 0.048009
Si Si4 0.371835 0.094238 0.151395
Si Si5 0.953037 0.446193 0.632208
Si Si6 0.773435 0.999264 0.579411
Si Si7 0.602350 0.609227 0.736001
O O1 0.500000 0.500000 0.500000
O O2 0.425275 0.445239 0.418563
O O3 0.159393 0.529764 0.553394
O O4 0.467175 0.866481 0.235714
O O5 0.723604 0.243202 0.427791
O O6 0.540196 0.332329 0.312697
O O7 0.724746 0.688147 0.126063
O O8 0.227280 0.054862 0.151761
O O9 0.141558 0.834238 0.176089
O O10 0.500000 0.000000 0.000000
O O11 0.291511 0.063040 0.279057
O O12 0.504496 0.352047 0.947509
O O13 0.797849 0.578949 0.645617
O O14 0.000000 0.500000 0.500000
O O15 0.655681 0.800150 0.675532
O O16 0.000000 0.000000 0.500000
#
# Coordination Sequence:
#
# PCOD9053464 Si02
#       7
#     2   2   2   2   2   2   2
#     4  12  22  37  64  99 132 160 208 273 327 374
#     4  11  22  43  66  92 131 168 213 264 321 383
#     4  11  19  40  69 101 127 159 212 272 324 376
#     4  11  21  42  67  91 133 166 208 272 326 372
#     4  12  20  37  71 100 124 166 214 264 324 388
#     4  12  27  43  63  91 132 177 219 261 315 387
#     4  11  23  43  66  93 125 177 215 253 326 387
#
# _framework density 19.463989999999999
#
# number of rings (size 3 to 8) (size 9 to 14) (size 15 to 20)
#    0.000    0.571    8.571    1.714    0.000    0.000 
#    2.571    4.286    0.000    0.000    0.000    0.000 
#    0.000    0.000    0.000    0.000    0.000    0.000 
#
# Total GULP energy -78095.139262 kJ/mol
# GULP energy per Si atom -5578.224233 kJ/mol
# Density = 1.941969 g / cm^3
# Si number density = 19.463990 Si / 1000 Ang^3
#
#
#
# Elastic Constant Matrix: (Units=GPa)
#
#
# Indices 1 2 3 4 5 6 
#
# 1 77.6007 32.9523 46.5640 7.5859 14.9342 -0.9334
# 2 32.9523 93.6236 40.1620 3.3271 16.9233 10.9252
# 3 46.5640 40.1620 108.6285 -5.9677 21.3825 -6.5528
# 4 7.5859 3.3271 -5.9677 37.4390 8.8661 2.7200
# 5 14.9342 16.9233 21.3825 8.8661 30.9285 -4.1068
# 6 -0.9334 10.9252 -6.5528 2.7200 -4.1068 38.2664
#
#
#
# Elastic Compliance Matrix: (Units=1/GPa)
#
#
# Indices 1 2 3 4 5 6 
#
# 1 0.019180 -0.003452 -0.006911 -0.004413 -0.001270 0.000447
# 2 -0.003452 0.014852 -0.003332 0.000431 -0.005005 -0.005463
# 3 -0.006911 -0.003332 0.015134 0.005501 -0.006577 0.002277
# 4 -0.004413 0.000431 0.005501 0.031303 -0.011243 -0.002720
# 5 -0.001270 -0.005005 -0.006577 -0.011243 0.044227 0.005817
# 6 0.000447 -0.005463 0.002277 -0.002720 0.005817 0.028911
#
#
# Mechanical properties :
#
#
# Convention : Reuss Voigt Hill
#
# Bulk Modulus (GPa) = 45.91998 57.68996 51.80497
# Shear Modulus (GPa) = 26.55940 32.00507 29.28223
#
# Velocity S-wave (km/s) = 3.69798 4.05942 3.88291
# Velocity P-wave (km/s) = 6.47123 7.18857 6.83931
#
# Compressibility (1/GPa) = 0.02177701
#
# Stress axis : x y z
#
# Youngs Moduli (GPa) = 52.13652 67.32925 66.07510
#
# Poissons Ratio (x) = 0.23242 0.45663
# Poissons Ratio (y) = 0.17998 0.22017
# Poissons Ratio (z) = 0.36031 0.22435
#
# Static dielectric constant tensor:
#      x y z
#    x 1.689020 0.039650 -0.002030 
#    y 0.039650 1.730000 -0.003860 
#    z -0.002030 -0.003860 1.790140 
# 
# From -- ./inp_files/206495.got.cif
#   From: 2010.05.17/outbox.cif.g08.bks.cpg/sg2_104_cif.got.tgz:206495.got - 2010.06.03 11:33:40.
