data_PCOD9053511
_publ_section_title
;
Structure prediction by ZEFSAII (Michael W. Deem and Ramdas Pophale) SiO2 
 PCOD9053511
Probable space group: P -1
;
_chemical_formula_sum "Si O2"
_cell_formula_units_Z 16
_cell_length_a 20.798361
_cell_length_b 8.679943
_cell_length_c 10.445737
_cell_angle_alpha 121.139952
_cell_angle_beta 126.494715
_cell_angle_gamma 34.259362
_cell_volume 852.042180
_symmetry_space_group_name_H-M "P -1"
_symmetry_group_IT_number 2
_symmetry_cell_setting 'triclinic'
loop_
_space_group_symop_operation_xyz
x,y,z
-x,-y,-z
loop_
_atom_site_type_symbol
_atom_site_label
_atom_site_fract_x
_atom_site_fract_y
_atom_site_fract_z
Si Si1 0.701858 0.188123 0.868059
Si Si2 0.210585 0.123536 0.890216
Si Si3 0.552198 0.413423 0.167414
Si Si4 0.744029 0.751279 0.576745
Si Si5 0.531940 0.870267 0.343408
Si Si6 0.741817 0.607742 0.795780
Si Si7 0.114581 0.932498 0.138730
Si Si8 0.028773 0.464942 0.369248
O O1 0.559049 0.479195 0.836254
O O2 0.797284 0.169601 0.919980
O O3 0.702110 0.016397 0.697740
O O4 0.751170 0.042784 0.004010
O O5 0.087275 0.276803 0.740819
O O6 0.320879 0.905701 0.827257
O O7 0.195327 0.353138 0.020499
O O8 0.567131 0.602157 0.289059
O O9 0.500000 0.500000 0.000000
O O10 0.642671 0.808723 0.405473
O O11 0.767984 0.607254 0.677726
O O12 0.860490 0.591200 0.559405
O O13 0.500000 0.000000 0.500000
O O14 0.401984 0.115560 0.226115
O O15 0.795686 0.323307 0.768268
O O16 0.067271 0.200882 0.253712
O O17 0.000000 0.000000 0.000000
O O18 0.000000 0.500000 0.500000
#
# Coordination Sequence:
#
# PCOD9053511 Si02
#       8
#     2   2   2   2   2   2   2   2
#     4   9  19  37  62  93 112 154 205 239 295 346
#     4  10  20  38  65  83 119 161 193 243 296 352
#     4  10  17  35  60  92 117 146 196 249 288 346
#     4   9  20  38  65  84 119 160 195 241 289 363
#     4  10  17  35  61  90 118 143 201 245 283 354
#     4  10  19  37  63  95 109 156 204 239 296 342
#     4  11  23  39  63  87 122 151 204 254 277 351
#     4  11  25  44  55  87 127 157 194 243 304 348
#
# _framework density 18.778413
#
# number of rings (size 3 to 8) (size 9 to 14) (size 15 to 20)
#    0.000    2.000    6.250    0.000    1.750    3.500 
#    6.750    3.125    0.000    0.000    0.000    0.000 
#    0.000    0.000    0.000    0.000    0.000    0.000 
#
# Total GULP energy -89087.726988 kJ/mol
# GULP energy per Si atom -5567.982937 kJ/mol
# Density = 1.873567 g / cm^3
# Si number density = 18.778413 Si / 1000 Ang^3
#
#
#
# Elastic Constant Matrix: (Units=GPa)
#
#
# Indices 1 2 3 4 5 6 
#
# 1 127.5426 48.6704 32.0951 -8.2460 15.3302 -37.4066
# 2 48.6704 64.8830 -4.4010 1.2224 -1.0900 -13.0224
# 3 32.0951 -4.4010 51.6165 -2.6132 9.0242 -14.6866
# 4 -8.2460 1.2224 -2.6132 22.7725 -7.7422 6.3920
# 5 15.3302 -1.0900 9.0242 -7.7422 25.2418 -0.9301
# 6 -37.4066 -13.0224 -14.6866 6.3920 -0.9301 32.8752
#
#
#
# Elastic Compliance Matrix: (Units=1/GPa)
#
#
# Indices 1 2 3 4 5 6 
#
# 1 0.019884 -0.012851 -0.007926 -0.000038 -0.009303 0.013737
# 2 -0.012851 0.025983 0.009450 -0.003654 0.004455 0.000727
# 3 -0.007926 0.009450 0.028198 -0.004400 -0.005914 0.008010
# 4 -0.000038 -0.003654 -0.004400 0.053196 0.017265 -0.013311
# 5 -0.009303 0.004455 -0.005914 0.017265 0.052377 -0.013337
# 6 0.013737 0.000727 0.008010 -0.013311 -0.013337 0.052126
#
#
# Mechanical properties :
#
#
# Convention : Reuss Voigt Hill
#
# Bulk Modulus (GPa) = 19.45193 44.08567 31.76880
# Shear Modulus (GPa) = 18.41234 27.35641 22.88437
#
# Velocity S-wave (km/s) = 3.13470 3.82095 3.49471
# Velocity P-wave (km/s) = 4.84592 6.55698 5.76528
#
# Compressibility (1/GPa) = 0.05140877
#
# Stress axis : x y z
#
# Youngs Moduli (GPa) = 50.29195 38.48637 35.46331
#
# Poissons Ratio (x) = 0.49461 0.28110
# Poissons Ratio (y) = 0.64633 -0.33512
# Poissons Ratio (z) = 0.39863 -0.36368
#
# Static dielectric constant tensor:
#      x y z
#    x 1.665450 -0.046560 0.024790 
#    y -0.046560 1.675430 -0.023160 
#    z 0.024790 -0.023160 1.658420 
# 
# From -- ./inp_files/225468.got.cif
#   From: 2010.05.17/outbox.cif.g08.bks.cpg/sg2_113_cif.got.tgz:225468.got - 2010.06.03 11:33:40.
