data_PCOD9053769
_publ_section_title
;
Structure prediction by ZEFSAII (Michael W. Deem and Ramdas Pophale) SiO2 
 PCOD9053769
Probable space group: P -1
;
_chemical_formula_sum "Si O2"
_cell_formula_units_Z 16
_cell_length_a 14.034268
_cell_length_b 14.041411
_cell_length_c 9.987779
_cell_angle_alpha 62.762305
_cell_angle_beta 102.799435
_cell_angle_gamma 49.759185
_cell_volume 864.948990
_symmetry_space_group_name_H-M "P -1"
_symmetry_group_IT_number 2
_symmetry_cell_setting 'triclinic'
loop_
_space_group_symop_operation_xyz
x,y,z
-x,-y,-z
loop_
_atom_site_type_symbol
_atom_site_label
_atom_site_fract_x
_atom_site_fract_y
_atom_site_fract_z
Si Si1 0.876481 0.730894 0.963732
Si Si2 0.857679 0.896133 0.484824
Si Si3 0.816892 0.096383 0.588213
Si Si4 0.433713 0.940923 0.540065
Si Si5 0.416314 0.530512 0.316610
Si Si6 0.042344 0.765751 0.113715
Si Si7 0.167592 0.470137 0.970370
Si Si8 0.111569 0.989066 0.818172
O O1 0.831237 0.648354 0.022219
O O2 0.972688 0.708692 0.124695
O O3 0.029045 0.592087 0.978165
O O4 0.684984 0.969195 0.690419
O O5 0.072183 0.647084 0.730627
O O6 0.826098 0.018440 0.506908
O O7 0.715193 0.936170 0.463796
O O8 0.820576 0.978515 0.275347
O O9 0.598167 0.325172 0.416326
O O10 0.943427 0.084589 0.625087
O O11 0.926088 0.930909 0.849039
O O12 0.500000 0.000000 0.500000
O O13 0.624026 0.698196 0.797710
O O14 0.500000 0.500000 0.500000
O O15 0.266889 0.576296 0.276660
O O16 0.284358 0.744901 0.065339
O O17 0.980028 0.882526 0.154992
#
# Coordination Sequence:
#
# PCOD9053769 Si02
#       8
#     2   2   2   2   2   2   2   2
#     4   9  18  33  58  88 107 144 197 236 280 338
#     4  11  23  37  56  90 121 152 189 236 299 340
#     4  11  21  39  58  84 115 152 201 235 275 352
#     4   9  18  34  58  84 112 147 191 238 276 336
#     4  11  21  38  61  83 112 156 201 237 283 338
#     4  11  20  37  61  85 113 151 195 243 283 343
#     4   9  18  35  56  82 117 144 185 242 286 333
#     4  11  24  38  56  84 126 152 185 246 291 344
#
# _framework density 18.498201000000002
#
# number of rings (size 3 to 8) (size 9 to 14) (size 15 to 20)
#    0.000    1.750    5.000    1.875    1.750    1.500 
#    0.000    0.625    0.000    3.000    0.000    0.000 
#    0.000    0.000    0.000    0.000    0.000    0.000 
#
# Total GULP energy -89203.317024 kJ/mol
# GULP energy per Si atom -5575.207314 kJ/mol
# Density = 1.845610 g / cm^3
# Si number density = 18.498201 Si / 1000 Ang^3
#
#
#
# Elastic Constant Matrix: (Units=GPa)
#
#
# Indices 1 2 3 4 5 6 
#
# 1 71.4265 15.0199 25.9161 -1.2058 13.8688 0.5419
# 2 15.0199 35.9737 27.7977 -12.4192 1.2108 -0.9136
# 3 25.9161 27.7977 98.0085 -24.4747 14.4934 -5.5588
# 4 -1.2058 -12.4192 -24.4747 26.7793 -6.6443 -1.0853
# 5 13.8688 1.2108 14.4934 -6.6443 29.6883 2.4146
# 6 0.5419 -0.9136 -5.5588 -1.0853 2.4146 25.9294
#
#
#
# Elastic Compliance Matrix: (Units=1/GPa)
#
#
# Indices 1 2 3 4 5 6 
#
# 1 0.018315 -0.007373 -0.003576 -0.007939 -0.008207 -0.000977
# 2 -0.007373 0.041244 -0.007525 0.014042 0.008596 -0.000219
# 3 -0.003576 -0.007525 0.016863 0.010901 -0.004162 0.004269
# 4 -0.007939 0.014042 0.010901 0.056124 0.010016 0.004414
# 5 -0.008207 0.008596 -0.004162 0.010016 0.041756 -0.003887
# 6 -0.000977 -0.000219 0.004269 0.004414 -0.003887 0.040041
#
#
# Mechanical properties :
#
#
# Convention : Reuss Voigt Hill
#
# Bulk Modulus (GPa) = 25.33352 38.09736 31.71544
# Shear Modulus (GPa) = 18.90713 25.59107 22.24910
#
# Velocity S-wave (km/s) = 3.20051 3.72349 3.47186
# Velocity P-wave (km/s) = 5.23283 6.25506 5.76664
#
# Compressibility (1/GPa) = 0.03947339
#
# Stress axis : x y z
#
# Youngs Moduli (GPa) = 54.59918 24.24573 59.30105
#
# Poissons Ratio (x) = 0.17876 0.21207
# Poissons Ratio (y) = 0.40256 0.44627
# Poissons Ratio (z) = 0.19526 0.18246
#
# Static dielectric constant tensor:
#      x y z
#    x 1.711040 0.026020 0.013980 
#    y 0.026020 1.619800 -0.024640 
#    z 0.013980 -0.024640 1.661440 
# 
# From -- ./inp_files/313004.got.cif
#   From: 2010.05.17/outbox.cif.g08.bks.cpg/sg2_157_cif.got.tgz:313004.got - 2010.06.03 11:33:40.
