data_PCOD9053468
_publ_section_title
;
Structure prediction by ZEFSAII (Michael W. Deem and Ramdas Pophale) SiO2 
 PCOD9053468
Probable space group: P -1
;
_chemical_formula_sum "Si O2"
_cell_formula_units_Z 16
_cell_length_a 9.501304
_cell_length_b 14.132107
_cell_length_c 9.008475
_cell_angle_alpha 55.000424
_cell_angle_beta 118.487216
_cell_angle_gamma 125.467371
_cell_volume 787.931030
_symmetry_space_group_name_H-M "P -1"
_symmetry_group_IT_number 2
_symmetry_cell_setting 'triclinic'
loop_
_space_group_symop_operation_xyz
x,y,z
-x,-y,-z
loop_
_atom_site_type_symbol
_atom_site_label
_atom_site_fract_x
_atom_site_fract_y
_atom_site_fract_z
Si Si1 0.359307 0.785094 0.186629
Si Si2 0.276849 0.251721 0.255196
Si Si3 0.820210 0.138900 0.747321
Si Si4 0.127662 0.884983 0.785352
Si Si5 0.260063 0.098142 0.875488
Si Si6 0.316730 0.990224 0.485250
Si Si7 0.212375 0.317567 0.833539
Si Si8 0.428256 0.563035 0.534999
O O1 0.343358 0.836731 0.295421
O O2 0.544921 0.861792 0.129031
O O3 0.339455 0.643518 0.332473
O O4 0.214197 0.812108 0.997115
O O5 0.310390 0.126633 0.353740
O O6 0.414640 0.340669 0.366541
O O7 0.077796 0.203846 0.261917
O O8 0.281340 0.314747 0.038219
O O9 0.999959 0.253780 0.786812
O O10 0.824571 0.115580 0.598143
O O11 0.791526 0.004952 0.926475
O O12 0.135321 0.012070 0.758653
O O13 0.257035 0.934002 0.667758
O O14 0.252188 0.221812 0.829698
O O15 0.500000 0.000000 0.500000
O O16 0.296896 0.454521 0.675755
O O17 0.500000 0.500000 0.500000
#
# Coordination Sequence:
#
# PCOD9053468 Si02
#       8
#     2   2   2   2   2   2   2   2
#     4  11  23  46  67 101 137 184 218 269 340 406
#     4  12  25  47  66 102 136 177 230 277 334 403
#     4  11  22  40  70 105 136 168 217 281 349 392
#     4  11  24  41  71 103 141 170 220 283 347 396
#     4  11  19  40  70  98 136 177 208 273 342 407
#     4  12  24  38  69 112 142 168 217 283 348 405
#     4  12  24  44  71  97 136 182 229 273 331 403
#     4  12  28  46  71  92 132 189 237 271 327 399
#
# _framework density 20.306345
#
# number of rings (size 3 to 8) (size 9 to 14) (size 15 to 20)
#    0.000    0.500    5.000    6.375    1.750    0.500 
#    0.000    0.625    0.000    0.000    0.000    0.000 
#    0.000    0.000    0.000    0.000    0.000    0.000 
#
# Total GULP energy -89374.562962 kJ/mol
# GULP energy per Si atom -5585.910185 kJ/mol
# Density = 2.026013 g / cm^3
# Si number density = 20.306345 Si / 1000 Ang^3
#
#
#
# Elastic Constant Matrix: (Units=GPa)
#
#
# Indices 1 2 3 4 5 6 
#
# 1 116.4423 33.1281 36.7285 -0.1033 -17.8740 9.3417
# 2 33.1281 78.0063 34.7538 4.0560 -7.5304 2.9571
# 3 36.7285 34.7538 111.9440 -9.5634 -18.1831 -0.2966
# 4 -0.1033 4.0560 -9.5634 34.1261 -0.1628 -14.2461
# 5 -17.8740 -7.5304 -18.1831 -0.1628 17.8559 9.5829
# 6 9.3417 2.9571 -0.2966 -14.2461 9.5829 34.7258
#
#
#
# Elastic Compliance Matrix: (Units=1/GPa)
#
#
# Indices 1 2 3 4 5 6 
#
# 1 0.012819 -0.002947 -0.001163 -0.003553 0.015115 -0.008836
# 2 -0.002947 0.016424 -0.004354 -0.004286 0.000930 -0.002658
# 3 -0.001163 -0.004354 0.012646 0.003947 0.010118 -0.000381
# 4 -0.003553 -0.004286 0.003947 0.039609 -0.012246 0.020983
# 5 0.015115 0.000930 0.010118 -0.012246 0.101646 -0.037133
# 6 -0.008836 -0.002658 -0.000381 0.020983 -0.037133 0.050253
#
#
# Mechanical properties :
#
#
# Convention : Reuss Voigt Hill
#
# Bulk Modulus (GPa) = 40.06248 57.29040 48.67644
# Shear Modulus (GPa) = 19.33139 30.79371 25.06255
#
# Velocity S-wave (km/s) = 3.08878 3.89840 3.51696
# Velocity P-wave (km/s) = 5.70023 6.96689 6.36515
#
# Compressibility (1/GPa) = 0.02496101
#
# Stress axis : x y z
#
# Youngs Moduli (GPa) = 78.00859 60.88481 79.07613
#
# Poissons Ratio (x) = 0.17944 0.09195
# Poissons Ratio (y) = 0.22990 0.34432
# Poissons Ratio (z) = 0.09071 0.26511
#
# Static dielectric constant tensor:
#      x y z
#    x 1.726650 0.007240 0.020580 
#    y 0.007240 1.734520 0.046230 
#    z 0.020580 0.046230 1.750870 
# 
# From -- ./inp_files/185266.got.cif
#   From: 2010.05.17/outbox.cif.g08.bks.cpg/sg2_93_cif.got.tgz:185266.got - 2010.06.03 11:33:40.
