data_PCOD9053185
_publ_section_title
;
Structure prediction by ZEFSAII (Michael W. Deem and Ramdas Pophale) SiO2 
 PCOD9053185
Probable space group: P -1
;
_chemical_formula_sum "Si O2"
_cell_formula_units_Z 16
_cell_length_a 14.812137
_cell_length_b 21.091157
_cell_length_c 9.083962
_cell_angle_alpha 41.454599
_cell_angle_beta 38.683742
_cell_angle_gamma 25.461533
_cell_volume 751.915936
_symmetry_space_group_name_H-M "P -1"
_symmetry_group_IT_number 2
_symmetry_cell_setting 'triclinic'
loop_
_space_group_symop_operation_xyz
x,y,z
-x,-y,-z
loop_
_atom_site_type_symbol
_atom_site_label
_atom_site_fract_x
_atom_site_fract_y
_atom_site_fract_z
Si Si1 0.859406 0.217327 0.521223
Si Si2 0.541380 0.768556 0.528284
Si Si3 0.350079 0.988755 0.148167
Si Si4 0.069140 0.916505 0.861769
Si Si5 0.227134 0.533906 0.294174
Si Si6 0.310795 0.666677 0.764425
Si Si7 0.009477 0.227605 0.588605
Si Si8 0.488274 0.017800 0.657728
O O1 0.677970 0.324288 0.439024
O O2 0.837811 0.295849 0.554535
O O3 0.097258 0.117729 0.307433
O O4 0.894929 0.090807 0.753665
O O5 0.476108 0.834732 0.329767
O O6 0.304976 0.840993 0.756142
O O7 0.741155 0.590579 0.579817
O O8 0.594900 0.835595 0.438205
O O9 0.500000 0.000000 0.000000
O O10 0.359010 0.001259 0.940493
O O11 0.143177 0.830333 0.764115
O O12 0.990454 0.870576 0.146110
O O13 0.455397 0.438548 0.263486
O O14 0.039638 0.663018 0.424049
O O15 0.224258 0.606734 0.032109
O O16 0.248641 0.120243 0.394927
O O17 0.500000 0.000000 0.500000
#
# Coordination Sequence:
#
# PCOD9053185 Si02
#       8
#     2   2   2   2   2   2   2   2
#     4  11  19  32  59  88 112 149 194 232 283 329
#     4   9  18  40  62  78 113 156 180 231 288 343
#     4   9  18  37  58  79 110 147 191 234 277 325
#     4   9  18  34  56  89 116 142 186 234 292 327
#     4   9  20  38  54  81 121 152 182 220 298 341
#     4   9  19  34  55  81 119 156 180 224 284 360
#     4  11  21  36  58  88 121 147 181 245 276 336
#     4  11  23  38  60  86 110 145 197 237 281 319
#
# _framework density 21.278974999999999
#
# number of rings (size 3 to 8) (size 9 to 14) (size 15 to 20)
#    0.000    2.250    3.750    1.500    3.500    0.500 
#    0.000    2.500    0.000    0.000    0.000    0.000 
#    0.000    0.000    0.000    0.000    0.000    0.000 
#
# Total GULP energy -89270.287348 kJ/mol
# GULP energy per Si atom -5579.392959 kJ/mol
# Density = 2.123054 g / cm^3
# Si number density = 21.278975 Si / 1000 Ang^3
#
#
#
# Elastic Constant Matrix: (Units=GPa)
#
#
# Indices 1 2 3 4 5 6 
#
# 1 75.9351 17.3692 17.6521 -13.2442 25.1524 13.4705
# 2 17.3692 74.2573 34.1881 -17.7700 -1.8675 28.9108
# 3 17.6521 34.1881 74.9966 -1.6793 7.9345 17.1342
# 4 -13.2442 -17.7700 -1.6793 26.6466 1.2455 -5.6102
# 5 25.1524 -1.8675 7.9345 1.2455 33.4031 2.2406
# 6 13.4705 28.9108 17.1342 -5.6102 2.2406 32.1863
#
#
#
# Elastic Compliance Matrix: (Units=1/GPa)
#
#
# Indices 1 2 3 4 5 6 
#
# 1 0.021559 -0.000179 -0.001961 0.010171 -0.015826 -0.004943
# 2 -0.000179 0.028212 -0.008762 0.014075 0.004507 -0.018462
# 3 -0.001961 -0.008762 0.018421 -0.005923 -0.003038 -0.001936
# 4 0.010171 0.014075 -0.005923 0.051009 -0.007074 -0.004363
# 5 -0.015826 0.004507 -0.003038 -0.007074 0.043094 -0.000041
# 6 -0.004943 -0.018462 -0.001936 -0.004363 -0.000041 0.049994
#
#
# Mechanical properties :
#
#
# Convention : Reuss Voigt Hill
#
# Bulk Modulus (GPa) = 21.55809 40.40085 30.97947
# Shear Modulus (GPa) = 20.03550 28.84585 24.44067
#
# Velocity S-wave (km/s) = 3.07182 3.68585 3.39275
# Velocity P-wave (km/s) = 4.76808 6.09438 5.47156
#
# Compressibility (1/GPa) = 0.04638630
#
# Stress axis : x y z
#
# Youngs Moduli (GPa) = 46.38446 35.44556 54.28559
#
# Poissons Ratio (x) = 0.00636 0.10647
# Poissons Ratio (y) = 0.00832 0.47568
# Poissons Ratio (z) = 0.09097 0.31059
#
# Static dielectric constant tensor:
#      x y z
#    x 1.877640 -0.024590 0.009760 
#    y -0.024590 1.795130 -0.003340 
#    z 0.009760 -0.003340 1.793680 
# 
# From -- ./inp_files/318864.got.cif
#   From: 2010.05.17/outbox.cif.g08.bks.cpg/sg2_160_cif.got.tgz:318864.got - 2010.06.03 11:33:40.
