data_PCOD9053371
_publ_section_title
;
Structure prediction by ZEFSAII (Michael W. Deem and Ramdas Pophale) SiO2 
 PCOD9053371
Probable space group: P -1
;
_chemical_formula_sum "Si O2"
_cell_formula_units_Z 16
_cell_length_a 12.554554
_cell_length_b 21.820437
_cell_length_c 15.147805
_cell_angle_alpha 150.438328
_cell_angle_beta 26.120612
_cell_angle_gamma 150.897133
_cell_volume 815.019123
_symmetry_space_group_name_H-M "P -1"
_symmetry_group_IT_number 2
_symmetry_cell_setting 'triclinic'
loop_
_space_group_symop_operation_xyz
x,y,z
-x,-y,-z
loop_
_atom_site_type_symbol
_atom_site_label
_atom_site_fract_x
_atom_site_fract_y
_atom_site_fract_z
Si Si1 0.483214 0.641131 0.549334
Si Si2 0.540819 0.268649 0.129676
Si Si3 0.690464 0.889453 0.577221
Si Si4 0.979425 0.318473 0.730151
Si Si5 0.755113 0.994258 0.468173
Si Si6 0.913705 0.648736 0.498525
Si Si7 0.839980 0.096955 0.233686
Si Si8 0.775305 0.049022 0.029124
O O1 0.410460 0.710481 0.775617
O O2 0.620141 0.747122 0.500986
O O3 0.225708 0.501912 0.543875
O O4 0.715825 0.604536 0.369674
O O5 0.321488 0.319716 0.328764
O O6 0.408981 0.107851 0.002702
O O7 0.797838 0.337772 0.964425
O O8 0.674777 0.899012 0.495366
O O9 0.435039 0.919228 0.833224
O O10 0.000000 0.000000 0.500000
O O11 0.927880 0.352566 0.711008
O O12 0.913430 0.155665 0.574780
O O13 0.481039 0.978097 0.605183
O O14 0.963064 0.952858 0.210809
O O15 0.054532 0.772761 0.616882
O O16 0.866877 0.137238 0.160690
O O17 0.000000 0.000000 0.000000
#
# Coordination Sequence:
#
# PCOD9053371 Si02
#       8
#     2   2   2   2   2   2   2   2
#     4  11  24  38  57  88 125 162 196 245 309 370
#     4  11  19  38  59  88 121 153 202 251 305 361
#     4  11  21  40  62  90 123 160 207 253 303 358
#     4  11  19  38  59  88 121 153 202 251 305 361
#     4  11  21  37  62  94 118 154 210 259 299 348
#     4  11  24  38  57  88 125 162 196 245 309 370
#     4  11  21  40  62  90 123 160 207 253 303 358
#     4  11  21  37  62  94 118 154 210 259 299 348
#
# _framework density 19.631442
#
# number of rings (size 3 to 8) (size 9 to 14) (size 15 to 20)
#    0.000    1.000    7.500    1.500    0.000    8.000 
#    0.000    2.500    0.000    1.500    0.000    0.000 
#    0.000    0.000    0.000    0.000    0.000    0.000 
#
# Total GULP energy -89139.996812 kJ/mol
# GULP energy per Si atom -5571.249801 kJ/mol
# Density = 1.958676 g / cm^3
# Si number density = 19.631442 Si / 1000 Ang^3
#
#
#
# Elastic Constant Matrix: (Units=GPa)
#
#
# Indices 1 2 3 4 5 6 
#
# 1 73.4101 45.9325 26.7450 -0.2372 0.3512 5.0003
# 2 45.9325 103.9530 20.8377 5.0920 15.3893 2.6405
# 3 26.7450 20.8377 72.7516 -28.6063 -0.6364 7.8956
# 4 -0.2372 5.0920 -28.6063 32.0566 -2.5485 -6.4641
# 5 0.3512 15.3893 -0.6364 -2.5485 25.6391 -10.4386
# 6 5.0003 2.6405 7.8956 -6.4641 -10.4386 24.8933
#
#
#
# Elastic Compliance Matrix: (Units=1/GPa)
#
#
# Indices 1 2 3 4 5 6 
#
# 1 0.021534 -0.008316 -0.007364 -0.004973 0.003669 -0.000860
# 2 -0.008316 0.017041 -0.005038 -0.009788 -0.014052 -0.006973
# 3 -0.007364 -0.005038 0.028356 0.027382 0.007963 0.003470
# 4 -0.004973 -0.009788 0.027382 0.062380 0.020152 0.018001
# 5 0.003669 -0.014052 0.007963 0.020152 0.061495 0.029248
# 6 -0.000860 -0.006973 0.003470 0.018001 0.029248 0.056922
#
#
# Mechanical properties :
#
#
# Convention : Reuss Voigt Hill
#
# Bulk Modulus (GPa) = 39.22720 48.57168 43.89944
# Shear Modulus (GPa) = 16.79752 26.95776 21.87764
#
# Velocity S-wave (km/s) = 2.92831 3.70968 3.34191
# Velocity P-wave (km/s) = 5.60879 6.56845 6.10750
#
# Compressibility (1/GPa) = 0.02549252
#
# Stress axis : x y z
#
# Youngs Moduli (GPa) = 46.43924 58.68147 35.26638
#
# Poissons Ratio (x) = 0.48802 0.25970
# Poissons Ratio (y) = 0.38621 0.17769
# Poissons Ratio (z) = 0.34198 0.29566
#
# Static dielectric constant tensor:
#      x y z
#    x 1.728430 -0.009790 0.001760 
#    y -0.009790 1.715320 -0.023070 
#    z 0.001760 -0.023070 1.772640 
# 
# From -- ./inp_files/523938.got.cif
#   From: 2010.05.17/outbox.cif.g08.bks.cpg/sg2_262_cif.got.tgz:523938.got - 2010.06.03 11:33:40.
