data_PCOD9053141
_publ_section_title
;
Structure prediction by ZEFSAII (Michael W. Deem and Ramdas Pophale) SiO2 
 PCOD9053141
Probable space group: P -1
;
_chemical_formula_sum "Si O2"
_cell_formula_units_Z 14
_cell_length_a 24.216162
_cell_length_b 12.138063
_cell_length_c 15.301309
_cell_angle_alpha 27.861729
_cell_angle_beta 159.359814
_cell_angle_gamma 150.019874
_cell_volume 720.004322
_symmetry_space_group_name_H-M "P -1"
_symmetry_group_IT_number 2
_symmetry_cell_setting 'triclinic'
loop_
_space_group_symop_operation_xyz
x,y,z
-x,-y,-z
loop_
_atom_site_type_symbol
_atom_site_label
_atom_site_fract_x
_atom_site_fract_y
_atom_site_fract_z
Si Si1 0.489705 0.257764 0.598841
Si Si2 0.181018 0.899475 0.784742
Si Si3 0.688537 0.612768 0.901970
Si Si4 0.221754 0.788411 0.580075
Si Si5 0.050157 0.005095 0.886711
Si Si6 0.970992 0.573923 0.212172
Si Si7 0.004793 0.778254 0.790594
O O1 0.500000 0.500000 0.500000
O O2 0.467555 0.337284 0.410680
O O3 0.334212 0.043993 0.539935
O O4 0.643917 0.153705 0.920093
O O5 0.065764 0.685279 0.707458
O O6 0.121846 0.870536 0.817550
O O7 0.159537 0.151066 0.535197
O O8 0.672799 0.371007 0.104060
O O9 0.816709 0.593186 0.028472
O O10 0.780484 0.834500 0.941959
O O11 0.124089 0.645205 0.453802
O O12 0.083278 0.838182 0.404952
O O13 0.054374 0.920239 0.854190
O O14 0.998193 0.776075 0.035013
O O15 0.000000 0.500000 0.000000
#
# Coordination Sequence:
#
# PCOD9053141 Si02
#       7
#     2   2   2   2   2   2   2
#     4  12  24  40  59  96 136 157 190 258 324 376
#     4  11  24  42  63  93 127 160 208 254 305 362
#     4  11  21  37  62  94 124 161 201 253 315 369
#     4  11  22  37  65  92 124 164 199 255 317 364
#     4  11  19  38  66  90 122 161 217 254 294 362
#     4  11  18  40  64  91 125 159 206 259 301 366
#     4  11  24  41  65  88 120 170 214 254 289 359
#
# _framework density 19.444327000000001
#
# number of rings (size 3 to 8) (size 9 to 14) (size 15 to 20)
#    0.000    0.857    5.714    4.286    0.000    1.714 
#    0.000    0.714    0.000    8.571    0.000    0.000 
#    0.000    0.000    0.000    0.000    0.000    0.000 
#
# Total GULP energy -78214.552661 kJ/mol
# GULP energy per Si atom -5586.753762 kJ/mol
# Density = 1.940007 g / cm^3
# Si number density = 19.444327 Si / 1000 Ang^3
#
#
#
# Elastic Constant Matrix: (Units=GPa)
#
#
# Indices 1 2 3 4 5 6 
#
# 1 103.7755 32.7726 27.2734 0.3124 -21.5898 -28.4921
# 2 32.7726 66.5647 53.0307 -7.0768 -20.0926 -8.4110
# 3 27.2734 53.0307 146.6590 -17.4320 -17.9430 -5.2775
# 4 0.3124 -7.0768 -17.4320 33.0123 7.2072 -10.7415
# 5 -21.5898 -20.0926 -17.9430 7.2072 30.4345 -3.1737
# 6 -28.4921 -8.4110 -5.2775 -10.7415 -3.1737 30.6937
#
#
#
# Elastic Compliance Matrix: (Units=1/GPa)
#
#
# Indices 1 2 3 4 5 6 
#
# 1 0.017999 -0.002615 0.000065 0.002510 0.012380 0.018161
# 2 -0.002615 0.026388 -0.007352 0.000926 0.011540 0.005057
# 3 0.000065 -0.007352 0.010023 0.004053 0.000269 0.001215
# 4 0.002510 0.000926 0.004053 0.038548 -0.002627 0.016499
# 5 0.012380 0.011540 0.000269 -0.002627 0.052037 0.019161
# 6 0.018161 0.005057 0.001215 0.016499 0.019161 0.058788
#
#
# Mechanical properties :
#
#
# Convention : Reuss Voigt Hill
#
# Bulk Modulus (GPa) = 28.89610 60.35030 44.62320
# Shear Modulus (GPa) = 21.26555 32.42294 26.84424
#
# Velocity S-wave (km/s) = 3.31065 4.08790 3.71963
# Velocity P-wave (km/s) = 5.43204 7.30658 6.43790
#
# Compressibility (1/GPa) = 0.03460674
#
# Stress axis : x y z
#
# Youngs Moduli (GPa) = 55.55851 37.89604 99.76989
#
# Poissons Ratio (x) = 0.09909 -0.00646
# Poissons Ratio (y) = 0.14528 0.73346
# Poissons Ratio (z) = -0.00360 0.27859
#
# Static dielectric constant tensor:
#      x y z
#    x 1.665210 0.004980 -0.014160 
#    y 0.004980 1.684690 -0.025990 
#    z -0.014160 -0.025990 1.726030 
# 
# From -- ./inp_files/259717.got.cif
#   From: 2010.05.17/outbox.cif.g08.bks.cpg/sg2_130_cif.got.tgz:259717.got - 2010.06.03 11:33:40.
