data_PCOD9053546
_publ_section_title
;
Structure prediction by ZEFSAII (Michael W. Deem and Ramdas Pophale) SiO2 
 PCOD9053546
Probable space group: P -1
;
_chemical_formula_sum "Si O2"
_cell_formula_units_Z 14
_cell_length_a 8.560606
_cell_length_b 10.776512
_cell_length_c 8.401971
_cell_angle_alpha 101.546192
_cell_angle_beta 104.835203
_cell_angle_gamma 46.934295
_cell_volume 547.045638
_symmetry_space_group_name_H-M "P -1"
_symmetry_group_IT_number 2
_symmetry_cell_setting 'triclinic'
loop_
_space_group_symop_operation_xyz
x,y,z
-x,-y,-z
loop_
_atom_site_type_symbol
_atom_site_label
_atom_site_fract_x
_atom_site_fract_y
_atom_site_fract_z
Si Si1 0.216257 0.164604 0.671977
Si Si2 0.133832 0.036447 0.901032
Si Si3 0.877032 0.372689 0.118966
Si Si4 0.509555 0.253034 0.837676
Si Si5 0.871923 0.542858 0.645329
Si Si6 0.966679 0.149261 0.366089
Si Si7 0.574289 0.322698 0.529063
O O1 0.254659 0.050758 0.797787
O O2 0.382607 0.193642 0.727447
O O3 0.980710 0.355445 0.683630
O O4 0.179755 0.103038 0.485240
O O5 0.577887 0.294818 0.709853
O O6 0.015075 0.979278 0.776959
O O7 0.308761 0.890318 0.032113
O O8 0.661496 0.563674 0.071911
O O9 0.853413 0.315624 0.269437
O O10 0.062001 0.381160 0.198488
O O11 0.966874 0.220369 0.985974
O O12 0.617653 0.666078 0.585011
O O13 0.000000 0.500000 0.500000
O O14 0.806735 0.187494 0.473236
O O15 0.500000 0.500000 0.500000
#
# Coordination Sequence:
#
# PCOD9053546 Si02
#       7
#     2   2   2   2   2   2   2
#     4  11  23  48  78 103 152 203 258 308 373 462
#     4  12  30  45  73 119 158 199 249 317 390 449
#     4  11  24  50  78 107 155 203 250 315 386 454
#     4  11  25  50  81 111 151 198 256 324 381 447
#     4  11  19  44  81 109 144 201 261 313 371 446
#     4  12  25  47  76 111 154 203 256 312 381 456
#     4  12  21  43  79 116 144 194 261 317 368 453
#
# _framework density 25.592016000000001
#
# number of rings (size 3 to 8) (size 9 to 14) (size 15 to 20)
#    0.000    0.571    7.143    1.286    0.000    9.714 
#    0.000    2.143    0.000    0.000    0.000    0.000 
#    0.000    0.000    0.000    0.000    0.000    0.000 
#
# Total GULP energy -78515.312877 kJ/mol
# GULP energy per Si atom -5608.236634 kJ/mol
# Density = 2.553377 g / cm^3
# Si number density = 25.592016 Si / 1000 Ang^3
#
#
#
# Elastic Constant Matrix: (Units=GPa)
#
#
# Indices 1 2 3 4 5 6 
#
# 1 92.4978 62.3893 57.5043 -7.1855 -0.1390 14.9116
# 2 62.3893 174.8341 104.1468 0.9132 12.5647 9.0679
# 3 57.5043 104.1468 162.0555 -1.9093 13.9903 10.0469
# 4 -7.1855 0.9132 -1.9093 54.4475 21.5813 2.5833
# 5 -0.1390 12.5647 13.9903 21.5813 42.7509 -6.3388
# 6 14.9116 9.0679 10.0469 2.5833 -6.3388 43.9842
#
#
#
# Elastic Compliance Matrix: (Units=1/GPa)
#
#
# Indices 1 2 3 4 5 6 
#
# 1 0.016046 -0.003743 -0.003060 0.002058 0.000520 -0.004015
# 2 -0.003743 0.010189 -0.005145 -0.000430 -0.001074 0.000214
# 3 -0.003060 -0.005145 0.010872 0.001212 -0.002795 -0.000859
# 4 0.002058 -0.000430 0.001212 0.024047 -0.013022 -0.004175
# 5 0.000520 -0.001074 -0.002795 -0.013022 0.032098 0.006074
# 6 -0.004015 0.000214 -0.000859 -0.004175 0.006074 0.025369
#
#
# Mechanical properties :
#
#
# Convention : Reuss Voigt Hill
#
# Bulk Modulus (GPa) = 75.69931 97.49647 86.59789
# Shear Modulus (GPa) = 34.03177 41.92633 37.97905
#
# Velocity S-wave (km/s) = 3.65057 4.05193 3.85648
# Velocity P-wave (km/s) = 6.88567 7.75048 7.33084
#
# Compressibility (1/GPa) = 0.01321016
#
# Stress axis : x y z
#
# Youngs Moduli (GPa) = 62.32089 98.14743 91.97859
#
# Poissons Ratio (x) = 0.36737 0.28145
# Poissons Ratio (y) = 0.23327 0.47326
# Poissons Ratio (z) = 0.19070 0.50500
#
# Static dielectric constant tensor:
#      x y z
#    x 2.022450 0.000520 -0.017370 
#    y 0.000520 2.038990 0.006910 
#    z -0.017370 0.006910 2.012550 
# 
# From -- ./inp_files/390484.got.cif
#   From: 2010.05.17/outbox.cif.g08.bks.cpg/sg2_196_cif.got.tgz:390484.got - 2010.06.03 11:33:40.
