data_PCOD9053050
_publ_section_title
;
Structure prediction by ZEFSAII (Michael W. Deem and Ramdas Pophale) SiO2 
 PCOD9053050
Probable space group: P -1
;
_chemical_formula_sum "Si O2"
_cell_formula_units_Z 16
_cell_length_a 17.639321
_cell_length_b 18.243330
_cell_length_c 11.558794
_cell_angle_alpha 29.980769
_cell_angle_beta 26.590373
_cell_angle_gamma 24.629463
_cell_volume 664.910849
_symmetry_space_group_name_H-M "P -1"
_symmetry_group_IT_number 2
_symmetry_cell_setting 'triclinic'
loop_
_space_group_symop_operation_xyz
x,y,z
-x,-y,-z
loop_
_atom_site_type_symbol
_atom_site_label
_atom_site_fract_x
_atom_site_fract_y
_atom_site_fract_z
Si Si1 0.176331 0.785672 0.586732
Si Si2 0.176195 0.629704 0.573958
Si Si3 0.334302 0.258291 0.782358
Si Si4 0.697432 0.224121 0.174795
Si Si5 0.494526 0.127832 0.239330
Si Si6 0.530479 0.596124 0.987478
Si Si7 0.471991 0.892986 0.026305
Si Si8 0.978290 0.984700 0.803271
O O1 0.181333 0.644955 0.685852
O O2 0.385087 0.773322 0.297990
O O3 0.130511 0.804719 0.759981
O O4 0.000000 0.000000 0.500000
O O5 0.164908 0.477430 0.734676
O O6 0.394906 0.576866 0.292744
O O7 0.013576 0.844486 0.468257
O O8 0.527358 0.225164 0.487126
O O9 0.399425 0.182698 0.927646
O O10 0.299189 0.115589 0.969750
O O11 0.625010 0.246775 0.110275
O O12 0.927615 0.072922 0.118430
O O13 0.670143 0.411899 0.978089
O O14 0.357316 0.332627 0.195855
O O15 0.500000 0.000000 0.500000
O O16 0.418733 0.126726 0.216925
O O17 0.741226 0.054932 0.999242
#
# Coordination Sequence:
#
# PCOD9053050 Si02
#       8
#     2   2   2   2   2   2   2   2
#     4  10  17  35  59  83 113 145 191 240 282 337
#     4   9  19  35  55  87 113 146 199 232 285 337
#     4  10  22  34  56  87 116 156 189 240 291 339
#     4  10  19  35  60  84 120 148 197 236 285 341
#     4  11  22  38  59  81 116 155 195 238 293 345
#     4   9  19  35  56  89 111 155 192 234 279 350
#     4  11  20  36  58  83 120 150 194 232 295 346
#     4  10  20  36  61  86 109 154 195 241 287 343
#
# _framework density 24.063375000000001
#
# number of rings (size 3 to 8) (size 9 to 14) (size 15 to 20)
#    0.000    2.000    5.000    0.750    0.000    3.500 
#    0.000    3.125    0.000    1.500    0.000    0.000 
#    0.000    0.000    0.000    0.000    0.000    0.000 
#
# Total GULP energy -89119.164017 kJ/mol
# GULP energy per Si atom -5569.947751 kJ/mol
# Density = 2.400861 g / cm^3
# Si number density = 24.063375 Si / 1000 Ang^3
#
#
#
# Elastic Constant Matrix: (Units=GPa)
#
#
# Indices 1 2 3 4 5 6 
#
# 1 92.5798 24.6456 -5.0382 -4.2762 24.2011 28.4371
# 2 24.6456 75.8609 7.5462 -23.4770 -1.3872 17.1501
# 3 -5.0382 7.5462 54.2852 -3.3688 7.1293 5.0945
# 4 -4.2762 -23.4770 -3.3688 28.2699 6.6058 -5.5307
# 5 24.2011 -1.3872 7.1293 6.6058 27.8850 -1.3399
# 6 28.4371 17.1501 5.0945 -5.5307 -1.3399 45.9097
#
#
#
# Elastic Compliance Matrix: (Units=1/GPa)
#
#
# Indices 1 2 3 4 5 6 
#
# 1 0.022792 -0.004431 0.007278 0.003438 -0.023327 -0.013537
# 2 -0.004431 0.020054 -0.002268 0.014773 0.001796 -0.002663
# 3 0.007278 -0.002268 0.021946 0.003741 -0.013217 -0.006031
# 4 0.003438 0.014773 0.003741 0.051804 -0.015586 -0.002277
# 5 -0.023327 0.001796 -0.013217 -0.015586 0.063999 0.015235
# 6 -0.013537 -0.002663 -0.006031 -0.002277 0.015235 0.032001
#
#
# Mechanical properties :
#
#
# Convention : Reuss Voigt Hill
#
# Bulk Modulus (GPa) = 15.16297 30.78145 22.97221
# Shear Modulus (GPa) = 21.42060 33.45109 27.43585
#
# Velocity S-wave (km/s) = 2.98682 3.73248 3.38027
# Velocity P-wave (km/s) = 4.26728 5.60311 4.98019
#
# Compressibility (1/GPa) = 0.06595012
#
# Stress axis : x y z
#
# Youngs Moduli (GPa) = 43.87568 49.86583 45.56655
#
# Poissons Ratio (x) = 0.22096 -0.33165
# Poissons Ratio (y) = 0.19441 0.10335
# Poissons Ratio (z) = -0.31935 0.11310
#
# Static dielectric constant tensor:
#      x y z
#    x 1.958340 0.015520 -0.001050 
#    y 0.015520 1.996240 0.013730 
#    z -0.001050 0.013730 1.976660 
# 
# From -- ./inp_files/466527.got.cif
#   From: 2010.05.17/outbox.cif.g08.bks.cpg/sg2_234_cif.got.tgz:466527.got - 2010.06.03 11:33:40.
