data_PCOD9053439
_publ_section_title
;
Structure prediction by ZEFSAII (Michael W. Deem and Ramdas Pophale) SiO2 
 PCOD9053439
Probable space group: P -1
;
_chemical_formula_sum "Si O2"
_cell_formula_units_Z 16
_cell_length_a 9.304978
_cell_length_b 21.048620
_cell_length_c 7.271526
_cell_angle_alpha 104.270376
_cell_angle_beta 47.429349
_cell_angle_gamma 138.633015
_cell_volume 584.863129
_symmetry_space_group_name_H-M "P -1"
_symmetry_group_IT_number 2
_symmetry_cell_setting 'triclinic'
loop_
_space_group_symop_operation_xyz
x,y,z
-x,-y,-z
loop_
_atom_site_type_symbol
_atom_site_label
_atom_site_fract_x
_atom_site_fract_y
_atom_site_fract_z
Si Si1 0.478534 0.361536 0.710521
Si Si2 0.086562 0.135037 0.023469
Si Si3 0.634858 0.210346 0.778165
Si Si4 0.210809 0.446329 0.574068
Si Si5 0.026096 0.195255 0.475907
Si Si6 0.386588 0.545766 0.951119
Si Si7 0.139191 0.709955 0.782890
Si Si8 0.896901 0.908669 0.405016
O O1 0.372006 0.258809 0.764770
O O2 0.743862 0.463686 0.408731
O O3 0.639769 0.429766 0.810006
O O4 0.132745 0.308509 0.936328
O O5 0.256492 0.129073 0.007309
O O6 0.934473 0.059279 0.920753
O O7 0.931626 0.141796 0.314038
O O8 0.778329 0.251233 0.473713
O O9 0.826516 0.318181 0.811391
O O10 0.748109 0.174007 0.744952
O O11 0.500000 0.500000 0.500000
O O12 0.355422 0.445613 0.272863
O O13 0.382996 0.334560 0.263427
O O14 0.042173 0.140600 0.565213
O O15 0.040112 0.410388 0.112803
O O16 0.498709 0.811905 0.642750
O O17 0.000000 0.000000 0.500000
#
# Coordination Sequence:
#
# PCOD9053439 Si02
#       8
#     2   2   2   2   2   2   2   2
#     4  10  17  35  60  88 126 167 207 250 321 383
#     4  10  23  40  69  94 122 175 219 255 330 385
#     4  10  19  38  61  93 132 176 207 257 315 387
#     4  10  18  26  50  90 134 166 203 249 301 386
#     4  10  22  44  67  93 138 159 213 274 317 386
#     4   9  17  34  61  89 124 170 198 248 325 376
#     4  10  17  39  67  86 131 174 204 259 320 374
#     4  11  27  46  64  96 129 165 226 278 315 378
#
# _framework density 27.356828
#
# number of rings (size 3 to 8) (size 9 to 14) (size 15 to 20)
#    0.000    2.000    5.000    0.750    3.500    3.500 
#    2.250    3.125    0.000    0.000    0.000    0.000 
#    0.000    0.000    0.000    0.000    0.000    0.000 
#
# Total GULP energy -89337.273008 kJ/mol
# GULP energy per Si atom -5583.579563 kJ/mol
# Density = 2.729456 g / cm^3
# Si number density = 27.356828 Si / 1000 Ang^3
#
#
#
# Elastic Constant Matrix: (Units=GPa)
#
#
# Indices 1 2 3 4 5 6 
#
# 1 170.3949 77.2251 -0.0050 -4.6133 -4.1637 -20.1817
# 2 77.2251 182.5379 2.3652 -3.3545 -6.1048 4.2939
# 3 -0.0050 2.3652 35.7723 15.2336 -5.1175 10.6342
# 4 -4.6133 -3.3545 15.2336 38.3165 1.1375 -0.3854
# 5 -4.1637 -6.1048 -5.1175 1.1375 30.3637 6.7241
# 6 -20.1817 4.2939 10.6342 -0.3854 6.7241 58.8324
#
#
#
# Elastic Compliance Matrix: (Units=1/GPa)
#
#
# Indices 1 2 3 4 5 6 
#
# 1 0.007790 -0.003352 -0.001349 0.001231 -0.000596 0.003237
# 2 -0.003352 0.006984 0.000279 0.000036 0.001404 -0.001870
# 3 -0.001349 0.000279 0.038460 -0.015777 0.008837 -0.008548
# 4 0.001231 0.000036 -0.015777 0.032699 -0.004596 0.004011
# 5 -0.000596 0.001404 0.008837 -0.004596 0.036139 -0.006065
# 6 0.003237 -0.001870 -0.008548 0.004011 -0.006065 0.020509
#
#
# Mechanical properties :
#
#
# Convention : Reuss Voigt Hill
#
# Bulk Modulus (GPa) = 22.52700 60.87508 41.70104
# Shear Modulus (GPa) = 30.08032 46.11050 38.09541
#
# Velocity S-wave (km/s) = 3.31955 4.10996 3.73572
# Velocity P-wave (km/s) = 4.79009 6.69499 5.82099
#
# Compressibility (1/GPa) = 0.04439118
#
# Stress axis : x y z
#
# Youngs Moduli (GPa) = 128.37336 143.17938 26.00096
#
# Poissons Ratio (x) = 0.47987 0.03508
# Poissons Ratio (y) = 0.43025 -0.00726
# Poissons Ratio (z) = 0.17318 -0.03996
#
# Static dielectric constant tensor:
#      x y z
#    x 2.117940 0.011480 0.047230 
#    y 0.011480 2.246640 -0.026920 
#    z 0.047230 -0.026920 2.375410 
# 
# From -- ./inp_files/223686.got.cif
#   From: 2010.05.17/outbox.cif.g08.bks.cpg/sg2_112_cif.got.tgz:223686.got - 2010.06.03 11:33:40.
