data_PCOD9053724
_publ_section_title
;
Structure prediction by ZEFSAII (Michael W. Deem and Ramdas Pophale) SiO2 
 PCOD9053724
Probable space group: P -1
;
_chemical_formula_sum "Si O2"
_cell_formula_units_Z 14
_cell_length_a 13.550856
_cell_length_b 14.408916
_cell_length_c 9.895779
_cell_angle_alpha 151.864224
_cell_angle_beta 44.978436
_cell_angle_gamma 139.501956
_cell_volume 587.429241
_symmetry_space_group_name_H-M "P -1"
_symmetry_group_IT_number 2
_symmetry_cell_setting 'triclinic'
loop_
_space_group_symop_operation_xyz
x,y,z
-x,-y,-z
loop_
_atom_site_type_symbol
_atom_site_label
_atom_site_fract_x
_atom_site_fract_y
_atom_site_fract_z
Si Si1 0.915942 0.276746 0.373960
Si Si2 0.265958 0.480000 0.651299
Si Si3 0.006150 0.098317 0.307640
Si Si4 0.323856 0.182530 0.621536
Si Si5 0.680755 0.083121 0.959590
Si Si6 0.601779 0.085524 0.343473
Si Si7 0.471806 0.597872 0.868056
O O1 0.923297 0.062666 0.024872
O O2 0.000000 0.500000 0.500000
O O3 0.006633 0.731216 0.569123
O O4 0.738793 0.236621 0.499246
O O5 0.235258 0.679931 0.880161
O O6 0.353023 0.554092 0.803511
O O7 0.387785 0.451080 0.391820
O O8 0.117816 0.255776 0.513462
O O9 0.833854 0.937308 0.302910
O O10 0.459185 0.136080 0.500878
O O11 0.392717 0.436928 0.859196
O O12 0.284280 0.083679 0.380600
O O13 0.687181 0.083981 0.115163
O O14 0.500000 0.000000 0.000000
O O15 0.538187 0.847038 0.159062
#
# Coordination Sequence:
#
# PCOD9053724 Si02
#       7
#     2   2   2   2   2   2   2
#     4  11  26  48  71  86 124 180 225 258 326 382
#     4  11  19  38  66  95 133 171 212 249 321 395
#     4  11  27  45  64  98 131 167 216 279 314 372
#     4  11  24  39  63 104 137 158 213 269 323 374
#     4  10  17  35  61  97 131 165 204 252 315 387
#     4  11  21  42  69  95 128 176 217 255 311 402
#     4  11  20  36  67  96 127 175 207 252 321 389
#
# _framework density 23.832657999999999
#
# number of rings (size 3 to 8) (size 9 to 14) (size 15 to 20)
#    0.000    1.143    7.143    1.714    0.000    2.857 
#    0.000    1.429    0.000    0.000    0.000    0.000 
#    0.000    0.000    0.000    0.000    0.000    0.000 
#
# Total GULP energy -78314.005903 kJ/mol
# GULP energy per Si atom -5593.857564 kJ/mol
# Density = 2.377841 g / cm^3
# Si number density = 23.832658 Si / 1000 Ang^3
#
#
#
# Elastic Constant Matrix: (Units=GPa)
#
#
# Indices 1 2 3 4 5 6 
#
# 1 103.0506 34.5904 23.6867 8.2678 -7.0644 13.2814
# 2 34.5904 98.7237 32.2323 39.2519 -23.7498 4.2929
# 3 23.6867 32.2323 79.9182 33.3723 -10.3456 4.6174
# 4 8.2678 39.2519 33.3723 52.5434 -2.6592 -0.1025
# 5 -7.0644 -23.7498 -10.3456 -2.6592 24.4826 11.1941
# 6 13.2814 4.2929 4.6174 -0.1025 11.1941 38.8527
#
#
#
# Elastic Compliance Matrix: (Units=1/GPa)
#
#
# Indices 1 2 3 4 5 6 
#
# 1 0.012024 -0.004538 -0.003023 0.003391 -0.000415 -0.003121
# 2 -0.004538 0.024700 0.002917 -0.018290 0.026048 -0.009077
# 3 -0.003023 0.002917 0.019617 -0.013617 0.010971 -0.004817
# 4 0.003391 -0.018290 -0.013617 0.039698 -0.022330 0.009018
# 5 -0.000415 0.026048 0.010971 -0.022330 0.080710 -0.027353
# 6 -0.003121 -0.009077 -0.004817 0.009018 -0.027353 0.036285
#
#
# Mechanical properties :
#
#
# Convention : Reuss Voigt Hill
#
# Bulk Modulus (GPa) = 21.25290 51.41237 36.33264
# Shear Modulus (GPa) = 21.00786 35.92129 28.46458
#
# Velocity S-wave (km/s) = 2.97218 3.88652 3.45969
# Velocity P-wave (km/s) = 4.55142 6.46213 5.58903
#
# Compressibility (1/GPa) = 0.04705240
#
# Stress axis : x y z
#
# Youngs Moduli (GPa) = 83.16793 40.48600 50.97636
#
# Poissons Ratio (x) = 0.18374 0.15409
# Poissons Ratio (y) = 0.37745 -0.14870
# Poissons Ratio (z) = 0.25140 -0.11810
#
# Static dielectric constant tensor:
#      x y z
#    x 1.862200 -0.053340 0.022280 
#    y -0.053340 1.920870 -0.051020 
#    z 0.022280 -0.051020 1.924410 
# 
# From -- ./inp_files/455220.got.cif
#   From: 2010.05.17/outbox.cif.g08.bks.cpg/sg2_228_cif.got.tgz:455220.got - 2010.06.03 11:33:40.
