data_PCOD9053084
_publ_section_title
;
Structure prediction by ZEFSAII (Michael W. Deem and Ramdas Pophale) SiO2 
 PCOD9053084
Probable space group: P -1
;
_chemical_formula_sum "Si O2"
_cell_formula_units_Z 16
_cell_length_a 7.057806
_cell_length_b 15.541501
_cell_length_c 8.906485
_cell_angle_alpha 84.752794
_cell_angle_beta 91.174960
_cell_angle_gamma 139.277019
_cell_volume 632.895360
_symmetry_space_group_name_H-M "P -1"
_symmetry_group_IT_number 2
_symmetry_cell_setting 'triclinic'
loop_
_space_group_symop_operation_xyz
x,y,z
-x,-y,-z
loop_
_atom_site_type_symbol
_atom_site_label
_atom_site_fract_x
_atom_site_fract_y
_atom_site_fract_z
Si Si1 0.123560 0.992917 0.648862
Si Si2 0.637927 0.637467 0.926036
Si Si3 0.290603 0.334875 0.571570
Si Si4 0.746095 0.496882 0.320728
Si Si5 0.608303 0.865902 0.856269
Si Si6 0.145150 0.800879 0.671424
Si Si7 0.980347 0.160146 0.850473
Si Si8 0.340738 0.767053 0.181693
O O1 0.222267 0.928456 0.628685
O O2 0.855700 0.894082 0.778324
O O3 0.388820 0.129490 0.718750
O O4 0.000000 0.000000 0.500000
O O5 0.402198 0.594291 0.814188
O O6 0.923638 0.718042 0.819800
O O7 0.500000 0.500000 0.000000
O O8 0.754431 0.732700 0.050359
O O9 0.574149 0.399873 0.477231
O O10 0.354591 0.436916 0.667935
O O11 0.049284 0.290449 0.460644
O O12 0.122241 0.204607 0.681699
O O13 0.087604 0.620737 0.274947
O O14 0.410924 0.834000 0.721595
O O15 0.784756 0.010077 0.901518
O O16 0.426610 0.771533 0.012251
O O17 0.791425 0.181950 0.845760
#
# Coordination Sequence:
#
# PCOD9053084 Si02
#       8
#     2   2   2   2   2   2   2   2
#     4  12  28  43  63  98 139 179 225 272 331 400
#     4  11  18  35  65 102 127 166 226 274 328 393
#     4   9  19  33  60  94 128 168 212 265 326 387
#     4   9  19  35  59  96 128 168 217 268 322 396
#     4  12  24  42  69  97 134 179 217 276 344 389
#     4  11  23  41  67  99 134 172 225 273 328 407
#     4  11  20  35  66  97 134 166 219 275 329 396
#     4  11  21  41  63  94 132 171 219 275 329 393
#
# _framework density 25.280639000000001
#
# number of rings (size 3 to 8) (size 9 to 14) (size 15 to 20)
#    0.000    1.250    5.000    2.250    3.500    1.000 
#    0.000    0.000    0.000   20.250    0.000    0.000 
#    0.000    0.000    0.000    0.000    0.000    0.000 
#
# Total GULP energy -89555.265074 kJ/mol
# GULP energy per Si atom -5597.204067 kJ/mol
# Density = 2.522310 g / cm^3
# Si number density = 25.280639 Si / 1000 Ang^3
#
#
#
# Elastic Constant Matrix: (Units=GPa)
#
#
# Indices 1 2 3 4 5 6 
#
# 1 101.0655 23.3684 28.0442 2.1565 10.7836 18.1871
# 2 23.3684 115.8861 53.8829 9.9388 4.9701 42.4425
# 3 28.0442 53.8829 151.9115 -2.0280 -0.2132 26.0118
# 4 2.1565 9.9388 -2.0280 53.6166 12.3678 -8.4737
# 5 10.7836 4.9701 -0.2132 12.3678 28.5103 -2.3137
# 6 18.1871 42.4425 26.0118 -8.4737 -2.3137 25.5027
#
#
#
# Elastic Compliance Matrix: (Units=1/GPa)
#
#
# Indices 1 2 3 4 5 6 
#
# 1 0.012978 0.004968 -0.001146 -0.002936 -0.005960 -0.017872
# 2 0.004968 0.032201 -0.002235 -0.014340 -0.006172 -0.060179
# 3 -0.001146 -0.002235 0.008239 0.000042 0.000557 -0.003804
# 4 -0.002936 -0.014340 0.000042 0.028271 -0.005831 0.034781
# 5 -0.005960 -0.006172 0.000557 -0.005831 0.042225 0.015848
# 6 -0.017872 -0.060179 -0.003804 0.034781 0.015848 0.168982
#
#
# Mechanical properties :
#
#
# Convention : Reuss Voigt Hill
#
# Bulk Modulus (GPa) = 17.66925 64.38378 41.02651
# Shear Modulus (GPa) = 16.20297 39.09708 27.65003
#
# Velocity S-wave (km/s) = 2.53439 3.93685 3.31074
# Velocity P-wave (km/s) = 3.94571 6.79617 5.55682
#
# Compressibility (1/GPa) = 0.05659551
#
# Stress axis : x y z
#
# Youngs Moduli (GPa) = 77.05123 31.05501 121.36661
#
# Poissons Ratio (x) = -0.15430 0.13904
# Poissons Ratio (y) = -0.38283 0.27120
# Poissons Ratio (z) = 0.08827 0.06939
#
# Static dielectric constant tensor:
#      x y z
#    x 2.027410 -0.042020 0.007940 
#    y -0.042020 2.019920 -0.007780 
#    z 0.007940 -0.007780 2.035720 
# 
# From -- ./inp_files/223613.got.cif
#   From: 2010.05.17/outbox.cif.g08.bks.cpg/sg2_112_cif.got.tgz:223613.got - 2010.06.03 11:33:40.
