data_PCOD9053978
_publ_section_title
;
Structure prediction by ZEFSAII (Michael W. Deem and Ramdas Pophale) SiO2 
 PCOD9053978
Probable space group: P -1
;
_chemical_formula_sum "Si O2"
_cell_formula_units_Z 16
_cell_length_a 11.695248
_cell_length_b 10.922073
_cell_length_c 18.229490
_cell_angle_alpha 126.332706
_cell_angle_beta 24.604516
_cell_angle_gamma 121.366321
_cell_volume 779.876978
_symmetry_space_group_name_H-M "P -1"
_symmetry_group_IT_number 2
_symmetry_cell_setting 'triclinic'
loop_
_space_group_symop_operation_xyz
x,y,z
-x,-y,-z
loop_
_atom_site_type_symbol
_atom_site_label
_atom_site_fract_x
_atom_site_fract_y
_atom_site_fract_z
Si Si1 0.741150 0.114237 0.398415
Si Si2 0.108791 0.380648 0.674294
Si Si3 0.329460 0.774814 0.042354
Si Si4 0.756217 0.886145 0.610019
Si Si5 0.570945 0.432961 0.544770
Si Si6 0.853332 0.871973 0.709937
Si Si7 0.830059 0.352660 0.064879
Si Si8 0.890381 0.049541 0.000387
O O1 0.630058 0.280920 0.500376
O O2 0.863005 0.124493 0.412333
O O3 0.500000 0.000000 0.500000
O O4 0.959731 0.051213 0.186935
O O5 0.214890 0.232211 0.514962
O O6 0.319710 0.403933 0.625762
O O7 0.161622 0.521009 0.639978
O O8 0.809458 0.343726 0.865375
O O9 0.209527 0.740162 0.019586
O O10 0.247476 0.949352 0.172614
O O11 0.655067 0.776443 0.842940
O O12 0.826151 0.813902 0.623106
O O13 0.442110 0.956859 0.815653
O O14 0.000000 0.000000 0.500000
O O15 0.000000 0.500000 0.000000
O O16 0.454491 0.572590 0.711501
O O17 0.944081 0.227136 0.012659
O O18 0.000000 0.000000 0.000000
#
# Coordination Sequence:
#
# PCOD9053978 Si02
#       8
#     2   2   2   2   2   2   2   2
#     4  12  26  44  67 105 139 177 233 301 343 405
#     4  11  22  40  67  96 131 180 228 272 346 420
#     4  11  20  39  67  97 125 178 235 277 330 424
#     4  12  24  42  71 102 139 187 229 279 356 421
#     4  11  24  41  67  98 142 176 225 286 358 417
#     4  11  22  41  68  94 135 178 232 282 339 407
#     4  12  22  42  67 101 135 188 225 278 355 425
#     4  12  26  44  70 106 143 170 241 299 334 405
#
# _framework density 20.516058000000001
#
# number of rings (size 3 to 8) (size 9 to 14) (size 15 to 20)
#    0.000    0.500    6.250    3.000    3.500    0.000 
#    0.000    3.125    0.000    0.000    0.000    0.000 
#    0.000    0.000    0.000    0.000    0.000    0.000 
#
# Total GULP energy -89331.682281 kJ/mol
# GULP energy per Si atom -5583.230143 kJ/mol
# Density = 2.046936 g / cm^3
# Si number density = 20.516058 Si / 1000 Ang^3
#
#
#
# Elastic Constant Matrix: (Units=GPa)
#
#
# Indices 1 2 3 4 5 6 
#
# 1 86.6371 20.9495 30.5465 -4.2846 4.4630 -1.7260
# 2 20.9495 84.2295 17.8633 -20.1049 7.2666 -0.5167
# 3 30.5465 17.8633 76.8531 -23.8628 14.7927 3.4660
# 4 -4.2846 -20.1049 -23.8628 53.6900 6.1582 1.4494
# 5 4.4630 7.2666 14.7927 6.1582 26.2420 2.3047
# 6 -1.7260 -0.5167 3.4660 1.4494 2.3047 40.2070
#
#
#
# Elastic Compliance Matrix: (Units=1/GPa)
#
#
# Indices 1 2 3 4 5 6 
#
# 1 0.014354 -0.003209 -0.006597 -0.003345 0.002855 0.001101
# 2 -0.003209 0.014418 0.000865 0.006143 -0.005381 0.000060
# 3 -0.006597 0.000865 0.021565 0.011000 -0.013702 -0.001742
# 4 -0.003345 0.006143 0.011000 0.027140 -0.013595 -0.001212
# 5 0.002855 -0.005381 -0.013702 -0.013595 0.050127 -0.001149
# 6 0.001101 0.000060 -0.001742 -0.001212 -0.001149 0.025179
#
#
# Mechanical properties :
#
#
# Convention : Reuss Voigt Hill
#
# Bulk Modulus (GPa) = 30.81372 42.93758 36.87565
# Shear Modulus (GPa) = 27.55085 35.91849 31.73467
#
# Velocity S-wave (km/s) = 3.66852 4.18874 3.93723
# Velocity P-wave (km/s) = 5.74422 6.66095 6.21950
#
# Compressibility (1/GPa) = 0.03245307
#
# Stress axis : x y z
#
# Youngs Moduli (GPa) = 69.66805 69.35818 46.37244
#
# Poissons Ratio (x) = 0.22257 0.30592
# Poissons Ratio (y) = 0.22356 -0.04009
# Poissons Ratio (z) = 0.45961 -0.05996
#
# Static dielectric constant tensor:
#      x y z
#    x 1.919270 0.016410 -0.099790 
#    y 0.016410 1.744240 -0.067540 
#    z -0.099790 -0.067540 1.893350 
# 
# From -- ./inp_files/475586.got.cif
#   From: 2010.05.17/outbox.cif.g08.bks.cpg/sg2_238_cif.got.tgz:475586.got - 2010.06.03 11:33:40.
