data_PCOD9053915
_publ_section_title
;
Structure prediction by ZEFSAII (Michael W. Deem and Ramdas Pophale) SiO2 
 PCOD9053915
Probable space group: P -1
;
_chemical_formula_sum "Si O2"
_cell_formula_units_Z 14
_cell_length_a 10.502501
_cell_length_b 11.164978
_cell_length_c 11.510705
_cell_angle_alpha 145.979604
_cell_angle_beta 78.408101
_cell_angle_gamma 119.487368
_cell_volume 594.987447
_symmetry_space_group_name_H-M "P -1"
_symmetry_group_IT_number 2
_symmetry_cell_setting 'triclinic'
loop_
_space_group_symop_operation_xyz
x,y,z
-x,-y,-z
loop_
_atom_site_type_symbol
_atom_site_label
_atom_site_fract_x
_atom_site_fract_y
_atom_site_fract_z
Si Si1 0.704796 0.150900 0.306959
Si Si2 0.515758 0.472293 0.112008
Si Si3 0.191515 0.221614 0.533337
Si Si4 0.437347 0.212591 0.323953
Si Si5 0.342768 0.718286 0.345039
Si Si6 0.825376 0.304231 0.170239
Si Si7 0.958991 0.651824 0.042267
O O1 0.589652 0.231314 0.354526
O O2 0.750586 0.243037 0.506160
O O3 0.838970 0.269883 0.277566
O O4 0.585066 0.832878 0.079096
O O5 0.415665 0.571343 0.263458
O O6 0.500000 0.500000 0.000000
O O7 0.773568 0.449426 0.875324
O O8 0.303471 0.154217 0.394143
O O9 0.177512 0.444204 0.657122
O O10 0.301209 0.359368 0.739188
O O11 0.020393 0.930974 0.316459
O O12 0.500000 0.500000 0.500000
O O13 0.344804 0.972439 0.056106
O O14 0.500000 0.000000 0.500000
O O15 0.949162 0.306591 0.063048
O O16 0.000000 0.500000 0.000000
#
# Coordination Sequence:
#
# PCOD9053915 Si02
#       7
#     2   2   2   2   2   2   2
#     4  12  24  41  74 109 148 183 245 299 351 432
#     4  12  25  41  73 108 145 194 242 292 358 425
#     4  11  23  44  72 104 146 186 241 297 360 431
#     4  11  20  38  70 110 145 181 236 295 355 419
#     4  12  27  49  71 102 143 188 243 301 362 427
#     4  11  25  43  71 110 143 191 239 293 371 424
#     4  11  29  48  71 102 147 190 239 302 364 436
#
# _framework density 23.529906
#
# number of rings (size 3 to 8) (size 9 to 14) (size 15 to 20)
#    0.000    0.571    5.714    2.143    4.000    2.286 
#    0.000    1.429    0.000    0.000    0.000    0.000 
#    0.000    0.000    0.000    0.000    0.000    0.000 
#
# Total GULP energy -78239.975047 kJ/mol
# GULP energy per Si atom -5588.569646 kJ/mol
# Density = 2.347635 g / cm^3
# Si number density = 23.529906 Si / 1000 Ang^3
#
#
#
# Elastic Constant Matrix: (Units=GPa)
#
#
# Indices 1 2 3 4 5 6 
#
# 1 78.1551 32.6373 48.1457 19.1681 32.9597 -0.8363
# 2 32.6373 124.8548 75.8929 -1.7814 16.1967 -7.5647
# 3 48.1457 75.8929 187.0569 20.9798 30.6551 -11.2509
# 4 19.1681 -1.7814 20.9798 64.3326 -1.9339 -13.5642
# 5 32.9597 16.1967 30.6551 -1.9339 54.7812 0.4713
# 6 -0.8363 -7.5647 -11.2509 -13.5642 0.4713 30.0629
#
#
#
# Elastic Compliance Matrix: (Units=1/GPa)
#
#
# Indices 1 2 3 4 5 6 
#
# 1 0.021869 -0.003512 -0.001776 -0.007223 -0.011346 -0.004021
# 2 -0.003512 0.011527 -0.004168 0.003334 0.001131 0.002730
# 3 -0.001776 -0.004168 0.008180 -0.002103 -0.002360 0.001051
# 4 -0.007223 0.003334 -0.002103 0.020535 0.005184 0.009035
# 5 -0.011346 0.001131 -0.002360 0.005184 0.026241 0.001014
# 6 -0.004021 0.002730 0.001051 0.009035 0.001014 0.038293
#
#
# Mechanical properties :
#
#
# Convention : Reuss Voigt Hill
#
# Bulk Modulus (GPa) = 44.12339 78.15763 61.14051
# Shear Modulus (GPa) = 32.65581 45.39474 39.02527
#
# Velocity S-wave (km/s) = 3.72942 4.39707 4.07693
# Velocity P-wave (km/s) = 6.11044 7.68553 6.94280
#
# Compressibility (1/GPa) = 0.02266372
#
# Stress axis : x y z
#
# Youngs Moduli (GPa) = 45.72680 86.75249 122.24809
#
# Poissons Ratio (x) = 0.30465 0.21716
# Poissons Ratio (y) = 0.16058 0.50954
# Poissons Ratio (z) = 0.08123 0.36159
#
# Static dielectric constant tensor:
#      x y z
#    x 1.995420 0.148510 0.055320 
#    y 0.148510 2.032830 -0.055840 
#    z 0.055320 -0.055840 1.900430 
# 
# From -- ./inp_files/362185.got.cif
#   From: 2010.05.17/outbox.cif.g08.bks.cpg/sg2_182_cif.got.tgz:362185.got - 2010.06.03 11:33:40.
