data_PCOD9053415
_publ_section_title
;
Structure prediction by ZEFSAII (Michael W. Deem and Ramdas Pophale) SiO2 
 PCOD9053415
Probable space group: P -1
;
_chemical_formula_sum "Si O2"
_cell_formula_units_Z 10
_cell_length_a 7.562517
_cell_length_b 13.084763
_cell_length_c 13.526380
_cell_angle_alpha 148.188364
_cell_angle_beta 143.008619
_cell_angle_gamma 56.181225
_cell_volume 391.766441
_symmetry_space_group_name_H-M "P -1"
_symmetry_group_IT_number 2
_symmetry_cell_setting 'triclinic'
loop_
_space_group_symop_operation_xyz
x,y,z
-x,-y,-z
loop_
_atom_site_type_symbol
_atom_site_label
_atom_site_fract_x
_atom_site_fract_y
_atom_site_fract_z
Si Si1 0.809141 0.179135 0.238669
Si Si2 0.825222 0.994019 0.601847
Si Si3 0.870628 0.656114 0.677831
Si Si4 0.282405 0.453262 0.141018
Si Si5 0.545176 0.340754 0.969463
O O1 0.799179 0.407374 0.430116
O O2 0.080548 0.154838 0.406278
O O3 0.911827 0.177387 0.169245
O O4 0.500000 0.000000 0.000000
O O5 0.735909 0.880597 0.362990
O O6 0.500000 0.000000 0.500000
O O7 0.101651 0.221355 0.912273
O O8 0.505158 0.626319 0.462191
O O9 0.119579 0.694462 0.911518
O O10 0.499428 0.423776 0.124775
O O11 0.000000 0.500000 0.000000
O O12 0.500000 0.500000 0.000000
#
# Coordination Sequence:
#
# PCOD9053415 Si02
#       5
#     2   2   2   2   2
#     4  11  19  39  66  93 130 174 213 265 330 387
#     4  12  25  42  66  98 133 174 220 270 328 387
#     4  11  21  41  67  95 131 171 217 269 327 391
#     4  12  24  44  68  98 133 172 220 275 324 391
#     4  12  22  42  67  97 132 172 218 267 330 393
#
# _framework density 25.525411999999999
#
# number of rings (size 3 to 8) (size 9 to 14) (size 15 to 20)
#    0.000    0.400    8.000    3.000    0.000    0.000 
#    0.000   10.000    0.000    0.000    0.000    0.000 
#    0.000    0.000    0.000    0.000    0.000    0.000 
#
# Total GULP energy -55789.734955 kJ/mol
# GULP energy per Si atom -5578.973496 kJ/mol
# Density = 2.546731 g / cm^3
# Si number density = 25.525412 Si / 1000 Ang^3
#
#
#
# Elastic Constant Matrix: (Units=GPa)
#
#
# Indices 1 2 3 4 5 6 
#
# 1 39.4809 14.1988 53.3859 8.9488 10.6601 12.8801
# 2 14.1988 137.8463 73.8775 -38.1961 12.3180 19.4522
# 3 53.3859 73.8775 161.2673 -11.4661 32.6429 23.5057
# 4 8.9488 -38.1961 -11.4661 63.0781 10.2675 18.0695
# 5 10.6601 12.3180 32.6429 10.2675 36.8982 -1.1655
# 6 12.8801 19.4522 23.5057 18.0695 -1.1655 29.5943
#
#
#
# Elastic Compliance Matrix: (Units=1/GPa)
#
#
# Indices 1 2 3 4 5 6 
#
# 1 0.053309 0.002860 -0.019719 -0.008865 0.003433 -0.003871
# 2 0.002860 0.016781 -0.002391 0.016944 -0.009694 -0.021103
# 3 -0.019719 -0.002391 0.019067 0.010450 -0.013657 -0.011909
# 4 -0.008865 0.016944 0.010450 0.046519 -0.026707 -0.045034
# 5 0.003433 -0.009694 -0.013657 -0.026707 0.049934 0.033998
# 6 -0.003871 -0.021103 -0.011909 -0.045034 0.033998 0.087640
#
#
# Mechanical properties :
#
#
# Convention : Reuss Voigt Hill
#
# Bulk Modulus (GPa) = 19.74066 69.05768 44.39917
# Shear Modulus (GPa) = 15.21446 39.05626 27.13536
#
# Velocity S-wave (km/s) = 2.44407 3.91588 3.26402
# Velocity P-wave (km/s) = 3.96423 6.89629 5.62467
#
# Compressibility (1/GPa) = 0.05065688
#
# Stress axis : x y z
#
# Youngs Moduli (GPa) = 18.75860 59.59229 52.44612
#
# Poissons Ratio (x) = -0.17042 1.03416
# Poissons Ratio (y) = -0.05365 0.12541
# Poissons Ratio (z) = 0.36989 0.14250
#
# Static dielectric constant tensor:
#      x y z
#    x 2.095680 -0.086990 0.019840 
#    y -0.086990 1.066100 0.559190 
#    z 0.019840 0.559190 1.670500 
# 
# From -- ./inp_files/146064.got.cif
#   From: 2010.05.17/outbox.cif.g08.bks.cpg/sg2_74_cif.got.tgz:146064.got - 2010.06.03 11:33:40.
