data_PCOD9053472
_publ_section_title
;
Structure prediction by ZEFSAII (Michael W. Deem and Ramdas Pophale) SiO2 
 PCOD9053472
Probable space group: P -1
;
_chemical_formula_sum "Si O2"
_cell_formula_units_Z 16
_cell_length_a 10.224811
_cell_length_b 14.088646
_cell_length_c 13.028527
_cell_angle_alpha 99.798662
_cell_angle_beta 149.732098
_cell_angle_gamma 93.629695
_cell_volume 844.518055
_symmetry_space_group_name_H-M "P -1"
_symmetry_group_IT_number 2
_symmetry_cell_setting 'triclinic'
loop_
_space_group_symop_operation_xyz
x,y,z
-x,-y,-z
loop_
_atom_site_type_symbol
_atom_site_label
_atom_site_fract_x
_atom_site_fract_y
_atom_site_fract_z
Si Si1 0.230119 0.518546 0.865955
Si Si2 0.329645 0.832422 0.374944
Si Si3 0.460001 0.086240 0.056790
Si Si4 0.376367 0.616215 0.660096
Si Si5 0.205947 0.793294 0.511818
Si Si6 0.549228 0.712832 0.019319
Si Si7 0.924426 0.581876 0.030574
Si Si8 0.922954 0.008433 0.831504
O O1 0.143814 0.467311 0.909967
O O2 0.942904 0.469804 0.594250
O O3 0.500000 0.500000 0.000000
O O4 0.346661 0.646161 0.961475
O O5 0.291833 0.852694 0.473588
O O6 0.181108 0.896860 0.226741
O O7 0.168114 0.704945 0.223292
O O8 0.668679 0.897342 0.600847
O O9 0.440247 0.174390 0.983648
O O10 0.186935 0.040485 0.938454
O O11 0.721451 0.139324 0.323392
O O12 0.500000 0.000000 0.000000
O O13 0.379160 0.720507 0.625972
O O14 0.433600 0.645453 0.824000
O O15 0.632636 0.587153 0.794090
O O16 0.867477 0.726245 0.261641
O O17 0.000000 0.500000 0.000000
O O18 0.000000 0.000000 0.000000
#
# Coordination Sequence:
#
# PCOD9053472 Si02
#       8
#     2   2   2   2   2   2   2   2
#     4  12  22  41  68 100 124 170 228 270 321 401
#     4  11  21  44  67  94 126 174 234 267 321 403
#     4  11  25  43  62 100 136 167 212 277 350 389
#     4  11  20  38  70  91 128 170 225 261 326 394
#     4  11  19  40  71  91 125 175 220 276 318 397
#     4  11  22  40  67  98 126 171 223 271 324 397
#     4  12  27  44  62 100 143 174 213 282 345 393
#     4  11  23  41  72  95 122 175 230 273 323 398
#
# _framework density 18.945716000000001
#
# number of rings (size 3 to 8) (size 9 to 14) (size 15 to 20)
#    0.000    0.750    7.500    1.125    0.000    1.000 
#    6.750    0.000    0.000    0.000    0.000    0.000 
#    0.000    0.000    0.000    0.000    0.000    0.000 
#
# Total GULP energy -89258.833417 kJ/mol
# GULP energy per Si atom -5578.677089 kJ/mol
# Density = 1.890259 g / cm^3
# Si number density = 18.945716 Si / 1000 Ang^3
#
#
#
# Elastic Constant Matrix: (Units=GPa)
#
#
# Indices 1 2 3 4 5 6 
#
# 1 73.0924 76.7735 52.5721 6.9528 -3.2333 -0.6587
# 2 76.7735 145.9058 65.8861 -2.3866 -3.6163 10.4894
# 3 52.5721 65.8861 151.8103 -1.6830 2.1999 0.9752
# 4 6.9528 -2.3866 -1.6830 30.3951 14.1547 1.8634
# 5 -3.2333 -3.6163 2.1999 14.1547 19.3382 1.5871
# 6 -0.6587 10.4894 0.9752 1.8634 1.5871 38.9642
#
#
#
# Elastic Compliance Matrix: (Units=1/GPa)
#
#
# Indices 1 2 3 4 5 6 
#
# 1 0.041138 -0.019024 -0.006519 -0.020177 0.018322 0.006199
# 2 -0.019024 0.017623 -0.000848 0.008664 -0.005701 -0.005227
# 3 -0.006519 -0.000848 0.009346 0.004583 -0.005658 -0.000105
# 4 -0.020177 0.008664 0.004583 0.060073 -0.045934 -0.003790
# 5 0.018322 -0.005701 -0.005658 -0.045934 0.087925 0.000602
# 6 0.006199 -0.005227 -0.000105 -0.003790 0.000602 0.027336
#
#
# Mechanical properties :
#
#
# Convention : Reuss Voigt Hill
#
# Bulk Modulus (GPa) = 65.25138 84.58578 74.91858
# Shear Modulus (GPa) = 16.59310 29.44462 23.01886
#
# Velocity S-wave (km/s) = 2.96264 3.94656 3.48945
# Velocity P-wave (km/s) = 6.79846 8.09385 7.47427
#
# Compressibility (1/GPa) = 0.01532535
#
# Stress axis : x y z
#
# Youngs Moduli (GPa) = 24.30868 56.74391 106.99621
#
# Poissons Ratio (x) = 1.07949 0.69746
# Poissons Ratio (y) = 0.46245 0.09075
# Poissons Ratio (z) = 0.15846 0.04813
#
# Static dielectric constant tensor:
#      x y z
#    x 1.646750 0.028840 0.005880 
#    y 0.028840 1.740840 0.017280 
#    z 0.005880 0.017280 1.691360 
# 
# From -- ./inp_files/80224.got.cif
#   From: 2010.05.17/outbox.cif.g08.bks.cpg/sg2_41_cif.got.tgz:80224.got - 2010.06.03 11:33:40.
