data_PCOD9053865
_publ_section_title
;
Structure prediction by ZEFSAII (Michael W. Deem and Ramdas Pophale) SiO2 
 PCOD9053865
Probable space group: P -1
;
_chemical_formula_sum "Si O2"
_cell_formula_units_Z 14
_cell_length_a 10.104605
_cell_length_b 9.373737
_cell_length_c 10.028867
_cell_angle_alpha 119.505246
_cell_angle_beta 59.951179
_cell_angle_gamma 102.618724
_cell_volume 715.107857
_symmetry_space_group_name_H-M "P -1"
_symmetry_group_IT_number 2
_symmetry_cell_setting 'triclinic'
loop_
_space_group_symop_operation_xyz
x,y,z
-x,-y,-z
loop_
_atom_site_type_symbol
_atom_site_label
_atom_site_fract_x
_atom_site_fract_y
_atom_site_fract_z
Si Si1 0.358727 0.608338 0.557454
Si Si2 0.320878 0.833460 0.922020
Si Si3 0.088428 0.627516 0.106957
Si Si4 0.655254 0.596352 0.983652
Si Si5 0.445937 0.191928 0.622067
Si Si6 0.796377 0.710168 0.446703
Si Si7 0.664833 0.803110 0.829902
O O1 0.500000 0.500000 0.500000
O O2 0.323664 0.763232 0.740206
O O3 0.416323 0.686087 0.427444
O O4 0.227751 0.478141 0.579573
O O5 0.485478 0.779507 0.877616
O O6 0.181461 0.753748 0.030737
O O7 0.315176 0.026976 0.027160
O O8 0.965042 0.717158 0.306239
O O9 0.215865 0.522141 0.073188
O O10 0.000000 0.500000 0.000000
O O11 0.619930 0.746415 0.174421
O O12 0.500000 0.500000 0.000000
O O13 0.711398 0.661219 0.843287
O O14 0.320499 0.233900 0.587851
O O15 0.500000 0.000000 0.500000
O O16 0.751693 0.808434 0.647953
#
# Coordination Sequence:
#
# PCOD9053865 Si02
#       7
#     2   2   2   2   2   2   2
#     4  10  17  35  62  90 118 171 218 250 302 391
#     4  11  21  39  66  93 130 171 210 263 327 384
#     4  12  23  43  68  96 129 174 214 265 324 384
#     4  12  24  41  66  98 128 166 222 266 311 381
#     4  11  22  37  63  99 128 166 218 267 310 385
#     4  11  23  41  67  91 130 173 217 255 327 389
#     4  11  24  40  63  97 131 168 213 267 327 378
#
# _framework density 19.577466000000001
#
# number of rings (size 3 to 8) (size 9 to 14) (size 15 to 20)
#    0.000    0.857    7.143    2.571    2.000    1.143 
#    0.000    2.143    0.000    0.000    0.000    0.000 
#    0.000    0.000    0.000    0.000    0.000    0.000 
#
# Total GULP energy -78157.761014 kJ/mol
# GULP energy per Si atom -5582.697215 kJ/mol
# Density = 1.953291 g / cm^3
# Si number density = 19.577466 Si / 1000 Ang^3
#
#
#
# Elastic Constant Matrix: (Units=GPa)
#
#
# Indices 1 2 3 4 5 6 
#
# 1 71.7984 20.6556 20.3707 -6.3783 -13.4179 -10.1246
# 2 20.6556 49.0767 14.2962 -8.5238 -1.8633 -8.9308
# 3 20.3707 14.2962 118.5493 -2.6417 -11.3273 2.2263
# 4 -6.3783 -8.5238 -2.6417 38.6835 9.0063 -4.2300
# 5 -13.4179 -1.8633 -11.3273 9.0063 28.9928 -8.8076
# 6 -10.1246 -8.9308 2.2263 -4.2300 -8.8076 16.9930
#
#
#
# Elastic Compliance Matrix: (Units=1/GPa)
#
#
# Indices 1 2 3 4 5 6 
#
# 1 0.020913 -0.004220 -0.002089 0.001149 0.013668 0.017886
# 2 -0.004220 0.026524 -0.002495 0.006250 0.001043 0.013849
# 3 -0.002089 -0.002495 0.009311 -0.001035 0.001907 -0.003045
# 4 0.001149 0.006250 -0.001035 0.029691 -0.006174 0.008296
# 5 0.013668 0.001043 0.001907 -0.006174 0.054174 0.034983
# 6 0.017886 0.013849 -0.003045 0.008296 0.034983 0.097379
#
#
# Mechanical properties :
#
#
# Convention : Reuss Voigt Hill
#
# Bulk Modulus (GPa) = 25.54827 38.89661 32.22244
# Shear Modulus (GPa) = 18.61166 29.20733 23.90949
#
# Velocity S-wave (km/s) = 3.08663 3.86668 3.49847
# Velocity P-wave (km/s) = 5.07752 6.31238 5.72832
#
# Compressibility (1/GPa) = 0.03914160
#
# Stress axis : x y z
#
# Youngs Moduli (GPa) = 47.81660 37.70112 107.39437
#
# Poissons Ratio (x) = 0.15910 0.22435
# Poissons Ratio (y) = 0.20179 0.26792
# Poissons Ratio (z) = 0.09989 0.09405
#
# Static dielectric constant tensor:
#      x y z
#    x 1.708150 -0.132870 0.114990 
#    y -0.132870 3.255810 -1.055390 
#    z 0.114990 -1.055390 2.425120 
# 
# From -- ./inp_files/159555.got.cif
#   From: 2010.05.17/outbox.cif.g08.bks.cpg/sg2_80_cif.got.tgz:159555.got - 2010.06.03 11:33:40.
