data_PCOD9053628
_publ_section_title
;
Structure prediction by ZEFSAII (Michael W. Deem and Ramdas Pophale) SiO2 
 PCOD9053628
Probable space group: P -1
;
_chemical_formula_sum "Si O2"
_cell_formula_units_Z 16
_cell_length_a 9.853452
_cell_length_b 12.096742
_cell_length_c 15.202361
_cell_angle_alpha 49.076654
_cell_angle_beta 63.984883
_cell_angle_gamma 103.752093
_cell_volume 780.278794
_symmetry_space_group_name_H-M "P -1"
_symmetry_group_IT_number 2
_symmetry_cell_setting 'triclinic'
loop_
_space_group_symop_operation_xyz
x,y,z
-x,-y,-z
loop_
_atom_site_type_symbol
_atom_site_label
_atom_site_fract_x
_atom_site_fract_y
_atom_site_fract_z
Si Si1 0.865192 0.122763 0.994583
Si Si2 0.480254 0.011259 0.726564
Si Si3 0.650750 0.406561 0.036741
Si Si4 0.140940 0.784274 0.770063
Si Si5 0.748125 0.371882 0.324247
Si Si6 0.225397 0.276210 0.304094
Si Si7 0.286050 0.214910 0.500808
Si Si8 0.782692 0.749075 0.305151
O O1 0.009458 0.358395 0.880262
O O2 0.023846 0.212261 0.816154
O O3 0.598226 0.981740 0.160979
O O4 0.846187 0.954069 0.138128
O O5 0.489097 0.844504 0.817117
O O6 0.289338 0.894251 0.760837
O O7 0.699683 0.259318 0.490774
O O8 0.459297 0.369070 0.153499
O O9 0.776155 0.575306 0.828487
O O10 0.862018 0.535543 0.979615
O O11 0.250878 0.755913 0.681752
O O12 0.150501 0.962406 0.646788
O O13 0.550528 0.348159 0.372806
O O14 0.265476 0.314993 0.376593
O O15 0.000000 0.000000 0.500000
O O16 0.190290 0.211594 0.619242
O O17 0.500000 0.500000 0.500000
#
# Coordination Sequence:
#
# PCOD9053628 Si02
#       8
#     2   2   2   2   2   2   2   2
#     4  11  21  35  58  86 119 154 189 236 300 354
#     4  11  21  34  56  90 118 152 189 243 304 353
#     4  11  23  36  58  83 121 160 197 232 286 360
#     4  11  20  34  58  92 121 149 186 240 308 363
#     4  11  21  35  57  92 124 150 181 242 311 361
#     4  11  24  40  54  82 122 164 201 235 280 353
#     4  11  21  38  60  83 127 161 189 241 295 349
#     4  11  22  38  55  87 122 154 196 241 296 352
#
# _framework density 20.505493000000001
#
# number of rings (size 3 to 8) (size 9 to 14) (size 15 to 20)
#    0.000    1.000    6.250    3.375    1.750    0.000 
#    0.000    0.000    0.000    0.750    0.000    2.625 
#    0.000    0.000    0.000    0.000    0.000    0.000 
#
# Total GULP energy -89183.117266 kJ/mol
# GULP energy per Si atom -5573.944829 kJ/mol
# Density = 2.045882 g / cm^3
# Si number density = 20.505493 Si / 1000 Ang^3
#
#
#
# Elastic Constant Matrix: (Units=GPa)
#
#
# Indices 1 2 3 4 5 6 
#
# 1 27.5036 15.2053 12.8138 8.6629 15.4158 4.7685
# 2 15.2053 80.2444 33.7483 32.8209 12.1867 -14.9165
# 3 12.8138 33.7483 122.9345 12.0961 17.4610 4.6544
# 4 8.6629 32.8209 12.0961 46.5682 -9.4910 1.6856
# 5 15.4158 12.1867 17.4610 -9.4910 35.0323 5.9332
# 6 4.7685 -14.9165 4.6544 1.6856 5.9332 16.5639
#
#
#
# Elastic Compliance Matrix: (Units=1/GPa)
#
#
# Indices 1 2 3 4 5 6 
#
# 1 0.059366 -0.002530 0.000236 -0.014746 -0.028019 -0.007899
# 2 -0.002530 0.052426 -0.007010 -0.044697 -0.037221 0.067791
# 3 0.000236 -0.007010 0.010215 0.002478 -0.000507 -0.009322
# 4 -0.014746 -0.044697 0.002478 0.067368 0.049431 -0.061265
# 5 -0.028019 -0.037221 -0.000507 0.049431 0.077295 -0.058028
# 6 -0.007899 0.067791 -0.009322 -0.061265 -0.058028 0.153335
#
#
# Mechanical properties :
#
#
# Convention : Reuss Voigt Hill
#
# Bulk Modulus (GPa) = 9.67124 39.35748 24.51436
# Shear Modulus (GPa) = 10.56902 30.89386 20.73144
#
# Velocity S-wave (km/s) = 2.27276 3.88572 3.18310
# Velocity P-wave (km/s) = 3.40792 6.27432 5.04881
#
# Compressibility (1/GPa) = 0.10339936
#
# Stress axis : x y z
#
# Youngs Moduli (GPa) = 16.84457 19.07454 97.89088
#
# Poissons Ratio (x) = 0.04826 -0.02314
# Poissons Ratio (y) = 0.04262 0.68625
# Poissons Ratio (z) = -0.00398 0.13372
#
# Static dielectric constant tensor:
#      x y z
#    x 1.768440 -0.003750 -0.013900 
#    y -0.003750 1.754020 -0.022220 
#    z -0.013900 -0.022220 1.939170 
# 
# From -- ./inp_files/517773.got.cif
#   From: 2010.05.17/outbox.cif.g08.bks.cpg/sg2_259_cif.got.tgz:517773.got - 2010.06.03 11:33:40.
