data_PCOD9053705
_publ_section_title
;
Structure prediction by ZEFSAII (Michael W. Deem and Ramdas Pophale) SiO2 
 PCOD9053705
Probable space group: P -1
;
_chemical_formula_sum "Si O2"
_cell_formula_units_Z 16
_cell_length_a 11.530895
_cell_length_b 16.909798
_cell_length_c 10.975513
_cell_angle_alpha 70.535270
_cell_angle_beta 110.039785
_cell_angle_gamma 158.760207
_cell_volume 727.743032
_symmetry_space_group_name_H-M "P -1"
_symmetry_group_IT_number 2
_symmetry_cell_setting 'triclinic'
loop_
_space_group_symop_operation_xyz
x,y,z
-x,-y,-z
loop_
_atom_site_type_symbol
_atom_site_label
_atom_site_fract_x
_atom_site_fract_y
_atom_site_fract_z
Si Si1 0.574289 0.447384 0.557078
Si Si2 0.926892 0.192023 0.738037
Si Si3 0.766639 0.193250 0.340680
Si Si4 0.143332 0.348491 0.208537
Si Si5 0.179840 0.062871 0.140525
Si Si6 0.638028 0.704007 0.690310
Si Si7 0.828665 0.212848 0.937554
Si Si8 0.116774 0.558579 0.872833
O O1 0.500000 0.500000 0.500000
O O2 0.594748 0.444678 0.711581
O O3 0.357843 0.269360 0.466521
O O4 0.946591 0.661110 0.546240
O O5 0.839430 0.151348 0.869012
O O6 0.261337 0.449768 0.710813
O O7 0.600298 0.021795 0.644525
O O8 0.972672 0.121310 0.775729
O O9 0.886769 0.357623 0.246125
O O10 0.812851 0.157712 0.262836
O O11 0.198879 0.285019 0.246270
O O12 0.109515 0.370224 0.055792
O O13 0.231556 0.151888 0.234322
O O14 0.523427 0.250351 0.112167
O O15 0.000000 0.000000 0.000000
O O16 0.888845 0.344129 0.845189
O O17 0.500000 0.000000 0.000000
O O18 0.000000 0.500000 0.000000
#
# Coordination Sequence:
#
# PCOD9053705 Si02
#       8
#     2   2   2   2   2   2   2   2
#     4   8  17  38  65  85 115 162 208 243 299 363
#     4  11  23  37  59  93 126 151 206 251 305 364
#     4   9  19  38  57  91 120 153 205 249 296 356
#     4   9  19  35  62  86 115 159 203 245 297 362
#     4  11  25  40  56  93 130 156 202 252 306 371
#     4  11  22  39  65  86 121 166 199 252 311 353
#     4  12  19  35  61  89 123 158 198 248 306 367
#     4  11  20  36  59  87 124 156 200 249 299 360
#
# _framework density 21.985780999999999
#
# number of rings (size 3 to 8) (size 9 to 14) (size 15 to 20)
#    0.750    1.000    3.750    1.500    1.750    1.500 
#    0.000    2.500    5.500    3.750    0.000    0.000 
#    0.000    0.000    0.000    0.000    0.000    0.000 
#
# Total GULP energy -89125.972605 kJ/mol
# GULP energy per Si atom -5570.373288 kJ/mol
# Density = 2.193574 g / cm^3
# Si number density = 21.985781 Si / 1000 Ang^3
#
#
#
# Elastic Constant Matrix: (Units=GPa)
#
#
# Indices 1 2 3 4 5 6 
#
# 1 151.3615 45.5971 38.4328 20.6755 -11.0397 1.6299
# 2 45.5971 79.5299 22.5559 6.5872 -0.2977 -3.8606
# 3 38.4328 22.5559 82.7373 43.1506 -15.5137 -4.3385
# 4 20.6755 6.5872 43.1506 34.4896 2.2208 -9.0618
# 5 -11.0397 -0.2977 -15.5137 2.2208 30.6630 19.8728
# 6 1.6299 -3.8606 -4.3385 -9.0618 19.8728 39.4528
#
#
#
# Elastic Compliance Matrix: (Units=1/GPa)
#
#
# Indices 1 2 3 4 5 6 
#
# 1 0.002982 0.007021 -0.044306 0.064650 -0.048680 0.035062
# 2 0.007021 -0.006471 0.079252 -0.126897 0.097385 -0.070408
# 3 -0.044306 0.079252 -0.282989 0.459417 -0.365329 0.268008
# 4 0.064650 -0.126897 0.459417 -0.706987 0.576007 -0.417093
# 5 -0.048680 0.097385 -0.365329 0.576007 -0.412310 0.311352
# 6 0.035062 -0.070408 0.268008 -0.417093 0.311352 -0.206152
#
#
# Mechanical properties :
#
#
# Convention : Reuss Voigt Hill
#
# Bulk Modulus (GPa) = -4.93721 58.53335 26.79807
# Shear Modulus (GPa) = -2.83547 34.72396 15.94425
#
# Velocity S-wave (km/s) = -1.13687 3.97846 2.69589
# Velocity P-wave (km/s) = 1.99344 6.91269 4.68035
#
# Compressibility (1/GPa) = -0.20254369
#
# Stress axis : x y z
#
# Youngs Moduli (GPa) = 335.29017 -154.52412 -3.53371
#
# Poissons Ratio (x) = 1.08491 -0.15657
# Poissons Ratio (y) = -2.35406 0.28005
# Poissons Ratio (z) = 14.85547 12.24642
#
# Static dielectric constant tensor:
#      x y z
#    x 1.761240 -0.020480 -0.039150 
#    y -0.020480 1.822010 -0.024570 
#    z -0.039150 -0.024570 1.862740 
# 
# From -- ./inp_files/436719.got.cif
#   From: 2010.05.17/outbox.cif.g08.bks.cpg/sg2_219_cif.got.tgz:436719.got - 2010.06.03 11:33:40.
