data_PCOD9053925
_publ_section_title
;
Structure prediction by ZEFSAII (Michael W. Deem and Ramdas Pophale) SiO2 
 PCOD9053925
Probable space group: P -1
;
_chemical_formula_sum "Si O2"
_cell_formula_units_Z 16
_cell_length_a 19.993855
_cell_length_b 8.542609
_cell_length_c 14.094501
_cell_angle_alpha 80.858337
_cell_angle_beta 159.583738
_cell_angle_gamma 110.493744
_cell_volume 672.897895
_symmetry_space_group_name_H-M "P -1"
_symmetry_group_IT_number 2
_symmetry_cell_setting 'triclinic'
loop_
_space_group_symop_operation_xyz
x,y,z
-x,-y,-z
loop_
_atom_site_type_symbol
_atom_site_label
_atom_site_fract_x
_atom_site_fract_y
_atom_site_fract_z
Si Si1 0.042294 0.891860 0.754587
Si Si2 0.216356 0.224124 0.247556
Si Si3 0.031040 0.630055 0.216227
Si Si4 0.682397 0.269393 0.117273
Si Si5 0.654135 0.236810 0.857766
Si Si6 0.290263 0.467817 0.507800
Si Si7 0.700186 0.617181 0.173581
Si Si8 0.189437 0.919166 0.555337
O O1 0.876249 0.717720 0.625620
O O2 0.911886 0.811798 0.486936
O O3 0.030630 0.069835 0.748499
O O4 0.287920 0.917274 0.075328
O O5 0.431540 0.209650 0.514150
O O6 0.293662 0.367731 0.426696
O O7 0.130026 0.313433 0.050060
O O8 0.000000 0.000000 0.000000
O O9 0.165738 0.579477 0.327625
O O10 0.208414 0.806690 0.504486
O O11 0.875882 0.444902 0.096017
O O12 0.789109 0.486419 0.273023
O O13 0.815794 0.183212 0.346003
O O14 0.638399 0.244393 0.949479
O O15 0.426525 0.136261 0.841928
O O16 0.548472 0.610947 0.884720
O O17 0.500000 0.500000 0.000000
#
# Coordination Sequence:
#
# PCOD9053925 Si02
#       8
#     2   2   2   2   2   2   2   2
#     4  10  21  37  63  94 140 167 207 263 328 375
#     4  12  24  46  71  93 122 167 224 275 313 378
#     4  11  25  41  67  93 132 167 215 267 322 375
#     4  11  21  37  65  91 134 167 220 257 315 375
#     4  11  24  44  62  95 131 171 211 262 332 387
#     4  10  20  40  64  96 125 170 218 254 316 391
#     4  10  17  35  62  93 127 173 203 255 311 386
#     4  11  22  39  63  99 129 172 217 260 309 381
#
# _framework density 23.777754999999999
#
# number of rings (size 3 to 8) (size 9 to 14) (size 15 to 20)
#    0.000    1.250    3.750    4.500    1.750    2.500 
#    0.000    9.375    0.000    0.000    0.000    0.000 
#    0.000    0.000    0.000    0.000    0.000    0.000 
#
# Total GULP energy -89522.905829 kJ/mol
# GULP energy per Si atom -5595.181614 kJ/mol
# Density = 2.372364 g / cm^3
# Si number density = 23.777755 Si / 1000 Ang^3
#
#
#
# Elastic Constant Matrix: (Units=GPa)
#
#
# Indices 1 2 3 4 5 6 
#
# 1 43.4393 23.5677 0.2946 -9.9407 -0.1024 10.1559
# 2 23.5677 106.5485 27.7005 -41.7144 14.4640 -11.2124
# 3 0.2946 27.7005 72.9601 -28.0888 -0.1111 -0.9300
# 4 -9.9407 -41.7144 -28.0888 53.2243 -2.1942 -0.4137
# 5 -0.1024 14.4640 -0.1111 -2.1942 28.5854 -9.1105
# 6 10.1559 -11.2124 -0.9300 -0.4137 -9.1105 31.8019
#
#
#
# Elastic Compliance Matrix: (Units=1/GPa)
#
#
# Indices 1 2 3 4 5 6 
#
# 1 0.030939 -0.008962 0.003273 0.000409 0.000623 -0.012761
# 2 -0.008962 0.017830 -0.002485 0.010808 -0.005829 0.007546
# 3 0.003273 -0.002485 0.017744 0.008092 0.001701 -0.000810
# 4 0.000409 0.010808 0.008092 0.031561 -0.001798 0.003812
# 5 0.000623 -0.005829 0.001701 -0.001798 0.040820 0.009466
# 6 -0.012761 0.007546 -0.000810 0.003812 0.009466 0.040918
#
#
# Mechanical properties :
#
#
# Convention : Reuss Voigt Hill
#
# Bulk Modulus (GPa) = 19.93409 36.23038 28.08223
# Shear Modulus (GPa) = 23.48712 34.14797 28.81755
#
# Velocity S-wave (km/s) = 3.14630 3.79374 3.48509
# Velocity P-wave (km/s) = 4.64765 5.87028 5.29437
#
# Compressibility (1/GPa) = 0.05016532
#
# Stress axis : x y z
#
# Youngs Moduli (GPa) = 32.32175 56.08369 56.35727
#
# Poissons Ratio (x) = 0.50261 -0.18447
# Poissons Ratio (y) = 0.28966 0.14007
# Poissons Ratio (z) = -0.10579 0.13939
#
# Static dielectric constant tensor:
#      x y z
#    x 1.906130 0.002830 0.046510 
#    y 0.002830 1.910420 -0.026550 
#    z 0.046510 -0.026550 1.931480 
# 
# From -- ./inp_files/540492.got.cif
#   From: 2010.05.17/outbox.cif.g08.bks.cpg/sg2_271_cif.got.tgz:540492.got - 2010.06.03 11:33:40.
