data_PCOD9053206
_publ_section_title
;
Structure prediction by ZEFSAII (Michael W. Deem and Ramdas Pophale) SiO2 
 PCOD9053206
Probable space group: P -1
;
_chemical_formula_sum "Si O2"
_cell_formula_units_Z 16
_cell_length_a 19.571176
_cell_length_b 6.645655
_cell_length_c 8.514264
_cell_angle_alpha 68.299937
_cell_angle_beta 51.431999
_cell_angle_gamma 48.521690
_cell_volume 646.925162
_symmetry_space_group_name_H-M "P -1"
_symmetry_group_IT_number 2
_symmetry_cell_setting 'triclinic'
loop_
_space_group_symop_operation_xyz
x,y,z
-x,-y,-z
loop_
_atom_site_type_symbol
_atom_site_label
_atom_site_fract_x
_atom_site_fract_y
_atom_site_fract_z
Si Si1 0.688393 0.196631 0.081512
Si Si2 0.541239 0.594034 0.633507
Si Si3 0.574068 0.722501 0.880523
Si Si4 0.850779 0.291692 0.964406
Si Si5 0.243321 0.451173 0.643752
Si Si6 0.687297 0.975062 0.533668
Si Si7 0.187971 0.200186 0.273092
Si Si8 0.060328 0.982647 0.577149
O O1 0.584126 0.219142 0.295242
O O2 0.629879 0.483275 0.991685
O O3 0.773822 0.199996 0.066075
O O4 0.747219 0.978815 0.921262
O O5 0.527488 0.650745 0.824537
O O6 0.637620 0.624236 0.449508
O O7 0.592971 0.292117 0.587568
O O8 0.648565 0.785248 0.666817
O O9 0.500000 0.000000 0.000000
O O10 0.825931 0.524983 0.811694
O O11 0.825030 0.417455 0.136428
O O12 0.976066 0.061569 0.814842
O O13 0.241583 0.197947 0.669834
O O14 0.173519 0.698090 0.545493
O O15 0.750993 0.931641 0.613213
O O16 0.085450 0.196233 0.443943
O O17 0.000000 0.000000 0.500000
#
# Coordination Sequence:
#
# PCOD9053206 Si02
#       8
#     2   2   2   2   2   2   2   2
#     4  12  23  39  67 106 143 179 233 283 343 409
#     4  11  23  39  69 102 140 190 226 284 339 402
#     4  11  19  33  64 103 137 174 236 289 333 388
#     4  12  28  45  69 104 144 181 227 288 352 415
#     4  11  27  47  68 102 144 184 229 282 347 417
#     4  11  20  40  69  99 137 182 234 280 340 406
#     4  12  23  45  73 105 134 178 235 288 347 408
#     4  12  24  51  77 102 132 176 237 297 345 407
#
# _framework density 24.732382999999999
#
# number of rings (size 3 to 8) (size 9 to 14) (size 15 to 20)
#    0.000    0.500    6.250    3.375    0.000    1.500 
#    0.000    2.500    0.000    0.000    0.000    0.000 
#    0.000    0.000    0.000    0.000    0.000    0.000 
#
# Total GULP energy -89321.016044 kJ/mol
# GULP energy per Si atom -5582.563503 kJ/mol
# Density = 2.467609 g / cm^3
# Si number density = 24.732383 Si / 1000 Ang^3
#
#
#
# Elastic Constant Matrix: (Units=GPa)
#
#
# Indices 1 2 3 4 5 6 
#
# 1 119.0976 50.7311 55.9185 10.1613 -1.6459 23.5306
# 2 50.7311 145.8319 40.4145 20.5508 -6.4156 11.8969
# 3 55.9185 40.4145 85.8917 21.6702 3.2266 16.2386
# 4 10.1613 20.5508 21.6702 52.0815 16.0890 5.2952
# 5 -1.6459 -6.4156 3.2266 16.0890 37.6346 5.9674
# 6 23.5306 11.8969 16.2386 5.2952 5.9674 30.8754
#
#
#
# Elastic Compliance Matrix: (Units=1/GPa)
#
#
# Indices 1 2 3 4 5 6 
#
# 1 0.013969 -0.002528 -0.007123 0.001531 0.001153 -0.006412
# 2 -0.002528 0.008836 -0.001716 -0.003138 0.002982 -0.000614
# 3 -0.007123 -0.001716 0.019109 -0.005793 0.000727 -0.003108
# 4 0.001531 -0.003138 -0.005793 0.025923 -0.011181 0.000804
# 5 0.001153 0.002982 0.000727 -0.011181 0.032935 -0.006857
# 6 -0.006412 -0.000614 -0.003108 0.000804 -0.006857 0.040333
#
#
# Mechanical properties :
#
#
# Convention : Reuss Voigt Hill
#
# Bulk Modulus (GPa) = 52.13535 71.66105 61.89820
# Shear Modulus (GPa) = 29.37188 37.70211 33.53700
#
# Velocity S-wave (km/s) = 3.44988 3.90860 3.68638
# Velocity P-wave (km/s) = 6.08231 7.02901 6.57272
#
# Compressibility (1/GPa) = 0.01918084
#
# Stress axis : x y z
#
# Youngs Moduli (GPa) = 71.58455 113.17940 52.33182
#
# Poissons Ratio (x) = 0.28609 0.37275
# Poissons Ratio (y) = 0.18095 0.08980
# Poissons Ratio (z) = 0.50988 0.19422
#
# Static dielectric constant tensor:
#      x y z
#    x 5.338850 3.545300 7.764100 
#    y 3.545300 5.841060 8.262210 
#    z 7.764100 8.262210 20.012280 
# 
# From -- ./inp_files/340313.got.cif
#   From: 2010.05.17/outbox.cif.g08.bks.cpg/sg2_171_cif.got.tgz:340313.got - 2010.06.03 11:33:40.
