data_PCOD9053522
_publ_section_title
;
Structure prediction by ZEFSAII (Michael W. Deem and Ramdas Pophale) SiO2 
 PCOD9053522
Probable space group: P -1
;
_chemical_formula_sum "Si O2"
_cell_formula_units_Z 16
_cell_length_a 10.075594
_cell_length_b 9.629173
_cell_length_c 16.302277
_cell_angle_alpha 31.149275
_cell_angle_beta 58.140567
_cell_angle_gamma 59.814186
_cell_volume 690.168271
_symmetry_space_group_name_H-M "P -1"
_symmetry_group_IT_number 2
_symmetry_cell_setting 'triclinic'
loop_
_space_group_symop_operation_xyz
x,y,z
-x,-y,-z
loop_
_atom_site_type_symbol
_atom_site_label
_atom_site_fract_x
_atom_site_fract_y
_atom_site_fract_z
Si Si1 0.614808 0.551763 0.511517
Si Si2 0.333125 0.471499 0.746555
Si Si3 0.423472 0.242229 0.341068
Si Si4 0.445640 0.842019 0.989281
Si Si5 0.816192 0.033272 0.537847
Si Si6 0.669367 0.130709 0.171489
Si Si7 0.110958 0.725077 0.836276
Si Si8 0.785152 0.988772 0.753934
O O1 0.500000 0.500000 0.500000
O O2 0.694641 0.809347 0.332238
O O3 0.739174 0.305174 0.616223
O O4 0.497741 0.576407 0.614343
O O5 0.585982 0.426731 0.813798
O O6 0.227854 0.643910 0.624930
O O7 0.246544 0.605658 0.788207
O O8 0.364993 0.142301 0.895187
O O9 0.500000 0.000000 0.500000
O O10 0.257516 0.139278 0.421617
O O11 0.526164 0.209889 0.240369
O O12 0.375776 0.801319 0.941515
O O13 0.635344 0.864731 0.908558
O O14 0.760829 0.930122 0.695456
O O15 0.000000 0.000000 0.500000
O O16 0.814547 0.229660 0.122426
O O17 0.970703 0.942877 0.738942
O O18 0.000000 0.500000 0.000000
#
# Coordination Sequence:
#
# PCOD9053522 Si02
#       8
#     2   2   2   2   2   2   2   2
#     4  11  19  42  77 112 139 188 258 316 363 442
#     4  11  22  47  75 107 147 198 245 311 372 448
#     4  12  26  44  69 113 147 189 252 319 364 447
#     4  11  24  48  83 106 137 203 263 303 367 450
#     4  12  22  40  74 103 147 192 246 294 380 442
#     4  12  23  44  78 106 147 195 256 306 368 451
#     4  12  29  45  65 106 160 196 245 311 377 438
#     4  11  22  44  72 107 147 199 238 303 379 445
#
# _framework density 23.182753000000002
#
# number of rings (size 3 to 8) (size 9 to 14) (size 15 to 20)
#    0.000    0.500    7.500    1.875    1.750    0.500 
#    2.250    7.500    0.000    3.000    0.000    0.000 
#    0.000    0.000    0.000    0.000    0.000    0.000 
#
# Total GULP energy -89139.553700 kJ/mol
# GULP energy per Si atom -5571.222106 kJ/mol
# Density = 2.312999 g / cm^3
# Si number density = 23.182753 Si / 1000 Ang^3
#
#
#
# Elastic Constant Matrix: (Units=GPa)
#
#
# Indices 1 2 3 4 5 6 
#
# 1 142.8636 46.4107 64.5482 1.1899 12.0355 2.9643
# 2 46.4107 98.3212 57.4576 -5.6529 15.8576 -3.5461
# 3 64.5482 57.4576 147.8556 -17.3175 14.6002 0.6281
# 4 1.1899 -5.6529 -17.3175 39.9866 5.3670 6.9588
# 5 12.0355 15.8576 14.6002 5.3670 46.3229 -10.5733
# 6 2.9643 -3.5461 0.6281 6.9588 -10.5733 46.8531
#
#
#
# Elastic Compliance Matrix: (Units=1/GPa)
#
#
# Indices 1 2 3 4 5 6 
#
# 1 0.009378 -0.002575 -0.003272 -0.001905 -0.000431 -0.000559
# 2 -0.002575 0.014287 -0.004073 0.000623 -0.002884 0.000556
# 3 -0.003272 -0.004073 0.010502 0.004560 -0.001902 -0.001348
# 4 -0.001905 0.000623 0.004560 0.028852 -0.005748 -0.005476
# 5 -0.000431 -0.002884 -0.001902 -0.005748 0.025418 0.006424
# 6 -0.000559 0.000556 -0.001348 -0.005476 0.006424 0.023702
#
#
# Mechanical properties :
#
#
# Convention : Reuss Voigt Hill
#
# Bulk Modulus (GPa) = 69.79062 80.65260 75.22161
# Shear Modulus (GPa) = 36.56183 41.34078 38.95130
#
# Velocity S-wave (km/s) = 3.97560 4.22744 4.10345
# Velocity P-wave (km/s) = 7.15847 7.66119 7.41409
#
# Compressibility (1/GPa) = 0.01432857
#
# Stress axis : x y z
#
# Youngs Moduli (GPa) = 106.63068 69.99300 95.22130
#
# Poissons Ratio (x) = 0.18024 0.31153
# Poissons Ratio (y) = 0.27458 0.38779
# Poissons Ratio (z) = 0.34886 0.28505
#
# Static dielectric constant tensor:
#      x y z
#    x 1.873820 0.159730 -0.036490 
#    y 0.159730 2.090510 0.042320 
#    z -0.036490 0.042320 1.875160 
# 
# From -- ./inp_files/558847.got.cif
#   From: 2010.05.17/outbox.cif.g08.bks.cpg/sg2_280_cif.got.tgz:558847.got - 2010.06.03 11:33:40.
