data_PCOD9053181
_publ_section_title
;
Structure prediction by ZEFSAII (Michael W. Deem and Ramdas Pophale) SiO2 
 PCOD9053181
Probable space group: P -1
;
_chemical_formula_sum "Si O2"
_cell_formula_units_Z 16
_cell_length_a 11.331711
_cell_length_b 8.779906
_cell_length_c 12.330678
_cell_angle_alpha 82.130327
_cell_angle_beta 107.979757
_cell_angle_gamma 40.386038
_cell_volume 602.757790
_symmetry_space_group_name_H-M "P -1"
_symmetry_group_IT_number 2
_symmetry_cell_setting 'triclinic'
loop_
_space_group_symop_operation_xyz
x,y,z
-x,-y,-z
loop_
_atom_site_type_symbol
_atom_site_label
_atom_site_fract_x
_atom_site_fract_y
_atom_site_fract_z
Si Si1 0.113611 0.814317 0.232318
Si Si2 0.713229 0.822809 0.495734
Si Si3 0.270361 0.700381 0.776377
Si Si4 0.937755 0.686833 0.197816
Si Si5 0.532363 0.719062 0.934317
Si Si6 0.423640 0.754119 0.489359
Si Si7 0.621656 0.186979 0.774230
Si Si8 0.315180 0.201946 0.177722
O O1 0.347034 0.464710 0.348645
O O2 0.183998 0.881767 0.170226
O O3 0.930821 0.876018 0.141426
O O4 0.006326 0.987306 0.300707
O O5 0.932314 0.486782 0.631468
O O6 0.500000 0.000000 0.500000
O O7 0.769687 0.943285 0.527678
O O8 0.579635 0.945946 0.331571
O O9 0.401406 0.725897 0.824645
O O10 0.374787 0.518522 0.714699
O O11 0.354924 0.495226 0.914926
O O12 0.102866 0.427475 0.183543
O O13 0.662022 0.951318 0.113832
O O14 0.718895 0.615770 0.926805
O O15 0.500000 0.500000 0.500000
O O16 0.407456 0.835488 0.356116
O O17 0.686032 0.958963 0.869449
#
# Coordination Sequence:
#
# PCOD9053181 Si02
#       8
#     2   2   2   2   2   2   2   2
#     4  10  20  38  63  85 120 159 193 237 299 346
#     4  10  17  35  59  91 122 146 193 238 290 364
#     4  10  24  43  59  85 118 155 208 251 277 349
#     4  10  19  38  64  87 117 156 195 241 294 351
#     4  10  24  42  61  85 115 157 209 246 287 340
#     4  10  19  34  60  93 120 152 188 237 296 359
#     4  11  22  37  61  90 122 154 193 239 302 352
#     4  11  21  37  63  89 120 156 190 242 301 351
#
# _framework density 26.544658999999999
#
# number of rings (size 3 to 8) (size 9 to 14) (size 15 to 20)
#    0.000    1.750    5.000    0.750    1.750    3.500 
#    0.000    5.000    0.000    0.000    0.000    0.000 
#    0.000    0.000    0.000    0.000    0.000    0.000 
#
# Total GULP energy -89218.864577 kJ/mol
# GULP energy per Si atom -5576.179036 kJ/mol
# Density = 2.648424 g / cm^3
# Si number density = 26.544659 Si / 1000 Ang^3
#
#
#
# Elastic Constant Matrix: (Units=GPa)
#
#
# Indices 1 2 3 4 5 6 
#
# 1 87.5961 38.7343 27.1860 -8.3621 -23.0604 22.0829
# 2 38.7343 132.0376 16.4386 -15.0317 -6.8754 5.7596
# 3 27.1860 16.4386 81.0424 -10.9621 -1.9600 2.9934
# 4 -8.3621 -15.0317 -10.9621 37.6376 2.9721 -2.0147
# 5 -23.0604 -6.8754 -1.9600 2.9721 24.4432 -9.5825
# 6 22.0829 5.7596 2.9934 -2.0147 -9.5825 45.7556
#
#
#
# Elastic Compliance Matrix: (Units=1/GPa)
#
#
# Indices 1 2 3 4 5 6 
#
# 1 0.020523 -0.004315 -0.005460 -0.000286 0.015481 -0.005775
# 2 -0.004315 0.009053 -0.000076 0.002799 -0.001581 0.000740
# 3 -0.005460 -0.000076 0.014505 0.003353 -0.004025 0.001000
# 4 -0.000286 0.002799 0.003353 0.028821 -0.002604 0.000290
# 5 0.015481 -0.001581 -0.004025 -0.002604 0.056948 0.004803
# 6 -0.005775 0.000740 0.001000 0.000290 0.004803 0.025502
#
#
# Mechanical properties :
#
#
# Convention : Reuss Voigt Hill
#
# Bulk Modulus (GPa) = 41.01857 51.71041 46.36449
# Shear Modulus (GPa) = 27.29531 36.12178 31.70855
#
# Velocity S-wave (km/s) = 3.21016 3.69289 3.45996
# Velocity P-wave (km/s) = 5.40614 6.14053 5.78500
#
# Compressibility (1/GPa) = 0.02437920
#
# Stress axis : x y z
#
# Youngs Moduli (GPa) = 48.72618 110.46053 68.93986
#
# Poissons Ratio (x) = 0.47667 0.37642
# Poissons Ratio (y) = 0.21027 0.00522
# Poissons Ratio (z) = 0.26605 0.00836
#
# Static dielectric constant tensor:
#      x y z
#    x 2.180720 0.050350 0.073650 
#    y 0.050350 2.100050 -0.002750 
#    z 0.073650 -0.002750 2.295640 
# 
# From -- ./inp_files/515374.got.cif
#   From: 2010.05.17/outbox.cif.g08.bks.cpg/sg2_258_cif.got.tgz:515374.got - 2010.06.03 11:33:40.
