data_PCOD9053600
_publ_section_title
;
Structure prediction by ZEFSAII (Michael W. Deem and Ramdas Pophale) SiO2 
 PCOD9053600
Probable space group: P -1
;
_chemical_formula_sum "Si O2"
_cell_formula_units_Z 16
_cell_length_a 11.340870
_cell_length_b 18.326594
_cell_length_c 19.164534
_cell_angle_alpha 159.140910
_cell_angle_beta 32.675248
_cell_angle_gamma 147.306566
_cell_volume 733.692581
_symmetry_space_group_name_H-M "P -1"
_symmetry_group_IT_number 2
_symmetry_cell_setting 'triclinic'
loop_
_space_group_symop_operation_xyz
x,y,z
-x,-y,-z
loop_
_atom_site_type_symbol
_atom_site_label
_atom_site_fract_x
_atom_site_fract_y
_atom_site_fract_z
Si Si1 0.802971 0.489160 0.033293
Si Si2 0.014063 0.768357 0.761440
Si Si3 0.248610 0.966033 0.363739
Si Si4 0.907879 0.837428 0.722544
Si Si5 0.733701 0.453003 0.363553
Si Si6 0.949016 0.216165 0.942366
Si Si7 0.488991 0.981495 0.108193
Si Si8 0.400092 0.619243 0.397778
O O1 0.774054 0.271285 0.810597
O O2 0.592088 0.495573 0.192589
O O3 0.000000 0.500000 0.000000
O O4 0.873009 0.682788 0.116500
O O5 0.037808 0.803185 0.696619
O O6 0.793925 0.573170 0.716701
O O7 0.230894 0.683902 0.595140
O O8 0.000000 0.000000 0.000000
O O9 0.373170 0.965333 0.226558
O O10 0.416527 0.142874 0.487195
O O11 0.000000 0.000000 0.500000
O O12 0.871147 0.643022 0.513831
O O13 0.012189 0.058696 0.826387
O O14 0.660096 0.842413 0.880011
O O15 0.500000 0.500000 0.500000
O O16 0.646747 0.221028 0.234140
O O17 0.882690 0.410091 0.186807
O O18 0.716301 0.075196 0.895812
#
# Coordination Sequence:
#
# PCOD9053600 Si02
#       8
#     2   2   2   2   2   2   2   2
#     4  12  24  41  63  96 142 178 221 276 338 410
#     4  11  25  46  75  97 133 177 235 288 324 399
#     4  12  24  38  65  99 137 177 218 276 344 408
#     4  11  22  40  61  92 130 173 223 276 336 391
#     4  11  20  33  59  87 131 174 214 274 333 401
#     4  11  23  36  56  95 135 175 217 267 333 408
#     4  11  20  34  55  90 130 170 217 268 329 398
#     4  11  24  44  67 103 131 176 229 280 341 394
#
# _framework density 21.807500000000001
#
# number of rings (size 3 to 8) (size 9 to 14) (size 15 to 20)
#    0.000    0.750    5.000    3.750    1.750    4.000 
#    0.000    0.625    0.000    3.750    0.000    0.000 
#    0.000    0.000    0.000    0.000    0.000    0.000 
#
# Total GULP energy -89099.824130 kJ/mol
# GULP energy per Si atom -5568.739008 kJ/mol
# Density = 2.175787 g / cm^3
# Si number density = 21.807500 Si / 1000 Ang^3
#
#
#
# Elastic Constant Matrix: (Units=GPa)
#
#
# Indices 1 2 3 4 5 6 
#
# 1 56.8077 17.9877 16.9041 -0.6340 13.3212 -9.6730
# 2 17.9877 108.8944 45.4053 7.9571 -5.6226 2.1277
# 3 16.9041 45.4053 159.1318 9.8033 12.3824 13.5214
# 4 -0.6340 7.9571 9.8033 47.1469 10.3590 2.7876
# 5 13.3212 -5.6226 12.3824 10.3590 31.8223 0.0841
# 6 -9.6730 2.1277 13.5214 2.7876 0.0841 41.3773
#
#
#
# Elastic Compliance Matrix: (Units=1/GPa)
#
#
# Indices 1 2 3 4 5 6 
#
# 1 0.022854 -0.004263 -0.001044 0.003326 -0.011012 0.005701
# 2 -0.004263 0.011712 -0.003154 -0.002661 0.005948 -0.000401
# 3 -0.001044 -0.003154 0.007769 -0.000274 -0.003047 -0.002596
# 4 0.003326 -0.002661 -0.000274 0.023890 -0.009531 -0.000586
# 5 -0.011012 0.005948 -0.003047 -0.009531 0.041377 -0.001326
# 6 0.005701 -0.000401 -0.002596 -0.000586 -0.001326 0.026412
#
#
# Mechanical properties :
#
#
# Convention : Reuss Voigt Hill
#
# Bulk Modulus (GPa) = 39.34820 53.93645 46.64233
# Shear Modulus (GPa) = 31.36637 40.37176 35.86906
#
# Velocity S-wave (km/s) = 3.79665 4.30732 4.06002
# Velocity P-wave (km/s) = 6.10753 7.03733 6.58885
#
# Compressibility (1/GPa) = 0.02541412
#
# Stress axis : x y z
#
# Youngs Moduli (GPa) = 43.75637 85.38370 128.70919
#
# Poissons Ratio (x) = 0.36398 0.13435
# Poissons Ratio (y) = 0.18653 0.40592
# Poissons Ratio (z) = 0.04568 0.26928
#
# Static dielectric constant tensor:
#      x y z
#    x 1.850910 -0.039110 0.050220 
#    y -0.039110 1.788990 0.143340 
#    z 0.050220 0.143340 1.599210 
# 
# From -- ./inp_files/596195.got.cif
#   From: 2010.05.17/outbox.cif.g08.bks.cpg/sg2_299_cif.got.tgz:596195.got - 2010.06.03 11:33:40.
