data_PCOD9053673
_publ_section_title
;
Structure prediction by ZEFSAII (Michael W. Deem and Ramdas Pophale) SiO2 
 PCOD9053673
Probable space group: P -1
;
_chemical_formula_sum "Si O2"
_cell_formula_units_Z 16
_cell_length_a 11.391858
_cell_length_b 11.103644
_cell_length_c 6.190329
_cell_angle_alpha 76.388791
_cell_angle_beta 56.537926
_cell_angle_gamma 74.764784
_cell_volume 626.287921
_symmetry_space_group_name_H-M "P -1"
_symmetry_group_IT_number 2
_symmetry_cell_setting 'triclinic'
loop_
_space_group_symop_operation_xyz
x,y,z
-x,-y,-z
loop_
_atom_site_type_symbol
_atom_site_label
_atom_site_fract_x
_atom_site_fract_y
_atom_site_fract_z
Si Si1 0.657518 0.746075 0.981465
Si Si2 0.794930 0.145026 0.977757
Si Si3 0.320839 0.460136 0.631301
Si Si4 0.466523 0.641215 0.883224
Si Si5 0.850024 0.296156 0.247375
Si Si6 0.046677 0.405734 0.687548
Si Si7 0.946709 0.818759 0.528283
Si Si8 0.561350 0.974539 0.202633
O O1 0.559902 0.729765 0.881856
O O2 0.785239 0.825365 0.769850
O O3 0.701038 0.605601 0.089488
O O4 0.584060 0.824912 0.222607
O O5 0.695707 0.282819 0.967991
O O6 0.826931 0.175101 0.182016
O O7 0.695859 0.045531 0.060371
O O8 0.943178 0.097546 0.719332
O O9 0.467187 0.393232 0.404977
O O10 0.293778 0.611793 0.582448
O O11 0.195125 0.427982 0.619888
O O12 0.500000 0.500000 0.000000
O O13 0.954161 0.252474 0.355968
O O14 0.929737 0.393426 0.991159
O O15 0.000000 0.500000 0.500000
O O16 0.064773 0.268560 0.628099
O O17 0.500000 0.000000 0.500000
O O18 0.500000 0.000000 0.000000
#
# Coordination Sequence:
#
# PCOD9053673 Si02
#       8
#     2   2   2   2   2   2   2   2
#     4  12  26  46  77 106 142 195 256 313 374 453
#     4  11  27  47  71 106 148 197 247 314 382 451
#     4  12  23  38  68 104 147 191 251 299 374 457
#     4  12  26  43  67 106 148 193 245 307 373 458
#     4  11  23  39  66 104 150 189 234 304 388 443
#     4  11  20  35  62 100 145 196 239 292 374 456
#     4  11  23  42  71 106 147 189 244 311 381 453
#     4  12  29  55  84 110 149 205 260 316 385 455
#
# _framework density 25.547353999999999
#
# number of rings (size 3 to 8) (size 9 to 14) (size 15 to 20)
#    0.000    0.500    5.000    3.375    3.500    4.500 
#    0.000    0.625    0.000    0.000    0.000    0.000 
#    0.000    0.000    0.000    0.000    0.000    0.000 
#
# Total GULP energy -89181.512996 kJ/mol
# GULP energy per Si atom -5573.844562 kJ/mol
# Density = 2.548921 g / cm^3
# Si number density = 25.547354 Si / 1000 Ang^3
#
#
#
# Elastic Constant Matrix: (Units=GPa)
#
#
# Indices 1 2 3 4 5 6 
#
# 1 163.4221 3.8519 23.5628 11.1038 7.7446 28.7317
# 2 3.8519 58.1917 11.7226 18.6061 -4.8278 14.3011
# 3 23.5628 11.7226 87.4614 13.9923 0.1126 12.1776
# 4 11.1038 18.6061 13.9923 43.5273 5.3005 -0.4799
# 5 7.7446 -4.8278 0.1126 5.3005 23.1624 1.6427
# 6 28.7317 14.3011 12.1776 -0.4799 1.6427 38.7937
#
#
#
# Elastic Compliance Matrix: (Units=1/GPa)
#
#
# Indices 1 2 3 4 5 6 
#
# 1 0.007464 0.001767 -0.001079 -0.002230 -0.001199 -0.005818
# 2 0.001767 0.024144 -0.000374 -0.011726 0.007877 -0.010570
# 3 -0.001079 -0.000374 0.012841 -0.003890 0.001338 -0.003198
# 4 -0.002230 -0.011726 -0.003890 0.031032 -0.009347 0.007976
# 5 -0.001199 0.007877 0.001338 -0.009347 0.047673 -0.004570
# 6 -0.005818 -0.010570 -0.003198 0.007976 -0.004570 0.035279
#
#
# Mechanical properties :
#
#
# Convention : Reuss Voigt Hill
#
# Bulk Modulus (GPa) = 22.18557 43.03887 32.61222
# Shear Modulus (GPa) = 28.93002 39.09253 34.01127
#
# Velocity S-wave (km/s) = 3.36878 3.91602 3.65266
# Velocity P-wave (km/s) = 4.88206 6.10985 5.53013
#
# Compressibility (1/GPa) = 0.04507435
#
# Stress axis : x y z
#
# Youngs Moduli (GPa) = 133.97131 41.41888 77.87829
#
# Poissons Ratio (x) = -0.07318 0.08406
# Poissons Ratio (y) = -0.23669 0.02916
# Poissons Ratio (z) = 0.14460 0.01551
#
# Static dielectric constant tensor:
#      x y z
#    x 2.103600 -0.122010 -0.192340 
#    y -0.122010 2.134610 0.102240 
#    z -0.192340 0.102240 2.357760 
# 
# From -- ./inp_files/68546.got.cif
#   From: 2010.05.17/outbox.cif.g08.bks.cpg/sg2_35_cif.got.tgz:68546.got - 2010.06.03 11:33:40.
