data_PCOD9053829
_publ_section_title
;
Structure prediction by ZEFSAII (Michael W. Deem and Ramdas Pophale) SiO2 
 PCOD9053829
Probable space group: P -1
;
_chemical_formula_sum "Si O2"
_cell_formula_units_Z 16
_cell_length_a 12.282221
_cell_length_b 11.543795
_cell_length_c 14.647232
_cell_angle_alpha 150.022068
_cell_angle_beta 48.760704
_cell_angle_gamma 123.539301
_cell_volume 779.345852
_symmetry_space_group_name_H-M "P -1"
_symmetry_group_IT_number 2
_symmetry_cell_setting 'triclinic'
loop_
_space_group_symop_operation_xyz
x,y,z
-x,-y,-z
loop_
_atom_site_type_symbol
_atom_site_label
_atom_site_fract_x
_atom_site_fract_y
_atom_site_fract_z
Si Si1 0.307939 0.297656 0.298218
Si Si2 0.851471 0.713483 0.324650
Si Si3 0.598892 0.387020 0.289816
Si Si4 0.849967 0.553465 0.019890
Si Si5 0.055956 0.654133 0.658571
Si Si6 0.374604 0.061572 0.926660
Si Si7 0.173642 0.147203 0.932848
Si Si8 0.283873 0.932342 0.222656
O O1 0.478905 0.324649 0.239972
O O2 0.196881 0.513113 0.526405
O O3 0.269105 0.087169 0.244012
O O4 0.303637 0.258913 0.165812
O O5 0.712443 0.564742 0.317347
O O6 0.819287 0.944557 0.558989
O O7 0.993169 0.560954 0.172188
O O8 0.866784 0.723307 0.213262
O O9 0.500000 0.500000 0.500000
O O10 0.671441 0.163217 0.145263
O O11 0.760022 0.330975 0.945227
O O12 0.786861 0.696327 0.067273
O O13 0.000000 0.500000 0.500000
O O14 0.101619 0.910908 0.779100
O O15 0.938176 0.708897 0.840408
O O16 0.310524 0.074785 0.871003
O O17 0.548814 0.059800 0.832791
#
# Coordination Sequence:
#
# PCOD9053829 Si02
#       8
#     2   2   2   2   2   2   2   2
#     4  11  21  39  67  99 127 165 217 280 329 375
#     4  11  23  42  67  95 125 174 218 273 326 377
#     4  11  20  37  68  96 127 161 219 282 328 365
#     4  11  26  43  63  95 136 174 219 258 318 404
#     4  11  24  42  66  96 132 168 218 271 326 387
#     4  11  22  39  65  98 131 168 217 270 330 387
#     4  11  26  42  63  96 134 179 212 263 328 391
#     4  11  23  42  66  95 129 171 216 268 322 380
#
# _framework density 20.530038000000001
#
# number of rings (size 3 to 8) (size 9 to 14) (size 15 to 20)
#    0.000    1.000    3.750    4.875    3.500    3.500 
#    0.000    0.625    0.000    0.000    0.000    0.000 
#    0.000    0.000    0.000    0.000    0.000    0.000 
#
# Total GULP energy -89362.141799 kJ/mol
# GULP energy per Si atom -5585.133862 kJ/mol
# Density = 2.048331 g / cm^3
# Si number density = 20.530038 Si / 1000 Ang^3
#
#
#
# Elastic Constant Matrix: (Units=GPa)
#
#
# Indices 1 2 3 4 5 6 
#
# 1 86.5187 21.1294 26.6169 5.3061 4.2513 -16.4929
# 2 21.1294 57.5018 15.2756 9.4752 -0.9060 0.0249
# 3 26.6169 15.2756 95.9490 -10.6308 6.3264 -5.3075
# 4 5.3061 9.4752 -10.6308 25.4294 2.0499 -3.4843
# 5 4.2513 -0.9060 6.3264 2.0499 38.5534 0.6721
# 6 -16.4929 0.0249 -5.3075 -3.4843 0.6721 24.1897
#
#
#
# Elastic Compliance Matrix: (Units=1/GPa)
#
#
# Indices 1 2 3 4 5 6 
#
# 1 0.015712 -0.004754 -0.003108 -0.001337 -0.001435 0.009883
# 2 -0.004754 0.021721 -0.003651 -0.009562 0.002238 -0.005504
# 3 -0.003108 -0.003651 0.013002 0.007898 -0.002330 0.001939
# 4 -0.001337 -0.009562 0.007898 0.047869 -0.004055 0.007839
# 5 -0.001435 0.002238 -0.002330 -0.004055 0.026796 -0.002821
# 6 0.009883 -0.005504 0.001939 0.007839 -0.002821 0.049717
#
#
# Mechanical properties :
#
#
# Convention : Reuss Voigt Hill
#
# Bulk Modulus (GPa) = 36.48622 40.66815 38.57719
# Shear Modulus (GPa) = 24.15694 29.43102 26.79398
#
# Velocity S-wave (km/s) = 3.43397 3.79034 3.61655
# Velocity P-wave (km/s) = 5.79082 6.24562 6.02251
#
# Compressibility (1/GPa) = 0.02740760
#
# Stress axis : x y z
#
# Youngs Moduli (GPa) = 63.64530 46.03863 76.91295
#
# Poissons Ratio (x) = 0.21888 0.23908
# Poissons Ratio (y) = 0.30259 0.28079
# Poissons Ratio (z) = 0.19784 0.16807
#
# Static dielectric constant tensor:
#      x y z
#    x 1.842170 0.006360 0.025420 
#    y 0.006360 1.715110 0.021470 
#    z 0.025420 0.021470 1.831340 
# 
# From -- ./inp_files/457456.got.cif
#   From: 2010.05.17/outbox.cif.g08.bks.cpg/sg2_229_cif.got.tgz:457456.got - 2010.06.03 11:33:40.
