data_PCOD9053665
_publ_section_title
;
Structure prediction by ZEFSAII (Michael W. Deem and Ramdas Pophale) SiO2 
 PCOD9053665
Probable space group: P -1
;
_chemical_formula_sum "Si O2"
_cell_formula_units_Z 16
_cell_length_a 14.299397
_cell_length_b 15.209811
_cell_length_c 7.494296
_cell_angle_alpha 47.531773
_cell_angle_beta 76.148835
_cell_angle_gamma 39.879030
_cell_volume 622.796556
_symmetry_space_group_name_H-M "P -1"
_symmetry_group_IT_number 2
_symmetry_cell_setting 'triclinic'
loop_
_space_group_symop_operation_xyz
x,y,z
-x,-y,-z
loop_
_atom_site_type_symbol
_atom_site_label
_atom_site_fract_x
_atom_site_fract_y
_atom_site_fract_z
Si Si1 0.446554 0.769235 0.653589
Si Si2 0.232318 0.609886 0.764627
Si Si3 0.256696 0.821423 0.232610
Si Si4 0.353984 0.540665 0.318640
Si Si5 0.950629 0.538167 0.755580
Si Si6 0.217533 0.452757 0.671950
Si Si7 0.938360 0.845171 0.842347
Si Si8 0.529879 0.955311 0.336233
O O1 0.558339 0.555311 0.781959
O O2 0.478324 0.871756 0.429279
O O3 0.239769 0.953201 0.476640
O O4 0.558324 0.645775 0.951954
O O5 0.232078 0.735327 0.495260
O O6 0.165372 0.577455 0.706339
O O7 0.103919 0.741290 0.816351
O O8 0.239019 0.775251 0.112129
O O9 0.461795 0.654264 0.379157
O O10 0.124751 0.052944 0.068924
O O11 0.253848 0.521368 0.424856
O O12 0.060838 0.522560 0.622188
O O13 0.740942 0.762643 0.490696
O O14 0.014201 0.341810 0.939330
O O15 0.000000 0.500000 0.000000
O O16 0.398313 0.184402 0.982661
O O17 0.500000 0.000000 0.500000
#
# Coordination Sequence:
#
# PCOD9053665 Si02
#       8
#     2   2   2   2   2   2   2   2
#     4  11  21  37  63  89 122 155 199 245 298 349
#     4  11  21  37  65  93 117 150 205 253 291 344
#     4   9  21  42  62  84 119 162 202 246 293 349
#     4   9  22  42  60  84 122 164 200 238 296 362
#     4  12  20  35  60  93 125 148 194 249 299 352
#     4  11  22  38  62  89 124 161 191 239 305 356
#     4  11  20  35  61  92 120 151 193 251 303 342
#     4  12  20  35  60  92 122 154 190 249 294 351
#
# _framework density 25.690574000000002
#
# number of rings (size 3 to 8) (size 9 to 14) (size 15 to 20)
#    0.000    1.250    6.250    0.375    0.000    2.500 
#    0.000    3.750    0.000    4.500    0.000    0.000 
#    0.000    0.000    0.000    0.000    0.000    0.000 
#
# Total GULP energy -89564.060677 kJ/mol
# GULP energy per Si atom -5597.753792 kJ/mol
# Density = 2.563210 g / cm^3
# Si number density = 25.690574 Si / 1000 Ang^3
#
#
#
# Elastic Constant Matrix: (Units=GPa)
#
#
# Indices 1 2 3 4 5 6 
#
# 1 125.5070 32.4233 56.6035 -20.2574 -4.9374 -18.7369
# 2 32.4233 115.7238 36.8585 -28.4984 -12.1204 2.9841
# 3 56.6035 36.8585 79.4998 -29.1161 12.5999 -22.3747
# 4 -20.2574 -28.4984 -29.1161 41.7086 -4.9198 -2.8616
# 5 -4.9374 -12.1204 12.5999 -4.9198 42.3490 -18.5253
# 6 -18.7369 2.9841 -22.3747 -2.8616 -18.5253 38.7525
#
#
#
# Elastic Compliance Matrix: (Units=1/GPa)
#
#
# Indices 1 2 3 4 5 6 
#
# 1 0.012867 -0.000092 -0.008325 0.001390 0.006043 0.004413
# 2 -0.000092 0.012021 -0.004454 0.005615 0.005107 -0.000685
# 3 -0.008325 -0.004454 0.030051 0.014315 -0.003896 0.012863
# 4 0.001390 0.005615 0.014315 0.040656 0.009188 0.015900
# 5 0.006043 0.005107 -0.003896 0.009188 0.035941 0.018138
# 6 0.004413 -0.000685 0.012863 0.015900 0.018138 0.045263
#
#
# Mechanical properties :
#
#
# Convention : Reuss Voigt Hill
#
# Bulk Modulus (GPa) = 34.24871 63.61124 48.92997
# Shear Modulus (GPa) = 23.55461 37.55170 30.55316
#
# Velocity S-wave (km/s) = 3.03125 3.82736 3.45233
# Velocity P-wave (km/s) = 5.06078 6.65927 5.91428
#
# Compressibility (1/GPa) = 0.02919818
#
# Stress axis : x y z
#
# Youngs Moduli (GPa) = 77.71830 83.18808 33.27640
#
# Poissons Ratio (x) = 0.00765 0.27703
# Poissons Ratio (y) = 0.00715 0.14820
# Poissons Ratio (z) = 0.64701 0.37048
#
# Static dielectric constant tensor:
#      x y z
#    x 2.022310 0.054960 0.056610 
#    y 0.054960 2.126370 0.013960 
#    z 0.056610 0.013960 2.046220 
# 
# From -- ./inp_files/314652.got.cif
#   From: 2010.05.17/outbox.cif.g08.bks.cpg/sg2_158_cif.got.tgz:314652.got - 2010.06.03 11:33:40.
