data_PCOD9053080
_publ_section_title
;
Structure prediction by ZEFSAII (Michael W. Deem and Ramdas Pophale) SiO2 
 PCOD9053080
Probable space group: P -1
;
_chemical_formula_sum "Si O2"
_cell_formula_units_Z 16
_cell_length_a 19.504516
_cell_length_b 7.396653
_cell_length_c 11.366148
_cell_angle_alpha 95.252210
_cell_angle_beta 33.293657
_cell_angle_gamma 80.220748
_cell_volume 800.139114
_symmetry_space_group_name_H-M "P -1"
_symmetry_group_IT_number 2
_symmetry_cell_setting 'triclinic'
loop_
_space_group_symop_operation_xyz
x,y,z
-x,-y,-z
loop_
_atom_site_type_symbol
_atom_site_label
_atom_site_fract_x
_atom_site_fract_y
_atom_site_fract_z
Si Si1 0.658383 0.825436 0.017365
Si Si2 0.871258 0.111175 0.101640
Si Si3 0.609242 0.233468 0.656588
Si Si4 0.852265 0.537964 0.156538
Si Si5 0.163595 0.198255 0.027072
Si Si6 0.130841 0.469592 0.474522
Si Si7 0.318337 0.060852 0.248940
Si Si8 0.658796 0.589719 0.654157
O O1 0.707657 0.870974 0.072719
O O2 0.779368 0.613232 0.777394
O O3 0.650191 0.985998 0.936925
O O4 0.516630 0.804117 0.215782
O O5 0.733239 0.162668 0.380289
O O6 0.867778 0.321430 0.080720
O O7 0.871167 0.976400 0.984089
O O8 0.000000 0.000000 0.000000
O O9 0.568845 0.469606 0.756112
O O10 0.664921 0.101411 0.687765
O O11 0.730385 0.614836 0.434168
O O12 0.815830 0.692950 0.111610
O O13 0.000000 0.500000 0.000000
O O14 0.026459 0.367313 0.298855
O O15 0.160223 0.253509 0.482162
O O16 0.212128 0.550153 0.452846
O O17 0.398780 0.195998 0.182207
#
# Coordination Sequence:
#
# PCOD9053080 Si02
#       8
#     2   2   2   2   2   2   2   2
#     4   9  23  36  59  82 113 168 179 225 291 337
#     4  11  24  33  61  92 108 145 194 241 283 331
#     4  11  19  39  58  84 119 141 196 235 279 336
#     4  11  18  35  58  87 109 144 187 235 291 326
#     4  12  20  39  57  82 129 140 188 238 280 344
#     4   8  19  36  57  83 108 146 193 230 278 320
#     4   8  19  35  58  87 103 152 194 229 279 321
#     4   8  18  33  55  89 104 139 194 239 273 324
#
# _framework density 19.996524000000001
#
# number of rings (size 3 to 8) (size 9 to 14) (size 15 to 20)
#    1.500    0.500    2.500    2.250    1.750    2.500 
#    0.000    6.250    0.000    3.000    0.000    0.000 
#    0.000    0.000    0.000    0.000    0.000    0.000 
#
# Total GULP energy -89131.447738 kJ/mol
# GULP energy per Si atom -5570.715484 kJ/mol
# Density = 1.995101 g / cm^3
# Si number density = 19.996524 Si / 1000 Ang^3
#
#
#
# Elastic Constant Matrix: (Units=GPa)
#
#
# Indices 1 2 3 4 5 6 
#
# 1 132.5711 41.2294 21.9446 -6.6386 -2.0089 11.7526
# 2 41.2294 96.9498 23.6795 -5.6448 -0.2285 6.4369
# 3 21.9446 23.6795 60.3341 -1.6263 -3.7728 11.3604
# 4 -6.6386 -5.6448 -1.6263 18.2796 4.2273 -1.9096
# 5 -2.0089 -0.2285 -3.7728 4.2273 16.9988 -1.0886
# 6 11.7526 6.4369 11.3604 -1.9096 -1.0886 17.6012
#
#
#
# Elastic Compliance Matrix: (Units=1/GPa)
#
#
# Indices 1 2 3 4 5 6 
#
# 1 0.009201 -0.003233 -0.001285 0.001805 0.000058 -0.003933
# 2 -0.003233 0.012795 -0.003919 0.002862 -0.001778 0.000209
# 3 -0.001285 -0.003919 0.020888 -0.001955 0.004204 -0.011143
# 4 0.001805 0.002862 -0.001955 0.059975 -0.014802 0.004602
# 5 0.000058 -0.001778 0.004204 -0.014802 0.063438 0.000216
# 6 -0.003933 0.000209 -0.011143 0.004602 0.000216 0.067068
#
#
# Mechanical properties :
#
#
# Convention : Reuss Voigt Hill
#
# Bulk Modulus (GPa) = 38.44662 51.50688 44.97675
# Shear Modulus (GPa) = 19.31169 24.10936 21.71052
#
# Velocity S-wave (km/s) = 3.11103 3.47605 3.29859
# Velocity P-wave (km/s) = 5.67213 6.47491 6.08677
#
# Compressibility (1/GPa) = 0.02601009
#
# Stress axis : x y z
#
# Youngs Moduli (GPa) = 108.68268 78.15430 47.87365
#
# Poissons Ratio (x) = 0.25265 0.06152
# Poissons Ratio (y) = 0.35134 0.18764
# Poissons Ratio (z) = 0.13967 0.30632
#
# Static dielectric constant tensor:
#      x y z
#    x 1.721270 0.004880 -0.023980 
#    y 0.004880 1.722110 0.042980 
#    z -0.023980 0.042980 1.786420 
# 
# From -- ./inp_files/460047.got.cif
#   From: 2010.05.17/outbox.cif.g08.bks.cpg/sg2_231_cif.got.tgz:460047.got - 2010.06.03 11:33:40.
