data_PCOD9053075
_publ_section_title
;
Structure prediction by ZEFSAII (Michael W. Deem and Ramdas Pophale) SiO2 
 PCOD9053075
Probable space group: P -1
;
_chemical_formula_sum "Si O2"
_cell_formula_units_Z 12
_cell_length_a 16.008884
_cell_length_b 6.967224
_cell_length_c 15.147678
_cell_angle_alpha 40.978036
_cell_angle_beta 35.119757
_cell_angle_gamma 29.928065
_cell_volume 478.635713
_symmetry_space_group_name_H-M "P -1"
_symmetry_group_IT_number 2
_symmetry_cell_setting 'triclinic'
loop_
_space_group_symop_operation_xyz
x,y,z
-x,-y,-z
loop_
_atom_site_type_symbol
_atom_site_label
_atom_site_fract_x
_atom_site_fract_y
_atom_site_fract_z
Si Si1 0.442818 0.233977 0.743753
Si Si2 0.664722 0.578270 0.916588
Si Si3 0.090496 0.596944 0.610488
Si Si4 0.037023 0.197260 0.646060
Si Si5 0.747116 0.833468 0.931409
Si Si6 0.593529 0.647107 0.455379
O O1 0.451006 0.570993 0.625648
O O2 0.476249 0.092679 0.662873
O O3 0.607058 0.917219 0.781270
O O4 0.258202 0.324575 0.915696
O O5 0.709785 0.639982 0.953478
O O6 0.860345 0.221731 0.823106
O O7 0.452926 0.706128 0.058881
O O8 0.078771 0.340283 0.645081
O O9 0.307286 0.343983 0.547947
O O10 0.941465 0.729119 0.772229
O O11 0.000000 0.000000 0.500000
O O12 0.000000 0.500000 0.500000
O O13 0.217214 0.773135 0.603632
#
# Coordination Sequence:
#
# PCOD9053075 Si02
#       6
#     2   2   2   2   2   2
#     4   9  18  35  55  77 113 149 166 217 284 313
#     4   8  15  31  57  73 102 149 171 209 271 312
#     4  11  21  33  57  85 101 142 187 221 260 318
#     4  11  18  35  57  80 109 135 183 228 257 313
#     4   8  16  33  56  77 108 142 179 217 264 320
#     4  11  21  34  58  83 107 141 183 217 267 323
#
# _framework density 25.071258
#
# number of rings (size 3 to 8) (size 9 to 14) (size 15 to 20)
#    1.000    1.333    3.333    1.000    0.000    0.667 
#    0.000    7.500    0.000    0.000    0.000    0.000 
#    0.000    0.000    0.000    0.000    0.000    0.000 
#
# Total GULP energy -66913.649412 kJ/mol
# GULP energy per Si atom -5576.137451 kJ/mol
# Density = 2.501420 g / cm^3
# Si number density = 25.071258 Si / 1000 Ang^3
#
#
#
# Elastic Constant Matrix: (Units=GPa)
#
#
# Indices 1 2 3 4 5 6 
#
# 1 128.2978 -20.6147 19.1189 -16.6241 8.3782 -9.4679
# 2 -20.6147 38.2299 5.3912 5.9609 -6.0620 -1.5645
# 3 19.1189 5.3912 148.1164 5.9007 7.2929 -21.2534
# 4 -16.6241 5.9609 5.9007 28.3580 -11.3622 3.1103
# 5 8.3782 -6.0620 7.2929 -11.3622 42.4226 5.4965
# 6 -9.4679 -1.5645 -21.2534 3.1103 5.4965 37.3196
#
#
#
# Elastic Compliance Matrix: (Units=1/GPa)
#
#
# Indices 1 2 3 4 5 6 
#
# 1 0.009455 0.004629 -0.001385 0.004756 0.000126 0.001389
# 2 0.004629 0.029720 -0.001542 -0.002221 0.002833 0.001310
# 3 -0.001385 -0.001542 0.007992 -0.003890 -0.002997 0.004901
# 4 0.004756 -0.002221 -0.003890 0.044999 0.012328 -0.006667
# 5 0.000126 0.002833 -0.002997 0.012328 0.028651 -0.006803
# 6 0.001389 0.001310 0.004901 -0.006667 -0.006803 0.031552
#
#
# Mechanical properties :
#
#
# Convention : Reuss Voigt Hill
#
# Bulk Modulus (GPa) = 19.77439 35.82609 27.80024
# Shear Modulus (GPa) = 30.15265 42.33663 36.24464
#
# Velocity S-wave (km/s) = 3.47173 4.11378 3.80631
# Velocity P-wave (km/s) = 4.89642 6.07330 5.51633
#
# Compressibility (1/GPa) = 0.05057045
#
# Stress axis : x y z
#
# Youngs Moduli (GPa) = 105.76239 33.64699 125.12178
#
# Poissons Ratio (x) = -0.15576 0.17334
# Poissons Ratio (y) = -0.48959 0.19298
# Poissons Ratio (z) = 0.14652 0.05190
#
# Static dielectric constant tensor:
#      x y z
#    x 2.201070 0.052740 0.040570 
#    y 0.052740 2.101910 0.101170 
#    z 0.040570 0.101170 2.008580 
# 
# From -- ./inp_files/231004.got.cif
#   From: 2010.05.17/outbox.cif.g08.bks.cpg/sg2_116_cif.got.tgz:231004.got - 2010.06.03 11:33:40.
