data_PCOD9053179
_publ_section_title
;
Structure prediction by ZEFSAII (Michael W. Deem and Ramdas Pophale) SiO2 
 PCOD9053179
Probable space group: P -1
;
_chemical_formula_sum "Si O2"
_cell_formula_units_Z 16
_cell_length_a 14.729069
_cell_length_b 11.757528
_cell_length_c 17.233699
_cell_angle_alpha 137.306203
_cell_angle_beta 155.746200
_cell_angle_gamma 43.228132
_cell_volume 812.750405
_symmetry_space_group_name_H-M "P -1"
_symmetry_group_IT_number 2
_symmetry_cell_setting 'triclinic'
loop_
_space_group_symop_operation_xyz
x,y,z
-x,-y,-z
loop_
_atom_site_type_symbol
_atom_site_label
_atom_site_fract_x
_atom_site_fract_y
_atom_site_fract_z
Si Si1 0.332631 0.069757 0.334834
Si Si2 0.137109 0.069977 0.538699
Si Si3 0.488898 0.270090 0.930912
Si Si4 0.297954 0.484288 0.026792
Si Si5 0.032058 0.405764 0.558870
Si Si6 0.087307 0.726381 0.381795
Si Si7 0.638023 0.552134 0.449347
Si Si8 0.812668 0.193752 0.012945
O O1 0.373409 0.254900 0.435204
O O2 0.500000 0.000000 0.500000
O O3 0.342757 0.930570 0.205342
O O4 0.072148 0.100364 0.174404
O O5 0.035625 0.200739 0.456149
O O6 0.998611 0.165641 0.552659
O O7 0.390582 0.095889 0.767590
O O8 0.119893 0.874012 0.422047
O O9 0.480435 0.356228 0.051301
O O10 0.716298 0.609138 0.216922
O O11 0.714556 0.248161 0.047835
O O12 0.417775 0.536502 0.221863
O O13 0.208712 0.651070 0.987553
O O14 0.102245 0.381141 0.839810
O O15 0.000000 0.500000 0.500000
O O16 0.846882 0.501709 0.524488
O O17 0.304952 0.586228 0.507180
#
# Coordination Sequence:
#
# PCOD9053179 Si02
#       8
#     2   2   2   2   2   2   2   2
#     4  11  23  36  51  76 111 143 188 229 268 322
#     4   7  16  31  55  75 116 147 168 223 272 325
#     4   9  19  35  53  80 115 140 171 223 284 329
#     4  11  19  32  56  84 110 141 179 222 278 330
#     4   9  17  31  54  82 113 142 172 215 281 333
#     4   9  16  35  51  78 114 144 184 216 265 332
#     4  11  20  33  54  81 108 151 181 222 271 321
#     4  11  21  36  54  77 110 142 180 227 282 324
#
# _framework density 19.686240999999999
#
# number of rings (size 3 to 8) (size 9 to 14) (size 15 to 20)
#    0.750    1.500    3.750    1.125    0.000    1.000 
#    0.000   10.000    0.000    0.750    0.000    1.750 
#    0.000    0.000    0.000    0.000    0.000    0.000 
#
# Total GULP energy -89174.487517 kJ/mol
# GULP energy per Si atom -5573.405470 kJ/mol
# Density = 1.964143 g / cm^3
# Si number density = 19.686241 Si / 1000 Ang^3
#
#
#
# Elastic Constant Matrix: (Units=GPa)
#
#
# Indices 1 2 3 4 5 6 
#
# 1 16.4601 19.8754 8.6180 8.5014 -2.0229 10.5001
# 2 19.8754 117.3592 40.4330 29.5883 -0.5490 27.8645
# 3 8.6180 40.4330 80.3377 11.3116 -19.0456 3.0117
# 4 8.5014 29.5883 11.3116 39.0251 -3.4350 2.7984
# 5 -2.0229 -0.5490 -19.0456 -3.4350 14.4793 -0.8890
# 6 10.5001 27.8645 3.0117 2.7984 -0.8890 23.8900
#
#
#
# Elastic Compliance Matrix: (Units=1/GPa)
#
#
# Indices 1 2 3 4 5 6 
#
# 1 0.098886 -0.000988 -0.006643 -0.016133 -0.001220 -0.039628
# 2 -0.000988 0.021612 -0.013121 -0.012603 -0.020944 -0.022422
# 3 -0.006643 -0.013121 0.027016 0.005657 0.036405 0.015510
# 4 -0.016133 -0.012603 0.005657 0.037099 0.014571 0.017274
# 5 -0.001220 -0.020944 0.036405 0.014571 0.120865 0.023166
# 6 -0.039628 -0.022422 0.015510 0.017274 0.023166 0.082312
#
#
# Mechanical properties :
#
#
# Convention : Reuss Voigt Hill
#
# Bulk Modulus (GPa) = 9.43301 39.11219 24.27260
# Shear Modulus (GPa) = 10.76128 25.16092 17.96110
#
# Velocity S-wave (km/s) = 2.34057 3.57893 3.02382
# Velocity P-wave (km/s) = 3.47943 6.08187 4.95457
#
# Compressibility (1/GPa) = 0.10601071
#
# Stress axis : x y z
#
# Youngs Moduli (GPa) = 10.11270 46.27111 37.01450
#
# Poissons Ratio (x) = 0.04569 0.24588
# Poissons Ratio (y) = 0.00999 0.48567
# Poissons Ratio (z) = 0.06718 0.60713
#
# Static dielectric constant tensor:
#      x y z
#    x 1.702230 0.000890 0.016870 
#    y 0.000890 1.740090 0.039370 
#    z 0.016870 0.039370 1.735060 
# 
# From -- ./inp_files/599988.got.cif
#   From: 2010.05.17/outbox.cif.g08.bks.cpg/sg2_300_cif.got.tgz:599988.got - 2010.06.03 11:33:40.
