data_PCOD9053501
_publ_section_title
;
Structure prediction by ZEFSAII (Michael W. Deem and Ramdas Pophale) SiO2 
 PCOD9053501
Probable space group: P -1
;
_chemical_formula_sum "Si O2"
_cell_formula_units_Z 16
_cell_length_a 6.308429
_cell_length_b 21.063486
_cell_length_c 8.971301
_cell_angle_alpha 59.434353
_cell_angle_beta 79.441506
_cell_angle_gamma 117.503866
_cell_volume 761.903208
_symmetry_space_group_name_H-M "P -1"
_symmetry_group_IT_number 2
_symmetry_cell_setting 'triclinic'
loop_
_space_group_symop_operation_xyz
x,y,z
-x,-y,-z
loop_
_atom_site_type_symbol
_atom_site_label
_atom_site_fract_x
_atom_site_fract_y
_atom_site_fract_z
Si Si1 0.774438 0.573501 0.281107
Si Si2 0.162013 0.859077 0.799273
Si Si3 0.023645 0.501813 0.171934
Si Si4 0.772327 0.325917 0.633991
Si Si5 0.587517 0.680799 0.061607
Si Si6 0.720721 0.147040 0.882436
Si Si7 0.255831 0.050265 0.527103
Si Si8 0.926345 0.045177 0.831384
O O1 0.500000 0.500000 0.500000
O O2 0.748210 0.640134 0.110225
O O3 0.797470 0.509948 0.247689
O O4 0.017656 0.629909 0.305073
O O5 0.420856 0.873609 0.667855
O O6 0.244737 0.962991 0.689215
O O7 0.139477 0.819419 0.013150
O O8 0.850025 0.790619 0.843403
O O9 0.322795 0.601420 0.082087
O O10 0.926344 0.405412 0.386082
O O11 0.000000 0.500000 0.000000
O O12 0.517424 0.312289 0.770326
O O13 0.708979 0.226652 0.720328
O O14 0.888294 0.120640 0.802531
O O15 0.393678 0.047921 0.069012
O O16 0.163862 0.085710 0.626114
O O17 0.000000 0.000000 0.500000
O O18 0.000000 0.000000 0.000000
#
# Coordination Sequence:
#
# PCOD9053501 Si02
#       8
#     2   2   2   2   2   2   2   2
#     4  11  19  41  73  95 119 173 229 264 320 401
#     4  11  23  39  71  99 127 179 230 278 332 388
#     4  11  25  43  68 101 144 175 210 283 354 394
#     4  11  22  40  71 103 125 177 234 273 326 404
#     4  11  22  41  73  99 129 177 235 275 321 408
#     4  11  23  38  71  99 128 174 232 276 327 396
#     4  11  23  42  68  95 136 180 220 276 335 400
#     4  11  23  43  65  96 136 180 216 274 340 393
#
# _framework density 21.000042000000001
#
# number of rings (size 3 to 8) (size 9 to 14) (size 15 to 20)
#    0.000    1.000    6.250    1.500    0.000    0.500 
#    0.000    3.750    2.750    0.000    0.000    0.000 
#    0.000    0.000    0.000    0.000    0.000    0.000 
#
# Total GULP energy -89185.383065 kJ/mol
# GULP energy per Si atom -5574.086442 kJ/mol
# Density = 2.095225 g / cm^3
# Si number density = 21.000042 Si / 1000 Ang^3
#
#
#
# Elastic Constant Matrix: (Units=GPa)
#
#
# Indices 1 2 3 4 5 6 
#
# 1 96.8306 42.2284 46.2123 8.5938 -15.2557 -12.4353
# 2 42.2284 104.2723 69.0573 3.2784 -11.0658 -19.5661
# 3 46.2123 69.0573 96.5103 11.6571 -13.3619 -9.7702
# 4 8.5938 3.2784 11.6571 31.7537 -1.5402 0.3209
# 5 -15.2557 -11.0658 -13.3619 -1.5402 45.5998 -3.5031
# 6 -12.4353 -19.5661 -9.7702 0.3209 -3.5031 43.9036
#
#
#
# Elastic Compliance Matrix: (Units=1/GPa)
#
#
# Indices 1 2 3 4 5 6 
#
# 1 0.014319 -0.001919 -0.004580 -0.001870 0.003107 0.002443
# 2 -0.001919 0.020148 -0.013205 0.003275 0.000915 0.005546
# 3 -0.004580 -0.013205 0.022704 -0.005636 0.001575 -0.001963
# 4 -0.001870 0.003275 -0.005636 0.033716 -0.000390 -0.000602
# 5 0.003107 0.000915 0.001575 -0.000390 0.023912 0.003549
# 6 0.002443 0.005546 -0.001963 -0.000602 0.003549 0.025791
#
#
# Mechanical properties :
#
#
# Convention : Reuss Voigt Hill
#
# Bulk Modulus (GPa) = 56.29958 68.06768 62.18363
# Shear Modulus (GPa) = 26.89330 33.59242 30.24286
#
# Velocity S-wave (km/s) = 3.58247 4.00388 3.79903
# Velocity P-wave (km/s) = 6.63171 7.33882 6.99421
#
# Compressibility (1/GPa) = 0.01776212
#
# Stress axis : x y z
#
# Youngs Moduli (GPa) = 69.83616 49.63363 44.04568
#
# Poissons Ratio (x) = 0.09523 0.20174
# Poissons Ratio (y) = 0.13399 0.58164
# Poissons Ratio (z) = 0.31987 0.65543
#
# Static dielectric constant tensor:
#      x y z
#    x 1.725660 0.080250 -0.111950 
#    y 0.080250 1.910400 -0.227280 
#    z -0.111950 -0.227280 2.074810 
# 
# From -- ./inp_files/140552.got.cif
#   From: 2010.05.17/outbox.cif.g08.bks.cpg/sg2_71_cif.got.tgz:140552.got - 2010.06.03 11:33:40.
