data_PCOD9053198
_publ_section_title
;
Structure prediction by ZEFSAII (Michael W. Deem and Ramdas Pophale) SiO2 
 PCOD9053198
Probable space group: P -1
;
_chemical_formula_sum "Si O2"
_cell_formula_units_Z 14
_cell_length_a 7.905856
_cell_length_b 7.475809
_cell_length_c 14.013592
_cell_angle_alpha 47.704248
_cell_angle_beta 117.457077
_cell_angle_gamma 127.155276
_cell_volume 486.169008
_symmetry_space_group_name_H-M "P -1"
_symmetry_group_IT_number 2
_symmetry_cell_setting 'triclinic'
loop_
_space_group_symop_operation_xyz
x,y,z
-x,-y,-z
loop_
_atom_site_type_symbol
_atom_site_label
_atom_site_fract_x
_atom_site_fract_y
_atom_site_fract_z
Si Si1 0.884552 0.938468 0.390528
Si Si2 0.755939 0.644662 0.144466
Si Si3 0.748806 0.512353 0.735096
Si Si4 0.591474 0.137437 0.664848
Si Si5 0.854686 0.201432 0.029399
Si Si6 0.408224 0.738833 0.915357
Si Si7 0.683551 0.419137 0.404052
O O1 0.645675 0.888031 0.372928
O O2 0.851983 0.684733 0.408169
O O3 0.000000 0.000000 0.500000
O O4 0.048871 0.212537 0.283313
O O5 0.779531 0.514120 0.098490
O O6 0.750351 0.451098 0.299409
O O7 0.532712 0.653445 0.057080
O O8 0.905728 0.954613 0.101683
O O9 0.750390 0.405012 0.666829
O O10 0.746464 0.273770 0.885685
O O11 0.539531 0.560222 0.667032
O O12 0.647368 0.173480 0.554912
O O13 0.567592 0.891514 0.814457
O O14 0.687481 0.089425 0.114655
O O15 0.000000 0.500000 0.000000
#
# Coordination Sequence:
#
# PCOD9053198 Si02
#       7
#     2   2   2   2   2   2   2
#     4  11  19  33  58  97 128 165 213 266 326 379
#     4  11  24  43  66  94 130 168 218 271 317 387
#     4  11  19  35  58  94 130 157 220 263 315 391
#     4  11  21  36  62  89 126 171 210 267 321 383
#     4  12  23  40  68  97 128 173 214 268 329 390
#     4  11  24  43  66  94 130 168 218 271 317 387
#     4  11  21  36  62  89 126 171 210 267 321 383
#
# _framework density 28.796572000000001
#
# number of rings (size 3 to 8) (size 9 to 14) (size 15 to 20)
#    0.000    0.857    5.714    4.714    0.000    1.143 
#    0.000    0.000    0.000    0.857    0.000    0.000 
#    0.000    0.000    0.000    0.000    0.000    0.000 
#
# Total GULP energy -78351.499357 kJ/mol
# GULP energy per Si atom -5596.535668 kJ/mol
# Density = 2.873103 g / cm^3
# Si number density = 28.796572 Si / 1000 Ang^3
#
#
#
# Elastic Constant Matrix: (Units=GPa)
#
#
# Indices 1 2 3 4 5 6 
#
# 1 71.4734 29.5571 13.5530 7.5177 -1.3053 0.6577
# 2 29.5571 190.0756 40.3864 8.5725 -19.9575 3.8210
# 3 13.5530 40.3864 181.6809 13.9039 -29.4016 -0.0331
# 4 7.5177 8.5725 13.9039 62.8686 -1.8336 -4.4774
# 5 -1.3053 -19.9575 -29.4016 -1.8336 28.0075 4.1056
# 6 0.6577 3.8210 -0.0331 -4.4774 4.1056 50.0450
#
#
#
# Elastic Compliance Matrix: (Units=1/GPa)
#
#
# Indices 1 2 3 4 5 6 
#
# 1 0.015220 -0.002331 -0.000820 -0.001376 -0.001904 0.000010
# 2 -0.002331 0.006173 -0.000554 -0.000386 0.003799 -0.000787
# 3 -0.000820 -0.000554 0.006880 -0.001193 0.006800 -0.000607
# 4 -0.001376 -0.000386 -0.001193 0.016478 -0.000744 0.001582
# 5 -0.001904 0.003799 0.006800 -0.000744 0.046014 -0.004102
# 6 0.000010 -0.000787 -0.000607 0.001582 -0.004102 0.020520
#
#
# Mechanical properties :
#
#
# Convention : Reuss Voigt Hill
#
# Bulk Modulus (GPa) = 47.93010 67.80255 57.86632
# Shear Modulus (GPa) = 39.79289 52.16645 45.97967
#
# Velocity S-wave (km/s) = 3.72137 4.26085 4.00022
# Velocity P-wave (km/s) = 5.92835 6.91397 6.44004
#
# Compressibility (1/GPa) = 0.02086372
#
# Stress axis : x y z
#
# Youngs Moduli (GPa) = 65.70147 161.98730 145.34358
#
# Poissons Ratio (x) = 0.37753 0.11921
# Poissons Ratio (y) = 0.15312 0.08057
# Poissons Ratio (z) = 0.05389 0.08979
#
# Static dielectric constant tensor:
#      x y z
#    x 2.192650 0.074420 -0.021630 
#    y 0.074420 2.349750 -0.040710 
#    z -0.021630 -0.040710 2.296990 
# 
# From -- ./inp_files/512813.got.cif
#   From: 2010.05.17/outbox.cif.g08.bks.cpg/sg2_257_cif.got.tgz:512813.got - 2010.06.03 11:33:40.
