data_PCOD9053481
_publ_section_title
;
Structure prediction by ZEFSAII (Michael W. Deem and Ramdas Pophale) SiO2 
 PCOD9053481
Probable space group: P -1
;
_chemical_formula_sum "Si O2"
_cell_formula_units_Z 15
_cell_length_a 6.485406
_cell_length_b 8.163034
_cell_length_c 12.562497
_cell_angle_alpha 93.923862
_cell_angle_beta 100.209740
_cell_angle_gamma 76.850229
_cell_volume 637.098092
_symmetry_space_group_name_H-M "P -1"
_symmetry_group_IT_number 2
_symmetry_cell_setting 'triclinic'
loop_
_space_group_symop_operation_xyz
x,y,z
-x,-y,-z
loop_
_atom_site_type_symbol
_atom_site_label
_atom_site_fract_x
_atom_site_fract_y
_atom_site_fract_z
Si Si1 0.781013 0.496185 0.730956
Si Si2 0.166175 0.335273 0.892608
Si Si3 0.153224 0.328712 0.464942
Si Si4 0.485722 0.305506 0.104450
Si Si5 0.486899 0.943001 0.184357
Si Si6 0.148226 0.815429 0.009918
Si Si7 0.604433 0.186835 0.609404
Si Si8 0.000000 0.000000 0.500000
O O1 0.779113 0.633031 0.645955
O O2 0.598701 0.564693 0.804895
O O3 0.729780 0.324866 0.672654
O O4 0.019021 0.458110 0.802541
O O5 0.276959 0.164850 0.830698
O O6 0.351143 0.371583 0.988355
O O7 0.994823 0.300761 0.960514
O O8 0.372847 0.281351 0.550169
O O9 0.000000 0.500000 0.500000
O O10 0.025460 0.181988 0.460914
O O11 0.733284 0.255956 0.090275
O O12 0.443648 0.125721 0.133692
O O13 0.442024 0.934114 0.304467
O O14 0.329027 0.840401 0.110179
O O15 0.000000 0.000000 0.000000
O O16 0.758971 0.085418 0.530495
#
# Coordination Sequence:
#
# PCOD9053481 Si02
#       8
#     2   2   2   2   2   2   2   1
#     4  12  26  48  70 110 151 197 243 313 386 437
#     4  11  22  44  70 100 150 192 246 305 361 447
#     4  12  27  55  79 110 153 195 256 323 381 454
#     4  11  24  41  68 107 148 190 250 308 360 450
#     4  11  22  41  71 102 137 195 252 300 369 446
#     4  11  19  41  67  98 141 192 245 304 361 430
#     4  12  27  50  76 111 152 198 255 316 384 461
#     4  12  28  52  84 106 148 200 252 322 388 442
#
# _framework density 23.544253999999999
#
# number of rings (size 3 to 8) (size 9 to 14) (size 15 to 20)
#    0.000    0.533    5.333    3.600    0.000    0.533 
#    7.200    0.000    0.000    0.000    0.000    0.000 
#    0.000    0.000    0.000    0.000    0.000    0.000 
#
# Total GULP energy -83705.041443 kJ/mol
# GULP energy per Si atom -5580.336096 kJ/mol
# Density = 2.349067 g / cm^3
# Si number density = 23.544254 Si / 1000 Ang^3
#
#
#
# Elastic Constant Matrix: (Units=GPa)
#
#
# Indices 1 2 3 4 5 6 
#
# 1 114.4453 28.9466 35.6132 -7.9700 -14.6895 -23.1828
# 2 28.9466 105.0608 18.9426 -17.1990 0.7719 -5.7559
# 3 35.6132 18.9426 80.5297 -25.9896 1.0778 -7.5871
# 4 -7.9700 -17.1990 -25.9896 29.3398 -3.6563 -10.5135
# 5 -14.6895 0.7719 1.0778 -3.6563 28.4018 2.1800
# 6 -23.1828 -5.7559 -7.5871 -10.5135 2.1800 56.0288
#
#
#
# Elastic Compliance Matrix: (Units=1/GPa)
#
#
# Indices 1 2 3 4 5 6 
#
# 1 0.012419 -0.002394 -0.004581 0.000159 0.006371 0.004054
# 2 -0.002394 0.011306 0.000930 0.007315 -0.000770 0.001699
# 3 -0.004581 0.000930 0.020952 0.019422 -0.001052 0.004723
# 4 0.000159 0.007315 0.019422 0.061658 0.005949 0.014785
# 5 0.006371 -0.000770 -0.001052 0.005949 0.039177 0.002007
# 6 0.004054 0.001699 0.004723 0.014785 0.002007 0.023036
#
#
# Mechanical properties :
#
#
# Convention : Reuss Voigt Hill
#
# Bulk Modulus (GPa) = 30.68681 51.89340 41.29011
# Shear Modulus (GPa) = 26.10957 37.18964 31.64960
#
# Velocity S-wave (km/s) = 3.33371 3.97868 3.67039
# Velocity P-wave (km/s) = 5.28017 6.57231 5.96135
#
# Compressibility (1/GPa) = 0.03258729
#
# Stress axis : x y z
#
# Youngs Moduli (GPa) = 80.52169 88.44494 47.72839
#
# Poissons Ratio (x) = 0.21178 0.21864
# Poissons Ratio (y) = 0.19281 -0.04441
# Poissons Ratio (z) = 0.36887 -0.08229
#
# Static dielectric constant tensor:
#      x y z
#    x 1.915070 -0.020310 0.023030 
#    y -0.020310 1.923310 0.006070 
#    z 0.023030 0.006070 1.922550 
# 
# From -- ./inp_files/360772.got.cif
#   From: 2010.05.17/outbox.cif.g08.bks.cpg/sg2_181_cif.got.tgz:360772.got - 2010.06.03 11:33:40.
