data_PCOD9053421
_publ_section_title
;
Structure prediction by ZEFSAII (Michael W. Deem and Ramdas Pophale) SiO2 
 PCOD9053421
Probable space group: P -1
;
_chemical_formula_sum "Si O2"
_cell_formula_units_Z 16
_cell_length_a 9.304072
_cell_length_b 5.595376
_cell_length_c 20.471731
_cell_angle_alpha 125.167579
_cell_angle_beta 131.527763
_cell_angle_gamma 64.138316
_cell_volume 649.651085
_symmetry_space_group_name_H-M "P -1"
_symmetry_group_IT_number 2
_symmetry_cell_setting 'triclinic'
loop_
_space_group_symop_operation_xyz
x,y,z
-x,-y,-z
loop_
_atom_site_type_symbol
_atom_site_label
_atom_site_fract_x
_atom_site_fract_y
_atom_site_fract_z
Si Si1 0.784371 0.761425 0.741470
Si Si2 0.624022 0.392180 0.823964
Si Si3 0.581683 0.657788 0.985894
Si Si4 0.150723 0.029142 0.490964
Si Si5 0.721445 0.378172 0.331473
Si Si6 0.102219 0.155055 0.356902
Si Si7 0.606699 0.380807 0.429389
Si Si8 0.006820 0.341582 0.079913
O O1 0.852221 0.885387 0.711829
O O2 0.617255 0.544720 0.641948
O O3 0.939313 0.646864 0.824487
O O4 0.679574 0.049274 0.788456
O O5 0.527226 0.491984 0.878169
O O6 0.476284 0.500130 0.740332
O O7 0.819120 0.542015 0.890502
O O8 0.500000 0.500000 0.000000
O O9 0.813084 0.560132 0.045016
O O10 0.500000 0.000000 0.000000
O O11 0.182272 0.363652 0.562367
O O12 0.096312 0.951505 0.388554
O O13 0.357511 0.861184 0.542175
O O14 0.000000 0.000000 0.500000
O O15 0.682956 0.205409 0.358667
O O16 0.876620 0.269700 0.308124
O O17 0.261058 0.374769 0.463730
O O18 0.000000 0.000000 0.000000
#
# Coordination Sequence:
#
# PCOD9053421 Si02
#       8
#     2   2   2   2   2   2   2   2
#     4  12  27  45  72 114 153 201 261 325 395 483
#     4  12  27  48  79 109 155 202 259 324 411 493
#     4  12  30  53  86 122 155 203 269 340 410 492
#     4  11  19  39  67  92 142 204 250 313 380 441
#     4  11  22  41  67 106 136 199 258 311 377 466
#     4  11  25  39  69 107 153 196 265 320 380 460
#     4  11  21  43  68 100 150 206 255 312 390 458
#     4  12  27  54  84 110 160 210 255 328 427 493
#
# _framework density 24.628606000000001
#
# number of rings (size 3 to 8) (size 9 to 14) (size 15 to 20)
#    0.000    0.500    6.250    2.250    3.500    1.500 
#    0.000    0.000    0.000    0.000    0.000    0.000 
#    0.000    0.000    0.000    0.000    0.000    0.000 
#
# Total GULP energy -89164.692577 kJ/mol
# GULP energy per Si atom -5572.793286 kJ/mol
# Density = 2.457255 g / cm^3
# Si number density = 24.628606 Si / 1000 Ang^3
#
#
#
# Elastic Constant Matrix: (Units=GPa)
#
#
# Indices 1 2 3 4 5 6 
#
# 1 114.7933 37.0031 37.1269 0.8022 -26.0556 1.5956
# 2 37.0031 97.3251 42.5453 -31.0561 5.4904 -10.2674
# 3 37.1269 42.5453 91.5248 -33.4958 -3.9008 1.4596
# 4 0.8022 -31.0561 -33.4958 51.6872 6.0813 1.1634
# 5 -26.0556 5.4904 -3.9008 6.0813 57.3883 -11.6447
# 6 1.5956 -10.2674 1.4596 1.1634 -11.6447 41.6250
#
#
#
# Elastic Compliance Matrix: (Units=1/GPa)
#
#
# Indices 1 2 3 4 5 6 
#
# 1 0.014325 -0.005993 -0.005823 -0.008515 0.007699 0.000569
# 2 -0.005993 0.017170 -0.002372 0.009387 -0.004930 0.002907
# 3 -0.005823 -0.002372 0.018292 0.010889 -0.002749 -0.002076
# 4 -0.008515 0.009387 0.010889 0.033101 -0.007698 -0.000818
# 5 0.007699 -0.004930 -0.002749 -0.007698 0.023089 0.005259
# 6 0.000569 0.002907 -0.002076 -0.000818 0.005259 0.026286
#
#
# Mechanical properties :
#
#
# Convention : Reuss Voigt Hill
#
# Bulk Modulus (GPa) = 46.69948 59.66599 53.18274
# Shear Modulus (GPa) = 29.80201 42.60463 36.20332
#
# Velocity S-wave (km/s) = 3.48236 4.16370 3.83818
# Velocity P-wave (km/s) = 5.93058 6.88434 6.42518
#
# Compressibility (1/GPa) = 0.02141351
#
# Stress axis : x y z
#
# Youngs Moduli (GPa) = 69.80633 58.24046 54.67006
#
# Poissons Ratio (x) = 0.34901 0.31832
# Poissons Ratio (y) = 0.41832 0.12965
# Poissons Ratio (z) = 0.40645 0.13812
#
# Static dielectric constant tensor:
#      x y z
#    x 2.013230 0.049880 0.070380 
#    y 0.049880 2.114920 0.014620 
#    z 0.070380 0.014620 1.955250 
# 
# From -- ./inp_files/585888.got.cif
#   From: 2010.05.17/outbox.cif.g08.bks.cpg/sg2_293_cif.got.tgz:585888.got - 2010.06.03 11:33:40.
