data_PCOD9053911
_publ_section_title
;
Structure prediction by ZEFSAII (Michael W. Deem and Ramdas Pophale) SiO2 
 PCOD9053911
Probable space group: P -1
;
_chemical_formula_sum "Si O2"
_cell_formula_units_Z 14
_cell_length_a 27.106748
_cell_length_b 8.227372
_cell_length_c 9.411105
_cell_angle_alpha 114.667486
_cell_angle_beta 150.248958
_cell_angle_gamma 43.997960
_cell_volume 578.185063
_symmetry_space_group_name_H-M "P -1"
_symmetry_group_IT_number 2
_symmetry_cell_setting 'triclinic'
loop_
_space_group_symop_operation_xyz
x,y,z
-x,-y,-z
loop_
_atom_site_type_symbol
_atom_site_label
_atom_site_fract_x
_atom_site_fract_y
_atom_site_fract_z
Si Si1 0.477343 0.182242 0.132581
Si Si2 0.129073 0.204800 0.310198
Si Si3 0.899983 0.964239 0.257690
Si Si4 0.364279 0.670648 0.500564
Si Si5 0.005366 0.310220 0.346557
Si Si6 0.642502 0.729008 0.637419
Si Si7 0.238942 0.365488 0.787818
O O1 0.583313 0.953947 0.449763
O O2 0.523419 0.312879 0.235724
O O3 0.500000 0.000000 0.000000
O O4 0.299638 0.427029 0.851260
O O5 0.265130 0.147409 0.687381
O O6 0.045454 0.256480 0.263026
O O7 0.225720 0.920319 0.359570
O O8 0.000000 0.500000 0.000000
O O9 0.865008 0.976153 0.337809
O O10 0.045757 0.634315 0.435408
O O11 0.000000 0.000000 0.500000
O O12 0.735615 0.197727 0.847394
O O13 0.421097 0.386230 0.569060
O O14 0.000000 0.500000 0.500000
O O15 0.836477 0.447222 0.989737
O O16 0.656833 0.772937 0.856115
#
# Coordination Sequence:
#
# PCOD9053911 Si02
#       7
#     2   2   2   2   2   2   2
#     4  12  27  47  70  97 142 190 225 285 347 407
#     4  12  22  38  69 105 139 179 226 287 352 406
#     4  11  21  44  69 103 137 167 228 295 336 406
#     4  12  25  45  72 102 141 177 230 291 343 407
#     4  11  20  38  69  99 131 176 222 278 349 403
#     4  11  25  46  70  99 136 180 236 282 338 418
#     4  11  23  44  69  99 137 183 231 275 344 416
#
# _framework density 24.213698000000001
#
# number of rings (size 3 to 8) (size 9 to 14) (size 15 to 20)
#    0.000    0.571    8.571    2.143    0.000    1.714 
#    2.571    0.000    0.000    0.000    0.000    0.000 
#    0.000    0.000    0.000    0.000    0.000    0.000 
#
# Total GULP energy -78018.185016 kJ/mol
# GULP energy per Si atom -5572.727501 kJ/mol
# Density = 2.415859 g / cm^3
# Si number density = 24.213698 Si / 1000 Ang^3
#
#
#
# Elastic Constant Matrix: (Units=GPa)
#
#
# Indices 1 2 3 4 5 6 
#
# 1 171.7578 32.9805 19.7009 16.2518 -13.2061 -1.7537
# 2 32.9805 111.4108 15.7347 14.7071 -11.9057 14.3562
# 3 19.7009 15.7347 65.0916 9.5668 -11.6723 8.6763
# 4 16.2518 14.7071 9.5668 35.8801 6.0631 5.6565
# 5 -13.2061 -11.9057 -11.6723 6.0631 42.5183 15.3659
# 6 -1.7537 14.3562 8.6763 5.6565 15.3659 28.4594
#
#
#
# Elastic Compliance Matrix: (Units=1/GPa)
#
#
# Indices 1 2 3 4 5 6 
#
# 1 0.006589 -0.001520 -0.001265 -0.002438 0.001097 0.001450
# 2 -0.001520 0.011782 0.000663 -0.004039 0.006895 -0.009159
# 3 -0.001265 0.000663 0.019437 -0.004843 0.009644 -0.010582
# 4 -0.002438 -0.004039 -0.004843 0.033136 -0.008422 0.001325
# 5 0.001097 0.006895 0.009644 -0.008422 0.038925 -0.025693
# 6 0.001450 -0.009159 -0.010582 0.001325 -0.025693 0.056683
#
#
# Mechanical properties :
#
#
# Convention : Reuss Voigt Hill
#
# Bulk Modulus (GPa) = 29.79324 53.89915 41.84620
# Shear Modulus (GPa) = 27.47494 40.02785 33.75139
#
# Velocity S-wave (km/s) = 3.37216 4.07025 3.73754
# Velocity P-wave (km/s) = 5.24338 6.66314 5.99543
#
# Compressibility (1/GPa) = 0.03356466
#
# Stress axis : x y z
#
# Youngs Moduli (GPa) = 151.76948 84.87275 51.44756
#
# Poissons Ratio (x) = 0.12897 0.06509
# Poissons Ratio (y) = 0.23063 -0.03410
# Poissons Ratio (z) = 0.19201 -0.05625
#
# Static dielectric constant tensor:
#      x y z
#    x 2.067100 0.039010 0.015520 
#    y 0.039010 2.256920 -0.041540 
#    z 0.015520 -0.041540 1.988050 
# 
# From -- ./inp_files/356492.got.cif
#   From: 2010.05.17/outbox.cif.g08.bks.cpg/sg2_179_cif.got.tgz:356492.got - 2010.06.03 11:33:40.
