data_PCOD9053620
_publ_section_title
;
Structure prediction by ZEFSAII (Michael W. Deem and Ramdas Pophale) SiO2 
 PCOD9053620
Probable space group: P -1
;
_chemical_formula_sum "Si O2"
_cell_formula_units_Z 16
_cell_length_a 9.121666
_cell_length_b 12.094931
_cell_length_c 18.653747
_cell_angle_alpha 39.746541
_cell_angle_beta 75.380980
_cell_angle_gamma 45.877049
_cell_volume 743.825668
_symmetry_space_group_name_H-M "P -1"
_symmetry_group_IT_number 2
_symmetry_cell_setting 'triclinic'
loop_
_space_group_symop_operation_xyz
x,y,z
-x,-y,-z
loop_
_atom_site_type_symbol
_atom_site_label
_atom_site_fract_x
_atom_site_fract_y
_atom_site_fract_z
Si Si1 0.736503 0.201692 0.889615
Si Si2 0.232837 0.522500 0.356793
Si Si3 0.222765 0.200187 0.966028
Si Si4 0.784245 0.447878 0.145904
Si Si5 0.995899 0.551221 0.677030
Si Si6 0.669111 0.488517 0.397825
Si Si7 0.221208 0.960045 0.453458
Si Si8 0.904516 0.103355 0.698920
O O1 0.675870 0.433618 0.739764
O O2 0.500626 0.352497 0.893366
O O3 0.782091 0.001914 0.927154
O O4 0.000000 0.000000 0.000000
O O5 0.494628 0.243369 0.508474
O O6 0.044382 0.811067 0.285543
O O7 0.113623 0.467651 0.361638
O O8 0.190585 0.366247 0.952046
O O9 0.028365 0.422073 0.812727
O O10 0.500000 0.000000 0.000000
O O11 0.990694 0.213451 0.300558
O O12 0.883823 0.238922 0.172396
O O13 0.267658 0.381010 0.703131
O O14 0.824048 0.879690 0.551571
O O15 0.749977 0.273841 0.433838
O O16 0.848817 0.270536 0.551705
O O17 0.373435 0.729835 0.335284
#
# Coordination Sequence:
#
# PCOD9053620 Si02
#       8
#     2   2   2   2   2   2   2   2
#     4  11  22  40  60  85 117 151 193 241 292 327
#     4  11  23  35  59  88 126 150 181 238 293 355
#     4   9  20  36  60  83 108 147 203 241 272 323
#     4   9  20  39  64  82 113 150 198 242 274 349
#     4  11  20  34  57  91 116 148 192 243 289 336
#     4   9  19  34  59  79 123 151 188 234 283 353
#     4   9  20  34  57  92 111 143 192 239 290 331
#     4   9  20  38  54  86 115 157 186 223 301 346
#
# _framework density 21.510417
#
# number of rings (size 3 to 8) (size 9 to 14) (size 15 to 20)
#    0.000    2.250    1.250    1.500   14.000    0.500 
#    0.000    2.500    0.000    0.000    0.000    0.000 
#    0.000    0.000    0.000    0.000    0.000    0.000 
#
# Total GULP energy -89208.876427 kJ/mol
# GULP energy per Si atom -5575.554777 kJ/mol
# Density = 2.146146 g / cm^3
# Si number density = 21.510417 Si / 1000 Ang^3
#
#
#
# Elastic Constant Matrix: (Units=GPa)
#
#
# Indices 1 2 3 4 5 6 
#
# 1 152.0590 43.3632 28.1709 -20.0465 -8.1425 31.3517
# 2 43.3632 78.2508 7.3351 -30.5545 -11.2726 24.0968
# 3 28.1709 7.3351 48.0962 -13.9022 3.4524 -3.0699
# 4 -20.0465 -30.5545 -13.9022 33.2197 2.7253 -10.4037
# 5 -8.1425 -11.2726 3.4524 2.7253 31.0903 -0.6710
# 6 31.3517 24.0968 -3.0699 -10.4037 -0.6710 30.9636
#
#
#
# Elastic Compliance Matrix: (Units=1/GPa)
#
#
# Indices 1 2 3 4 5 6 
#
# 1 0.010614 -0.002660 -0.007388 -0.002547 0.002639 -0.010208
# 2 -0.002660 0.025677 0.001995 0.019004 0.006498 -0.010565
# 3 -0.007388 0.001995 0.030402 0.014887 -0.005594 0.013824
# 4 -0.002547 0.019004 0.014887 0.054671 -0.000057 0.007633
# 5 0.002639 0.006498 -0.005594 -0.000057 0.035675 -0.007529
# 6 -0.010208 -0.010565 0.013824 0.007633 -0.007529 0.054626
#
#
# Mechanical properties :
#
#
# Convention : Reuss Voigt Hill
#
# Bulk Modulus (GPa) = 19.76870 48.46048 34.11459
# Shear Modulus (GPa) = 20.43873 32.35717 26.39795
#
# Velocity S-wave (km/s) = 3.08584 3.88268 3.50697
# Velocity P-wave (km/s) = 4.68047 6.53284 5.68264
#
# Compressibility (1/GPa) = 0.05058502
#
# Stress axis : x y z
#
# Youngs Moduli (GPa) = 94.21529 38.94590 32.89251
#
# Poissons Ratio (x) = 0.10360 0.24302
# Poissons Ratio (y) = 0.25063 -0.06561
# Poissons Ratio (z) = 0.69609 -0.07769
#
# Static dielectric constant tensor:
#      x y z
#    x 1.786480 0.003520 0.013800 
#    y 0.003520 1.849320 -0.022010 
#    z 0.013800 -0.022010 1.903030 
# 
# From -- ./inp_files/205559.got.cif
#   From: 2010.05.17/outbox.cif.g08.bks.cpg/sg2_103_cif.got.tgz:205559.got - 2010.06.03 11:33:40.
