data_PCOD9053550
_publ_section_title
;
Structure prediction by ZEFSAII (Michael W. Deem and Ramdas Pophale) SiO2 
 PCOD9053550
Probable space group: P -1
;
_chemical_formula_sum "Si O2"
_cell_formula_units_Z 16
_cell_length_a 8.627964
_cell_length_b 6.980702
_cell_length_c 12.756605
_cell_angle_alpha 70.888961
_cell_angle_beta 112.320311
_cell_angle_gamma 121.272618
_cell_volume 599.187285
_symmetry_space_group_name_H-M "P -1"
_symmetry_group_IT_number 2
_symmetry_cell_setting 'triclinic'
loop_
_space_group_symop_operation_xyz
x,y,z
-x,-y,-z
loop_
_atom_site_type_symbol
_atom_site_label
_atom_site_fract_x
_atom_site_fract_y
_atom_site_fract_z
Si Si1 0.976994 0.074753 0.166700
Si Si2 0.169285 0.400634 0.461603
Si Si3 0.635624 0.572468 0.711698
Si Si4 0.006988 0.390136 0.773430
Si Si5 0.719780 0.903636 0.323197
Si Si6 0.274970 0.848827 0.076930
Si Si7 0.392078 0.816659 0.592757
Si Si8 0.399072 0.662749 0.942806
O O1 0.170298 0.294373 0.199395
O O2 0.021753 0.453234 0.348684
O O3 0.002314 0.847548 0.222982
O O4 0.881916 0.097383 0.031254
O O5 0.307769 0.402664 0.402241
O O6 0.149813 0.190452 0.565840
O O7 0.244413 0.606130 0.526273
O O8 0.828102 0.041045 0.225307
O O9 0.471748 0.313828 0.722796
O O10 0.528013 0.719264 0.689856
O O11 0.830928 0.302846 0.823891
O O12 0.207385 0.528553 0.854199
O O13 0.673060 0.055337 0.363893
O O14 0.449422 0.090406 0.103396
O O15 0.340404 0.719119 0.031501
O O16 0.500000 0.000000 0.500000
O O17 0.500000 0.500000 0.000000
#
# Coordination Sequence:
#
# PCOD9053550 Si02
#       8
#     2   2   2   2   2   2   2   2
#     4  12  28  48  75 118 145 202 256 304 383 448
#     4  11  24  47  75 110 148 202 254 301 377 447
#     4  11  24  46  74 110 152 199 251 305 377 448
#     4  12  27  51  79 111 153 201 252 311 380 452
#     4  11  26  49  74 106 162 196 249 319 363 448
#     4  11  27  54  79 110 155 195 251 319 375 456
#     4  11  19  47  75 107 150 204 252 302 378 446
#     4  11  25  52  81 114 149 192 256 312 387 444
#
# _framework density 26.702838
#
# number of rings (size 3 to 8) (size 9 to 14) (size 15 to 20)
#    0.000    0.750    3.750    3.000    0.000    5.000 
#    9.000    2.500    0.000    0.000    0.000    0.000 
#    0.000    0.000    0.000    0.000    0.000    0.000 
#
# Total GULP energy -89836.919218 kJ/mol
# GULP energy per Si atom -5614.807451 kJ/mol
# Density = 2.664206 g / cm^3
# Si number density = 26.702838 Si / 1000 Ang^3
#
#
#
# Elastic Constant Matrix: (Units=GPa)
#
#
# Indices 1 2 3 4 5 6 
#
# 1 136.9329 92.5874 50.4255 13.1058 8.9839 -8.7375
# 2 92.5874 188.5407 43.1357 19.1640 16.9094 -10.4476
# 3 50.4255 43.1357 110.5539 8.5695 13.4997 19.9204
# 4 13.1058 19.1640 8.5695 48.1089 5.5167 6.1189
# 5 8.9839 16.9094 13.4997 5.5167 38.4741 8.7218
# 6 -8.7375 -10.4476 19.9204 6.1189 8.7218 75.3369
#
#
#
# Elastic Compliance Matrix: (Units=1/GPa)
#
#
# Indices 1 2 3 4 5 6 
#
# 1 0.012312 -0.004978 -0.003981 -0.000943 0.000433 0.001817
# 2 -0.004978 0.008378 -0.000804 -0.001731 -0.002261 0.001199
# 3 -0.003981 -0.000804 0.012074 -0.000053 -0.002150 -0.003513
# 4 -0.000943 -0.001731 -0.000053 0.022188 -0.001743 -0.001936
# 5 0.000433 -0.002261 -0.002150 -0.001743 0.028536 -0.002857
# 6 0.001817 0.001199 -0.003513 -0.001936 -0.002857 0.015068
#
#
# Mechanical properties :
#
#
# Convention : Reuss Voigt Hill
#
# Bulk Modulus (GPa) = 75.53514 89.81384 82.67449
# Shear Modulus (GPa) = 40.81829 49.04258 44.93043
#
# Velocity S-wave (km/s) = 3.91399 4.29021 4.10641
# Velocity P-wave (km/s) = 6.98387 7.63209 7.31517
#
# Compressibility (1/GPa) = 0.01323887
#
# Stress axis : x y z
#
# Youngs Moduli (GPa) = 81.21991 119.36659 82.82039
#
# Poissons Ratio (x) = 0.59418 0.32968
# Poissons Ratio (y) = 0.40430 0.06660
# Poissons Ratio (z) = 0.32331 0.09598
#
# Static dielectric constant tensor:
#      x y z
#    x 2.112360 -0.028680 0.072590 
#    y -0.028680 2.010120 -0.031140 
#    z 0.072590 -0.031140 2.117460 
# 
# From -- ./inp_files/112795.got.cif
#   From: 2010.05.17/outbox.cif.g08.bks.cpg/sg2_57_cif.got.tgz:112795.got - 2010.06.03 11:33:40.
