data_PCOD9053662
_publ_section_title
;
Structure prediction by ZEFSAII (Michael W. Deem and Ramdas Pophale) SiO2 
 PCOD9053662
Probable space group: P -1
;
_chemical_formula_sum "Si O2"
_cell_formula_units_Z 16
_cell_length_a 8.131296
_cell_length_b 8.650162
_cell_length_c 17.345559
_cell_angle_alpha 127.204624
_cell_angle_beta 56.468325
_cell_angle_gamma 95.479531
_cell_volume 755.940074
_symmetry_space_group_name_H-M "P -1"
_symmetry_group_IT_number 2
_symmetry_cell_setting 'triclinic'
loop_
_space_group_symop_operation_xyz
x,y,z
-x,-y,-z
loop_
_atom_site_type_symbol
_atom_site_label
_atom_site_fract_x
_atom_site_fract_y
_atom_site_fract_z
Si Si1 0.818356 0.396838 0.589177
Si Si2 0.333333 0.570205 0.758707
Si Si3 0.989000 0.519074 0.739168
Si Si4 0.788469 0.825775 0.657702
Si Si5 0.710043 0.557780 0.964288
Si Si6 0.722295 0.968744 0.894595
Si Si7 0.098453 0.690708 0.013491
Si Si8 0.658118 0.986290 0.169782
O O1 0.574125 0.425239 0.673063
O O2 0.931500 0.431183 0.648330
O O3 0.792907 0.591349 0.597480
O O4 0.990225 0.195257 0.444328
O O5 0.229120 0.474843 0.689896
O O6 0.330100 0.802485 0.807032
O O7 0.178454 0.601361 0.881298
O O8 0.893910 0.769011 0.829713
O O9 0.855041 0.464578 0.825072
O O10 0.757596 0.916307 0.779190
O O11 0.568246 0.950501 0.710133
O O12 0.659328 0.805261 0.055066
O O13 0.500000 0.500000 0.000000
O O14 0.843099 0.475890 0.983576
O O15 0.752767 0.180576 0.967104
O O16 0.500000 0.000000 0.000000
O O17 0.866404 0.868538 0.129095
#
# Coordination Sequence:
#
# PCOD9053662 Si02
#       8
#     2   2   2   2   2   2   2   2
#     4   9  20  38  58  88 118 158 202 241 293 349
#     4  11  21  38  64  89 123 158 194 252 295 356
#     4  11  21  38  60  88 119 158 203 240 298 355
#     4   9  19  37  58  85 122 152 194 247 292 350
#     4  12  24  37  57  87 122 159 195 246 303 361
#     4  11  20  35  61  90 118 155 193 242 301 359
#     4  12  22  35  57  91 121 151 195 246 305 355
#     4  11  21  37  58  87 121 151 190 247 305 351
#
# _framework density 21.165697999999999
#
# number of rings (size 3 to 8) (size 9 to 14) (size 15 to 20)
#    0.000    1.250    2.500    6.750    0.000    0.000 
#    2.250    2.500    0.000    7.500    0.000    0.000 
#    0.000    0.000    0.000    0.000    0.000    0.000 
#
# Total GULP energy -89234.370715 kJ/mol
# GULP energy per Si atom -5577.148170 kJ/mol
# Density = 2.111752 g / cm^3
# Si number density = 21.165698 Si / 1000 Ang^3
#
#
#
# Elastic Constant Matrix: (Units=GPa)
#
#
# Indices 1 2 3 4 5 6 
#
# 1 113.5019 38.6186 63.1563 4.2556 -38.1723 -3.6483
# 2 38.6186 49.9031 18.8812 -15.8757 -0.6367 -11.9474
# 3 63.1563 18.8812 109.3149 -5.3084 -25.1040 -12.4649
# 4 4.2556 -15.8757 -5.3084 4.3739 3.9390 -3.9523
# 5 -38.1723 -0.6367 -25.1040 3.9390 23.4184 4.3658
# 6 -3.6483 -11.9474 -12.4649 -3.9523 4.3658 35.7888
#
#
#
# Elastic Compliance Matrix: (Units=1/GPa)
#
#
# Indices 1 2 3 4 5 6 
#
# 1 0.005221 0.010057 -0.002479 0.036027 -0.001268 0.007160
# 2 0.010057 0.000122 -0.003904 -0.038344 0.019959 -0.006963
# 3 -0.002479 -0.003904 0.013764 -0.003512 0.010916 0.001518
# 4 0.036027 -0.038344 -0.003512 -0.024083 0.061798 -0.020549
# 5 -0.001268 0.019959 0.010916 0.061798 0.040198 0.012256
# 6 0.007160 -0.006963 0.001518 -0.020549 0.012256 0.023111
#
#
# Mechanical properties :
#
#
# Convention : Reuss Voigt Hill
#
# Bulk Modulus (GPa) = 37.79984 57.11468 47.45726
# Shear Modulus (GPa) = 83.60775 22.85381 53.23078
#
# Velocity S-wave (km/s) = 6.29184 3.28953 5.02037
# Velocity P-wave (km/s) = 8.40719 6.43981 7.48839
#
# Compressibility (1/GPa) = 0.02645514
#
# Stress axis : x y z
#
# Youngs Moduli (GPa) = 191.54992 8165.39992 72.65573
#
# Poissons Ratio (x) = -82.11856 0.18009
# Poissons Ratio (y) = -1.92640 0.28364
# Poissons Ratio (z) = 0.47479 31.87736
#
# Static dielectric constant tensor:
#      x y z
#    x 1.862370 -0.016080 -0.014310 
#    y -0.016080 1.929670 -0.071820 
#    z -0.014310 -0.071820 1.797000 
# 
# From -- ./inp_files/377989.got.cif
#   From: 2010.05.17/outbox.cif.g08.bks.cpg/sg2_189_cif.got.tgz:377989.got - 2010.06.03 11:33:40.
