data_PCOD9053939
_publ_section_title
;
Structure prediction by ZEFSAII (Michael W. Deem and Ramdas Pophale) SiO2 
 PCOD9053939
Probable space group: P -1
;
_chemical_formula_sum "Si O2"
_cell_formula_units_Z 16
_cell_length_a 10.155639
_cell_length_b 9.976912
_cell_length_c 16.183556
_cell_angle_alpha 148.500472
_cell_angle_beta 73.228274
_cell_angle_gamma 92.398857
_cell_volume 748.873977
_symmetry_space_group_name_H-M "P -1"
_symmetry_group_IT_number 2
_symmetry_cell_setting 'triclinic'
loop_
_space_group_symop_operation_xyz
x,y,z
-x,-y,-z
loop_
_atom_site_type_symbol
_atom_site_label
_atom_site_fract_x
_atom_site_fract_y
_atom_site_fract_z
Si Si1 0.167530 0.774269 0.605758
Si Si2 0.728943 0.584641 0.452108
Si Si3 0.754395 0.693975 0.118983
Si Si4 0.040615 0.886427 0.300668
Si Si5 0.542174 0.586943 0.215895
Si Si6 0.506469 0.106298 0.865713
Si Si7 0.508035 0.381586 0.292084
Si Si8 0.786699 0.937451 0.499546
O O1 0.157489 0.643230 0.626728
O O2 0.328683 0.564264 0.429033
O O3 0.182247 0.068424 0.768560
O O4 0.029444 0.843062 0.604348
O O5 0.647879 0.874240 0.670174
O O6 0.401676 0.514659 0.603399
O O7 0.794321 0.657950 0.396134
O O8 0.673251 0.677682 0.210556
O O9 0.625481 0.781330 0.118163
O O10 0.876780 0.391010 0.913181
O O11 0.898878 0.880690 0.373266
O O12 0.152890 0.910882 0.361977
O O13 0.558732 0.441702 0.225267
O O14 0.384052 0.858681 0.384153
O O15 0.538112 0.358892 0.030459
O O16 0.464406 0.935210 0.855577
#
# Coordination Sequence:
#
# PCOD9053939 Si02
#       8
#     2   2   2   2   2   2   2   2
#     4  11  22  41  63  89 126 169 199 250 314 371
#     4  11  22  41  67  89 124 161 214 252 302 366
#     4  12  22  40  66  92 122 162 208 257 305 361
#     4  11  25  41  61  90 130 161 203 249 317 367
#     4  12  23  38  68  95 123 156 216 257 297 360
#     4  11  20  39  63  95 123 159 199 261 308 352
#     4  11  22  39  64  97 125 157 205 262 308 355
#     4  11  23  41  63  92 122 167 204 253 305 367
#
# _framework density 21.365411000000002
#
# number of rings (size 3 to 8) (size 9 to 14) (size 15 to 20)
#    0.000    0.750    6.250    2.625    1.750    1.500 
#    0.000    1.875    0.000    0.000    0.000    0.000 
#    0.000    0.000    0.000    0.000    0.000    0.000 
#
# Total GULP energy -89542.748143 kJ/mol
# GULP energy per Si atom -5596.421759 kJ/mol
# Density = 2.131678 g / cm^3
# Si number density = 21.365411 Si / 1000 Ang^3
#
#
#
# Elastic Constant Matrix: (Units=GPa)
#
#
# Indices 1 2 3 4 5 6 
#
# 1 34.9123 22.2207 26.1829 -2.5610 -2.0345 3.8086
# 2 22.2207 149.4689 16.2324 10.0444 -11.8878 -9.2078
# 3 26.1829 16.2324 55.1970 4.7040 -12.5440 1.6264
# 4 -2.5610 10.0444 4.7040 23.2984 -4.3951 6.8139
# 5 -2.0345 -11.8878 -12.5440 -4.3951 24.8415 3.2706
# 6 3.8086 -9.2078 1.6264 6.8139 3.2706 30.5025
#
#
#
# Elastic Compliance Matrix: (Units=1/GPa)
#
#
# Indices 1 2 3 4 5 6 
#
# 1 0.055956 -0.007805 -0.027299 0.016519 -0.008612 -0.010654
# 2 -0.007805 0.008496 0.002236 -0.005690 0.002973 0.004372
# 3 -0.027299 0.002236 0.034326 -0.009017 0.014211 0.002744
# 4 0.016519 -0.005690 -0.009017 0.054861 0.005915 -0.016189
# 5 -0.008612 0.002973 0.014211 0.005915 0.049914 -0.005458
# 6 -0.010654 0.004372 0.002744 -0.016189 -0.005458 0.039490
#
#
# Mechanical properties :
#
#
# Convention : Reuss Voigt Hill
#
# Bulk Modulus (GPa) = 30.26494 40.98338 35.62416
# Shear Modulus (GPa) = 15.63507 27.39127 21.51317
#
# Velocity S-wave (km/s) = 2.70810 3.58444 3.17664
# Velocity P-wave (km/s) = 4.89638 6.02949 5.49223
#
# Compressibility (1/GPa) = 0.03304153
#
# Stress axis : x y z
#
# Youngs Moduli (GPa) = 17.87107 117.70037 29.13263
#
# Poissons Ratio (x) = 0.91870 0.79528
# Poissons Ratio (y) = 0.13949 -0.06513
# Poissons Ratio (z) = 0.48786 -0.26315
#
# Static dielectric constant tensor:
#      x y z
#    x 1.798130 0.002520 0.016320 
#    y 0.002520 1.787200 -0.012560 
#    z 0.016320 -0.012560 1.737560 
# 
# From -- ./inp_files/516376.got.cif
#   From: 2010.05.17/outbox.cif.g08.bks.cpg/sg2_259_cif.got.tgz:516376.got - 2010.06.03 11:33:40.
