data_PCOD9053729
_publ_section_title
;
Structure prediction by ZEFSAII (Michael W. Deem and Ramdas Pophale) SiO2 
 PCOD9053729
Probable space group: P -1
;
_chemical_formula_sum "Si O2"
_cell_formula_units_Z 15
_cell_length_a 5.124366
_cell_length_b 15.279970
_cell_length_c 9.159113
_cell_angle_alpha 69.862912
_cell_angle_beta 107.686718
_cell_angle_gamma 116.300273
_cell_volume 593.792481
_symmetry_space_group_name_H-M "P -1"
_symmetry_group_IT_number 2
_symmetry_cell_setting 'triclinic'
loop_
_space_group_symop_operation_xyz
x,y,z
-x,-y,-z
loop_
_atom_site_type_symbol
_atom_site_label
_atom_site_fract_x
_atom_site_fract_y
_atom_site_fract_z
Si Si1 0.377559 0.866393 0.505920
Si Si2 0.001817 0.560052 0.238777
Si Si3 0.604153 0.167265 0.142233
Si Si4 0.811389 0.715032 0.008600
Si Si5 0.173924 0.078900 0.684509
Si Si6 0.019303 0.636415 0.531744
Si Si7 0.500000 0.000000 0.000000
Si Si8 0.374794 0.286157 0.718722
O O1 0.373417 0.876585 0.671844
O O2 0.694985 0.919685 0.455387
O O3 0.266060 0.746277 0.529173
O O4 0.135514 0.906500 0.375051
O O5 0.999639 0.590573 0.392004
O O6 0.334017 0.631518 0.210344
O O7 0.959780 0.444136 0.303284
O O8 0.787814 0.599481 0.086819
O O9 0.446253 0.246832 0.096785
O O10 0.916107 0.228395 0.082559
O O11 0.426789 0.078134 0.052842
O O12 0.864321 0.748291 0.170499
O O13 0.406556 0.186243 0.726011
O O14 0.229882 0.997666 0.841439
O O15 0.721363 0.660886 0.463270
#
# Coordination Sequence:
#
# PCOD9053729 Si02
#       8
#     2   2   2   2   2   2   1   2
#     4  11  25  47  65  95 143 173 209 264 345 379
#     4  10  17  35  62 102 126 170 226 271 303 379
#     4  12  27  45  68  96 132 178 214 271 329 397
#     4  11  22  41  66  93 133 173 217 267 323 373
#     4  11  24  43  70  98 129 173 213 275 325 392
#     4   9  20  32  62  97 131 174 216 265 320 386
#     4  12  28  44  76 104 122 166 232 266 326 398
#     4  10  18  36  65  94 132 168 220 273 317 373
#
# _framework density 25.26135
#
# number of rings (size 3 to 8) (size 9 to 14) (size 15 to 20)
#    0.000    1.333    4.000    1.200    3.733    3.200 
#    0.000    1.333    0.000    0.000    0.000    0.000 
#    0.000    0.000    0.000    0.000    0.000    0.000 
#
# Total GULP energy -83548.147284 kJ/mol
# GULP energy per Si atom -5569.876486 kJ/mol
# Density = 2.520385 g / cm^3
# Si number density = 25.261350 Si / 1000 Ang^3
#
#
#
# Elastic Constant Matrix: (Units=GPa)
#
#
# Indices 1 2 3 4 5 6 
#
# 1 123.9480 19.2825 25.4950 -27.5596 -0.5555 -14.1176
# 2 19.2825 87.2561 22.8233 -27.8905 12.9889 -4.2671
# 3 25.4950 22.8233 98.7537 -19.1754 11.5526 -14.3142
# 4 -27.5596 -27.8905 -19.1754 33.4705 -14.4375 6.9172
# 5 -0.5555 12.9889 11.5526 -14.4375 35.0914 -5.5354
# 6 -14.1176 -4.2671 -14.3142 6.9172 -5.5354 20.4105
#
#
#
# Elastic Compliance Matrix: (Units=1/GPa)
#
#
# Indices 1 2 3 4 5 6 
#
# 1 0.011053 0.000529 -0.000859 0.010279 0.005297 0.005106
# 2 0.000529 0.015861 -0.001506 0.013051 -0.000293 -0.001877
# 3 -0.000859 -0.001506 0.012398 0.003325 -0.001169 0.006341
# 4 0.010279 0.013051 0.003325 0.059649 0.018292 -0.003084
# 5 0.005297 -0.000293 -0.001169 0.018292 0.037673 0.006800
# 6 0.005106 -0.001877 0.006341 -0.003084 0.006800 0.059470
#
#
# Mechanical properties :
#
#
# Convention : Reuss Voigt Hill
#
# Bulk Modulus (GPa) = 28.05873 49.46216 38.76045
# Shear Modulus (GPa) = 23.62325 33.95162 28.78743
#
# Velocity S-wave (km/s) = 3.06135 3.67006 3.37943
# Velocity P-wave (km/s) = 4.86079 6.13040 5.53214
#
# Compressibility (1/GPa) = 0.03563953
#
# Stress axis : x y z
#
# Youngs Moduli (GPa) = 90.47135 63.04776 80.65982
#
# Poissons Ratio (x) = -0.03336 0.06932
# Poissons Ratio (y) = -0.04786 0.12146
# Poissons Ratio (z) = 0.07775 0.09494
#
# Static dielectric constant tensor:
#      x y z
#    x 2.071560 -0.028370 0.028190 
#    y -0.028370 2.089990 -0.084650 
#    z 0.028190 -0.084650 2.052100 
# 
# From -- ./inp_files/136603.got.cif
#   From: 2010.05.17/outbox.cif.g08.bks.cpg/sg2_69_cif.got.tgz:136603.got - 2010.06.03 11:33:40.
