data_PCOD9053249
_publ_section_title
;
Structure prediction by ZEFSAII (Michael W. Deem and Ramdas Pophale) SiO2 
 PCOD9053249
Probable space group: P -1
;
_chemical_formula_sum "Si O2"
_cell_formula_units_Z 16
_cell_length_a 19.232245
_cell_length_b 25.600502
_cell_length_c 6.910665
_cell_angle_alpha 94.993656
_cell_angle_beta 78.403695
_cell_angle_gamma 166.773856
_cell_volume 667.011231
_symmetry_space_group_name_H-M "P -1"
_symmetry_group_IT_number 2
_symmetry_cell_setting 'triclinic'
loop_
_space_group_symop_operation_xyz
x,y,z
-x,-y,-z
loop_
_atom_site_type_symbol
_atom_site_label
_atom_site_fract_x
_atom_site_fract_y
_atom_site_fract_z
Si Si1 0.224636 0.310670 0.883346
Si Si2 0.143185 0.552679 0.165887
Si Si3 0.652939 0.023125 0.585952
Si Si4 0.744238 0.251961 0.910604
Si Si5 0.368839 0.258176 0.616893
Si Si6 0.308122 0.272481 0.056559
Si Si7 0.892597 0.555492 0.541807
Si Si8 0.844781 0.697519 0.459143
O O1 0.333847 0.442641 0.973337
O O2 0.602512 0.562706 0.668157
O O3 0.003421 0.163912 0.769772
O O4 0.110568 0.179979 0.038490
O O5 0.270038 0.598758 0.249825
O O6 0.323260 0.738981 0.132031
O O7 0.735098 0.266534 0.370240
O O8 0.074753 0.491249 0.956610
O O9 0.873134 0.228017 0.427161
O O10 0.864904 0.122807 0.522658
O O11 0.578638 0.990600 0.838157
O O12 0.853227 0.293788 0.690678
O O13 0.569653 0.452155 0.468836
O O14 0.603025 0.375704 0.515898
O O15 0.380419 0.285074 0.845536
O O16 0.959066 0.948155 0.716064
#
# Coordination Sequence:
#
# PCOD9053249 Si02
#       8
#     2   2   2   2   2   2   2   2
#     4   9  18  33  57  74 101 138 171 212 255 317
#     4   9  20  36  53  75 107 142 172 220 256 307
#     4   9  19  35  51  76 111 135 171 223 250 311
#     4   9  20  36  52  75 108 139 172 223 252 308
#     4   9  20  34  52  75 109 130 170 221 251 315
#     4   9  18  37  51  76 105 132 172 215 260 304
#     4  11  19  35  56  79 102 145 175 210 267 308
#     4   9  18  34  52  78 104 135 172 210 262 301
#
# _framework density 23.987601000000002
#
# number of rings (size 3 to 8) (size 9 to 14) (size 15 to 20)
#    0.750    2.000    0.000    1.125    0.000    2.500 
#    4.500    3.750    0.000    0.000    0.000    0.000 
#    0.000    0.000    0.000    0.000    0.000    0.000 
#
# Total GULP energy -89192.489668 kJ/mol
# GULP energy per Si atom -5574.530604 kJ/mol
# Density = 2.393300 g / cm^3
# Si number density = 23.987601 Si / 1000 Ang^3
#
#
#
# Elastic Constant Matrix: (Units=GPa)
#
#
# Indices 1 2 3 4 5 6 
#
# 1 87.7888 -6.6778 30.0670 9.4105 9.1231 -12.9533
# 2 -6.6778 20.6527 -1.2648 -3.3193 -8.4472 -2.3407
# 3 30.0670 -1.2648 53.3407 -3.0529 8.5010 -0.1392
# 4 9.4105 -3.3193 -3.0529 17.9019 -0.4798 6.9895
# 5 9.1231 -8.4472 8.5010 -0.4798 38.7957 -13.5736
# 6 -12.9533 -2.3407 -0.1392 6.9895 -13.5736 27.3197
#
#
#
# Elastic Compliance Matrix: (Units=1/GPa)
#
#
# Indices 1 2 3 4 5 6 
#
# 1 0.020532 0.007183 -0.013322 -0.018548 0.005669 0.017844
# 2 0.007183 0.060158 -0.005594 -0.000076 0.018914 0.017948
# 3 -0.013322 -0.005594 0.028576 0.016716 -0.009639 -0.015716
# 4 -0.018548 -0.000076 0.016716 0.081774 -0.010501 -0.034854
# 5 0.005669 0.018914 -0.009639 -0.010501 0.039911 0.026775
# 6 0.017844 0.017948 -0.015716 -0.034854 0.026775 0.068742
#
#
# Mechanical properties :
#
#
# Convention : Reuss Voigt Hill
#
# Bulk Modulus (GPa) = 11.65509 22.89234 17.27372
# Shear Modulus (GPa) = 14.21430 26.11396 20.16413
#
# Velocity S-wave (km/s) = 2.43691 3.30304 2.90247
# Velocity P-wave (km/s) = 3.57595 4.91028 4.29525
#
# Compressibility (1/GPa) = 0.08579940
#
# Stress axis : x y z
#
# Youngs Moduli (GPa) = 48.70446 16.62298 34.99475
#
# Poissons Ratio (x) = -0.11940 0.46618
# Poissons Ratio (y) = -0.34983 0.19577
# Poissons Ratio (z) = 0.64882 0.09299
#
# Static dielectric constant tensor:
#      x y z
#    x 1.899990 0.003340 0.030950 
#    y 0.003340 1.954850 -0.010290 
#    z 0.030950 -0.010290 1.939070 
# 
# From -- ./inp_files/338306.got.cif
#   From: 2010.05.17/outbox.cif.g08.bks.cpg/sg2_170_cif.got.tgz:338306.got - 2010.06.03 11:33:40.
