data_PCOD9053105
_publ_section_title
;
Structure prediction by ZEFSAII (Michael W. Deem and Ramdas Pophale) SiO2 
 PCOD9053105
Probable space group: P -1
;
_chemical_formula_sum "Si O2"
_cell_formula_units_Z 14
_cell_length_a 7.593911
_cell_length_b 7.119453
_cell_length_c 10.479654
_cell_angle_alpha 76.676049
_cell_angle_beta 81.945834
_cell_angle_gamma 75.859645
_cell_volume 532.508394
_symmetry_space_group_name_H-M "P -1"
_symmetry_group_IT_number 2
_symmetry_cell_setting 'triclinic'
loop_
_space_group_symop_operation_xyz
x,y,z
-x,-y,-z
loop_
_atom_site_type_symbol
_atom_site_label
_atom_site_fract_x
_atom_site_fract_y
_atom_site_fract_z
Si Si1 0.751275 0.295815 0.734670
Si Si2 0.108069 0.104995 0.820093
Si Si3 0.983481 0.314720 0.184755
Si Si4 0.108295 0.773566 0.541425
Si Si5 0.571402 0.421896 0.145090
Si Si6 0.609316 0.062058 0.359995
Si Si7 0.696747 0.920827 0.927634
O O1 0.830332 0.319326 0.584696
O O2 0.568667 0.445021 0.765839
O O3 0.700122 0.082034 0.790974
O O4 0.925869 0.276701 0.813709
O O5 0.050704 0.906615 0.807040
O O6 0.255862 0.125198 0.692856
O O7 0.185431 0.065323 0.958228
O O8 0.000307 0.332830 0.332513
O O9 0.783692 0.437456 0.140705
O O10 0.183640 0.287645 0.107351
O O11 0.285864 0.792667 0.598698
O O12 0.000000 0.000000 0.500000
O O13 0.544486 0.200633 0.219631
O O14 0.500000 0.500000 0.000000
O O15 0.500000 0.000000 0.500000
O O16 0.500000 0.000000 0.000000
#
# Coordination Sequence:
#
# PCOD9053105 Si02
#       7
#     2   2   2   2   2   2   2
#     4  11  19  35  62  84 115 158 207 242 291 362
#     4   9  18  34  55  80 111 154 201 235 288 360
#     4   9  19  35  56  81 114 155 200 241 285 367
#     4  10  17  35  59  85 113 158 204 242 291 356
#     4  10  20  38  62  88 118 161 204 243 295 360
#     4  10  22  36  59  86 120 156 198 251 295 353
#     4  11  21  32  54  88 115 153 204 250 292 347
#
# _framework density 26.290668
#
# number of rings (size 3 to 8) (size 9 to 14) (size 15 to 20)
#    0.000    2.286    4.286    4.286    2.000    2.286 
#    0.000    1.429    0.000    1.714    0.000    0.000 
#    0.000    0.000    0.000    0.000    0.000    0.000 
#
# Total GULP energy -78047.263489 kJ/mol
# GULP energy per Si atom -5574.804535 kJ/mol
# Density = 2.623083 g / cm^3
# Si number density = 26.290668 Si / 1000 Ang^3
#
#
#
# Elastic Constant Matrix: (Units=GPa)
#
#
# Indices 1 2 3 4 5 6 
#
# 1 74.1234 42.4703 41.3941 -4.2434 -12.9142 -40.8188
# 2 42.4703 152.8171 57.7298 14.9385 -16.5205 -59.5142
# 3 41.3941 57.7298 188.4434 15.4964 -27.2808 -27.7797
# 4 -4.2434 14.9385 15.4964 50.2054 -6.6066 -10.5018
# 5 -12.9142 -16.5205 -27.2808 -6.6066 48.2921 -1.1741
# 6 -40.8188 -59.5142 -27.7797 -10.5018 -1.1741 58.9260
#
#
#
# Elastic Compliance Matrix: (Units=1/GPa)
#
#
# Indices 1 2 3 4 5 6 
#
# 1 0.027658 0.001724 -0.003023 0.008212 0.007915 0.021097
# 2 0.001724 0.012039 -0.001635 0.000253 0.003999 0.012707
# 3 -0.003023 -0.001635 0.006820 -0.001748 0.002226 -0.000798
# 4 0.008212 0.000253 -0.001748 0.023677 0.004764 0.009435
# 5 0.007915 0.003999 0.002226 0.004764 0.026392 0.011946
# 6 0.021097 0.012707 -0.000798 0.009435 0.011946 0.045962
#
#
# Mechanical properties :
#
#
# Convention : Reuss Voigt Hill
#
# Bulk Modulus (GPa) = 24.60115 77.61912 51.11014
# Shear Modulus (GPa) = 30.87074 49.73736 40.30405
#
# Velocity S-wave (km/s) = 3.43039 4.35423 3.91962
# Velocity P-wave (km/s) = 5.00677 7.40720 6.32196
#
# Compressibility (1/GPa) = 0.04064850
#
# Stress axis : x y z
#
# Youngs Moduli (GPa) = 36.15570 83.06503 146.62398
#
# Poissons Ratio (x) = -0.14324 0.44328
# Poissons Ratio (y) = -0.06235 0.23980
# Poissons Ratio (z) = 0.10931 0.13585
#
# Static dielectric constant tensor:
#      x y z
#    x 2.326790 -0.018450 0.005940 
#    y -0.018450 2.153480 -0.071000 
#    z 0.005940 -0.071000 2.188160 
# 
# From -- ./inp_files/387085.got.cif
#   From: 2010.05.17/outbox.cif.g08.bks.cpg/sg2_194_cif.got.tgz:387085.got - 2010.06.03 11:33:40.
