data_PCOD9053594
_publ_section_title
;
Structure prediction by ZEFSAII (Michael W. Deem and Ramdas Pophale) SiO2 
 PCOD9053594
Probable space group: P -1
;
_chemical_formula_sum "Si O2"
_cell_formula_units_Z 14
_cell_length_a 23.449357
_cell_length_b 26.869680
_cell_length_c 9.637348
_cell_angle_alpha 41.658368
_cell_angle_beta 25.812085
_cell_angle_gamma 19.469052
_cell_volume 629.062360
_symmetry_space_group_name_H-M "P -1"
_symmetry_group_IT_number 2
_symmetry_cell_setting 'triclinic'
loop_
_space_group_symop_operation_xyz
x,y,z
-x,-y,-z
loop_
_atom_site_type_symbol
_atom_site_label
_atom_site_fract_x
_atom_site_fract_y
_atom_site_fract_z
Si Si1 0.826597 0.363192 0.659943
Si Si2 0.657228 0.167115 0.093542
Si Si3 0.877545 0.614644 0.398888
Si Si4 0.365614 0.661318 0.310576
Si Si5 0.812075 0.405474 0.145670
Si Si6 0.132003 0.807858 0.991366
Si Si7 0.302928 0.417107 0.611333
O O1 0.948638 0.374026 0.293869
O O2 0.500000 0.500000 0.000000
O O3 0.647954 0.490552 0.925289
O O4 0.071029 0.160142 0.582841
O O5 0.486697 0.218127 0.227215
O O6 0.350845 0.347302 0.508847
O O7 0.803066 0.169623 0.716798
O O8 0.928535 0.968260 0.994265
O O9 0.000000 0.500000 0.500000
O O10 0.882118 0.698129 0.266698
O O11 0.171202 0.448983 0.974468
O O12 0.614061 0.534100 0.168502
O O13 0.108516 0.725634 0.757911
O O14 0.494729 0.586599 0.577613
O O15 0.286648 0.771432 0.859175
#
# Coordination Sequence:
#
# PCOD9053594 Si02
#       7
#     2   2   2   2   2   2   2
#     4   8  15  31  54  77 102 136 180 217 260 315
#     4  11  20  33  57  87 109 135 177 233 275 303
#     4  11  21  36  53  80 112 146 178 219 267 325
#     4   9  17  31  55  78 101 142 185 214 252 323
#     4   9  18  35  54  76 106 146 181 211 262 325
#     4   9  18  32  56  85 111 131 177 234 271 308
#     4   9  19  35  55  79 104 147 183 215 260 332
#
# _framework density 22.255344000000001
#
# number of rings (size 3 to 8) (size 9 to 14) (size 15 to 20)
#    0.000    2.571    1.429    1.714    0.000    0.571 
#    0.000    0.714    0.000   18.000    0.000    0.000 
#    0.000    0.000    0.000    0.000    0.000    0.000 
#
# Total GULP energy -78007.425720 kJ/mol
# GULP energy per Si atom -5571.958980 kJ/mol
# Density = 2.220469 g / cm^3
# Si number density = 22.255344 Si / 1000 Ang^3
#
#
#
# Elastic Constant Matrix: (Units=GPa)
#
#
# Indices 1 2 3 4 5 6 
#
# 1 151.0548 33.1776 27.1164 -19.8558 5.5042 -4.4995
# 2 33.1776 130.0584 35.7461 -50.8926 -17.9072 -11.3663
# 3 27.1164 35.7461 58.8656 -28.6669 14.0394 0.3923
# 4 -19.8558 -50.8926 -28.6669 34.5400 -0.0337 9.2134
# 5 5.5042 -17.9072 14.0394 -0.0337 36.2589 -12.5424
# 6 -4.4995 -11.3663 0.3923 9.2134 -12.5424 24.6137
#
#
#
# Elastic Compliance Matrix: (Units=1/GPa)
#
#
# Indices 1 2 3 4 5 6 
#
# 1 0.007384 -0.001017 -0.002218 0.000835 -0.000674 0.000259
# 2 -0.001017 0.022494 -0.003359 0.027751 0.015229 0.007627
# 3 -0.002218 -0.003359 0.050412 0.045414 -0.033548 -0.036855
# 4 0.000835 0.027751 0.045414 0.119112 -0.018310 -0.041672
# 5 -0.000674 0.015229 -0.033548 -0.018310 0.064489 0.047159
# 6 0.000259 0.007627 -0.036855 -0.041672 0.047159 0.084414
#
#
# Mechanical properties :
#
#
# Convention : Reuss Voigt Hill
#
# Bulk Modulus (GPa) = 14.90269 59.11766 37.01017
# Shear Modulus (GPa) = 13.02553 35.34509 24.18531
#
# Velocity S-wave (km/s) = 2.42187 3.98950 3.30012
# Velocity P-wave (km/s) = 3.81201 6.91683 5.58453
#
# Compressibility (1/GPa) = 0.06710197
#
# Stress axis : x y z
#
# Youngs Moduli (GPa) = 135.43242 44.45570 19.83635
#
# Poissons Ratio (x) = 0.04523 0.04399
# Poissons Ratio (y) = 0.13780 0.06663
# Poissons Ratio (z) = 0.30034 0.14933
#
# Static dielectric constant tensor:
#      x y z
#    x 1.873190 0.014170 -0.030100 
#    y 0.014170 1.884600 -0.066020 
#    z -0.030100 -0.066020 1.920380 
# 
# From -- ./inp_files/355626.got.cif
#   From: 2010.05.17/outbox.cif.g08.bks.cpg/sg2_178_cif.got.tgz:355626.got - 2010.06.03 11:33:40.
