data_PCOD9053664
_publ_section_title
;
Structure prediction by ZEFSAII (Michael W. Deem and Ramdas Pophale) SiO2 
 PCOD9053664
Probable space group: P -1
;
_chemical_formula_sum "Si O2"
_cell_formula_units_Z 16
_cell_length_a 11.507221
_cell_length_b 8.540194
_cell_length_c 7.544007
_cell_angle_alpha 127.344819
_cell_angle_beta 79.933612
_cell_angle_gamma 94.677940
_cell_volume 580.038757
_symmetry_space_group_name_H-M "P -1"
_symmetry_group_IT_number 2
_symmetry_cell_setting 'triclinic'
loop_
_space_group_symop_operation_xyz
x,y,z
-x,-y,-z
loop_
_atom_site_type_symbol
_atom_site_label
_atom_site_fract_x
_atom_site_fract_y
_atom_site_fract_z
Si Si1 0.858709 0.916173 0.655749
Si Si2 0.328705 0.100708 0.658530
Si Si3 0.456451 0.921633 0.181304
Si Si4 0.118250 0.753637 0.420053
Si Si5 0.147073 0.306632 0.069187
Si Si6 0.693939 0.561031 0.332639
Si Si7 0.391864 0.298265 0.221467
Si Si8 0.131444 0.774571 0.842829
O O1 0.855015 0.091997 0.635505
O O2 0.773972 0.745313 0.502370
O O3 0.848308 0.018074 0.921883
O O4 0.983216 0.804102 0.534015
O O5 0.413299 0.032237 0.749312
O O6 0.367187 0.319120 0.730539
O O7 0.371649 0.943739 0.388634
O O8 0.196349 0.156421 0.801782
O O9 0.408965 0.086229 0.171247
O O10 0.487966 0.712573 0.936719
O O11 0.135488 0.537703 0.185068
O O12 0.168507 0.757278 0.612909
O O13 0.266427 0.313510 0.164183
O O14 0.009686 0.263517 0.124324
O O15 0.615862 0.538868 0.512942
O O16 0.784862 0.378359 0.174872
#
# Coordination Sequence:
#
# PCOD9053664 Si02
#       8
#     2   2   2   2   2   2   2   2
#     4  11  26  40  58  90 135 177 213 255 303 363
#     4   9  19  31  59  91 124 153 209 265 318 371
#     4   8  16  34  52  95 123 143 204 279 314 367
#     4  11  23  41  56  85 130 175 209 262 298 357
#     4  11  20  35  61  91 120 174 210 246 311 380
#     4  11  21  40  62  94 127 171 211 253 307 383
#     4   9  17  32  63  86 122 157 207 260 317 375
#     4  12  24  42  62  89 139 175 208 255 306 369
#
# _framework density 27.584361000000001
#
# number of rings (size 3 to 8) (size 9 to 14) (size 15 to 20)
#    0.000    1.750    2.500    2.250    3.500    1.000 
#    2.250    0.000    0.000    0.000    0.000  110.250 
#    0.000    0.000    0.000    0.000    0.000    0.000 
#
# Total GULP energy -89254.519924 kJ/mol
# GULP energy per Si atom -5578.407495 kJ/mol
# Density = 2.752158 g / cm^3
# Si number density = 27.584361 Si / 1000 Ang^3
#
#
#
# Elastic Constant Matrix: (Units=GPa)
#
#
# Indices 1 2 3 4 5 6 
#
# 1 105.6646 26.2575 31.9626 20.2677 -28.8511 -26.9434
# 2 26.2575 78.1722 37.6446 3.8339 -8.6535 -41.6091
# 3 31.9626 37.6446 145.2351 -0.7509 -39.4965 -8.2456
# 4 20.2677 3.8339 -0.7509 59.2922 -10.1304 -6.6033
# 5 -28.8511 -8.6535 -39.4965 -10.1304 45.9116 3.5851
# 6 -26.9434 -41.6091 -8.2456 -6.6033 3.5851 29.9512
#
#
#
# Elastic Compliance Matrix: (Units=1/GPa)
#
#
# Indices 1 2 3 4 5 6 
#
# 1 0.018611 0.016383 -0.004096 -0.001999 0.007930 0.036984
# 2 0.016383 0.081235 -0.017128 0.002988 0.001902 0.123307
# 3 -0.004096 -0.017128 0.012864 0.001208 0.007448 -0.024564
# 4 -0.001999 0.002988 0.001208 0.018759 0.003990 0.006343
# 5 0.007930 0.001902 0.007448 0.003990 0.033734 0.008668
# 6 0.036984 0.123307 -0.024564 0.006343 0.008668 0.231558
#
#
# Mechanical properties :
#
#
# Convention : Reuss Voigt Hill
#
# Bulk Modulus (GPa) = 9.70621 57.86681 33.78651
# Shear Modulus (GPa) = 11.34335 42.57813 26.96074
#
# Velocity S-wave (km/s) = 2.03007 3.93308 3.12972
# Velocity P-wave (km/s) = 3.00354 6.45362 5.03341
#
# Compressibility (1/GPa) = 0.10302685
#
# Stress axis : x y z
#
# Youngs Moduli (GPa) = 53.73116 12.30994 77.73838
#
# Poissons Ratio (x) = -0.20167 0.31843
# Poissons Ratio (y) = -0.88026 1.33150
# Poissons Ratio (z) = 0.22009 0.21084
#
# Static dielectric constant tensor:
#      x y z
#    x 2.242240 0.016020 0.049300 
#    y 0.016020 2.370500 -0.191280 
#    z 0.049300 -0.191280 2.254800 
# 
# From -- ./inp_files/299690.got.cif
#   From: 2010.05.17/outbox.cif.g08.bks.cpg/sg2_150_cif.got.tgz:299690.got - 2010.06.03 11:33:40.
