data_PCOD9053802
_publ_section_title
;
Structure prediction by ZEFSAII (Michael W. Deem and Ramdas Pophale) SiO2 
 PCOD9053802
Probable space group: P -1
;
_chemical_formula_sum "Si O2"
_cell_formula_units_Z 16
_cell_length_a 12.107959
_cell_length_b 11.492326
_cell_length_c 14.669231
_cell_angle_alpha 48.530052
_cell_angle_beta 149.144810
_cell_angle_gamma 135.318611
_cell_volume 728.479175
_symmetry_space_group_name_H-M "P -1"
_symmetry_group_IT_number 2
_symmetry_cell_setting 'triclinic'
loop_
_space_group_symop_operation_xyz
x,y,z
-x,-y,-z
loop_
_atom_site_type_symbol
_atom_site_label
_atom_site_fract_x
_atom_site_fract_y
_atom_site_fract_z
Si Si1 0.547274 0.623016 0.885100
Si Si2 0.474178 0.956345 0.720077
Si Si3 0.036727 0.845055 0.057353
Si Si4 0.444955 0.405983 0.765654
Si Si5 0.329905 0.523534 0.291493
Si Si6 0.261150 0.870026 0.025517
Si Si7 0.847074 0.281128 0.153949
Si Si8 0.996654 0.135629 0.501952
O O1 0.492295 0.787113 0.784021
O O2 0.394753 0.520257 0.746522
O O3 0.500000 0.500000 0.000000
O O4 0.821170 0.686873 0.019311
O O5 0.215704 0.950532 0.534818
O O6 0.689012 0.114816 0.749509
O O7 0.539343 0.975991 0.864680
O O8 0.045486 0.850918 0.949775
O O9 0.000000 0.000000 0.000000
O O10 0.574466 0.517587 0.713803
O O11 0.228278 0.248288 0.658560
O O12 0.633954 0.340261 0.975301
O O13 0.500000 0.500000 0.500000
O O14 0.335268 0.711099 0.181351
O O15 0.068472 0.414524 0.189813
O O16 0.221536 0.872298 0.888756
O O17 0.931343 0.260941 0.324101
O O18 0.000000 0.000000 0.500000
#
# Coordination Sequence:
#
# PCOD9053802 Si02
#       8
#     2   2   2   2   2   2   2   2
#     4  11  21  39  69  98 127 168 225 272 322 386
#     4   9  22  39  63  88 131 177 208 266 325 384
#     4   8  17  37  62  90 125 169 213 264 323 385
#     4  11  24  41  65  97 130 171 213 274 332 387
#     4  11  20  37  64  97 129 169 211 270 334 383
#     4   9  19  37  65  89 128 169 210 262 328 391
#     4  11  22  37  64  96 128 169 215 268 328 390
#     4  12  25  42  63  95 138 171 220 271 325 389
#
# _framework density 21.963566
#
# number of rings (size 3 to 8) (size 9 to 14) (size 15 to 20)
#    0.750    1.000    1.250    5.250    0.000    3.500 
#    0.000    0.000    0.000    1.500    0.000    0.000 
#    0.000    0.000    0.000    0.000    0.000    0.000 
#
# Total GULP energy -89216.664808 kJ/mol
# GULP energy per Si atom -5576.041551 kJ/mol
# Density = 2.191358 g / cm^3
# Si number density = 21.963566 Si / 1000 Ang^3
#
#
#
# Elastic Constant Matrix: (Units=GPa)
#
#
# Indices 1 2 3 4 5 6 
#
# 1 74.5796 24.8847 16.0221 13.5154 8.9654 -12.6351
# 2 24.8847 83.0482 38.3364 36.7939 2.7268 -13.1469
# 3 16.0221 38.3364 102.4877 23.7248 9.1576 -1.7165
# 4 13.5154 36.7939 23.7248 34.6454 12.6175 -0.4307
# 5 8.9654 2.7268 9.1576 12.6175 43.5608 13.8585
# 6 -12.6351 -13.1469 -1.7165 -0.4307 13.8585 48.4463
#
#
#
# Elastic Compliance Matrix: (Units=1/GPa)
#
#
# Indices 1 2 3 4 5 6 
#
# 1 0.016047 -0.003385 -0.000645 -0.000646 -0.004178 0.004433
# 2 -0.003385 0.027526 -0.003894 -0.027510 0.006366 0.004383
# 3 -0.000645 -0.003894 0.012236 -0.003647 -0.000965 -0.000548
# 4 -0.000646 -0.027510 -0.003647 0.066555 -0.015814 -0.002648
# 5 -0.004178 0.006366 -0.000965 -0.015814 0.030863 -0.008365
# 6 0.004433 0.004383 -0.000548 -0.002648 -0.008365 0.025337
#
#
# Mechanical properties :
#
#
# Convention : Reuss Voigt Hill
#
# Bulk Modulus (GPa) = 25.02523 46.51131 35.76827
# Shear Modulus (GPa) = 24.06923 37.38865 30.72894
#
# Velocity S-wave (km/s) = 3.31399 4.13037 3.74449
# Velocity P-wave (km/s) = 5.10510 6.63093 5.91740
#
# Compressibility (1/GPa) = 0.03995968
#
# Stress axis : x y z
#
# Youngs Moduli (GPa) = 62.31650 36.32920 81.72508
#
# Poissons Ratio (x) = 0.12298 0.05273
# Poissons Ratio (y) = 0.21096 0.31827
# Poissons Ratio (z) = 0.04021 0.14148
#
# Static dielectric constant tensor:
#      x y z
#    x 1.860530 0.001530 0.020960 
#    y 0.001530 1.856970 0.013930 
#    z 0.020960 0.013930 1.837570 
# 
# From -- ./inp_files/518871.got.cif
#   From: 2010.05.17/outbox.cif.g08.bks.cpg/sg2_260_cif.got.tgz:518871.got - 2010.06.03 11:33:40.
