data_PCOD9053134
_publ_section_title
;
Structure prediction by ZEFSAII (Michael W. Deem and Ramdas Pophale) SiO2 
 PCOD9053134
Probable space group: P -1
;
_chemical_formula_sum "Si O2"
_cell_formula_units_Z 16
_cell_length_a 8.671641
_cell_length_b 20.779649
_cell_length_c 19.750454
_cell_angle_alpha 23.340119
_cell_angle_beta 31.323912
_cell_angle_gamma 45.356380
_cell_volume 672.976313
_symmetry_space_group_name_H-M "P -1"
_symmetry_group_IT_number 2
_symmetry_cell_setting 'triclinic'
loop_
_space_group_symop_operation_xyz
x,y,z
-x,-y,-z
loop_
_atom_site_type_symbol
_atom_site_label
_atom_site_fract_x
_atom_site_fract_y
_atom_site_fract_z
Si Si1 0.482937 0.904405 0.669357
Si Si2 0.961660 0.760297 0.627732
Si Si3 0.038050 0.219748 0.231021
Si Si4 0.287687 0.517748 0.754811
Si Si5 0.470321 0.898254 0.904802
Si Si6 0.047970 0.931169 0.919884
Si Si7 0.040537 0.288675 0.607742
Si Si8 0.316126 0.468846 0.529146
O O1 0.166316 0.873288 0.861749
O O2 0.602778 0.747543 0.761464
O O3 0.500000 0.000000 0.500000
O O4 0.760421 0.038784 0.484731
O O5 0.101587 0.621043 0.686766
O O6 0.984154 0.753560 0.707682
O O7 0.223423 0.950317 0.320931
O O8 0.378969 0.211814 0.090732
O O9 0.027845 0.373358 0.038999
O O10 0.592055 0.626680 0.584172
O O11 0.445253 0.446254 0.705184
O O12 0.319725 0.992665 0.817374
O O13 0.198084 0.781984 0.170277
O O14 0.972746 0.105419 0.769273
O O15 0.814236 0.745292 0.220664
O O16 0.942452 0.439016 0.464726
O O17 0.500000 0.500000 0.500000
#
# Coordination Sequence:
#
# PCOD9053134 Si02
#       8
#     2   2   2   2   2   2   2   2
#     4  11  25  42  63  92 130 179 216 256 322 400
#     4  11  22  39  66  96 124 165 218 272 325 376
#     4  11  21  39  64  93 132 164 213 279 326 373
#     4  12  23  41  67 100 129 164 221 280 327 376
#     4  11  18  39  67  95 124 161 218 278 324 372
#     4  12  23  44  72  96 131 172 224 270 329 385
#     4  12  24  43  73 101 127 170 225 279 324 384
#     4  12  29  44  64 100 140 175 213 269 330 398
#
# _framework density 23.774982999999999
#
# number of rings (size 3 to 8) (size 9 to 14) (size 15 to 20)
#    0.000    0.500    6.250    3.375    1.750    1.500 
#    0.000    0.625    0.000    0.000    0.000    0.000 
#    0.000    0.000    0.000    0.000    0.000    0.000 
#
# Total GULP energy -89360.861405 kJ/mol
# GULP energy per Si atom -5585.053838 kJ/mol
# Density = 2.372087 g / cm^3
# Si number density = 23.774983 Si / 1000 Ang^3
#
#
#
# Elastic Constant Matrix: (Units=GPa)
#
#
# Indices 1 2 3 4 5 6 
#
# 1 60.4351 17.4131 -2.6260 -5.3856 14.4018 -9.0412
# 2 17.4131 108.5964 5.1728 -16.1166 -2.6410 -21.8753
# 3 -2.6260 5.1728 73.1158 1.2285 8.0341 4.5076
# 4 -5.3856 -16.1166 1.2285 39.1309 3.3365 10.9081
# 5 14.4018 -2.6410 8.0341 3.3365 25.7395 -4.5177
# 6 -9.0412 -21.8753 4.5076 10.9081 -4.5177 13.4749
#
#
#
# Elastic Compliance Matrix: (Units=1/GPa)
#
#
# Indices 1 2 3 4 5 6 
#
# 1 0.021058 -0.002886 0.002106 0.001846 -0.012435 0.003076
# 2 -0.002886 0.016063 -0.004326 -0.003469 0.010675 0.031975
# 3 0.002106 -0.004326 0.016199 0.003749 -0.010235 -0.017495
# 4 0.001846 -0.003469 0.003749 0.036682 -0.014362 -0.040157
# 5 -0.012435 0.010675 -0.010235 -0.014362 0.059692 0.044049
# 6 0.003076 0.031975 -0.017495 -0.040157 0.044049 0.181314
#
#
# Mechanical properties :
#
#
# Convention : Reuss Voigt Hill
#
# Bulk Modulus (GPa) = 23.19727 31.34080 27.26904
# Shear Modulus (GPa) = 14.06127 30.48154 22.27140
#
# Velocity S-wave (km/s) = 2.43457 3.58451 3.06397
# Velocity P-wave (km/s) = 4.20489 5.50840 4.90018
#
# Compressibility (1/GPa) = 0.04310851
#
# Stress axis : x y z
#
# Youngs Moduli (GPa) = 47.48870 62.25540 61.73265
#
# Poissons Ratio (x) = 0.17965 -0.13002
# Poissons Ratio (y) = 0.13703 0.26705
# Poissons Ratio (z) = -0.10002 0.26932
#
# Static dielectric constant tensor:
#      x y z
#    x 1.894000 -0.018930 -0.054510 
#    y -0.018930 2.068590 -0.059230 
#    z -0.054510 -0.059230 1.952660 
# 
# From -- ./inp_files/226262.got.cif
#   From: 2010.05.17/outbox.cif.g08.bks.cpg/sg2_114_cif.got.tgz:226262.got - 2010.06.03 11:33:40.
