data_PCOD9053248
_publ_section_title
;
Structure prediction by ZEFSAII (Michael W. Deem and Ramdas Pophale) SiO2 
 PCOD9053248
Probable space group: P -1
;
_chemical_formula_sum "Si O2"
_cell_formula_units_Z 16
_cell_length_a 7.098452
_cell_length_b 18.114662
_cell_length_c 12.565662
_cell_angle_alpha 141.337098
_cell_angle_beta 92.091357
_cell_angle_gamma 116.117831
_cell_volume 666.363889
_symmetry_space_group_name_H-M "P -1"
_symmetry_group_IT_number 2
_symmetry_cell_setting 'triclinic'
loop_
_space_group_symop_operation_xyz
x,y,z
-x,-y,-z
loop_
_atom_site_type_symbol
_atom_site_label
_atom_site_fract_x
_atom_site_fract_y
_atom_site_fract_z
Si Si1 0.199200 0.480048 0.071342
Si Si2 0.799852 0.728074 0.685007
Si Si3 0.198760 0.990555 0.564752
Si Si4 0.594931 0.679384 0.126351
Si Si5 0.631944 0.899096 0.935421
Si Si6 0.941083 0.313370 0.194274
Si Si7 0.363500 0.659767 0.479949
Si Si8 0.730646 0.116298 0.760366
O O1 0.293064 0.553835 0.036994
O O2 0.308201 0.632057 0.323859
O O3 0.370553 0.436745 0.045776
O O4 0.885021 0.291245 0.888028
O O5 0.747409 0.819317 0.861829
O O6 0.555692 0.635124 0.488590
O O7 0.842380 0.635084 0.654618
O O8 0.101798 0.890037 0.815535
O O9 0.321844 0.179407 0.795472
O O10 0.403077 0.997554 0.637985
O O11 0.251678 0.984790 0.433222
O O12 0.860756 0.814601 0.369633
O O13 0.364061 0.803397 0.892963
O O14 0.521869 0.841443 0.744995
O O15 0.071296 0.493064 0.347869
O O16 0.895079 0.199300 0.968173
#
# Coordination Sequence:
#
# PCOD9053248 Si02
#       8
#     2   2   2   2   2   2   2   2
#     4   9  18  34  52  77 107 134 171 215 262 302
#     4   9  20  36  53  76 108 142 172 222 258 304
#     4   9  18  37  51  77 105 133 173 214 263 306
#     4   9  18  33  56  77 100 138 173 213 257 320
#     4   9  20  36  52  77 106 142 174 218 258 313
#     4  11  19  35  55  79 104 144 176 214 264 310
#     4   9  19  35  51  76 109 139 173 220 255 310
#     4   9  20  34  52  75 107 133 172 220 254 312
#
# _framework density 24.010905999999999
#
# number of rings (size 3 to 8) (size 9 to 14) (size 15 to 20)
#    0.750    2.000    0.000    1.125    0.000    2.500 
#    9.000    1.250    0.000    0.000    0.000    0.000 
#    0.000    0.000    0.000    0.000    0.000    0.000 
#
# Total GULP energy -89146.696260 kJ/mol
# GULP energy per Si atom -5571.668516 kJ/mol
# Density = 2.395626 g / cm^3
# Si number density = 24.010906 Si / 1000 Ang^3
#
#
#
# Elastic Constant Matrix: (Units=GPa)
#
#
# Indices 1 2 3 4 5 6 
#
# 1 55.3773 15.6621 -8.9208 1.6380 7.7022 6.1563
# 2 15.6621 42.4889 13.2475 8.4783 1.6798 13.2576
# 3 -8.9208 13.2475 52.8447 -4.9083 7.6744 6.8442
# 4 1.6380 8.4783 -4.9083 24.2757 2.2261 4.9492
# 5 7.7022 1.6798 7.6744 2.2261 26.3355 8.9514
# 6 6.1563 13.2576 6.8442 4.9492 8.9514 20.9172
#
#
#
# Elastic Compliance Matrix: (Units=1/GPa)
#
#
# Indices 1 2 3 4 5 6 
#
# 1 0.024194 -0.012680 0.009053 0.005344 -0.009633 0.000811
# 2 -0.012680 0.040575 -0.012754 -0.012944 0.012807 -0.020230
# 3 0.009053 -0.012754 0.026222 0.010332 -0.009881 -0.001377
# 4 0.005344 -0.012944 0.010332 0.049178 -0.005915 -0.005854
# 5 -0.009633 0.012807 -0.009881 -0.005915 0.050989 -0.022470
# 6 0.000811 -0.020230 -0.001377 -0.005854 -0.022470 0.071842
#
#
# Mechanical properties :
#
#
# Convention : Reuss Voigt Hill
#
# Bulk Modulus (GPa) = 17.17353 21.18760 19.18057
# Shear Modulus (GPa) = 15.86440 23.02049 19.44245
#
# Velocity S-wave (km/s) = 2.57323 3.09973 2.84867
# Velocity P-wave (km/s) = 3.99957 4.65343 4.33884
#
# Compressibility (1/GPa) = 0.05822915
#
# Stress axis : x y z
#
# Youngs Moduli (GPa) = 41.33273 24.64589 38.13613
#
# Poissons Ratio (x) = 0.31250 -0.34525
# Poissons Ratio (y) = 0.52408 0.48639
# Poissons Ratio (z) = -0.37419 0.31434
#
# Static dielectric constant tensor:
#      x y z
#    x 1.961640 -0.003980 -0.004400 
#    y -0.003980 1.915900 0.021440 
#    z -0.004400 0.021440 1.911090 
# 
# From -- ./inp_files/404932.got.cif
#   From: 2010.05.17/outbox.cif.g08.bks.cpg/sg2_203_cif.got.tgz:404932.got - 2010.06.03 11:33:40.
