data_PCOD9053882
_publ_section_title
;
Structure prediction by ZEFSAII (Michael W. Deem and Ramdas Pophale) SiO2 
 PCOD9053882
Probable space group: P -1
;
_chemical_formula_sum "Si O2"
_cell_formula_units_Z 16
_cell_length_a 12.288336
_cell_length_b 12.103067
_cell_length_c 13.419656
_cell_angle_alpha 111.582374
_cell_angle_beta 76.839267
_cell_angle_gamma 42.072139
_cell_volume 740.101617
_symmetry_space_group_name_H-M "P -1"
_symmetry_group_IT_number 2
_symmetry_cell_setting 'triclinic'
loop_
_space_group_symop_operation_xyz
x,y,z
-x,-y,-z
loop_
_atom_site_type_symbol
_atom_site_label
_atom_site_fract_x
_atom_site_fract_y
_atom_site_fract_z
Si Si1 0.848877 0.590345 0.969092
Si Si2 0.796043 0.458504 0.621610
Si Si3 0.453987 0.416141 0.942195
Si Si4 0.234913 0.098520 0.276704
Si Si5 0.169446 0.715096 0.889632
Si Si6 0.638122 0.352699 0.530061
Si Si7 0.774415 0.889884 0.954765
Si Si8 0.015308 0.767528 0.281120
O O1 0.827982 0.707138 0.925327
O O2 0.534968 0.863244 0.157758
O O3 0.040783 0.295556 0.792431
O O4 0.000000 0.500000 0.000000
O O5 0.710313 0.413599 0.577269
O O6 0.992299 0.245921 0.605119
O O7 0.955076 0.394277 0.492701
O O8 0.519799 0.784706 0.832186
O O9 0.262371 0.605031 0.947954
O O10 0.722534 0.080312 0.756481
O O11 0.500000 0.500000 0.000000
O O12 0.327895 0.477216 0.086328
O O13 0.199926 0.140295 0.179709
O O14 0.436035 0.480817 0.690369
O O15 0.992984 0.774162 0.910733
O O16 0.000000 0.000000 0.000000
O O17 0.500000 0.500000 0.500000
O O18 0.881726 0.021018 0.361422
#
# Coordination Sequence:
#
# PCOD9053882 Si02
#       8
#     2   2   2   2   2   2   2   2
#     4  11  26  48  74  96 142 185 233 295 345 413
#     4  12  24  44  74 103 143 182 227 290 348 420
#     4  11  20  38  65  94 136 178 226 280 344 411
#     4  11  24  44  69 103 133 185 234 279 352 414
#     4  12  23  40  67  99 137 184 228 284 356 408
#     4  12  25  42  68 107 142 175 235 291 345 420
#     4  12  24  47  70 101 141 184 236 286 349 412
#     4  11  24  44  67  99 138 182 228 285 351 410
#
# _framework density 21.618652000000001
#
# number of rings (size 3 to 8) (size 9 to 14) (size 15 to 20)
#    0.000    0.500    3.750    6.750    1.750    0.500 
#    0.000    1.250    0.000    0.000    0.000    0.000 
#    0.000    0.000    0.000    0.000    0.000    0.000 
#
# Total GULP energy -89297.007540 kJ/mol
# GULP energy per Si atom -5581.062971 kJ/mol
# Density = 2.156945 g / cm^3
# Si number density = 21.618652 Si / 1000 Ang^3
#
#
#
# Elastic Constant Matrix: (Units=GPa)
#
#
# Indices 1 2 3 4 5 6 
#
# 1 71.6264 1.9428 17.8906 -21.9367 -6.5774 -15.1911
# 2 1.9428 85.8519 25.3579 -29.0574 3.0569 -8.0709
# 3 17.8906 25.3579 115.6222 -30.8377 -20.4537 -9.3636
# 4 -21.9367 -29.0574 -30.8377 35.7200 1.6010 7.8953
# 5 -6.5774 3.0569 -20.4537 1.6010 40.1755 -0.6403
# 6 -15.1911 -8.0709 -9.3636 7.8953 -0.6403 42.2190
#
#
#
# Elastic Compliance Matrix: (Units=1/GPa)
#
#
# Indices 1 2 3 4 5 6 
#
# 1 0.019813 0.005006 0.000976 0.015763 0.002818 0.005397
# 2 0.005006 0.017493 -0.000207 0.016751 -0.001254 0.001948
# 3 0.000976 -0.000207 0.012607 0.010775 0.006184 0.001186
# 4 0.015763 0.016751 0.010775 0.060401 0.004386 0.000035
# 5 0.002818 -0.001254 0.006184 0.004386 0.028449 0.001757
# 6 0.005397 0.001948 0.001186 0.000035 0.001757 0.026284
#
#
# Mechanical properties :
#
#
# Convention : Reuss Voigt Hill
#
# Bulk Modulus (GPa) = 16.27024 40.38701 28.32862
# Shear Modulus (GPa) = 28.73805 38.81685 33.77745
#
# Velocity S-wave (km/s) = 3.64994 4.24196 3.95704
# Velocity P-wave (km/s) = 5.03041 6.53563 5.83179
#
# Compressibility (1/GPa) = 0.06146192
#
# Stress axis : x y z
#
# Youngs Moduli (GPa) = 50.47222 57.16497 79.31996
#
# Poissons Ratio (x) = -0.28614 -0.07744
# Poissons Ratio (y) = -0.25264 0.01645
# Poissons Ratio (z) = -0.04927 0.01186
#
# Static dielectric constant tensor:
#      x y z
#    x 1.668630 -0.063930 -0.025550 
#    y -0.063930 1.743860 0.037360 
#    z -0.025550 0.037360 1.999930 
# 
# From -- ./inp_files/273802.got.cif
#   From: 2010.05.17/outbox.cif.g08.bks.cpg/sg2_137_cif.got.tgz:273802.got - 2010.06.03 11:33:40.
