data_PCOD9053110
_publ_section_title
;
Structure prediction by ZEFSAII (Michael W. Deem and Ramdas Pophale) SiO2 
 PCOD9053110
Probable space group: P -1
;
_chemical_formula_sum "Si O2"
_cell_formula_units_Z 16
_cell_length_a 14.589415
_cell_length_b 14.126397
_cell_length_c 13.932894
_cell_angle_alpha 32.542292
_cell_angle_beta 132.053459
_cell_angle_gamma 148.925446
_cell_volume 783.059253
_symmetry_space_group_name_H-M "P -1"
_symmetry_group_IT_number 2
_symmetry_cell_setting 'triclinic'
loop_
_space_group_symop_operation_xyz
x,y,z
-x,-y,-z
loop_
_atom_site_type_symbol
_atom_site_label
_atom_site_fract_x
_atom_site_fract_y
_atom_site_fract_z
Si Si1 0.589509 0.575832 0.894355
Si Si2 0.199448 0.762067 0.880392
Si Si3 0.512331 0.529117 0.597254
Si Si4 0.988177 0.958156 0.240091
Si Si5 0.759282 0.044209 0.047318
Si Si6 0.507012 0.914150 0.833044
Si Si7 0.894986 0.994324 0.511462
Si Si8 0.374181 0.618197 0.567478
O O1 0.496009 0.626422 0.717196
O O2 0.500000 0.500000 0.000000
O O3 0.544663 0.331256 0.035305
O O4 0.806548 0.834065 0.831847
O O5 0.342878 0.793671 0.895286
O O6 0.267010 0.898148 0.915465
O O7 0.157043 0.872849 0.681054
O O8 0.000000 0.500000 0.000000
O O9 0.500000 0.500000 0.500000
O O10 0.381737 0.259600 0.786055
O O11 0.705619 0.696788 0.635769
O O12 0.439180 0.639605 0.486019
O O13 0.936132 0.112430 0.086601
O O14 0.832286 0.676082 0.319809
O O15 0.001519 0.897214 0.409769
O O16 0.690270 0.094742 0.871212
O O17 0.561662 0.111214 0.618756
O O18 0.000000 0.000000 0.500000
#
# Coordination Sequence:
#
# PCOD9053110 Si02
#       8
#     2   2   2   2   2   2   2   2
#     4  12  27  51  78 100 134 185 234 298 360 406
#     4  12  25  35  57 102 141 187 235 270 340 412
#     4  11  18  37  61  92 133 182 223 266 337 405
#     4  11  22  45  71  99 142 179 232 287 345 422
#     4  11  22  39  63  95 138 186 220 274 347 408
#     4  12  24  46  68  99 147 179 237 295 339 421
#     4  12  21  35  62  93 136 186 226 270 334 412
#     4  11  24  46  69 104 134 177 232 288 352 412
#
# _framework density 20.432680999999999
#
# number of rings (size 3 to 8) (size 9 to 14) (size 15 to 20)
#    0.000    0.500    7.500    1.875    3.500    1.000 
#    2.250    0.625    0.000    0.000    0.000    0.000 
#    0.000    0.000    0.000    0.000    0.000    0.000 
#
# Total GULP energy -89090.647892 kJ/mol
# GULP energy per Si atom -5568.165493 kJ/mol
# Density = 2.038617 g / cm^3
# Si number density = 20.432681 Si / 1000 Ang^3
#
#
#
# Elastic Constant Matrix: (Units=GPa)
#
#
# Indices 1 2 3 4 5 6 
#
# 1 100.6010 40.2831 46.1528 4.5665 -6.6804 17.3584
# 2 40.2831 100.7018 33.7573 0.7440 1.3365 29.8790
# 3 46.1528 33.7573 114.0849 7.9775 6.1194 5.3324
# 4 4.5665 0.7440 7.9775 30.4178 3.0337 2.2454
# 5 -6.6804 1.3365 6.1194 3.0337 23.9334 -4.2288
# 6 17.3584 29.8790 5.3324 2.2454 -4.2288 24.0440
#
#
#
# Elastic Compliance Matrix: (Units=1/GPa)
#
#
# Indices 1 2 3 4 5 6 
#
# 1 0.014570 -0.002645 -0.005059 -0.000881 0.004701 -0.005200
# 2 -0.002645 0.018559 -0.003343 0.002922 -0.005104 -0.021582
# 3 -0.005059 -0.003343 0.011905 -0.002327 -0.003120 0.004835
# 4 -0.000881 0.002922 -0.002327 0.034573 -0.005372 -0.006653
# 5 0.004701 -0.005104 -0.003120 -0.005372 0.047053 0.012418
# 6 -0.005200 -0.021582 0.004835 -0.006653 0.012418 0.073897
#
#
# Mechanical properties :
#
#
# Convention : Reuss Voigt Hill
#
# Bulk Modulus (GPa) = 43.59355 61.75268 52.67311
# Shear Modulus (GPa) = 21.71093 28.69201 25.20147
#
# Velocity S-wave (km/s) = 3.26323 3.75136 3.51578
# Velocity P-wave (km/s) = 5.96488 7.00369 6.50505
#
# Compressibility (1/GPa) = 0.02293917
#
# Stress axis : x y z
#
# Youngs Moduli (GPa) = 68.63491 53.88246 83.99624
#
# Poissons Ratio (x) = 0.14254 0.42493
# Poissons Ratio (y) = 0.18156 0.28081
# Poissons Ratio (z) = 0.34722 0.18014
#
# Static dielectric constant tensor:
#      x y z
#    x 1.872380 -0.233050 0.228000 
#    y -0.233050 2.215380 -0.230220 
#    z 0.228000 -0.230220 2.123590 
# 
# From -- ./inp_files/534146.got.cif
#   From: 2010.05.17/outbox.cif.g08.bks.cpg/sg2_268_cif.got.tgz:534146.got - 2010.06.03 11:33:40.
