data_PCOD9053318
_publ_section_title
;
Structure prediction by ZEFSAII (Michael W. Deem and Ramdas Pophale) SiO2 
 PCOD9053318
Probable space group: P -1
;
_chemical_formula_sum "Si O2"
_cell_formula_units_Z 14
_cell_length_a 10.847584
_cell_length_b 9.082646
_cell_length_c 15.746564
_cell_angle_alpha 143.247954
_cell_angle_beta 129.780831
_cell_angle_gamma 37.943765
_cell_volume 570.666367
_symmetry_space_group_name_H-M "P -1"
_symmetry_group_IT_number 2
_symmetry_cell_setting 'triclinic'
loop_
_space_group_symop_operation_xyz
x,y,z
-x,-y,-z
loop_
_atom_site_type_symbol
_atom_site_label
_atom_site_fract_x
_atom_site_fract_y
_atom_site_fract_z
Si Si1 0.741401 0.347857 0.876583
Si Si2 0.399587 0.342198 0.643220
Si Si3 0.592875 0.180774 0.938932
Si Si4 0.317672 0.411758 0.322583
Si Si5 0.271776 0.737606 0.612547
Si Si6 0.909652 0.273318 0.170000
Si Si7 0.957591 0.541032 0.138505
O O1 0.592374 0.339598 0.745656
O O2 0.571345 0.688619 0.999955
O O3 0.913309 0.398204 0.974919
O O4 0.872673 0.008745 0.826105
O O5 0.262828 0.580614 0.618890
O O6 0.246659 0.462465 0.710622
O O7 0.500000 0.000000 0.500000
O O8 0.595587 0.933054 0.770158
O O9 0.500000 0.500000 0.000000
O O10 0.800506 0.111211 0.027835
O O11 0.201855 0.652084 0.458742
O O12 0.493623 0.424226 0.375569
O O13 0.182483 0.439580 0.198721
O O14 0.169052 0.091962 0.745688
O O15 0.915436 0.437794 0.163722
#
# Coordination Sequence:
#
# PCOD9053318 Si02
#       7
#     2   2   2   2   2   2   2
#     4  11  23  42  70 102 136 175 228 279 336 400
#     4  11  30  47  68  97 142 187 219 273 350 417
#     4  11  19  36  68 103 132 170 219 282 335 384
#     4  11  24  42  73 100 137 175 229 287 334 394
#     4  11  27  47  65 100 141 184 225 274 347 409
#     4  11  24  42  72 106 132 174 228 287 336 394
#     4  12  23  43  75 105 131 173 237 288 332 395
#
# _framework density 24.532722
#
# number of rings (size 3 to 8) (size 9 to 14) (size 15 to 20)
#    0.000    0.857    4.286    1.714   10.000    2.286 
#    0.000    1.429    0.000    0.000    0.000    0.000 
#    0.000    0.000    0.000    0.000    0.000    0.000 
#
# Total GULP energy -78035.916641 kJ/mol
# GULP energy per Si atom -5573.994046 kJ/mol
# Density = 2.447688 g / cm^3
# Si number density = 24.532722 Si / 1000 Ang^3
#
#
#
# Elastic Constant Matrix: (Units=GPa)
#
#
# Indices 1 2 3 4 5 6 
#
# 1 64.0460 8.3236 7.7118 12.1314 -4.1523 -1.3195
# 2 8.3236 71.8214 8.8328 16.8549 -9.0420 -9.9375
# 3 7.7118 8.8328 157.6400 18.5068 -11.2095 4.2705
# 4 12.1314 16.8549 18.5068 43.0451 -12.9162 12.0754
# 5 -4.1523 -9.0420 -11.2095 -12.9162 26.6984 -2.1612
# 6 -1.3195 -9.9375 4.2705 12.0754 -2.1612 24.4255
#
#
#
# Elastic Compliance Matrix: (Units=1/GPa)
#
#
# Indices 1 2 3 4 5 6 
#
# 1 0.016798 -0.000078 -0.000254 -0.005614 0.000063 0.003701
# 2 -0.000078 0.018312 -0.000025 -0.009952 0.002383 0.012581
# 3 -0.000254 -0.000025 0.006748 -0.002353 0.001656 0.000106
# 4 -0.005614 -0.009952 -0.002353 0.039671 0.012141 -0.022479
# 5 0.000063 0.002383 0.001656 0.012141 0.044731 -0.001361
# 6 0.003701 0.012581 0.000106 -0.022479 -0.001361 0.057233
#
#
# Mechanical properties :
#
#
# Convention : Reuss Voigt Hill
#
# Bulk Modulus (GPa) = 24.30517 38.13820 31.22168
# Shear Modulus (GPa) = 25.26234 36.74308 31.00271
#
# Velocity S-wave (km/s) = 3.21244 3.87423 3.55875
# Velocity P-wave (km/s) = 4.86708 5.96595 5.44431
#
# Compressibility (1/GPa) = 0.04114351
#
# Stress axis : x y z
#
# Youngs Moduli (GPa) = 59.53021 54.60961 148.18110
#
# Poissons Ratio (x) = 0.00427 0.03766
# Poissons Ratio (y) = 0.00465 0.00374
# Poissons Ratio (z) = 0.01513 0.00138
#
# Static dielectric constant tensor:
#      x y z
#    x 2.069000 -0.006220 0.002390 
#    y -0.006220 2.144890 -0.014710 
#    z 0.002390 -0.014710 1.917530 
# 
# From -- ./inp_files/567126.got.cif
#   From: 2010.05.17/outbox.cif.g08.bks.cpg/sg2_284_cif.got.tgz:567126.got - 2010.06.03 11:33:40.
