data_PCOD9053586
_publ_section_title
;
Structure prediction by ZEFSAII (Michael W. Deem and Ramdas Pophale) SiO2 
 PCOD9053586
Probable space group: P -1
;
_chemical_formula_sum "Si O2"
_cell_formula_units_Z 16
_cell_length_a 17.360112
_cell_length_b 8.716977
_cell_length_c 20.637647
_cell_angle_alpha 40.884132
_cell_angle_beta 150.700915
_cell_angle_gamma 144.982039
_cell_volume 867.218080
_symmetry_space_group_name_H-M "P -1"
_symmetry_group_IT_number 2
_symmetry_cell_setting 'triclinic'
loop_
_space_group_symop_operation_xyz
x,y,z
-x,-y,-z
loop_
_atom_site_type_symbol
_atom_site_label
_atom_site_fract_x
_atom_site_fract_y
_atom_site_fract_z
Si Si1 0.852681 0.474649 0.347687
Si Si2 0.655422 0.995563 0.029131
Si Si3 0.144325 0.012821 0.550187
Si Si4 0.030533 0.080812 0.300397
Si Si5 0.502552 0.571507 0.837070
Si Si6 0.198243 0.381478 0.206903
Si Si7 0.219321 0.948488 0.036407
Si Si8 0.477643 0.585836 0.237963
O O1 0.657947 0.383127 0.266369
O O2 0.000000 0.500000 0.500000
O O3 0.845780 0.263200 0.358126
O O4 0.933572 0.785658 0.289437
O O5 0.864548 0.144529 0.160616
O O6 0.540371 0.721062 0.072841
O O7 0.668922 0.918169 0.989749
O O8 0.583627 0.206344 0.902751
O O9 0.093302 0.063603 0.424224
O O10 0.337712 0.244451 0.641724
O O11 0.000000 0.000000 0.500000
O O12 0.190719 0.271301 0.308706
O O13 0.493622 0.553975 0.758763
O O14 0.694210 0.818091 0.921771
O O15 0.243635 0.690295 0.150341
O O16 0.331642 0.392242 0.245428
O O17 0.994173 0.193194 0.090034
#
# Coordination Sequence:
#
# PCOD9053586 Si02
#       8
#     2   2   2   2   2   2   2   2
#     4   9  18  34  56  79 105 138 179 224 273 319
#     4   9  18  35  56  84 109 140 184 230 273 317
#     4  11  22  38  59  84 110 140 177 230 283 322
#     4   9  19  37  60  80 111 147 182 220 268 331
#     4  11  20  33  55  84 111 144 183 228 277 318
#     4   9  19  36  53  78 108 148 184 217 269 325
#     4   9  18  33  55  76 108 144 184 227 270 323
#     4  11  22  34  54  83 118 145 181 226 267 324
#
# _framework density 18.4498
#
# number of rings (size 3 to 8) (size 9 to 14) (size 15 to 20)
#    0.000    2.250    0.000    5.250    0.000    3.000 
#    0.000    1.250    0.000    4.500    0.000    0.000 
#    0.000    0.000    0.000    0.000    0.000    0.000 
#
# Total GULP energy -89153.491409 kJ/mol
# GULP energy per Si atom -5572.093213 kJ/mol
# Density = 1.840781 g / cm^3
# Si number density = 18.449800 Si / 1000 Ang^3
#
#
#
# Elastic Constant Matrix: (Units=GPa)
#
#
# Indices 1 2 3 4 5 6 
#
# 1 140.4241 57.9745 33.6094 -2.5572 -10.3879 7.4452
# 2 57.9745 61.7539 17.2869 8.6671 -14.1221 11.6046
# 3 33.6094 17.2869 66.8354 -2.5129 -4.9352 0.0750
# 4 -2.5572 8.6671 -2.5129 19.9373 -2.5508 -3.5414
# 5 -10.3879 -14.1221 -4.9352 -2.5508 30.2411 1.0002
# 6 7.4452 11.6046 0.0750 -3.5414 1.0002 28.7303
#
#
#
# Elastic Compliance Matrix: (Units=1/GPa)
#
#
# Indices 1 2 3 4 5 6 
#
# 1 0.013372 -0.013780 -0.003008 0.007650 -0.001790 0.003114
# 2 -0.013780 0.038045 -0.002798 -0.019800 0.011390 -0.014626
# 3 -0.003008 -0.002798 0.017381 0.003517 0.000718 0.002273
# 4 0.007650 -0.019800 0.003517 0.062474 -0.001229 0.013749
# 5 -0.001790 0.011390 0.000718 -0.001229 0.037971 -0.005612
# 6 0.003114 -0.014626 0.002273 0.013749 -0.005612 0.041791
#
#
# Mechanical properties :
#
#
# Convention : Reuss Voigt Hill
#
# Bulk Modulus (GPa) = 33.75360 54.08389 43.91875
# Shear Modulus (GPa) = 19.22469 26.45791 22.84130
#
# Velocity S-wave (km/s) = 3.23150 3.79099 3.52237
# Velocity P-wave (km/s) = 5.67962 6.96706 6.35602
#
# Compressibility (1/GPa) = 0.02962647
#
# Stress axis : x y z
#
# Youngs Moduli (GPa) = 74.78208 26.28454 57.53324
#
# Poissons Ratio (x) = 0.36220 0.17308
# Poissons Ratio (y) = 1.03049 0.16097
# Poissons Ratio (z) = 0.22497 0.07354
#
# Static dielectric constant tensor:
#      x y z
#    x 1.646230 0.006660 0.005960 
#    y 0.006660 1.659280 -0.038740 
#    z 0.005960 -0.038740 1.700780 
# 
# From -- ./inp_files/348772.got.cif
#   From: 2010.05.17/outbox.cif.g08.bks.cpg/sg2_175_cif.got.tgz:348772.got - 2010.06.03 11:33:40.
