data_PCOD9053774
_publ_section_title
;
Structure prediction by ZEFSAII (Michael W. Deem and Ramdas Pophale) SiO2 
 PCOD9053774
Probable space group: P -1
;
_chemical_formula_sum "Si O2"
_cell_formula_units_Z 16
_cell_length_a 16.650071
_cell_length_b 11.917107
_cell_length_c 8.270886
_cell_angle_alpha 86.069163
_cell_angle_beta 126.764469
_cell_angle_gamma 53.393298
_cell_volume 791.377612
_symmetry_space_group_name_H-M "P -1"
_symmetry_group_IT_number 2
_symmetry_cell_setting 'triclinic'
loop_
_space_group_symop_operation_xyz
x,y,z
-x,-y,-z
loop_
_atom_site_type_symbol
_atom_site_label
_atom_site_fract_x
_atom_site_fract_y
_atom_site_fract_z
Si Si1 0.490334 0.567575 0.239873
Si Si2 0.998737 0.818248 0.116544
Si Si3 0.459594 0.383333 0.039750
Si Si4 0.151830 0.452676 0.197741
Si Si5 0.785170 0.171890 0.600169
Si Si6 0.407907 0.239399 0.240691
Si Si7 0.479273 0.071987 0.793105
Si Si8 0.665621 0.084958 0.839602
O O1 0.392941 0.553129 0.037407
O O2 0.649898 0.362085 0.529147
O O3 0.379049 0.747067 0.192483
O O4 0.566301 0.575257 0.184209
O O5 0.095447 0.626617 0.174043
O O6 0.102847 0.825006 0.326324
O O7 0.897118 0.980266 0.842541
O O8 0.857596 0.895822 0.055310
O O9 0.659321 0.220142 0.324288
O O10 0.395959 0.332166 0.062210
O O11 0.245860 0.379513 0.145165
O O12 0.293110 0.277344 0.505512
O O13 0.000000 0.500000 0.000000
O O14 0.462039 0.071051 0.254661
O O15 0.555310 0.151581 0.543625
O O16 0.599438 0.069687 0.908700
O O17 0.500000 0.000000 0.000000
#
# Coordination Sequence:
#
# PCOD9053774 Si02
#       8
#     2   2   2   2   2   2   2   2
#     4   9  19  36  60  84 119 157 197 242 287 341
#     4  11  21  35  57  89 121 153 190 246 295 342
#     4   9  19  36  61  84 119 148 202 242 284 346
#     4  11  24  41  62  88 122 152 197 252 299 348
#     4   9  19  35  57  82 121 153 194 237 291 343
#     4  11  21  38  64  88 111 157 205 240 283 360
#     4  11  24  42  67  86 116 155 201 248 299 352
#     4  11  20  37  61  89 116 156 206 239 285 363
#
# _framework density 20.217908999999999
#
# number of rings (size 3 to 8) (size 9 to 14) (size 15 to 20)
#    0.750    1.000    1.250    5.250    0.000    4.000 
#    0.000    4.375    0.000    0.000    0.000    0.000 
#    0.000    0.000    0.000    0.000    0.000    0.000 
#
# Total GULP energy -89182.529506 kJ/mol
# GULP energy per Si atom -5573.908094 kJ/mol
# Density = 2.017189 g / cm^3
# Si number density = 20.217909 Si / 1000 Ang^3
#
#
#
# Elastic Constant Matrix: (Units=GPa)
#
#
# Indices 1 2 3 4 5 6 
#
# 1 120.2619 29.0247 60.2667 -8.8929 -5.4979 3.1762
# 2 29.0247 129.0615 31.8033 -32.4555 -1.5009 4.8557
# 3 60.2667 31.8033 92.0475 -20.5426 -9.1471 -6.1511
# 4 -8.8929 -32.4555 -20.5426 30.3525 2.9845 -0.8532
# 5 -5.4979 -1.5009 -9.1471 2.9845 39.1788 -5.5015
# 6 3.1762 4.8557 -6.1511 -0.8532 -5.5015 21.6698
#
#
#
# Elastic Compliance Matrix: (Units=1/GPa)
#
#
# Indices 1 2 3 4 5 6 
#
# 1 0.013186 -0.001539 -0.009425 -0.004218 -0.000736 -0.004616
# 2 -0.001539 0.011097 -0.000626 0.011035 -0.001098 -0.002283
# 3 -0.009425 -0.000626 0.020525 0.010325 0.003886 0.008741
# 4 -0.004218 0.011035 0.010325 0.050697 -0.001233 0.002759
# 5 -0.000736 -0.001098 0.003886 -0.001233 0.027560 0.008406
# 6 -0.004616 -0.002283 0.008741 0.002759 0.008406 0.052059
#
#
# Mechanical properties :
#
#
# Convention : Reuss Voigt Hill
#
# Bulk Modulus (GPa) = 46.23136 64.84004 55.53570
# Shear Modulus (GPa) = 24.32958 32.92528 28.62743
#
# Velocity S-wave (km/s) = 3.47272 4.03987 3.76699
# Velocity P-wave (km/s) = 6.24467 7.34173 6.81531
#
# Compressibility (1/GPa) = 0.02163034
#
# Stress axis : x y z
#
# Youngs Moduli (GPa) = 75.83931 90.11824 48.72055
#
# Poissons Ratio (x) = 0.13865 0.45917
# Poissons Ratio (y) = 0.11668 0.03048
# Poissons Ratio (z) = 0.71475 0.05638
#
# Static dielectric constant tensor:
#      x y z
#    x 1.790130 0.030780 -0.018780 
#    y 0.030780 1.729640 -0.002970 
#    z -0.018780 -0.002970 1.745610 
# 
# From -- ./inp_files/333266.got.cif
#   From: 2010.05.17/outbox.cif.g08.bks.cpg/sg2_167_cif.got.tgz:333266.got - 2010.06.03 11:33:40.
