data_PCOD9053663
_publ_section_title
;
Structure prediction by ZEFSAII (Michael W. Deem and Ramdas Pophale) SiO2 
 PCOD9053663
Probable space group: P -1
;
_chemical_formula_sum "Si O2"
_cell_formula_units_Z 16
_cell_length_a 19.150708
_cell_length_b 22.494252
_cell_length_c 12.055825
_cell_angle_alpha 28.912107
_cell_angle_beta 143.222416
_cell_angle_gamma 161.783464
_cell_volume 768.738042
_symmetry_space_group_name_H-M "P -1"
_symmetry_group_IT_number 2
_symmetry_cell_setting 'triclinic'
loop_
_space_group_symop_operation_xyz
x,y,z
-x,-y,-z
loop_
_atom_site_type_symbol
_atom_site_label
_atom_site_fract_x
_atom_site_fract_y
_atom_site_fract_z
Si Si1 0.561508 0.302010 0.745355
Si Si2 0.801843 0.466576 0.453937
Si Si3 0.670503 0.909011 0.423151
Si Si4 0.162693 0.662241 0.090986
Si Si5 0.066585 0.157294 0.664810
Si Si6 0.151802 0.974409 0.161156
Si Si7 0.614677 0.265403 0.311478
Si Si8 0.649085 0.225928 0.176726
O O1 0.367798 0.158034 0.645064
O O2 0.707084 0.329580 0.818873
O O3 0.717960 0.561202 0.544122
O O4 0.510263 0.191575 0.977049
O O5 0.569402 0.321749 0.439228
O O6 0.805016 0.341910 0.730627
O O7 0.784304 0.441387 0.341068
O O8 0.024602 0.742878 0.323423
O O9 0.866428 0.007830 0.568700
O O10 0.740480 0.116703 0.177099
O O11 0.894546 0.416241 0.126521
O O12 0.977462 0.115577 0.741436
O O13 0.127567 0.069822 0.895318
O O14 0.410968 0.179267 0.186864
O O15 0.705934 0.336949 0.186451
O O16 0.492677 0.025539 0.575712
#
# Coordination Sequence:
#
# PCOD9053663 Si02
#       8
#     2   2   2   2   2   2   2   2
#     4  11  21  38  60  91 117 151 192 244 297 340
#     4  11  21  37  60  88 120 154 188 235 304 342
#     4  11  21  34  60  91 118 146 186 245 299 345
#     4  11  20  35  61  91 120 144 186 248 296 345
#     4  11  22  37  63  86 118 151 198 245 291 336
#     4  11  23  40  58  88 120 154 195 243 285 346
#     4  11  23  41  58  86 123 157 192 235 286 355
#     4  11  22  38  64  86 117 161 191 232 297 351
#
# _framework density 20.813331999999999
#
# number of rings (size 3 to 8) (size 9 to 14) (size 15 to 20)
#    0.000    1.000    6.250    3.375    0.000    2.000 
#    2.250    0.625    0.000    1.500    0.000    0.000 
#    0.000    0.000    0.000    0.000    0.000    0.000 
#
# Total GULP energy -89447.134218 kJ/mol
# GULP energy per Si atom -5590.445889 kJ/mol
# Density = 2.076596 g / cm^3
# Si number density = 20.813332 Si / 1000 Ang^3
#
#
#
# Elastic Constant Matrix: (Units=GPa)
#
#
# Indices 1 2 3 4 5 6 
#
# 1 36.6260 3.3623 -0.2421 9.8513 -13.0759 -19.1565
# 2 3.3623 84.5629 25.5287 24.6772 -7.7409 -34.9360
# 3 -0.2421 25.5287 72.6890 33.7348 -8.5872 4.6044
# 4 9.8513 24.6772 33.7348 33.5390 -4.1859 -14.8819
# 5 -13.0759 -7.7409 -8.5872 -4.1859 12.4893 13.7825
# 6 -19.1565 -34.9360 4.6044 -14.8819 13.7825 24.2156
#
#
#
# Elastic Compliance Matrix: (Units=1/GPa)
#
#
# Indices 1 2 3 4 5 6 
#
# 1 0.062192 0.013064 0.014581 -0.028597 0.056498 0.015544
# 2 0.013064 0.012680 0.015681 -0.031073 0.039460 -0.015909
# 3 0.014581 0.015681 0.003531 -0.002028 -0.023783 0.045776
# 4 -0.028597 -0.031073 -0.002028 0.041539 0.024650 -0.055568
# 5 0.056498 0.039460 -0.023783 0.024650 0.058436 0.088035
# 6 0.015544 -0.015909 0.045776 -0.055568 0.088035 -0.062319
#
#
# Mechanical properties :
#
#
# Convention : Reuss Voigt Hill
#
# Bulk Modulus (GPa) = 6.05863 27.90839 16.98351
# Shear Modulus (GPa) = 59.22402 25.06405 42.14403
#
# Velocity S-wave (km/s) = 5.34010 3.47397 4.50472
# Velocity P-wave (km/s) = 6.39839 5.43408 5.93585
#
# Compressibility (1/GPa) = 0.16505395
#
# Stress axis : x y z
#
# Youngs Moduli (GPa) = 16.07917 78.86675 283.23123
#
# Poissons Ratio (x) = -1.03034 -4.12967
# Poissons Ratio (y) = -0.21006 -4.44129
# Poissons Ratio (z) = -0.23444 -1.23669
#
# Static dielectric constant tensor:
#      x y z
#    x 1.780160 -0.004650 -0.033890 
#    y -0.004650 1.760520 0.020320 
#    z -0.033890 0.020320 1.737410 
# 
# From -- ./inp_files/270563.got.cif
#   From: 2010.05.17/outbox.cif.g08.bks.cpg/sg2_136_cif.got.tgz:270563.got - 2010.06.03 11:33:40.
