data_PCOD9053088
_publ_section_title
;
Structure prediction by ZEFSAII (Michael W. Deem and Ramdas Pophale) SiO2 
 PCOD9053088
Probable space group: P -1
;
_chemical_formula_sum "Si O2"
_cell_formula_units_Z 16
_cell_length_a 11.989139
_cell_length_b 16.332195
_cell_length_c 5.595356
_cell_angle_alpha 76.238859
_cell_angle_beta 104.708821
_cell_angle_gamma 139.528329
_cell_volume 686.084536
_symmetry_space_group_name_H-M "P -1"
_symmetry_group_IT_number 2
_symmetry_cell_setting 'triclinic'
loop_
_space_group_symop_operation_xyz
x,y,z
-x,-y,-z
loop_
_atom_site_type_symbol
_atom_site_label
_atom_site_fract_x
_atom_site_fract_y
_atom_site_fract_z
Si Si1 0.002487 0.175085 0.501049
Si Si2 0.841333 0.931282 0.789765
Si Si3 0.782228 0.297940 0.974267
Si Si4 0.945163 0.537557 0.637778
Si Si5 0.514501 0.757543 0.038964
Si Si6 0.353656 0.306746 0.458170
Si Si7 0.985439 0.256258 0.936903
Si Si8 0.325202 0.514827 0.779654
O O1 0.212736 0.282365 0.545737
O O2 0.951744 0.190162 0.213024
O O3 0.954266 0.190860 0.717903
O O4 0.908122 0.033391 0.560285
O O5 0.683409 0.876794 0.902868
O O6 0.768780 0.807160 0.719333
O O7 0.000000 0.000000 0.000000
O O8 0.582219 0.209935 0.953124
O O9 0.882112 0.330404 0.249587
O O10 0.863501 0.273137 0.860496
O O11 0.846565 0.427239 0.853913
O O12 0.809270 0.527799 0.465659
O O13 0.000000 0.500000 0.500000
O O14 0.400260 0.637262 0.877555
O O15 0.565219 0.721735 0.307163
O O16 0.508974 0.433606 0.303112
O O17 0.191849 0.391978 0.960720
#
# Coordination Sequence:
#
# PCOD9053088 Si02
#       8
#     2   2   2   2   2   2   2   2
#     4  12  28  48  69 101 138 196 235 275 355 426
#     4  11  24  48  77 100 128 175 247 307 344 388
#     4  11  22  38  64 103 138 186 230 280 345 404
#     4  11  18  35  67  94 139 183 234 282 322 406
#     4  11  23  40  74 108 130 168 242 311 338 384
#     4  11  25  43  76 103 133 170 241 312 340 392
#     4  12  28  44  69  98 156 196 218 265 350 462
#     4  11  23  40  67 110 140 181 227 285 356 404
#
# _framework density 23.320741000000002
#
# number of rings (size 3 to 8) (size 9 to 14) (size 15 to 20)
#    0.000    0.750    5.000    2.625    5.250    1.000 
#    0.000    1.250    0.000    0.000    0.000    0.000 
#    0.000    0.000    0.000    0.000    0.000    0.000 
#
# Total GULP energy -89434.161721 kJ/mol
# GULP energy per Si atom -5589.635108 kJ/mol
# Density = 2.326766 g / cm^3
# Si number density = 23.320741 Si / 1000 Ang^3
#
#
#
# Elastic Constant Matrix: (Units=GPa)
#
#
# Indices 1 2 3 4 5 6 
#
# 1 102.3943 -5.6203 17.1570 6.0858 -21.9381 15.2728
# 2 -5.6203 63.0693 15.5866 -15.4415 0.3263 6.2937
# 3 17.1570 15.5866 113.5416 -4.8713 6.5611 0.8189
# 4 6.0858 -15.4415 -4.8713 47.4331 1.4712 -3.9881
# 5 -21.9381 0.3263 6.5611 1.4712 43.4352 -3.7524
# 6 15.2728 6.2937 0.8189 -3.9881 -3.7524 29.9858
#
#
#
# Elastic Compliance Matrix: (Units=1/GPa)
#
#
# Indices 1 2 3 4 5 6 
#
# 1 0.012712 0.001873 -0.002584 -0.002010 0.006323 -0.006273
# 2 0.001873 0.018302 -0.002588 0.005098 0.000684 -0.003961
# 3 -0.002584 -0.002588 0.009726 0.000684 -0.002661 0.001352
# 4 -0.002010 0.005098 0.000684 0.023361 -0.001704 0.002829
# 5 0.006323 0.000684 -0.002661 -0.001704 0.026655 -0.000182
# 6 -0.006273 -0.003961 0.001352 0.002829 -0.000182 0.037692
#
#
# Mechanical properties :
#
#
# Convention : Reuss Voigt Hill
#
# Bulk Modulus (GPa) = 29.29003 37.02796 33.15899
# Shear Modulus (GPa) = 34.14666 40.96295 37.55481
#
# Velocity S-wave (km/s) = 3.83066 4.19561 4.01728
# Velocity P-wave (km/s) = 5.67029 6.27559 5.98060
#
# Compressibility (1/GPa) = 0.03414132
#
# Stress axis : x y z
#
# Youngs Moduli (GPa) = 78.66695 54.63965 102.81221
#
# Poissons Ratio (x) = -0.10232 0.26570
# Poissons Ratio (y) = -0.14731 0.26604
# Poissons Ratio (z) = 0.20330 0.14139
#
# Static dielectric constant tensor:
#      x y z
#    x 1.993030 0.003420 -0.012710 
#    y 0.003420 1.884350 -0.027720 
#    z -0.012710 -0.027720 1.917650 
# 
# From -- ./inp_files/80498.got.cif
#   From: 2010.05.17/outbox.cif.g08.bks.cpg/sg2_41_cif.got.tgz:80498.got - 2010.06.03 11:33:40.
