data_PCOD9053931
_publ_section_title
;
Structure prediction by ZEFSAII (Michael W. Deem and Ramdas Pophale) SiO2 
 PCOD9053931
Probable space group: P -1
;
_chemical_formula_sum "Si O2"
_cell_formula_units_Z 16
_cell_length_a 14.053523
_cell_length_b 9.454244
_cell_length_c 12.126328
_cell_angle_alpha 35.510643
_cell_angle_beta 68.493826
_cell_angle_gamma 88.581964
_cell_volume 750.798682
_symmetry_space_group_name_H-M "P -1"
_symmetry_group_IT_number 2
_symmetry_cell_setting 'triclinic'
loop_
_space_group_symop_operation_xyz
x,y,z
-x,-y,-z
loop_
_atom_site_type_symbol
_atom_site_label
_atom_site_fract_x
_atom_site_fract_y
_atom_site_fract_z
Si Si1 0.624681 0.012009 0.948239
Si Si2 0.609697 0.777099 0.328624
Si Si3 0.139174 0.436365 0.830284
Si Si4 0.321846 0.407376 0.927656
Si Si5 0.740446 0.903176 0.617973
Si Si6 0.111581 0.932696 0.743587
Si Si7 0.360220 0.992229 0.598122
Si Si8 0.191946 0.383802 0.603848
O O1 0.732491 0.290264 0.671505
O O2 0.612101 0.737327 0.066797
O O3 0.500000 0.000000 0.000000
O O4 0.649476 0.008354 0.069614
O O5 0.500000 0.500000 0.500000
O O6 0.710044 0.699513 0.354908
O O7 0.582299 0.869581 0.397976
O O8 0.219672 0.774588 0.574583
O O9 0.118612 0.337374 0.775498
O O10 0.213455 0.334320 0.936369
O O11 0.016262 0.330334 0.012014
O O12 0.285702 0.274684 0.148834
O O13 0.382170 0.743081 0.709320
O O14 0.850630 0.936272 0.477803
O O15 0.632405 0.810920 0.633754
O O16 0.217157 0.862406 0.766005
O O17 0.122470 0.177998 0.663532
#
# Coordination Sequence:
#
# PCOD9053931 Si02
#       8
#     2   2   2   2   2   2   2   2
#     4  12  25  41  67  90 118 164 210 256 317 365
#     4  11  22  42  69  89 115 165 210 257 316 367
#     4  11  20  39  62  93 127 166 211 243 306 365
#     4  11  22  39  64  93 123 164 204 260 300 372
#     4   9  20  37  59  90 132 158 201 248 307 356
#     4   9  21  39  62  92 128 170 196 255 306 360
#     4   8  22  40  63  90 127 155 201 255 305 371
#     4  11  22  41  63  89 132 158 208 261 302 364
#
# _framework density 21.310638999999998
#
# number of rings (size 3 to 8) (size 9 to 14) (size 15 to 20)
#    0.750    1.000    3.750    0.750    1.750    0.500 
#    0.000    1.875    2.750    0.000    0.000    0.000 
#    0.000    0.000    0.000    0.000    0.000    0.000 
#
# Total GULP energy -89258.085311 kJ/mol
# GULP energy per Si atom -5578.630332 kJ/mol
# Density = 2.126214 g / cm^3
# Si number density = 21.310639 Si / 1000 Ang^3
#
#
#
# Elastic Constant Matrix: (Units=GPa)
#
#
# Indices 1 2 3 4 5 6 
#
# 1 38.9665 22.1970 32.3796 4.4371 9.1768 -7.6620
# 2 22.1970 135.5878 36.7274 22.5085 11.6183 -13.2072
# 3 32.3796 36.7274 109.6807 26.8933 20.4766 2.8893
# 4 4.4371 22.5085 26.8933 39.0700 5.6708 4.2363
# 5 9.1768 11.6183 20.4766 5.6708 25.6715 7.7780
# 6 -7.6620 -13.2072 2.8893 4.2363 7.7780 28.1347
#
#
#
# Elastic Compliance Matrix: (Units=1/GPa)
#
#
# Indices 1 2 3 4 5 6 
#
# 1 0.040173 -0.002270 -0.010625 0.004054 -0.009704 0.013038
# 2 -0.002270 0.009636 -0.000873 -0.004799 -0.003517 0.005689
# 3 -0.010625 -0.000873 0.015663 -0.007989 -0.005906 -0.002076
# 4 0.004054 -0.004799 -0.007989 0.033827 0.001381 -0.005803
# 5 -0.009704 -0.003517 -0.005906 0.001381 0.054134 -0.018861
# 6 0.013038 0.005689 -0.002076 -0.005803 -0.018861 0.048066
#
#
# Mechanical properties :
#
#
# Convention : Reuss Voigt Hill
#
# Bulk Modulus (GPa) = 26.36152 51.87147 39.11649
# Shear Modulus (GPa) = 20.68846 31.43730 26.06288
#
# Velocity S-wave (km/s) = 3.11915 3.84499 3.50093
# Velocity P-wave (km/s) = 5.03678 6.64119 5.89383
#
# Compressibility (1/GPa) = 0.03793408
#
# Stress axis : x y z
#
# Youngs Moduli (GPa) = 24.89244 103.78197 63.84566
#
# Poissons Ratio (x) = 0.23558 0.67839
# Poissons Ratio (y) = 0.05651 0.05574
# Poissons Ratio (z) = 0.26449 0.09061
#
# Static dielectric constant tensor:
#      x y z
#    x 1.780870 0.032460 -0.026290 
#    y 0.032460 1.827810 -0.006120 
#    z -0.026290 -0.006120 1.793000 
# 
# From -- ./inp_files/446632.got.cif
#   From: 2010.05.17/outbox.cif.g08.bks.cpg/sg2_224_cif.got.tgz:446632.got - 2010.06.03 11:33:40.
