data_PCOD9053949
_publ_section_title
;
Structure prediction by ZEFSAII (Michael W. Deem and Ramdas Pophale) SiO2 
 PCOD9053949
Probable space group: P -1
;
_chemical_formula_sum "Si O2"
_cell_formula_units_Z 15
_cell_length_a 11.483881
_cell_length_b 13.424037
_cell_length_c 14.713583
_cell_angle_alpha 42.360945
_cell_angle_beta 148.465424
_cell_angle_gamma 125.067243
_cell_volume 789.454912
_symmetry_space_group_name_H-M "P -1"
_symmetry_group_IT_number 2
_symmetry_cell_setting 'triclinic'
loop_
_space_group_symop_operation_xyz
x,y,z
-x,-y,-z
loop_
_atom_site_type_symbol
_atom_site_label
_atom_site_fract_x
_atom_site_fract_y
_atom_site_fract_z
Si Si1 0.142065 0.386461 0.011045
Si Si2 0.997770 0.187967 0.208341
Si Si3 0.574314 0.427075 0.798033
Si Si4 0.185981 0.310922 0.431250
Si Si5 0.435724 0.332158 0.068160
Si Si6 0.500000 0.500000 0.500000
Si Si7 0.170559 0.349198 0.695292
Si Si8 0.060596 0.834550 0.470373
O O1 0.308911 0.481069 0.110220
O O2 0.262551 0.325131 0.040451
O O3 0.082545 0.262336 0.124076
O O4 0.915261 0.507851 0.760255
O O5 0.135922 0.231347 0.358712
O O6 0.749264 0.275710 0.003217
O O7 0.011213 0.012159 0.326179
O O8 0.543993 0.524332 0.621455
O O9 0.342202 0.390939 0.705914
O O10 0.444177 0.328072 0.603663
O O11 0.059819 0.238916 0.476440
O O12 0.672048 0.223403 0.308350
O O13 0.500000 0.500000 0.000000
O O14 0.312879 0.305437 0.910432
O O15 0.000000 0.500000 0.500000
O O16 0.037634 0.226303 0.646187
#
# Coordination Sequence:
#
# PCOD9053949 Si02
#       8
#     2   2   2   2   2   1   2   2
#     4  11  20  41  65  84 123 165 208 257 301 367
#     4  11  24  41  60  92 132 166 197 256 327 375
#     4  11  21  38  64  93 124 160 211 257 308 370
#     4  11  20  39  64  90 123 161 207 253 306 377
#     4  12  22  41  66  91 117 165 219 257 304 367
#     4  12  20  34  64 100 116 156 216 254 302 368
#     4  12  23  40  66  94 120 163 218 263 300 368
#     4  12  25  42  63  94 130 166 203 261 321 370
#
# _framework density 19.000453
#
# number of rings (size 3 to 8) (size 9 to 14) (size 15 to 20)
#    0.000    0.533    8.000    2.000    0.000    1.067 
#    2.400    0.667    0.000    0.000    0.000    0.000 
#    0.000    0.000    0.000    0.000    0.000    0.000 
#
# Total GULP energy -83586.331176 kJ/mol
# GULP energy per Si atom -5572.422078 kJ/mol
# Density = 1.895721 g / cm^3
# Si number density = 19.000453 Si / 1000 Ang^3
#
#
#
# Elastic Constant Matrix: (Units=GPa)
#
#
# Indices 1 2 3 4 5 6 
#
# 1 135.6787 48.2364 38.8829 -17.8830 -1.7150 -3.4789
# 2 48.2364 103.4078 46.9614 -6.9453 -6.6353 -17.1278
# 3 38.8829 46.9614 58.7570 4.8082 -9.4152 -8.9362
# 4 -17.8830 -6.9453 4.8082 32.5645 -2.8253 -11.7937
# 5 -1.7150 -6.6353 -9.4152 -2.8253 28.9654 8.3390
# 6 -3.4789 -17.1278 -8.9362 -11.7937 8.3390 22.4551
#
#
#
# Elastic Compliance Matrix: (Units=1/GPa)
#
#
# Indices 1 2 3 4 5 6 
#
# 1 0.010717 -0.001126 -0.006683 0.007469 -0.001860 0.002756
# 2 -0.001126 0.019972 -0.014209 0.011520 -0.003847 0.016884
# 3 -0.006683 -0.014209 0.033968 -0.014239 0.008601 -0.009028
# 4 0.007469 0.011520 -0.014239 0.050894 -0.006170 0.033299
# 5 -0.001860 -0.003847 0.008601 -0.006170 0.040983 -0.018260
# 6 0.002756 0.016884 -0.009028 0.033299 -0.018260 0.078516
#
#
# Mechanical properties :
#
#
# Convention : Reuss Voigt Hill
#
# Bulk Modulus (GPa) = 48.48956 62.88945 55.68951
# Shear Modulus (GPa) = 17.48500 27.71453 22.59976
#
# Velocity S-wave (km/s) = 3.03684 3.82334 3.45256
# Velocity P-wave (km/s) = 6.15403 7.25681 6.72806
#
# Compressibility (1/GPa) = 0.02062300
#
# Stress axis : x y z
#
# Youngs Moduli (GPa) = 93.30775 50.07069 29.43916
#
# Poissons Ratio (x) = 0.05636 0.19673
# Poissons Ratio (y) = 0.10503 0.41830
# Poissons Ratio (z) = 0.62355 0.71145
#
# Static dielectric constant tensor:
#      x y z
#    x 1.432210 -0.097400 -0.274280 
#    y -0.097400 1.522900 -0.115250 
#    z -0.274280 -0.115250 1.362000 
# 
# From -- ./inp_files/220546.got.cif
#   From: 2010.05.17/outbox.cif.g08.bks.cpg/sg2_111_cif.got.tgz:220546.got - 2010.06.03 11:33:40.
