data_PCOD9053244
_publ_section_title
;
Structure prediction by ZEFSAII (Michael W. Deem and Ramdas Pophale) SiO2 
 PCOD9053244
Probable space group: P -1
;
_chemical_formula_sum "Si O2"
_cell_formula_units_Z 16
_cell_length_a 5.975951
_cell_length_b 13.209258
_cell_length_c 11.437924
_cell_angle_alpha 70.051797
_cell_angle_beta 91.811229
_cell_angle_gamma 122.649976
_cell_volume 701.218814
_symmetry_space_group_name_H-M "P -1"
_symmetry_group_IT_number 2
_symmetry_cell_setting 'triclinic'
loop_
_space_group_symop_operation_xyz
x,y,z
-x,-y,-z
loop_
_atom_site_type_symbol
_atom_site_label
_atom_site_fract_x
_atom_site_fract_y
_atom_site_fract_z
Si Si1 0.571594 0.893104 0.561037
Si Si2 0.935482 0.787213 0.813576
Si Si3 0.879330 0.063058 0.893774
Si Si4 0.633493 0.392488 0.006296
Si Si5 0.705646 0.196885 0.005380
Si Si6 0.804044 0.407975 0.264225
Si Si7 0.903639 0.943877 0.331101
Si Si8 0.671811 0.569523 0.737971
O O1 0.362667 0.749575 0.664471
O O2 0.664536 0.866933 0.448998
O O3 0.500000 0.000000 0.500000
O O4 0.823475 0.971138 0.622379
O O5 0.850354 0.724596 0.709433
O O6 0.113216 0.749113 0.897667
O O7 0.116804 0.941498 0.764934
O O8 0.658022 0.724729 0.902820
O O9 0.045169 0.117358 0.754727
O O10 0.573034 0.939381 0.916826
O O11 0.858304 0.168447 0.922087
O O12 0.000000 0.000000 0.000000
O O13 0.616370 0.498294 0.891485
O O14 0.670872 0.312552 0.936205
O O15 0.808876 0.440570 0.111615
O O16 0.615692 0.454642 0.296874
O O17 0.102395 0.453006 0.300844
#
# Coordination Sequence:
#
# PCOD9053244 Si02
#       8
#     2   2   2   2   2   2   2   2
#     4  11  24  35  58  82 119 164 202 238 300 361
#     4  11  19  35  53  80 124 153 192 242 293 359
#     4  11  22  38  55  83 116 160 198 249 302 355
#     4  11  21  34  54  85 118 159 192 246 301 365
#     4  11  21  32  58  80 116 157 194 238 305 354
#     4  11  21  38  52  83 120 156 196 248 292 361
#     4  11  22  37  54  84 116 159 199 244 296 362
#     4  11  23  34  59  84 123 158 200 241 313 363
#
# _framework density 22.817416000000001
#
# number of rings (size 3 to 8) (size 9 to 14) (size 15 to 20)
#    0.000    1.000    6.250    2.625    5.250    0.000 
#    0.000    0.000    0.000    0.000    0.000    1.750 
#    0.000    0.000    0.000    0.000    0.000    0.000 
#
# Total GULP energy -89117.710786 kJ/mol
# GULP energy per Si atom -5569.856924 kJ/mol
# Density = 2.276548 g / cm^3
# Si number density = 22.817416 Si / 1000 Ang^3
#
#
#
# Elastic Constant Matrix: (Units=GPa)
#
#
# Indices 1 2 3 4 5 6 
#
# 1 139.0576 16.1333 26.3622 12.5414 -3.1698 -26.1077
# 2 16.1333 39.2028 15.1751 -3.1088 -5.6129 -19.8400
# 3 26.3622 15.1751 78.6027 -5.4002 -19.6668 -14.2008
# 4 12.5414 -3.1088 -5.4002 33.4792 -9.6048 -1.1332
# 5 -3.1698 -5.6129 -19.6668 -9.6048 32.7396 0.1588
# 6 -26.1077 -19.8400 -14.2008 -1.1332 0.1588 32.1526
#
#
#
# Elastic Compliance Matrix: (Units=1/GPa)
#
#
# Indices 1 2 3 4 5 6 
#
# 1 0.009211 -0.000402 -0.002795 -0.004361 -0.002164 0.005854
# 2 -0.000402 0.039936 -0.000623 0.006978 0.008363 0.024246
# 3 -0.002795 -0.000623 0.018665 0.007967 0.013144 0.005806
# 4 -0.004361 0.006978 0.007967 0.038447 0.016812 0.005556
# 5 -0.002164 0.008363 0.013144 0.016812 0.044549 0.009581
# 6 0.005854 0.024246 0.005806 0.005556 0.009581 0.053529
#
#
# Mechanical properties :
#
#
# Convention : Reuss Voigt Hill
#
# Bulk Modulus (GPa) = 16.61901 41.35603 28.98752
# Shear Modulus (GPa) = 21.54850 32.95377 27.25114
#
# Velocity S-wave (km/s) = 3.07642 3.80444 3.45963
# Velocity P-wave (km/s) = 4.46301 6.12066 5.35635
#
# Compressibility (1/GPa) = 0.06017206
#
# Stress axis : x y z
#
# Youngs Moduli (GPa) = 108.56833 25.03982 53.57692
#
# Poissons Ratio (x) = 0.01006 0.14975
# Poissons Ratio (y) = 0.04363 0.03338
# Poissons Ratio (z) = 0.30346 0.01560
#
# Static dielectric constant tensor:
#      x y z
#    x 2.027230 -0.041100 -0.004110 
#    y -0.041100 1.865440 -0.069240 
#    z -0.004110 -0.069240 1.932640 
# 
# From -- ./inp_files/80581.got.cif
#   From: 2010.05.17/outbox.cif.g08.bks.cpg/sg2_41_cif.got.tgz:80581.got - 2010.06.03 11:33:40.
