data_PCOD9053426
_publ_section_title
;
Structure prediction by ZEFSAII (Michael W. Deem and Ramdas Pophale) SiO2 
 PCOD9053426
Probable space group: P -1
;
_chemical_formula_sum "Si O2"
_cell_formula_units_Z 16
_cell_length_a 11.199147
_cell_length_b 11.351050
_cell_length_c 12.821961
_cell_angle_alpha 57.386620
_cell_angle_beta 100.479428
_cell_angle_gamma 52.672018
_cell_volume 710.209890
_symmetry_space_group_name_H-M "P -1"
_symmetry_group_IT_number 2
_symmetry_cell_setting 'triclinic'
loop_
_space_group_symop_operation_xyz
x,y,z
-x,-y,-z
loop_
_atom_site_type_symbol
_atom_site_label
_atom_site_fract_x
_atom_site_fract_y
_atom_site_fract_z
Si Si1 0.946148 0.165930 0.002042
Si Si2 0.315640 0.767809 0.411059
Si Si3 0.215210 0.397973 0.707256
Si Si4 0.466732 0.334654 0.946923
Si Si5 0.392650 0.257704 0.575862
Si Si6 0.308633 0.028854 0.648563
Si Si7 0.892132 0.810756 0.148884
Si Si8 0.594386 0.317809 0.302959
O O1 0.676065 0.449737 0.836592
O O2 0.070703 0.999138 0.206677
O O3 0.068178 0.185531 0.966093
O O4 0.000000 0.000000 0.000000
O O5 0.500000 0.500000 0.500000
O O6 0.409876 0.833855 0.389000
O O7 0.314212 0.721405 0.551880
O O8 0.296629 0.412631 0.809199
O O9 0.377562 0.257956 0.699024
O O10 0.207687 0.245198 0.817451
O O11 0.954430 0.688897 0.490433
O O12 0.380668 0.577774 0.822386
O O13 0.528430 0.201376 0.128884
O O14 0.710362 0.093293 0.038102
O O15 0.147834 0.564079 0.355937
O O16 0.401723 0.092565 0.609877
O O17 0.292903 0.934931 0.597275
#
# Coordination Sequence:
#
# PCOD9053426 Si02
#       8
#     2   2   2   2   2   2   2   2
#     4  12  23  41  67  97 126 165 216 269 319 380
#     4  12  24  42  69  98 126 169 220 268 321 378
#     4  11  23  40  69  98 125 168 219 272 316 376
#     4  12  23  40  70  95 129 168 219 269 317 382
#     4  11  21  42  70  96 131 170 213 272 318 379
#     4  11  26  44  62  96 137 173 211 260 329 382
#     4  11  19  39  67  99 126 159 217 275 317 369
#     4  12  27  44  63  97 136 174 210 264 324 386
#
# _framework density 22.528552999999999
#
# number of rings (size 3 to 8) (size 9 to 14) (size 15 to 20)
#    0.000    0.500    6.250    3.000    1.750    3.000 
#    0.000    0.625    0.000    0.000    0.000    0.000 
#    0.000    0.000    0.000    0.000    0.000    0.000 
#
# Total GULP energy -89576.343775 kJ/mol
# GULP energy per Si atom -5598.521486 kJ/mol
# Density = 2.247728 g / cm^3
# Si number density = 22.528553 Si / 1000 Ang^3
#
#
#
# Elastic Constant Matrix: (Units=GPa)
#
#
# Indices 1 2 3 4 5 6 
#
# 1 73.1712 -2.3834 9.9932 -6.3794 -7.8406 12.9849
# 2 -2.3834 44.7900 3.3474 -5.0384 -8.9189 23.0153
# 3 9.9932 3.3474 107.7719 16.1166 0.0869 3.5844
# 4 -6.3794 -5.0384 16.1166 28.4327 4.1091 -0.5455
# 5 -7.8406 -8.9189 0.0869 4.1091 33.8321 -1.1349
# 6 12.9849 23.0153 3.5844 -0.5455 -1.1349 28.2608
#
#
#
# Elastic Compliance Matrix: (Units=1/GPa)
#
#
# Indices 1 2 3 4 5 6 
#
# 1 0.018903 0.012545 -0.002536 0.006645 0.006277 -0.018200
# 2 0.012545 0.050669 -0.002799 0.010555 0.013449 -0.045930
# 3 -0.002536 -0.002799 0.010577 -0.006959 -0.000442 0.001951
# 4 0.006645 0.010555 -0.006959 0.042451 -0.001151 -0.009993
# 5 0.006277 0.013449 -0.000442 -0.001151 0.034282 -0.012426
# 6 -0.018200 -0.045930 0.001951 -0.009993 -0.012426 0.080212
#
#
# Mechanical properties :
#
#
# Convention : Reuss Voigt Hill
#
# Bulk Modulus (GPa) = 10.57419 27.51637 19.04528
# Shear Modulus (GPa) = 19.66969 32.42352 26.04660
#
# Velocity S-wave (km/s) = 2.95803 3.79782 3.40392
# Velocity P-wave (km/s) = 4.04605 5.60997 4.89092
#
# Compressibility (1/GPa) = 0.09456987
#
# Stress axis : x y z
#
# Youngs Moduli (GPa) = 52.90102 19.73576 94.54392
#
# Poissons Ratio (x) = -0.24758 0.23976
# Poissons Ratio (y) = -0.66363 0.26460
# Poissons Ratio (z) = 0.13416 0.05523
#
# Static dielectric constant tensor:
#      x y z
#    x 1.856150 0.022390 -0.020570 
#    y 0.022390 1.816930 0.018890 
#    z -0.020570 0.018890 1.848550 
# 
# From -- ./inp_files/405758.got.cif
#   From: 2010.05.17/outbox.cif.g08.bks.cpg/sg2_203_cif.got.tgz:405758.got - 2010.06.03 11:33:40.
