data_PCOD9053195
_publ_section_title
;
Structure prediction by ZEFSAII (Michael W. Deem and Ramdas Pophale) SiO2 
 PCOD9053195
Probable space group: P -1
;
_chemical_formula_sum "Si O2"
_cell_formula_units_Z 16
_cell_length_a 11.650189
_cell_length_b 18.175436
_cell_length_c 11.671514
_cell_angle_alpha 35.688372
_cell_angle_beta 62.928176
_cell_angle_gamma 37.527510
_cell_volume 743.694221
_symmetry_space_group_name_H-M "P -1"
_symmetry_group_IT_number 2
_symmetry_cell_setting 'triclinic'
loop_
_space_group_symop_operation_xyz
x,y,z
-x,-y,-z
loop_
_atom_site_type_symbol
_atom_site_label
_atom_site_fract_x
_atom_site_fract_y
_atom_site_fract_z
Si Si1 0.416659 0.204076 0.277355
Si Si2 0.883679 0.292656 0.389963
Si Si3 0.292731 0.823733 0.731214
Si Si4 0.454243 0.600123 0.717199
Si Si5 0.830403 0.497599 0.684487
Si Si6 0.626857 0.721319 0.047916
Si Si7 0.316780 0.119680 0.830562
Si Si8 0.013886 0.357307 0.028996
O O1 0.531731 0.201237 0.319732
O O2 0.155722 0.398588 0.165415
O O3 0.500000 0.000000 0.500000
O O4 0.462766 0.227529 0.103883
O O5 0.675641 0.368417 0.362580
O O6 0.802986 0.464250 0.300183
O O7 0.967320 0.294565 0.230218
O O8 0.091581 0.033385 0.635907
O O9 0.272024 0.801798 0.634980
O O10 0.408492 0.614868 0.004669
O O11 0.634441 0.561498 0.651848
O O12 0.726529 0.721606 0.431102
O O13 0.914783 0.395198 0.904068
O O14 0.065007 0.299176 0.762058
O O15 0.754854 0.755162 0.946863
O O16 0.422865 0.912934 0.981547
O O17 0.500000 0.000000 0.000000
#
# Coordination Sequence:
#
# PCOD9053195 Si02
#       8
#     2   2   2   2   2   2   2   2
#     4  11  19  33  57  96 131 160 196 247 319 373
#     4  11  23  38  60 101 131 165 196 248 314 382
#     4  11  21  37  61  93 133 171 198 238 312 382
#     4  11  22  41  59  92 133 165 209 244 300 387
#     4  11  24  42  68  90 119 166 213 258 313 358
#     4  11  22  38  62  91 131 156 206 263 308 363
#     4  11  25  45  65  92 117 161 220 268 308 358
#     4  11  19  36  60  96 128 156 199 249 311 377
#
# _framework density 21.514218
#
# number of rings (size 3 to 8) (size 9 to 14) (size 15 to 20)
#    0.000    1.000    5.000    4.875    1.750    1.000 
#    0.000    0.625    0.000    1.500    0.000    0.000 
#    0.000    0.000    0.000    0.000    0.000    0.000 
#
# Total GULP energy -89125.075746 kJ/mol
# GULP energy per Si atom -5570.317234 kJ/mol
# Density = 2.146525 g / cm^3
# Si number density = 21.514218 Si / 1000 Ang^3
#
#
#
# Elastic Constant Matrix: (Units=GPa)
#
#
# Indices 1 2 3 4 5 6 
#
# 1 94.9352 18.3207 1.7138 -8.8091 -1.8749 -13.0281
# 2 18.3207 87.9798 23.4765 -39.0977 -4.8997 4.1948
# 3 1.7138 23.4765 56.6994 -29.4147 -8.9290 -0.5045
# 4 -8.8091 -39.0977 -29.4147 35.6931 4.8981 -2.1680
# 5 -1.8749 -4.8997 -8.9290 4.8981 29.2241 -6.8221
# 6 -13.0281 4.1948 -0.5045 -2.1680 -6.8221 30.9690
#
#
#
# Elastic Compliance Matrix: (Units=1/GPa)
#
#
# Indices 1 2 3 4 5 6 
#
# 1 0.012006 -0.002141 0.002210 0.002520 0.002067 0.006008
# 2 -0.002141 0.023781 0.005931 0.030274 0.000151 -0.001873
# 3 0.002210 0.005931 0.034143 0.034518 0.006859 0.004610
# 4 0.002520 0.030274 0.034518 0.090277 0.001634 0.004202
# 5 0.002067 0.000151 0.006859 0.001634 0.038425 0.009540
# 6 0.006008 -0.001873 0.004610 0.004202 0.009540 0.037542
#
#
# Mechanical properties :
#
#
# Convention : Reuss Voigt Hill
#
# Bulk Modulus (GPa) = 12.20569 36.29294 24.24931
# Shear Modulus (GPa) = 19.88196 32.25081 26.06638
#
# Velocity S-wave (km/s) = 3.04325 3.87595 3.48456
# Velocity P-wave (km/s) = 4.24666 6.07755 5.24265
#
# Compressibility (1/GPa) = 0.08192900
#
# Stress axis : x y z
#
# Youngs Moduli (GPa) = 83.29138 42.05088 29.28877
#
# Poissons Ratio (x) = 0.09004 -0.06473
# Poissons Ratio (y) = 0.17834 -0.17371
# Poissons Ratio (z) = -0.18408 -0.24940
#
# Static dielectric constant tensor:
#      x y z
#    x 1.821950 0.043410 -0.009390 
#    y 0.043410 1.862470 0.004170 
#    z -0.009390 0.004170 1.807420 
# 
# From -- ./inp_files/437234.got.cif
#   From: 2010.05.17/outbox.cif.g08.bks.cpg/sg2_219_cif.got.tgz:437234.got - 2010.06.03 11:33:40.
