data_PCOD9053974
_publ_section_title
;
Structure prediction by ZEFSAII (Michael W. Deem and Ramdas Pophale) SiO2 
 PCOD9053974
Probable space group: P -1
;
_chemical_formula_sum "Si O2"
_cell_formula_units_Z 16
_cell_length_a 9.775160
_cell_length_b 9.701307
_cell_length_c 17.757998
_cell_angle_alpha 149.039707
_cell_angle_beta 125.819642
_cell_angle_gamma 66.612482
_cell_volume 679.902687
_symmetry_space_group_name_H-M "P -1"
_symmetry_group_IT_number 2
_symmetry_cell_setting 'triclinic'
loop_
_space_group_symop_operation_xyz
x,y,z
-x,-y,-z
loop_
_atom_site_type_symbol
_atom_site_label
_atom_site_fract_x
_atom_site_fract_y
_atom_site_fract_z
Si Si1 0.361132 0.937014 0.261113
Si Si2 0.685912 0.542676 0.438071
Si Si3 0.993030 0.247420 0.726294
Si Si4 0.984500 0.026947 0.775784
Si Si5 0.535430 0.968569 0.909858
Si Si6 0.617375 0.839912 0.412988
Si Si7 0.661815 0.425916 0.056160
Si Si8 0.113998 0.177773 0.052302
O O1 0.512635 0.820553 0.292295
O O2 0.311219 0.817799 0.106621
O O3 0.395800 0.269879 0.441782
O O4 0.182570 0.838653 0.205211
O O5 0.887969 0.705013 0.582014
O O6 0.631640 0.214715 0.274845
O O7 0.624095 0.595323 0.358231
O O8 0.923093 0.523066 0.827119
O O9 0.069540 0.177948 0.799190
O O10 0.818476 0.005923 0.543942
O O11 0.164605 0.327775 0.767696
O O12 0.075907 0.050516 0.896387
O O13 0.684534 0.810137 0.865574
O O14 0.607718 0.274414 0.045258
O O15 0.500000 0.000000 0.000000
O O16 0.500000 0.000000 0.500000
O O17 0.500000 0.500000 0.000000
O O18 0.000000 0.000000 0.000000
#
# Coordination Sequence:
#
# PCOD9053974 Si02
#       8
#     2   2   2   2   2   2   2   2
#     4   9  18  39  65 100 128 166 226 274 326 387
#     4   8  19  39  66  94 126 165 233 264 327 401
#     4  11  20  39  67 100 132 171 231 273 330 397
#     4   9  20  35  69  98 121 167 217 281 330 384
#     4  12  28  45  66  96 138 184 216 284 356 397
#     4   9  16  33  65 101 122 162 212 282 324 387
#     4  12  28  44  61  98 142 180 223 276 344 408
#     4  12  22  40  64 100 137 166 235 283 324 401
#
# _framework density 23.532779000000001
#
# number of rings (size 3 to 8) (size 9 to 14) (size 15 to 20)
#    0.750    1.000    3.750    1.875    3.500    0.500 
#    2.250    1.250    0.000    0.000    0.000    0.000 
#    0.000    0.000    0.000    0.000    0.000    0.000 
#
# Total GULP energy -89201.370262 kJ/mol
# GULP energy per Si atom -5575.085641 kJ/mol
# Density = 2.347922 g / cm^3
# Si number density = 23.532779 Si / 1000 Ang^3
#
#
#
# Elastic Constant Matrix: (Units=GPa)
#
#
# Indices 1 2 3 4 5 6 
#
# 1 78.8947 31.6745 27.8943 18.2864 6.9965 12.2600
# 2 31.6745 74.2517 10.1756 -5.0197 15.9993 18.8494
# 3 27.8943 10.1756 69.3665 4.5973 13.1394 10.5439
# 4 18.2864 -5.0197 4.5973 28.3182 11.5031 2.4336
# 5 6.9965 15.9993 13.1394 11.5031 37.4084 1.6541
# 6 12.2600 18.8494 10.5439 2.4336 1.6541 43.0283
#
#
#
# Elastic Compliance Matrix: (Units=1/GPa)
#
#
# Indices 1 2 3 4 5 6 
#
# 1 0.025268 -0.013897 -0.009056 -0.021972 0.011070 0.001924
# 2 -0.013897 0.025805 0.004865 0.019993 -0.015893 -0.009056
# 3 -0.009056 0.004865 0.019261 0.007753 -0.009344 -0.004350
# 4 -0.021972 0.019993 0.007753 0.063045 -0.026243 -0.006954
# 5 0.011070 -0.015893 -0.009344 -0.026243 0.042548 0.005947
# 6 0.001924 -0.009056 -0.004350 -0.006954 0.005947 0.027890
#
#
# Mechanical properties :
#
#
# Convention : Reuss Voigt Hill
#
# Bulk Modulus (GPa) = 29.27495 40.22242 34.74868
# Shear Modulus (GPa) = 19.89028 31.93555 25.91291
#
# Velocity S-wave (km/s) = 2.91041 3.68783 3.32194
# Velocity P-wave (km/s) = 4.87453 5.93824 5.43248
#
# Compressibility (1/GPa) = 0.03415890
#
# Stress axis : x y z
#
# Youngs Moduli (GPa) = 39.57516 38.75283 51.91723
#
# Poissons Ratio (x) = 0.53856 0.47015
# Poissons Ratio (y) = 0.54999 -0.25259
# Poissons Ratio (z) = 0.35838 -0.18854
#
# Static dielectric constant tensor:
#      x y z
#    x 1.943980 0.024840 -0.015490 
#    y 0.024840 1.893750 -0.016500 
#    z -0.015490 -0.016500 1.951090 
# 
# From -- ./inp_files/557706.got.cif
#   From: 2010.05.17/outbox.cif.g08.bks.cpg/sg2_279_cif.got.tgz:557706.got - 2010.06.03 11:33:40.
