data_PCOD9053779
_publ_section_title
;
Structure prediction by ZEFSAII (Michael W. Deem and Ramdas Pophale) SiO2 
 PCOD9053779
Probable space group: P -1
;
_chemical_formula_sum "Si O2"
_cell_formula_units_Z 12
_cell_length_a 6.925933
_cell_length_b 12.826005
_cell_length_c 7.096429
_cell_angle_alpha 77.020477
_cell_angle_beta 60.335801
_cell_angle_gamma 115.628827
_cell_volume 409.200470
_symmetry_space_group_name_H-M "P -1"
_symmetry_group_IT_number 2
_symmetry_cell_setting 'triclinic'
loop_
_space_group_symop_operation_xyz
x,y,z
-x,-y,-z
loop_
_atom_site_type_symbol
_atom_site_label
_atom_site_fract_x
_atom_site_fract_y
_atom_site_fract_z
Si Si1 0.749608 0.541615 0.603997
Si Si2 0.636278 0.741454 0.618155
Si Si3 0.389893 0.720398 0.330441
Si Si4 0.180154 0.993035 0.141108
Si Si5 0.944799 0.367736 0.982543
Si Si6 0.826276 0.104023 0.218912
O O1 0.042498 0.618766 0.550604
O O2 0.591900 0.601181 0.708622
O O3 0.565680 0.377055 0.762098
O O4 0.861283 0.584014 0.316240
O O5 0.551335 0.754906 0.439563
O O6 0.400335 0.731099 0.856122
O O7 0.975708 0.869269 0.440246
O O8 0.504740 0.860534 0.112484
O O9 0.003634 0.051511 0.200593
O O10 0.170137 0.907905 0.004745
O O11 0.959100 0.261181 0.132891
O O12 0.000000 0.500000 0.000000
O O13 0.500000 0.000000 0.500000
#
# Coordination Sequence:
#
# PCOD9053779 Si02
#       6
#     2   2   2   2   2   2
#     4  11  26  43  64  99 135 169 224 267 322 392
#     4  12  22  44  69  94 127 180 215 266 332 382
#     4  11  22  44  68  93 133 177 214 272 326 380
#     4  11  21  39  68  94 124 176 217 260 330 384
#     4  12  24  39  67  99 132 172 221 268 322 393
#     4  11  20  37  62 101 125 165 225 258 321 393
#
# _framework density 29.325478
#
# number of rings (size 3 to 8) (size 9 to 14) (size 15 to 20)
#    0.000    0.667    8.333    0.500    2.333    0.667 
#    0.000    9.167    0.000    0.000    0.000    0.000 
#    0.000    0.000    0.000    0.000    0.000    0.000 
#
# Total GULP energy -67195.549013 kJ/mol
# GULP energy per Si atom -5599.629084 kJ/mol
# Density = 2.925873 g / cm^3
# Si number density = 29.325478 Si / 1000 Ang^3
#
#
#
# Elastic Constant Matrix: (Units=GPa)
#
#
# Indices 1 2 3 4 5 6 
#
# 1 97.3187 20.0110 13.2209 18.9667 -13.2361 -13.1764
# 2 20.0110 177.3015 15.5602 -5.8490 19.0053 -18.4417
# 3 13.2209 15.5602 99.6474 0.8000 -22.6417 6.6550
# 4 18.9667 -5.8490 0.8000 62.0811 -9.9128 -7.5960
# 5 -13.2361 19.0053 -22.6417 -9.9128 54.5373 8.6235
# 6 -13.1764 -18.4417 6.6550 -7.5960 8.6235 47.0174
#
#
#
# Elastic Compliance Matrix: (Units=1/GPa)
#
#
# Indices 1 2 3 4 5 6 
#
# 1 0.011863 -0.001359 -0.001011 -0.003164 0.002034 0.002050
# 2 -0.001359 0.006771 -0.001998 0.000874 -0.003900 0.003414
# 3 -0.001011 -0.001998 0.012140 0.000482 0.006186 -0.003842
# 4 -0.003164 0.000874 0.000482 0.017707 0.002050 0.001873
# 5 0.002034 -0.003900 0.006186 0.002050 0.024065 -0.005918
# 6 0.002050 0.003414 -0.003842 0.001873 -0.005918 0.025114
#
#
# Mechanical properties :
#
#
# Convention : Reuss Voigt Hill
#
# Bulk Modulus (GPa) = 45.37855 52.42798 48.90326
# Shear Modulus (GPa) = 43.95864 54.42554 49.19209
#
# Velocity S-wave (km/s) = 3.87588 4.31270 4.10011
# Velocity P-wave (km/s) = 5.96135 6.53575 6.25514
#
# Compressibility (1/GPa) = 0.02203684
#
# Stress axis : x y z
#
# Youngs Moduli (GPa) = 84.29411 147.69148 82.37336
#
# Poissons Ratio (x) = 0.20076 0.08329
# Poissons Ratio (y) = 0.11458 0.16459
# Poissons Ratio (z) = 0.08523 0.29510
#
# Static dielectric constant tensor:
#      x y z
#    x 2.452480 0.144630 -0.002370 
#    y 0.144630 2.220040 -0.050830 
#    z -0.002370 -0.050830 2.370420 
# 
# From -- ./inp_files/178640.got.cif
#   From: 2010.05.17/outbox.cif.g08.bks.cpg/sg2_90_cif.got.tgz:178640.got - 2010.06.03 11:33:40.
