data_PCOD9053847
_publ_section_title
;
Structure prediction by ZEFSAII (Michael W. Deem and Ramdas Pophale) SiO2 
 PCOD9053847
Probable space group: P -1
;
_chemical_formula_sum "Si O2"
_cell_formula_units_Z 14
_cell_length_a 16.826063
_cell_length_b 16.868387
_cell_length_c 11.855636
_cell_angle_alpha 57.643557
_cell_angle_beta 51.534272
_cell_angle_gamma 16.875063
_cell_volume 737.616652
_symmetry_space_group_name_H-M "P -1"
_symmetry_group_IT_number 2
_symmetry_cell_setting 'triclinic'
loop_
_space_group_symop_operation_xyz
x,y,z
-x,-y,-z
loop_
_atom_site_type_symbol
_atom_site_label
_atom_site_fract_x
_atom_site_fract_y
_atom_site_fract_z
Si Si1 0.430389 0.865915 0.603649
Si Si2 0.435978 0.947245 0.125365
Si Si3 0.897159 0.735537 0.588620
Si Si4 0.030057 0.650890 0.958033
Si Si5 0.630797 0.576226 0.971518
Si Si6 0.532351 0.869192 0.746307
Si Si7 0.129224 0.987586 0.928148
O O1 0.471836 0.901991 0.643796
O O2 0.363714 0.824480 0.752786
O O3 0.741990 0.591395 0.466617
O O4 0.164794 0.135338 0.553144
O O5 0.283394 0.076814 0.283433
O O6 0.758876 0.613881 0.079175
O O7 0.500000 0.000000 0.000000
O O8 0.191323 0.119816 0.119856
O O9 0.756791 0.758975 0.654198
O O10 0.271881 0.506030 0.920506
O O11 0.781788 0.838020 0.130374
O O12 0.660871 0.658167 0.841424
O O13 0.301414 0.836510 0.012296
O O14 0.867839 0.295039 0.925684
O O15 0.000000 0.000000 0.000000
#
# Coordination Sequence:
#
# PCOD9053847 Si02
#       7
#     2   2   2   2   2   2   2
#     4  11  24  39  57  88 127 151 204 237 310 380
#     4  12  24  37  56  82 121 171 224 239 271 332
#     4  12  25  37  56  87 128 175 192 243 289 343
#     4  12  21  37  60  83 121 161 210 255 269 335
#     4  11  20  38  60  94 120 146 202 247 298 358
#     4  11  23  36  61  85 130 164 201 234 298 349
#     4  11  23  41  66  91 120 151 191 257 318 368
#
# _framework density 18.980049000000001
#
# number of rings (size 3 to 8) (size 9 to 14) (size 15 to 20)
#    0.000    0.571    5.714    4.286    4.000    0.000 
#    0.000    0.000    0.000    0.000    0.000   20.000 
#    0.000    0.000    0.000    0.000    0.000    0.000 
#
# Total GULP energy -78166.371112 kJ/mol
# GULP energy per Si atom -5583.312222 kJ/mol
# Density = 1.893685 g / cm^3
# Si number density = 18.980049 Si / 1000 Ang^3
#
#
#
# Elastic Constant Matrix: (Units=GPa)
#
#
# Indices 1 2 3 4 5 6 
#
# 1 84.6636 15.4986 33.1538 -9.2519 -13.1436 -7.0465
# 2 15.4986 94.5676 13.9547 15.9056 2.4420 -2.3883
# 3 33.1538 13.9547 62.8748 10.3797 9.7461 14.3359
# 4 -9.2519 15.9056 10.3797 27.2598 -2.5491 16.9005
# 5 -13.1436 2.4420 9.7461 -2.5491 30.1442 2.3701
# 6 -7.0465 -2.3883 14.3359 16.9005 2.3701 33.5213
#
#
#
# Elastic Compliance Matrix: (Units=1/GPa)
#
#
# Indices 1 2 3 4 5 6 
#
# 1 0.025316 -0.005060 -0.018796 0.019278 0.019003 0.001937
# 2 -0.005060 0.014241 0.001229 -0.015890 -0.005717 0.007841
# 3 -0.018796 0.001229 0.033230 -0.016376 -0.019761 -0.008421
# 4 0.019278 -0.015890 -0.016376 0.081376 0.024450 -0.032833
# 5 0.019003 -0.005717 -0.019761 0.024450 0.050684 -0.003872
# 6 0.001937 0.007841 -0.008421 -0.032833 -0.003872 0.051226
#
#
# Mechanical properties :
#
#
# Convention : Reuss Voigt Hill
#
# Bulk Modulus (GPa) = 36.31974 40.81338 38.56656
# Shear Modulus (GPa) = 16.10292 30.15166 23.12729
#
# Velocity S-wave (km/s) = 2.91591 3.99005 3.49450
# Velocity P-wave (km/s) = 5.52395 6.54043 6.05356
#
# Compressibility (1/GPa) = 0.02753324
#
# Stress axis : x y z
#
# Youngs Moduli (GPa) = 39.50074 70.22172 30.09372
#
# Poissons Ratio (x) = 0.35529 0.56564
# Poissons Ratio (y) = 0.19986 -0.03698
# Poissons Ratio (z) = 0.74245 -0.08630
#
# Static dielectric constant tensor:
#      x y z
#    x 1.677180 -0.026340 0.036140 
#    y -0.026340 1.687300 0.015590 
#    z 0.036140 0.015590 1.679700 
# 
# From -- ./inp_files/117895.got.cif
#   From: 2010.05.17/outbox.cif.g08.bks.cpg/sg2_59_cif.got.tgz:117895.got - 2010.06.03 11:33:40.
