data_PCOD9053609
_publ_section_title
;
Structure prediction by ZEFSAII (Michael W. Deem and Ramdas Pophale) SiO2 
 PCOD9053609
Probable space group: P -1
;
_chemical_formula_sum "Si O2"
_cell_formula_units_Z 16
_cell_length_a 19.642535
_cell_length_b 8.813758
_cell_length_c 10.284711
_cell_angle_alpha 113.153054
_cell_angle_beta 112.646573
_cell_angle_gamma 29.850540
_cell_volume 811.083923
_symmetry_space_group_name_H-M "P -1"
_symmetry_group_IT_number 2
_symmetry_cell_setting 'triclinic'
loop_
_space_group_symop_operation_xyz
x,y,z
-x,-y,-z
loop_
_atom_site_type_symbol
_atom_site_label
_atom_site_fract_x
_atom_site_fract_y
_atom_site_fract_z
Si Si1 0.666365 0.274605 0.606176
Si Si2 0.484438 0.358908 0.626383
Si Si3 0.841231 0.688817 0.362204
Si Si4 0.017729 0.635931 0.380428
Si Si5 0.839518 0.246195 0.814703
Si Si6 0.766397 0.317706 0.333897
Si Si7 0.730971 0.668635 0.640178
Si Si8 0.171786 0.624060 0.860070
O O1 0.573251 0.357239 0.671566
O O2 0.570480 0.562569 0.535565
O O3 0.781138 0.175197 0.716395
O O4 0.738437 0.002144 0.472769
O O5 0.347462 0.606543 0.694667
O O6 0.583570 0.031618 0.644693
O O7 0.938608 0.429644 0.459234
O O8 0.776796 0.657503 0.229601
O O9 0.935442 0.620021 0.313049
O O10 0.156767 0.398849 0.323719
O O11 0.913125 0.971896 0.370125
O O12 0.774356 0.490103 0.741016
O O13 0.796185 0.381606 0.972820
O O14 0.005147 0.938239 0.828828
O O15 0.738860 0.525654 0.477517
O O16 0.770132 0.366302 0.204873
#
# Coordination Sequence:
#
# PCOD9053609 Si02
#       8
#     2   2   2   2   2   2   2   2
#     4  11  22  40  64  93 129 164 209 259 313 365
#     4  11  24  37  63  94 125 165 215 259 303 366
#     4  11  20  36  63  96 124 157 208 258 313 364
#     4  11  20  33  63  95 118 161 214 265 301 358
#     4  11  24  42  63  96 130 163 203 265 323 364
#     4  12  21  38  62  96 124 162 215 260 302 373
#     4  12  21  38  64  95 124 164 215 259 307 369
#     4  11  24  40  65  95 131 162 203 263 323 371
#
# _framework density 19.726690000000001
#
# number of rings (size 3 to 8) (size 9 to 14) (size 15 to 20)
#    0.000    0.750    6.250    3.000    0.000    0.000 
#    0.000    3.125    0.000    0.000    0.000    0.000 
#    0.000    0.000    0.000    0.000    0.000    0.000 
#
# Total GULP energy -89355.876712 kJ/mol
# GULP energy per Si atom -5584.742295 kJ/mol
# Density = 1.968179 g / cm^3
# Si number density = 19.726690 Si / 1000 Ang^3
#
#
#
# Elastic Constant Matrix: (Units=GPa)
#
#
# Indices 1 2 3 4 5 6 
#
# 1 123.9571 5.9000 49.4045 2.8644 -19.6555 -9.4040
# 2 5.9000 65.7245 33.9796 -6.9329 6.2623 -4.8209
# 3 49.4045 33.9796 105.4314 0.0182 -16.3894 8.9037
# 4 2.8644 -6.9329 0.0182 14.3672 4.5349 -0.7950
# 5 -19.6555 6.2623 -16.3894 4.5349 24.8043 -0.3677
# 6 -9.4040 -4.8209 8.9037 -0.7950 -0.3677 28.0570
#
#
#
# Elastic Compliance Matrix: (Units=1/GPa)
#
#
# Indices 1 2 3 4 5 6 
#
# 1 0.011636 0.001266 -0.005418 -0.003276 0.006007 0.005823
# 2 0.001266 0.025493 -0.012145 0.017792 -0.016578 0.008946
# 3 -0.005418 -0.012145 0.018760 -0.009375 0.012735 -0.009955
# 4 -0.003276 0.017792 -0.009375 0.088512 -0.029360 0.007057
# 5 0.006007 -0.016578 0.012735 -0.029360 0.062971 -0.004883
# 6 0.005823 0.008946 -0.009955 0.007057 -0.004883 0.042426
#
#
# Mechanical properties :
#
#
# Convention : Reuss Voigt Hill
#
# Bulk Modulus (GPa) = 42.92819 52.63124 47.77972
# Shear Modulus (GPa) = 17.23207 27.16763 22.19985
#
# Velocity S-wave (km/s) = 2.95878 3.71509 3.35829
# Velocity P-wave (km/s) = 5.78630 6.71868 6.26985
#
# Compressibility (1/GPa) = 0.02329472
#
# Stress axis : x y z
#
# Youngs Moduli (GPa) = 85.93679 39.22668 53.30518
#
# Poissons Ratio (x) = -0.04966 0.28882
# Poissons Ratio (y) = -0.10879 0.64739
# Poissons Ratio (z) = 0.46563 0.47640
#
# Static dielectric constant tensor:
#      x y z
#    x 1.750210 0.002480 0.001370 
#    y 0.002480 1.722950 0.004320 
#    z 0.001370 0.004320 1.655470 
# 
# From -- ./inp_files/343662.got.cif
#   From: 2010.05.17/outbox.cif.g08.bks.cpg/sg2_172_cif.got.tgz:343662.got - 2010.06.03 11:33:40.
