data_PCOD9053993
_publ_section_title
;
Structure prediction by ZEFSAII (Michael W. Deem and Ramdas Pophale) SiO2 
 PCOD9053993
Probable space group: P -1
;
_chemical_formula_sum "Si O2"
_cell_formula_units_Z 16
_cell_length_a 15.059615
_cell_length_b 9.375406
_cell_length_c 12.806711
_cell_angle_alpha 120.797891
_cell_angle_beta 42.378783
_cell_angle_gamma 143.282936
_cell_volume 714.104163
_symmetry_space_group_name_H-M "P -1"
_symmetry_group_IT_number 2
_symmetry_cell_setting 'triclinic'
loop_
_space_group_symop_operation_xyz
x,y,z
-x,-y,-z
loop_
_atom_site_type_symbol
_atom_site_label
_atom_site_fract_x
_atom_site_fract_y
_atom_site_fract_z
Si Si1 0.930995 0.994774 0.946728
Si Si2 0.005323 0.354924 0.774929
Si Si3 0.279343 0.201899 0.204168
Si Si4 0.276600 0.114436 0.603258
Si Si5 0.168463 0.508290 0.905225
Si Si6 0.319116 0.489758 0.108537
Si Si7 0.020373 0.568951 0.630607
Si Si8 0.478948 0.400471 0.322862
O O1 0.085330 0.050696 0.757193
O O2 0.967254 0.222385 0.993485
O O3 0.730615 0.722117 0.995468
O O4 0.000000 0.000000 0.000000
O O5 0.038897 0.452658 0.664649
O O6 0.177182 0.519067 0.774711
O O7 0.909021 0.085052 0.750921
O O8 0.854616 0.342206 0.957782
O O9 0.271376 0.375560 0.222299
O O10 0.343917 0.274823 0.293917
O O11 0.457672 0.272272 0.016970
O O12 0.361383 0.225107 0.457887
O O13 0.430735 0.335926 0.631922
O O14 0.202764 0.861387 0.590575
O O15 0.338754 0.556714 0.824905
O O16 0.174463 0.501708 0.206528
O O17 0.000000 0.500000 0.500000
#
# Coordination Sequence:
#
# PCOD9053993 Si02
#       8
#     2   2   2   2   2   2   2   2
#     4  10  17  35  63  87 115 157 200 250 295 351
#     4  11  23  39  61  91 124 161 204 249 305 361
#     4  11  22  39  63  93 121 156 199 260 301 355
#     4   9  20  37  60  88 115 154 210 236 296 366
#     4  10  21  38  60  91 122 160 201 249 306 361
#     4  10  22  39  59  92 121 151 211 246 301 363
#     4  11  23  42  61  89 124 166 201 249 307 367
#     4  10  20  39  63  89 120 159 200 253 302 352
#
# _framework density 22.405695999999999
#
# number of rings (size 3 to 8) (size 9 to 14) (size 15 to 20)
#    0.000    1.750    1.250    4.500    0.000    3.000 
#    9.000    2.500    0.000    0.000    0.000    0.000 
#    0.000    0.000    0.000    0.000    0.000    0.000 
#
# Total GULP energy -89311.753565 kJ/mol
# GULP energy per Si atom -5581.984598 kJ/mol
# Density = 2.235470 g / cm^3
# Si number density = 22.405696 Si / 1000 Ang^3
#
#
#
# Elastic Constant Matrix: (Units=GPa)
#
#
# Indices 1 2 3 4 5 6 
#
# 1 98.4211 21.9717 13.7359 7.4809 41.4197 8.3617
# 2 21.9717 82.3245 21.3814 -8.8600 20.2363 -4.5900
# 3 13.7359 21.3814 50.5586 -2.5200 22.1626 0.5941
# 4 7.4809 -8.8600 -2.5200 24.7590 6.1199 9.6543
# 5 41.4197 20.2363 22.1626 6.1199 34.3226 4.1329
# 6 8.3617 -4.5900 0.5941 9.6543 4.1329 30.7805
#
#
#
# Elastic Compliance Matrix: (Units=1/GPa)
#
#
# Indices 1 2 3 4 5 6 
#
# 1 0.023203 0.000090 0.008756 0.003474 -0.033968 -0.002988
# 2 0.000090 0.015894 -0.002242 0.007235 -0.009490 0.001394
# 3 0.008756 -0.002242 0.032638 0.008356 -0.031603 -0.001721
# 4 0.003474 0.007235 0.008356 0.053575 -0.021731 -0.013912
# 5 -0.033968 -0.009490 -0.031603 -0.021731 0.099782 0.001841
# 6 -0.002988 0.001394 -0.001721 -0.013912 0.001841 0.037657
#
#
# Mechanical properties :
#
#
# Convention : Reuss Voigt Hill
#
# Bulk Modulus (GPa) = 11.77244 38.38692 25.07968
# Shear Modulus (GPa) = 17.99491 29.58676 23.79084
#
# Velocity S-wave (km/s) = 2.83705 3.63781 3.26209
# Velocity P-wave (km/s) = 3.99968 5.90040 5.04044
#
# Compressibility (1/GPa) = 0.08494413
#
# Stress axis : x y z
#
# Youngs Moduli (GPa) = 43.09760 62.91528 30.63890
#
# Poissons Ratio (x) = -0.00566 -0.26828
# Poissons Ratio (y) = -0.00388 0.06870
# Poissons Ratio (z) = -0.37737 0.14106
#
# Static dielectric constant tensor:
#      x y z
#    x 1.843310 0.012710 0.032940 
#    y 0.012710 1.857020 0.001650 
#    z 0.032940 0.001650 1.879310 
# 
# From -- ./inp_files/307213.got.cif
#   From: 2010.05.17/outbox.cif.g08.bks.cpg/sg2_154_cif.got.tgz:307213.got - 2010.06.03 11:33:40.
