data_PCOD9053001
_publ_section_title
;
Structure prediction by ZEFSAII (Michael W. Deem and Ramdas Pophale) SiO2 
 PCOD9053001
Probable space group: P -1
;
_chemical_formula_sum "Si O2"
_cell_formula_units_Z 12
_cell_length_a 7.651671
_cell_length_b 16.415327
_cell_length_c 11.876699
_cell_angle_alpha 25.863008
_cell_angle_beta 137.538269
_cell_angle_gamma 137.657041
_cell_volume 424.714052
_symmetry_space_group_name_H-M "P -1"
_symmetry_group_IT_number 2
_symmetry_cell_setting 'triclinic'
loop_
_space_group_symop_operation_xyz
x,y,z
-x,-y,-z
loop_
_atom_site_type_symbol
_atom_site_label
_atom_site_fract_x
_atom_site_fract_y
_atom_site_fract_z
Si Si1 0.863278 0.476163 0.239357
Si Si2 0.614586 0.601997 0.292573
Si Si3 0.800323 0.173627 0.140727
Si Si4 0.490326 0.249309 0.535666
Si Si5 0.220750 0.839440 0.588077
Si Si6 0.012816 0.912677 0.988591
O O1 0.626039 0.376800 0.334481
O O2 0.792839 0.357672 0.238270
O O3 0.130034 0.433094 0.476227
O O4 0.951333 0.701313 0.967754
O O5 0.431432 0.403015 0.404430
O O6 0.753887 0.732151 0.091846
O O7 0.446490 0.727536 0.121750
O O8 0.832477 0.198117 0.259534
O O9 0.712590 0.947358 0.355665
O O10 0.730543 0.168681 0.802867
O O11 0.500000 0.000000 0.500000
O O12 0.012546 0.933108 0.306436
O O13 0.000000 0.000000 0.000000
#
# Coordination Sequence:
#
# PCOD9053001 Si02
#       6
#     2   2   2   2   2   2
#     4  11  22  41  67  97 131 172 222 265 320 390
#     4  11  22  42  70  99 128 173 222 267 324 386
#     4  12  24  42  67 101 133 169 214 271 331 386
#     4  11  23  44  70  97 130 172 221 269 322 385
#     4  12  20  39  69  95 129 176 216 262 330 391
#     4  11  17  38  69  91 121 172 219 258 315 385
#
# _framework density 28.254304000000001
#
# number of rings (size 3 to 8) (size 9 to 14) (size 15 to 20)
#    0.000    0.667    8.333    3.000    0.000    0.667 
#    0.000    8.333    0.000    6.000    0.000    0.000 
#    0.000    0.000    0.000    0.000    0.000    0.000 
#
# Total GULP energy -67413.083174 kJ/mol
# GULP energy per Si atom -5617.756931 kJ/mol
# Density = 2.819000 g / cm^3
# Si number density = 28.254304 Si / 1000 Ang^3
#
#
#
# Elastic Constant Matrix: (Units=GPa)
#
#
# Indices 1 2 3 4 5 6 
#
# 1 106.4601 50.2735 53.1643 -13.2283 -22.3306 2.1261
# 2 50.2735 190.5129 61.9520 -52.4137 -17.2115 -17.4898
# 3 53.1643 61.9520 137.3960 -18.5777 -30.4954 9.9231
# 4 -13.2283 -52.4137 -18.5777 68.5189 8.6004 -3.2663
# 5 -22.3306 -17.2115 -30.4954 8.6004 66.2658 -8.4329
# 6 2.1261 -17.4898 9.9231 -3.2663 -8.4329 43.9952
#
#
#
# Elastic Compliance Matrix: (Units=1/GPa)
#
#
# Indices 1 2 3 4 5 6 
#
# 1 0.012518 -0.002139 -0.003451 -0.000433 0.002091 -0.000308
# 2 -0.002139 0.008668 -0.002601 0.005709 0.000177 0.004594
# 3 -0.003451 -0.002601 0.010548 -0.000266 0.002701 -0.002748
# 4 -0.000433 0.005709 -0.000266 0.019079 -0.000802 0.003613
# 5 0.002091 0.000177 0.002701 -0.000802 0.017527 0.002660
# 6 -0.000308 0.004594 -0.002748 0.003613 0.002660 0.025969
#
#
# Mechanical properties :
#
#
# Convention : Reuss Voigt Hill
#
# Bulk Modulus (GPa) = 65.14278 85.01650 75.07964
# Shear Modulus (GPa) = 43.17473 53.68793 48.43133
#
# Velocity S-wave (km/s) = 3.91330 4.36382 4.14469
# Velocity P-wave (km/s) = 6.59731 7.45290 7.03812
#
# Compressibility (1/GPa) = 0.01535090
#
# Stress axis : x y z
#
# Youngs Moduli (GPa) = 79.88494 115.37122 94.80178
#
# Poissons Ratio (x) = 0.24684 0.32717
# Poissons Ratio (y) = 0.17091 0.24658
# Poissons Ratio (z) = 0.27569 0.30008
#
# Static dielectric constant tensor:
#      x y z
#    x 2.176710 0.046340 0.027280 
#    y 0.046340 2.207040 0.051930 
#    z 0.027280 0.051930 2.173340 
# 
# From -- ./inp_files/524021.got.cif
#   From: 2010.05.17/outbox.cif.g08.bks.cpg/sg2_263_cif.got.tgz:524021.got - 2010.06.03 11:33:40.
