data_PCOD9053994
_publ_section_title
;
Structure prediction by ZEFSAII (Michael W. Deem and Ramdas Pophale) SiO2 
 PCOD9053994
Probable space group: P -1
;
_chemical_formula_sum "Si O2"
_cell_formula_units_Z 16
_cell_length_a 16.879908
_cell_length_b 8.574275
_cell_length_c 12.386614
_cell_angle_alpha 140.444991
_cell_angle_beta 143.853710
_cell_angle_gamma 43.119608
_cell_volume 645.333268
_symmetry_space_group_name_H-M "P -1"
_symmetry_group_IT_number 2
_symmetry_cell_setting 'triclinic'
loop_
_space_group_symop_operation_xyz
x,y,z
-x,-y,-z
loop_
_atom_site_type_symbol
_atom_site_label
_atom_site_fract_x
_atom_site_fract_y
_atom_site_fract_z
Si Si1 0.261709 0.294024 0.473192
Si Si2 0.865679 0.538169 0.025047
Si Si3 0.211886 0.191821 0.121133
Si Si4 0.967725 0.236333 0.507981
Si Si5 0.860210 0.996966 0.633894
Si Si6 0.416626 0.299963 0.068518
Si Si7 0.563890 0.324402 0.878347
Si Si8 0.619786 0.402446 0.492648
O O1 0.202587 0.205913 0.249360
O O2 0.193414 0.598404 0.574140
O O3 0.431454 0.227876 0.635434
O O4 0.191992 0.167869 0.423398
O O5 0.951215 0.580901 0.246701
O O6 0.891085 0.714784 0.046375
O O7 0.894935 0.241692 0.860955
O O8 0.706332 0.646346 0.950233
O O9 0.287737 0.409977 0.306157
O O10 0.315575 0.914673 0.072157
O O11 0.000000 0.000000 0.500000
O O12 0.024492 0.154909 0.406248
O O13 0.720909 0.124766 0.478753
O O14 0.365134 0.490241 0.013676
O O15 0.540578 0.415241 0.302457
O O16 0.500000 0.000000 0.000000
O O17 0.500000 0.500000 0.000000
O O18 0.500000 0.500000 0.500000
#
# Coordination Sequence:
#
# PCOD9053994 Si02
#       8
#     2   2   2   2   2   2   2   2
#     4  12  27  47  72 104 145 192 235 294 363 423
#     4  11  26  47  75 109 137 195 243 287 362 424
#     4  11  23  44  73 103 145 181 233 293 354 430
#     4  12  29  50  74 101 143 194 250 295 348 427
#     4  11  25  47  74 104 145 188 239 302 354 424
#     4  12  24  40  69 102 145 181 232 291 352 425
#     4  12  28  41  69 112 147 182 229 298 366 428
#     4  11  20  39  69 100 136 183 226 282 356 415
#
# _framework density 24.793392999999998
#
# number of rings (size 3 to 8) (size 9 to 14) (size 15 to 20)
#    0.000    0.500    3.750    5.250    7.000    2.500 
#    0.000    0.000    0.000    0.000    0.000    0.000 
#    0.000    0.000    0.000    0.000    0.000    0.000 
#
# Total GULP energy -89298.580189 kJ/mol
# GULP energy per Si atom -5581.161262 kJ/mol
# Density = 2.473696 g / cm^3
# Si number density = 24.793393 Si / 1000 Ang^3
#
#
#
# Elastic Constant Matrix: (Units=GPa)
#
#
# Indices 1 2 3 4 5 6 
#
# 1 113.3441 29.5478 14.3307 4.2239 -20.8447 8.0270
# 2 29.5478 109.8487 -7.1420 20.2732 -14.7885 2.9258
# 3 14.3307 -7.1420 88.0982 8.5557 -11.4907 -9.7540
# 4 4.2239 20.2732 8.5557 25.2767 -9.7153 -3.4442
# 5 -20.8447 -14.7885 -11.4907 -9.7153 33.1645 7.0774
# 6 8.0270 2.9258 -9.7540 -3.4442 7.0774 51.7000
#
#
#
# Elastic Compliance Matrix: (Units=1/GPa)
#
#
# Indices 1 2 3 4 5 6 
#
# 1 0.011022 -0.002692 -0.001738 0.003083 0.006579 -0.002582
# 2 -0.002692 0.011996 0.002496 -0.009370 0.001921 -0.000677
# 3 -0.001738 0.002496 0.012856 -0.004780 0.002676 0.001869
# 4 0.003083 -0.009370 -0.004780 0.052673 0.011296 0.001113
# 5 0.006579 0.001921 0.002676 0.011296 0.040538 -0.005422
# 6 -0.002582 -0.000677 0.001869 0.001113 -0.005422 0.020951
#
#
# Mechanical properties :
#
#
# Convention : Reuss Voigt Hill
#
# Bulk Modulus (GPa) = 31.24496 42.75157 36.99826
# Shear Modulus (GPa) = 30.38145 40.33188 35.35666
#
# Velocity S-wave (km/s) = 3.50435 4.03764 3.78041
# Velocity P-wave (km/s) = 5.38548 6.24638 5.83184
#
# Compressibility (1/GPa) = 0.03200516
#
# Stress axis : x y z
#
# Youngs Moduli (GPa) = 90.72553 83.36174 77.78302
#
# Poissons Ratio (x) = 0.22444 0.13522
# Poissons Ratio (y) = 0.24426 -0.19415
# Poissons Ratio (z) = 0.15772 -0.20808
#
# Static dielectric constant tensor:
#      x y z
#    x 2.043510 0.018640 -0.035030 
#    y 0.018640 2.013820 -0.136450 
#    z -0.035030 -0.136450 2.117490 
# 
# From -- ./inp_files/462586.got.cif
#   From: 2010.05.17/outbox.cif.g08.bks.cpg/sg2_232_cif.got.tgz:462586.got - 2010.06.03 11:33:40.
