data_PCOD9053477
_publ_section_title
;
Structure prediction by ZEFSAII (Michael W. Deem and Ramdas Pophale) SiO2 
 PCOD9053477
Probable space group: P -1
;
_chemical_formula_sum "Si O2"
_cell_formula_units_Z 16
_cell_length_a 9.932363
_cell_length_b 20.374069
_cell_length_c 7.624713
_cell_angle_alpha 111.652412
_cell_angle_beta 121.769753
_cell_angle_gamma 31.545084
_cell_volume 675.165569
_symmetry_space_group_name_H-M "P -1"
_symmetry_group_IT_number 2
_symmetry_cell_setting 'triclinic'
loop_
_space_group_symop_operation_xyz
x,y,z
-x,-y,-z
loop_
_atom_site_type_symbol
_atom_site_label
_atom_site_fract_x
_atom_site_fract_y
_atom_site_fract_z
Si Si1 0.120488 0.971194 0.252654
Si Si2 0.669181 0.845181 0.115687
Si Si3 0.837998 0.554204 0.691768
Si Si4 0.361597 0.991805 0.689840
Si Si5 0.751507 0.441806 0.725249
Si Si6 0.243491 0.774684 0.298576
Si Si7 0.521554 0.228376 0.091693
Si Si8 0.551373 0.614447 0.052928
O O1 0.241753 0.852740 0.286960
O O2 0.322086 0.957794 0.458506
O O3 0.817192 0.103267 0.269778
O O4 0.000000 0.000000 0.000000
O O5 0.549454 0.960265 0.235836
O O6 0.004718 0.706640 0.224098
O O7 0.545618 0.820395 0.095664
O O8 0.561290 0.887038 0.879824
O O9 0.866077 0.468269 0.722779
O O10 0.536407 0.658557 0.490625
O O11 0.746924 0.652152 0.854591
O O12 0.146834 0.464657 0.743795
O O13 0.053273 0.119518 0.698975
O O14 0.500000 0.500000 0.500000
O O15 0.626714 0.518581 0.896672
O O16 0.302138 0.698221 0.105533
O O17 0.556142 0.284782 0.054504
#
# Coordination Sequence:
#
# PCOD9053477 Si02
#       8
#     2   2   2   2   2   2   2   2
#     4  12  24  41  70  95 127 168 223 271 319 381
#     4  11  22  42  71  90 134 170 217 259 326 390
#     4  11  21  40  64  95 127 167 218 264 316 384
#     4  11  25  42  67  99 126 176 211 269 329 380
#     4  11  23  40  68  93 130 177 212 260 325 385
#     4  12  23  38  68  96 133 160 216 272 319 378
#     4  11  19  41  66  91 122 169 218 265 317 382
#     4  11  23  39  65  97 128 166 219 266 313 388
#
# _framework density 23.697890000000001
#
# number of rings (size 3 to 8) (size 9 to 14) (size 15 to 20)
#    0.000    0.750    6.250    3.000    1.750    0.000 
#    0.000    3.125    8.250    0.000    0.000    0.000 
#    0.000    0.000    0.000    0.000    0.000    0.000 
#
# Total GULP energy -89263.026830 kJ/mol
# GULP energy per Si atom -5578.939177 kJ/mol
# Density = 2.364395 g / cm^3
# Si number density = 23.697890 Si / 1000 Ang^3
#
#
#
# Elastic Constant Matrix: (Units=GPa)
#
#
# Indices 1 2 3 4 5 6 
#
# 1 24.5322 12.4336 3.6780 3.7276 -0.3015 -4.6175
# 2 12.4336 126.5790 41.7977 -28.6778 -2.7296 13.7257
# 3 3.6780 41.7977 111.3627 -11.0851 9.6231 9.0445
# 4 3.7276 -28.6778 -11.0851 44.8423 5.8437 5.2180
# 5 -0.3015 -2.7296 9.6231 5.8437 24.6657 2.6450
# 6 -4.6175 13.7257 9.0445 5.2180 2.6450 45.0075
#
#
#
# Elastic Compliance Matrix: (Units=1/GPa)
#
#
# Indices 1 2 3 4 5 6 
#
# 1 0.047939 -0.007751 -0.000508 -0.010243 0.001443 0.008487
# 2 -0.007751 0.012071 -0.003182 0.007995 0.001106 -0.004829
# 3 -0.000508 -0.003182 0.010844 0.001448 -0.004809 -0.001146
# 4 -0.010243 0.007995 0.001448 0.030240 -0.006227 -0.006920
# 5 0.001443 0.001106 -0.004809 -0.006227 0.044151 -0.001096
# 6 0.008487 -0.004829 -0.001146 -0.006920 -0.001096 0.025659
#
#
# Mechanical properties :
#
#
# Convention : Reuss Voigt Hill
#
# Bulk Modulus (GPa) = 20.84560 42.03250 31.43905
# Shear Modulus (GPa) = 23.83490 36.54075 30.18782
#
# Velocity S-wave (km/s) = 3.17485 3.93102 3.57299
# Velocity P-wave (km/s) = 4.71752 6.19509 5.50610
#
# Compressibility (1/GPa) = 0.04797176
#
# Stress axis : x y z
#
# Youngs Moduli (GPa) = 20.85982 82.84095 92.22080
#
# Poissons Ratio (x) = 0.64212 0.04681
# Poissons Ratio (y) = 0.16169 0.29347
# Poissons Ratio (z) = 0.01059 0.26362
#
# Static dielectric constant tensor:
#      x y z
#    x 1.978360 -0.041620 -0.022900 
#    y -0.041620 1.880070 0.034260 
#    z -0.022900 0.034260 2.020120 
# 
# From -- ./inp_files/282189.got.cif
#   From: 2010.05.17/outbox.cif.g08.bks.cpg/sg2_142_cif.got.tgz:282189.got - 2010.06.03 11:33:40.
