data_PCOD9053298
_publ_section_title
;
Structure prediction by ZEFSAII (Michael W. Deem and Ramdas Pophale) SiO2 
 PCOD9053298
Probable space group: P -1
;
_chemical_formula_sum "Si O2"
_cell_formula_units_Z 14
_cell_length_a 25.839965
_cell_length_b 16.194283
_cell_length_c 5.047886
_cell_angle_alpha 85.787316
_cell_angle_beta 77.455564
_cell_angle_gamma 17.362194
_cell_volume 546.498459
_symmetry_space_group_name_H-M "P -1"
_symmetry_group_IT_number 2
_symmetry_cell_setting 'triclinic'
loop_
_space_group_symop_operation_xyz
x,y,z
-x,-y,-z
loop_
_atom_site_type_symbol
_atom_site_label
_atom_site_fract_x
_atom_site_fract_y
_atom_site_fract_z
Si Si1 0.769158 0.344336 0.252272
Si Si2 0.831433 0.593268 0.442803
Si Si3 0.831753 0.423601 0.332678
Si Si4 0.032698 0.237771 0.804434
Si Si5 0.450266 0.752624 0.152662
Si Si6 0.248115 0.792885 0.341675
Si Si7 0.766161 0.860247 0.220460
O O1 0.728401 0.491579 0.412421
O O2 0.630169 0.539833 0.107697
O O3 0.736988 0.311743 0.472134
O O4 0.000000 0.000000 0.000000
O O5 0.723268 0.667160 0.519952
O O6 0.716245 0.845871 0.409161
O O7 0.917418 0.469075 0.669945
O O8 0.019723 0.296331 0.097847
O O9 0.043528 0.095553 0.328023
O O10 0.894716 0.363159 0.986808
O O11 0.302219 0.971717 0.517492
O O12 0.221889 0.911568 0.532245
O O13 0.562503 0.500868 0.991226
O O14 0.336885 0.963250 0.981796
O O15 0.000000 0.500000 0.000000
#
# Coordination Sequence:
#
# PCOD9053298 Si02
#       7
#     2   2   2   2   2   2   2
#     4  12  20  35  63 105 141 175 200 253 329 402
#     4   9  20  40  64  89 120 173 224 259 317 384
#     4   9  20  33  63  94 133 182 197 248 322 389
#     4   9  18  34  63  93 129 172 206 251 322 384
#     4  12  26  40  67 104 133 160 222 276 318 393
#     4  11  19  36  60 102 141 164 214 253 325 381
#     4  12  27  50  71  88 121 178 230 283 322 363
#
# _framework density 25.617640999999999
#
# number of rings (size 3 to 8) (size 9 to 14) (size 15 to 20)
#    0.857    0.571    4.286    1.714    0.000    0.000 
#    0.000    1.429    0.000   12.000    0.000    0.000 
#    0.000    0.000    0.000    0.000    0.000    0.000 
#
# Total GULP energy -78252.703491 kJ/mol
# GULP energy per Si atom -5589.478821 kJ/mol
# Density = 2.555933 g / cm^3
# Si number density = 25.617641 Si / 1000 Ang^3
#
#
#
# Elastic Constant Matrix: (Units=GPa)
#
#
# Indices 1 2 3 4 5 6 
#
# 1 122.4770 37.1968 3.3185 -6.4340 9.6157 15.3469
# 2 37.1968 138.8341 45.7627 -21.7287 4.3201 -23.0414
# 3 3.3185 45.7627 112.8932 -10.5054 20.6955 -9.8404
# 4 -6.4340 -21.7287 -10.5054 58.2080 0.2291 8.6783
# 5 9.6157 4.3201 20.6955 0.2291 30.0251 6.1181
# 6 15.3469 -23.0414 -9.8404 8.6783 6.1181 23.7736
#
#
#
# Elastic Compliance Matrix: (Units=1/GPa)
#
#
# Indices 1 2 3 4 5 6 
#
# 1 0.011379 -0.005154 0.001037 0.001329 -0.001163 -0.012098
# 2 -0.005154 0.012141 -0.003394 0.001367 -0.000480 0.013314
# 3 0.001037 -0.003394 0.012159 0.000610 -0.008868 0.003133
# 4 0.001329 0.001367 0.000610 0.018869 0.000074 -0.006188
# 5 -0.001163 -0.000480 -0.008868 0.000074 0.042798 -0.014426
# 6 -0.012098 0.013314 0.003133 -0.006188 -0.014426 0.070045
#
#
# Mechanical properties :
#
#
# Convention : Reuss Voigt Hill
#
# Bulk Modulus (GPa) = 48.41184 60.75118 54.58151
# Shear Modulus (GPa) = 26.41319 41.59644 34.00481
#
# Velocity S-wave (km/s) = 3.21449 4.03394 3.64730
# Velocity P-wave (km/s) = 5.71980 6.74262 6.25216
#
# Compressibility (1/GPa) = 0.02065610
#
# Stress axis : x y z
#
# Youngs Moduli (GPa) = 87.88085 82.36498 82.24502
#
# Poissons Ratio (x) = 0.42452 -0.08530
# Poissons Ratio (y) = 0.45295 0.27917
# Poissons Ratio (z) = -0.09114 0.27958
#
# Static dielectric constant tensor:
#      x y z
#    x 2.128310 0.021840 -0.021980 
#    y 0.021840 1.959680 0.029080 
#    z -0.021980 0.029080 2.071630 
# 
# From -- ./inp_files/72106.got.cif
#   From: 2010.05.17/outbox.cif.g08.bks.cpg/sg2_37_cif.got.tgz:72106.got - 2010.06.03 11:33:40.
