data_PCOD9053903
_publ_section_title
;
Structure prediction by ZEFSAII (Michael W. Deem and Ramdas Pophale) SiO2 
 PCOD9053903
Probable space group: P -1
;
_chemical_formula_sum "Si O2"
_cell_formula_units_Z 14
_cell_length_a 12.484956
_cell_length_b 8.831393
_cell_length_c 9.010883
_cell_angle_alpha 64.308217
_cell_angle_beta 122.422828
_cell_angle_gamma 84.521238
_cell_volume 681.915583
_symmetry_space_group_name_H-M "P -1"
_symmetry_group_IT_number 2
_symmetry_cell_setting 'triclinic'
loop_
_space_group_symop_operation_xyz
x,y,z
-x,-y,-z
loop_
_atom_site_type_symbol
_atom_site_label
_atom_site_fract_x
_atom_site_fract_y
_atom_site_fract_z
Si Si1 0.779205 0.676936 0.335276
Si Si2 0.117008 0.824532 0.585390
Si Si3 0.833338 0.463707 0.032283
Si Si4 0.571663 0.637836 0.952604
Si Si5 0.994394 0.267662 0.728362
Si Si6 0.927175 0.784570 0.880155
Si Si7 0.308453 0.995702 0.632667
O O1 0.667831 0.643429 0.161600
O O2 0.879111 0.729979 0.278652
O O3 0.880273 0.483170 0.574468
O O4 0.706888 0.844538 0.328906
O O5 0.108504 0.644518 0.724023
O O6 0.254966 0.847581 0.722023
O O7 0.088101 0.820794 0.393360
O O8 0.000000 0.000000 0.500000
O O9 0.668634 0.560061 0.909987
O O10 0.918466 0.302323 0.045519
O O11 0.883673 0.619062 0.963478
O O12 0.500000 0.500000 0.000000
O O13 0.462461 0.853800 0.754754
O O14 0.055955 0.151573 0.971161
O O15 0.805177 0.905647 0.623691
#
# Coordination Sequence:
#
# PCOD9053903 Si02
#       7
#     2   2   2   2   2   2   2
#     4  11  21  40  66  97 123 172 226 264 309 389
#     4  12  21  40  68  99 128 168 222 274 307 380
#     4  11  21  42  64  93 127 173 214 261 327 372
#     4  12  24  42  69  95 131 174 218 266 321 384
#     4  11  20  38  68  96 129 165 219 268 326 373
#     4  11  23  39  67  98 129 173 209 274 324 381
#     4  12  25  40  66  99 133 168 219 267 323 386
#
# _framework density 20.5304
#
# number of rings (size 3 to 8) (size 9 to 14) (size 15 to 20)
#    0.000    0.571    7.143    3.000    0.000    1.143 
#    0.000    0.000    0.000    4.286    0.000    0.000 
#    0.000    0.000    0.000    0.000    0.000    0.000 
#
# Total GULP energy -78008.528660 kJ/mol
# GULP energy per Si atom -5572.037761 kJ/mol
# Density = 2.048367 g / cm^3
# Si number density = 20.530400 Si / 1000 Ang^3
#
#
#
# Elastic Constant Matrix: (Units=GPa)
#
#
# Indices 1 2 3 4 5 6 
#
# 1 88.9802 35.3892 29.5560 -7.0787 7.4626 -11.8154
# 2 35.3892 108.7100 49.5509 -6.2045 9.3893 -6.5682
# 3 29.5560 49.5509 91.1390 -9.4946 -0.0492 -15.8750
# 4 -7.0787 -6.2045 -9.4946 32.5105 -6.9474 12.8185
# 5 7.4626 9.3893 -0.0492 -6.9474 29.8848 -3.6818
# 6 -11.8154 -6.5682 -15.8750 12.8185 -3.6818 45.6561
#
#
#
# Elastic Compliance Matrix: (Units=1/GPa)
#
#
# Indices 1 2 3 4 5 6 
#
# 1 0.013725 -0.003042 -0.002405 0.000474 -0.002122 0.001974
# 2 -0.003042 0.013405 -0.006569 -0.000274 -0.003694 -0.001364
# 3 -0.002405 -0.006569 0.016212 0.002274 0.003679 0.003728
# 4 0.000474 -0.000274 0.002274 0.036514 0.007378 -0.008783
# 5 -0.002122 -0.003694 0.003679 0.007378 0.037011 0.001112
# 6 0.001974 -0.001364 0.003728 -0.008783 0.001112 0.026069
#
#
# Mechanical properties :
#
#
# Convention : Reuss Voigt Hill
#
# Bulk Modulus (GPa) = 51.79087 57.53572 54.66329
# Shear Modulus (GPa) = 28.83427 33.23250 31.03338
#
# Velocity S-wave (km/s) = 3.75169 4.02767 3.89212
# Velocity P-wave (km/s) = 6.63687 7.05088 6.84701
#
# Compressibility (1/GPa) = 0.01930842
#
# Stress axis : x y z
#
# Youngs Moduli (GPa) = 72.85972 74.60136 61.68245
#
# Poissons Ratio (x) = 0.22696 0.14834
# Poissons Ratio (y) = 0.22166 0.40522
# Poissons Ratio (z) = 0.17522 0.49009
#
# Static dielectric constant tensor:
#      x y z
#    x 1.804830 -0.016910 0.026900 
#    y -0.016910 1.790580 -0.023790 
#    z 0.026900 -0.023790 1.801850 
# 
# From -- ./inp_files/237965.got.cif
#   From: 2010.05.17/outbox.cif.g08.bks.cpg/sg2_119_cif.got.tgz:237965.got - 2010.06.03 11:33:40.
