data_PCOD9053409
_publ_section_title
;
Structure prediction by ZEFSAII (Michael W. Deem and Ramdas Pophale) SiO2 
 PCOD9053409
Probable space group: P -1
;
_chemical_formula_sum "Si O2"
_cell_formula_units_Z 16
_cell_length_a 17.659573
_cell_length_b 8.817741
_cell_length_c 6.091426
_cell_angle_alpha 74.004225
_cell_angle_beta 50.738859
_cell_angle_gamma 58.503595
_cell_volume 624.044050
_symmetry_space_group_name_H-M "P -1"
_symmetry_group_IT_number 2
_symmetry_cell_setting 'triclinic'
loop_
_space_group_symop_operation_xyz
x,y,z
-x,-y,-z
loop_
_atom_site_type_symbol
_atom_site_label
_atom_site_fract_x
_atom_site_fract_y
_atom_site_fract_z
Si Si1 0.311336 0.014855 0.030930
Si Si2 0.590309 0.507194 0.665467
Si Si3 0.828986 0.674601 0.172646
Si Si4 0.730855 0.532950 0.746909
Si Si5 0.676807 0.186959 0.309446
Si Si6 0.130860 0.088182 0.702316
Si Si7 0.458935 0.191479 0.709015
Si Si8 0.063590 0.614644 0.256193
O O1 0.242888 0.182803 0.931265
O O2 0.420558 0.038815 0.851787
O O3 0.322007 0.844777 0.941109
O O4 0.233073 0.047811 0.367476
O O5 0.697222 0.442486 0.649687
O O6 0.617996 0.376581 0.458787
O O7 0.561417 0.697008 0.527872
O O8 0.500000 0.500000 0.000000
O O9 0.761162 0.666637 0.506379
O O10 0.901861 0.754475 0.119448
O O11 0.881505 0.488288 0.027570
O O12 0.837029 0.416851 0.748334
O O13 0.622704 0.654880 0.037454
O O14 0.587670 0.115896 0.563032
O O15 0.803208 0.088024 0.200667
O O16 0.022806 0.178410 0.711194
O O17 0.000000 0.500000 0.500000
#
# Coordination Sequence:
#
# PCOD9053409 Si02
#       8
#     2   2   2   2   2   2   2   2
#     4  11  22  41  65 106 140 169 221 283 348 396
#     4  12  27  47  70  95 133 187 236 271 330 411
#     4  11  19  39  65 104 134 170 222 276 335 399
#     4  12  23  39  72  99 132 172 237 278 326 388
#     4  11  28  41  67  98 142 182 216 283 344 405
#     4  11  24  40  64 102 142 175 212 279 354 393
#     4  12  23  46  69 101 128 178 233 284 332 405
#     4  12  21  38  68 104 139 175 223 283 331 400
#
# _framework density 25.639216000000001
#
# number of rings (size 3 to 8) (size 9 to 14) (size 15 to 20)
#    0.000    0.500    7.500    1.125    1.750    0.500 
#    0.000    0.625    0.000    3.750    0.000    0.000 
#    0.000    0.000    0.000    0.000    0.000    0.000 
#
# Total GULP energy -89322.477650 kJ/mol
# GULP energy per Si atom -5582.654853 kJ/mol
# Density = 2.558086 g / cm^3
# Si number density = 25.639216 Si / 1000 Ang^3
#
#
#
# Elastic Constant Matrix: (Units=GPa)
#
#
# Indices 1 2 3 4 5 6 
#
# 1 115.2976 42.7442 13.1708 31.8919 0.9106 -20.8591
# 2 42.7442 70.3033 29.4270 12.7198 13.2933 -1.2224
# 3 13.1708 29.4270 100.4628 10.8948 9.1812 5.1970
# 4 31.8919 12.7198 10.8948 31.4554 5.6734 12.1152
# 5 0.9106 13.2933 9.1812 5.6734 24.5693 11.6672
# 6 -20.8591 -1.2224 5.1970 12.1152 11.6672 43.8345
#
#
#
# Elastic Compliance Matrix: (Units=1/GPa)
#
#
# Indices 1 2 3 4 5 6 
#
# 1 0.022316 -0.009569 0.001682 -0.026169 0.001727 0.016926
# 2 -0.009569 0.023274 -0.005004 0.004615 -0.010595 -0.001767
# 3 0.001682 -0.005004 0.011679 -0.003759 -0.001146 0.000620
# 4 -0.026169 0.004615 -0.003759 0.069904 -0.001659 -0.030757
# 5 0.001727 -0.010595 -0.001146 -0.001659 0.053398 -0.013092
# 6 0.016926 -0.001767 0.000620 -0.030757 -0.013092 0.042730
#
#
# Mechanical properties :
#
#
# Convention : Reuss Voigt Hill
#
# Bulk Modulus (GPa) = 31.75927 50.74972 41.25450
# Shear Modulus (GPa) = 19.26196 33.35330 26.30763
#
# Velocity S-wave (km/s) = 2.74390 3.61067 3.20671
# Velocity P-wave (km/s) = 4.73841 6.10077 5.46223
#
# Compressibility (1/GPa) = 0.03148687
#
# Stress axis : x y z
#
# Youngs Moduli (GPa) = 44.81160 42.96597 85.62082
#
# Poissons Ratio (x) = 0.41116 -0.14400
# Poissons Ratio (y) = 0.42882 0.42841
# Poissons Ratio (z) = -0.07537 0.21499
#
# Static dielectric constant tensor:
#      x y z
#    x 2.097470 0.030930 -0.014410 
#    y 0.030930 2.054690 -0.016400 
#    z -0.014410 -0.016400 2.023770 
# 
# From -- ./inp_files/106653.got.cif
#   From: 2010.05.17/outbox.cif.g08.bks.cpg/sg2_54_cif.got.tgz:106653.got - 2010.06.03 11:33:40.
