data_PCOD9053758
_publ_section_title
;
Structure prediction by ZEFSAII (Michael W. Deem and Ramdas Pophale) SiO2 
 PCOD9053758
Probable space group: P -1
;
_chemical_formula_sum "Si O2"
_cell_formula_units_Z 14
_cell_length_a 9.759721
_cell_length_b 9.214020
_cell_length_c 13.839123
_cell_angle_alpha 56.602131
_cell_angle_beta 47.867273
_cell_angle_gamma 43.370342
_cell_volume 628.939070
_symmetry_space_group_name_H-M "P -1"
_symmetry_group_IT_number 2
_symmetry_cell_setting 'triclinic'
loop_
_space_group_symop_operation_xyz
x,y,z
-x,-y,-z
loop_
_atom_site_type_symbol
_atom_site_label
_atom_site_fract_x
_atom_site_fract_y
_atom_site_fract_z
Si Si1 0.386992 0.071425 0.236311
Si Si2 0.959650 0.938733 0.284245
Si Si3 0.392862 0.514328 0.229865
Si Si4 0.251174 0.863981 0.891252
Si Si5 0.553655 0.326981 0.658036
Si Si6 0.328078 0.149506 0.442726
Si Si7 0.886046 0.274095 0.360370
O O1 0.581672 0.109681 0.131786
O O2 0.392927 0.007055 0.369178
O O3 0.121577 0.247763 0.276880
O O4 0.445652 0.865621 0.226806
O O5 0.208269 0.754819 0.195841
O O6 0.903929 0.798277 0.425384
O O7 0.794778 0.044811 0.231284
O O8 0.929804 0.115672 0.308260
O O9 0.610097 0.387569 0.103378
O O10 0.450725 0.535617 0.303301
O O11 0.315959 0.353597 0.335637
O O12 0.000000 0.000000 0.000000
O O13 0.778613 0.237035 0.519429
O O14 0.320558 0.484991 0.654367
O O15 0.500000 0.000000 0.500000
#
# Coordination Sequence:
#
# PCOD9053758 Si02
#       7
#     2   2   2   2   2   2   2
#     4  11  22  39  63  95 130 160 210 256 314 380
#     4  12  21  41  66  92 132 166 205 259 322 379
#     4  11  23  38  67  94 127 166 208 252 321 385
#     4  11  27  48  64  87 124 170 227 274 303 356
#     4  11  21  36  63  98 136 164 193 245 329 391
#     4  11  20  37  58  99 134 164 194 249 319 388
#     4  11  22  35  64 100 136 161 196 251 321 395
#
# _framework density 22.259706999999999
#
# number of rings (size 3 to 8) (size 9 to 14) (size 15 to 20)
#    0.000    0.857    7.143    1.714    2.000    4.000 
#    0.000    1.429    0.000    0.000    0.000    0.000 
#    0.000    0.000    0.000    0.000    0.000    0.000 
#
# Total GULP energy -77995.681932 kJ/mol
# GULP energy per Si atom -5571.120138 kJ/mol
# Density = 2.220904 g / cm^3
# Si number density = 22.259707 Si / 1000 Ang^3
#
#
#
# Elastic Constant Matrix: (Units=GPa)
#
#
# Indices 1 2 3 4 5 6 
#
# 1 109.2871 30.1775 25.4357 8.8042 -29.7887 -9.3285
# 2 30.1775 110.3133 29.4804 41.8358 -16.1943 -10.6657
# 3 25.4357 29.4804 74.3098 29.9244 -20.2720 5.4716
# 4 8.8042 41.8358 29.9244 34.2836 -13.5490 -0.5990
# 5 -29.7887 -16.1943 -20.2720 -13.5490 28.9444 8.8779
# 6 -9.3285 -10.6657 5.4716 -0.5990 8.8779 42.3733
#
#
#
# Elastic Compliance Matrix: (Units=1/GPa)
#
#
# Indices 1 2 3 4 5 6 
#
# 1 0.014619 -0.005413 -0.003368 0.011889 0.015462 -0.000781
# 2 -0.005413 0.019802 0.003141 -0.028132 -0.006816 0.004417
# 3 -0.003368 0.003141 0.024201 -0.021564 0.006609 -0.004765
# 4 0.011889 -0.028132 -0.021564 0.088950 0.024751 -0.005608
# 5 0.015462 -0.006816 0.006609 0.024751 0.066792 -0.012809
# 6 -0.000781 0.004417 -0.004765 -0.005608 -0.012809 0.027759
#
#
# Mechanical properties :
#
#
# Convention : Reuss Voigt Hill
#
# Bulk Modulus (GPa) = 21.12313 51.56637 36.34475
# Shear Modulus (GPa) = 18.57450 35.04137 26.80794
#
# Velocity S-wave (km/s) = 2.89181 3.97193 3.47410
# Velocity P-wave (km/s) = 4.54534 6.65215 5.69698
#
# Compressibility (1/GPa) = 0.04734147
#
# Stress axis : x y z
#
# Youngs Moduli (GPa) = 68.40322 50.49986 41.31998
#
# Poissons Ratio (x) = 0.27338 0.13918
# Poissons Ratio (y) = 0.37030 -0.12979
# Poissons Ratio (z) = 0.23040 -0.15863
#
# Static dielectric constant tensor:
#      x y z
#    x 1.864320 -0.028340 -0.021950 
#    y -0.028340 1.842710 0.017100 
#    z -0.021950 0.017100 1.924670 
# 
# From -- ./inp_files/188175.got.cif
#   From: 2010.05.17/outbox.cif.g08.bks.cpg/sg2_95_cif.got.tgz:188175.got - 2010.06.03 11:33:40.
