data_PCOD9053269
_publ_section_title
;
Structure prediction by ZEFSAII (Michael W. Deem and Ramdas Pophale) SiO2 
 PCOD9053269
Probable space group: P -1
;
_chemical_formula_sum "Si O2"
_cell_formula_units_Z 14
_cell_length_a 10.152409
_cell_length_b 9.025535
_cell_length_c 8.225873
_cell_angle_alpha 111.402230
_cell_angle_beta 70.775612
_cell_angle_gamma 74.479830
_cell_volume 594.704598
_symmetry_space_group_name_H-M "P -1"
_symmetry_group_IT_number 2
_symmetry_cell_setting 'triclinic'
loop_
_space_group_symop_operation_xyz
x,y,z
-x,-y,-z
loop_
_atom_site_type_symbol
_atom_site_label
_atom_site_fract_x
_atom_site_fract_y
_atom_site_fract_z
Si Si1 0.953000 0.377822 0.159042
Si Si2 0.962666 0.948572 0.218342
Si Si3 0.703711 0.290217 0.363182
Si Si4 0.067539 0.270380 0.607376
Si Si5 0.430061 0.729332 0.929930
Si Si6 0.705213 0.395589 0.756206
Si Si7 0.797943 0.880437 0.819357
O O1 0.811693 0.390531 0.335305
O O2 0.925870 0.576419 0.222398
O O3 0.120422 0.261265 0.127873
O O4 0.949663 0.247705 0.968106
O O5 0.888740 0.915425 0.396922
O O6 0.824723 0.081753 0.215459
O O7 0.078378 0.036046 0.225557
O O8 0.592857 0.327858 0.267828
O O9 0.656199 0.320061 0.583810
O O10 0.888332 0.336769 0.654889
O O11 0.181232 0.235061 0.395913
O O12 0.606170 0.607691 0.864339
O O13 0.339549 0.674741 0.087268
O O14 0.362429 0.942232 0.034879
#
# Coordination Sequence:
#
# PCOD9053269 Si02
#       7
#     2   2   2   2   2   2   2
#     4  11  21  34  59  88 122 145 190 253 299 339
#     4  11  19  35  61  86 115 151 197 246 287 343
#     4  11  20  39  63  87 114 157 202 240 291 348
#     4  12  22  35  58  94 118 148 193 248 301 346
#     4  11  22  39  59  88 117 157 199 245 282 351
#     4  11  23  36  60  88 122 151 197 244 294 346
#     4  11  19  36  59  82 114 152 198 239 286 341
#
# _framework density 23.541101000000001
#
# number of rings (size 3 to 8) (size 9 to 14) (size 15 to 20)
#    0.000    0.857    7.143    3.429    0.000    0.000 
#    0.000    0.714    0.000    0.000    0.000    8.000 
#    0.000    0.000    0.000    0.000    0.000    0.000 
#
# Total GULP energy -78135.756944 kJ/mol
# GULP energy per Si atom -5581.125496 kJ/mol
# Density = 2.348752 g / cm^3
# Si number density = 23.541101 Si / 1000 Ang^3
#
#
#
# Elastic Constant Matrix: (Units=GPa)
#
#
# Indices 1 2 3 4 5 6 
#
# 1 51.0473 33.5993 8.7967 3.1372 5.1279 -12.7975
# 2 33.5993 89.2674 -6.2070 9.9619 -5.5153 -15.1864
# 3 8.7967 -6.2070 71.9391 -2.4126 23.7424 -1.4467
# 4 3.1372 9.9619 -2.4126 44.7922 -7.6712 0.6841
# 5 5.1279 -5.5153 23.7424 -7.6712 28.4534 7.1788
# 6 -12.7975 -15.1864 -1.4467 0.6841 7.1788 35.4561
#
#
#
# Elastic Compliance Matrix: (Units=1/GPa)
#
#
# Indices 1 2 3 4 5 6 
#
# 1 0.029513 -0.010230 -0.001634 -0.001426 -0.008319 0.007916
# 2 -0.010230 0.016085 0.001991 -0.002475 0.001890 0.002943
# 3 -0.001634 0.001991 0.020255 -0.002407 -0.018080 0.004796
# 4 -0.001426 -0.002475 -0.002407 0.024521 0.009419 -0.004053
# 5 -0.008319 0.001890 -0.018080 0.009419 0.058406 -0.014938
# 6 0.007916 0.002943 0.004796 -0.004053 -0.014938 0.035620
#
#
# Mechanical properties :
#
#
# Convention : Reuss Voigt Hill
#
# Bulk Modulus (GPa) = 21.68927 31.62576 26.65751
# Shear Modulus (GPa) = 22.77751 33.47800 28.12776
#
# Velocity S-wave (km/s) = 3.11394 3.77518 3.46039
# Velocity P-wave (km/s) = 4.70768 5.69790 5.22629
#
# Compressibility (1/GPa) = 0.04610576
#
# Stress axis : x y z
#
# Youngs Moduli (GPa) = 33.88391 62.17002 49.37036
#
# Poissons Ratio (x) = 0.63601 0.08069
# Poissons Ratio (y) = 0.34664 -0.09830
# Poissons Ratio (z) = 0.05538 -0.12379
#
# Static dielectric constant tensor:
#      x y z
#    x 1.861100 -0.008000 0.000540 
#    y -0.008000 1.916940 -0.040300 
#    z 0.000540 -0.040300 2.007910 
# 
# From -- ./inp_files/159205.got.cif
#   From: 2010.05.17/outbox.cif.g08.bks.cpg/sg2_80_cif.got.tgz:159205.got - 2010.06.03 11:33:40.
