data_PCOD9053293
_publ_section_title
;
Structure prediction by ZEFSAII (Michael W. Deem and Ramdas Pophale) SiO2 
 PCOD9053293
Probable space group: P -1
;
_chemical_formula_sum "Si O2"
_cell_formula_units_Z 14
_cell_length_a 8.992725
_cell_length_b 15.343295
_cell_length_c 9.579478
_cell_angle_alpha 131.305513
_cell_angle_beta 46.769175
_cell_angle_gamma 117.129807
_cell_volume 723.412535
_symmetry_space_group_name_H-M "P -1"
_symmetry_group_IT_number 2
_symmetry_cell_setting 'triclinic'
loop_
_space_group_symop_operation_xyz
x,y,z
-x,-y,-z
loop_
_atom_site_type_symbol
_atom_site_label
_atom_site_fract_x
_atom_site_fract_y
_atom_site_fract_z
Si Si1 0.067723 0.367168 0.285694
Si Si2 0.429499 0.273661 0.558501
Si Si3 0.509970 0.367767 0.904564
Si Si4 0.214821 0.706092 0.857366
Si Si5 0.209131 0.471347 0.755082
Si Si6 0.046651 0.708930 0.434337
Si Si7 0.020753 0.136064 0.610148
O O1 0.000000 0.500000 0.500000
O O2 0.975937 0.334177 0.159174
O O3 0.972018 0.287027 0.383080
O O4 0.310611 0.352651 0.111442
O O5 0.487889 0.287067 0.696259
O O6 0.615887 0.245914 0.306624
O O7 0.352844 0.400656 0.691177
O O8 0.243084 0.185338 0.562210
O O9 0.730966 0.342442 0.798988
O O10 0.500000 0.500000 0.000000
O O11 0.292660 0.589375 0.760046
O O12 0.137293 0.795487 0.116794
O O13 0.131582 0.380887 0.592070
O O14 0.000000 0.500000 0.000000
O O15 0.016694 0.822590 0.481029
O O16 0.000000 0.000000 0.500000
#
# Coordination Sequence:
#
# PCOD9053293 Si02
#       7
#     2   2   2   2   2   2   2
#     4  12  21  35  60 100 136 162 191 249 322 400
#     4  11  23  38  65  94 127 168 207 255 330 378
#     4  12  21  35  61  97 138 163 190 248 324 397
#     4  12  21  39  66  92 130 166 206 259 323 382
#     4  11  19  36  58  97 135 165 195 253 321 399
#     4  11  23  38  62  97 129 161 210 251 322 378
#     4  11  27  49  66  85 123 173 232 274 295 354
#
# _framework density 19.352720999999999
#
# number of rings (size 3 to 8) (size 9 to 14) (size 15 to 20)
#    0.000    0.571    8.571    1.286    0.000    2.857 
#    0.000    1.429    0.000    0.000    0.000    0.000 
#    0.000    0.000    0.000    0.000    0.000    0.000 
#
# Total GULP energy -78255.747813 kJ/mol
# GULP energy per Si atom -5589.696272 kJ/mol
# Density = 1.930867 g / cm^3
# Si number density = 19.352721 Si / 1000 Ang^3
#
#
#
# Elastic Constant Matrix: (Units=GPa)
#
#
# Indices 1 2 3 4 5 6 
#
# 1 64.4051 25.8741 11.4281 3.8615 1.0563 -5.3224
# 2 25.8741 125.0418 51.7962 6.7864 -2.7984 -10.5718
# 3 11.4281 51.7962 74.9228 -18.5412 -2.6892 0.9350
# 4 3.8615 6.7864 -18.5412 34.4252 5.7242 -7.0113
# 5 1.0563 -2.7984 -2.6892 5.7242 30.0889 -12.8737
# 6 -5.3224 -10.5718 0.9350 -7.0113 -12.8737 25.4256
#
#
#
# Elastic Compliance Matrix: (Units=1/GPa)
#
#
# Indices 1 2 3 4 5 6 
#
# 1 0.017118 -0.002840 -0.001043 -0.001527 0.000251 0.002147
# 2 -0.002840 0.014363 -0.011448 -0.008242 0.004454 0.005781
# 3 -0.001043 -0.011448 0.025275 0.015872 -0.003120 -0.003111
# 4 -0.001527 -0.008242 0.015872 0.041155 -0.005260 0.004355
# 5 0.000251 0.004454 -0.003120 -0.005260 0.044175 0.022935
# 6 0.002147 0.005781 -0.003111 0.004355 0.022935 0.055111
#
#
# Mechanical properties :
#
#
# Convention : Reuss Voigt Hill
#
# Bulk Modulus (GPa) = 38.32428 49.17407 43.74917
# Shear Modulus (GPa) = 21.13648 29.67270 25.40459
#
# Velocity S-wave (km/s) = 3.30839 3.91993 3.62707
# Velocity P-wave (km/s) = 5.86855 6.77882 6.34004
#
# Compressibility (1/GPa) = 0.02609312
#
# Stress axis : x y z
#
# Youngs Moduli (GPa) = 58.41952 69.62374 39.56414
#
# Poissons Ratio (x) = 0.19773 0.04127
# Poissons Ratio (y) = 0.16591 0.45294
# Poissons Ratio (z) = 0.06094 0.79707
#
# Static dielectric constant tensor:
#      x y z
#    x 1.720220 0.011890 0.009480 
#    y 0.011890 1.657680 -0.036730 
#    z 0.009480 -0.036730 1.697270 
# 
# From -- ./inp_files/177205.got.cif
#   From: 2010.05.17/outbox.cif.g08.bks.cpg/sg2_89_cif.got.tgz:177205.got - 2010.06.03 11:33:40.
