data_PCOD9053237
_publ_section_title
;
Structure prediction by ZEFSAII (Michael W. Deem and Ramdas Pophale) SiO2 
 PCOD9053237
Probable space group: P -1
;
_chemical_formula_sum "Si O2"
_cell_formula_units_Z 16
_cell_length_a 18.782889
_cell_length_b 22.075670
_cell_length_c 12.595725
_cell_angle_alpha 36.481727
_cell_angle_beta 29.210107
_cell_angle_gamma 18.002282
_cell_volume 775.864434
_symmetry_space_group_name_H-M "P -1"
_symmetry_group_IT_number 2
_symmetry_cell_setting 'triclinic'
loop_
_space_group_symop_operation_xyz
x,y,z
-x,-y,-z
loop_
_atom_site_type_symbol
_atom_site_label
_atom_site_fract_x
_atom_site_fract_y
_atom_site_fract_z
Si Si1 0.306282 0.057514 0.894648
Si Si2 0.288186 0.487167 0.022259
Si Si3 0.427784 0.514951 0.194433
Si Si4 0.390553 0.681145 0.376363
Si Si5 0.709365 0.071241 0.704154
Si Si6 0.781221 0.928616 0.410223
Si Si7 0.704077 0.132148 0.394539
Si Si8 0.268331 0.924507 0.944728
O O1 0.037665 0.293763 0.891331
O O2 0.587933 0.945654 0.647591
O O3 0.251867 0.993378 0.980116
O O4 0.341038 0.992434 0.060175
O O5 0.415771 0.309218 0.161809
O O6 0.406924 0.509412 0.906459
O O7 0.456316 0.377678 0.847150
O O8 0.523644 0.343120 0.334182
O O9 0.089267 0.727449 0.344540
O O10 0.500000 0.500000 0.000000
O O11 0.500000 0.500000 0.500000
O O12 0.438626 0.737566 0.325073
O O13 0.050444 0.881277 0.529080
O O14 0.642593 0.104649 0.619518
O O15 0.641551 0.103073 0.414044
O O16 0.812425 0.947970 0.222240
O O17 0.031099 0.977436 0.179081
#
# Coordination Sequence:
#
# PCOD9053237 Si02
#       8
#     2   2   2   2   2   2   2   2
#     4  12  26  43  64 100 139 171 210 269 336 391
#     4  12  22  38  70  98 124 170 221 267 326 382
#     4  12  23  41  68  97 126 171 224 268 320 386
#     4  11  19  34  63  95 123 161 219 268 310 370
#     4  11  22  39  63  95 134 167 211 272 324 383
#     4  12  27  44  65  96 138 175 211 271 334 388
#     4  12  23  42  69  98 126 171 225 273 316 386
#     4  12  22  43  70  97 129 167 227 275 317 380
#
# _framework density 20.622160000000001
#
# number of rings (size 3 to 8) (size 9 to 14) (size 15 to 20)
#    0.000    0.250    7.500    3.000    0.000    2.000 
#    0.000    0.625    0.000    0.000    0.000    0.000 
#    0.000    0.000    0.000    0.000    0.000    0.000 
#
# Total GULP energy -89367.847016 kJ/mol
# GULP energy per Si atom -5585.490439 kJ/mol
# Density = 2.057522 g / cm^3
# Si number density = 20.622160 Si / 1000 Ang^3
#
#
#
# Elastic Constant Matrix: (Units=GPa)
#
#
# Indices 1 2 3 4 5 6 
#
# 1 29.4005 -20.6874 47.7980 10.5630 21.9708 2.3993
# 2 -20.6874 93.7837 40.5079 10.0235 4.9578 -2.3121
# 3 47.7980 40.5079 2.5943 -13.8306 3.7759 -20.5144
# 4 10.5630 10.0235 -13.8306 16.8485 -4.4855 9.2503
# 5 21.9708 4.9578 3.7759 -4.4855 28.3776 -4.2465
# 6 2.3993 -2.3121 -20.5144 9.2503 -4.2465 30.5125
#
#
#
# Elastic Compliance Matrix: (Units=1/GPa)
#
#
# Indices 1 2 3 4 5 6 
#
# 1 0.008041 -0.004785 0.015046 0.004903 -0.005591 0.006857
# 2 -0.004785 0.007490 0.004654 0.000728 0.002521 0.004203
# 3 0.015046 0.004654 0.002873 -0.015900 -0.014780 0.003864
# 4 0.004903 0.000728 -0.015900 0.059349 0.003300 -0.028554
# 5 -0.005591 0.002521 -0.014780 0.003300 0.040926 -0.004611
# 6 0.006857 0.004203 0.003864 -0.028554 -0.004611 0.043166
#
#
# Mechanical properties :
#
#
# Convention : Reuss Voigt Hill
#
# Bulk Modulus (GPa) = 20.73142 29.00174 24.86658
# Shear Modulus (GPa) = 33.76310 19.02505 26.39408
#
# Velocity S-wave (km/s) = 4.05065 3.04065 3.58143
# Velocity P-wave (km/s) = 5.65260 5.14017 5.40246
#
# Compressibility (1/GPa) = 0.04823597
#
# Stress axis : x y z
#
# Youngs Moduli (GPa) = 124.35554 133.51642 348.08598
#
# Poissons Ratio (x) = 0.63882 -5.23744
# Poissons Ratio (y) = 0.59499 -1.62005
# Poissons Ratio (z) = -1.87110 -0.62141
#
# Static dielectric constant tensor:
#      x y z
#    x 1.726650 -0.042950 0.028780 
#    y -0.042950 1.855870 -0.048060 
#    z 0.028780 -0.048060 1.745950 
# 
# From -- ./inp_files/433542.got.cif
#   From: 2010.05.17/outbox.cif.g08.bks.cpg/sg2_217_cif.got.tgz:433542.got - 2010.06.03 11:33:40.
