data_PCOD9053384
_publ_section_title
;
Structure prediction by ZEFSAII (Michael W. Deem and Ramdas Pophale) SiO2 
 PCOD9053384
Probable space group: P -1
;
_chemical_formula_sum "Si O2"
_cell_formula_units_Z 14
_cell_length_a 6.452754
_cell_length_b 14.600691
_cell_length_c 14.185777
_cell_angle_alpha 150.194864
_cell_angle_beta 86.411073
_cell_angle_gamma 106.416808
_cell_volume 588.623639
_symmetry_space_group_name_H-M "P -1"
_symmetry_group_IT_number 2
_symmetry_cell_setting 'triclinic'
loop_
_space_group_symop_operation_xyz
x,y,z
-x,-y,-z
loop_
_atom_site_type_symbol
_atom_site_label
_atom_site_fract_x
_atom_site_fract_y
_atom_site_fract_z
Si Si1 0.667527 0.022660 0.429926
Si Si2 0.157488 0.369137 0.786841
Si Si3 0.880747 0.761193 0.127274
Si Si4 0.623406 0.814904 0.512665
Si Si5 0.665842 0.475179 0.582839
Si Si6 0.540024 0.228645 0.174079
Si Si7 0.947978 0.401520 0.175204
O O1 0.589776 0.134255 0.453345
O O2 0.921397 0.157453 0.585715
O O3 0.500000 0.000000 0.500000
O O4 0.677218 0.825883 0.209427
O O5 0.156156 0.392249 0.919888
O O6 0.359789 0.320987 0.696486
O O7 0.123167 0.515645 0.843111
O O8 0.137161 0.967831 0.303208
O O9 0.883037 0.678576 0.950562
O O10 0.566853 0.682039 0.491303
O O11 0.657203 0.380049 0.395417
O O12 0.660246 0.697587 0.776362
O O13 0.886506 0.480023 0.636053
O O14 0.702868 0.270347 0.115392
O O15 0.500000 0.000000 0.000000
#
# Coordination Sequence:
#
# PCOD9053384 Si02
#       7
#     2   2   2   2   2   2   2
#     4  11  19  38  64  90 132 183 229 264 316 386
#     4  11  21  39  62  96 136 179 216 263 323 390
#     4  11  24  36  63 101 137 181 222 263 323 395
#     4  11  20  41  66  91 133 176 221 268 327 387
#     4  11  25  46  73 100 130 174 224 278 342 399
#     4  11  26  50  73  97 130 171 222 287 345 400
#     4  12  25  43  64 100 137 170 220 279 331 399
#
# _framework density 23.784298
#
# number of rings (size 3 to 8) (size 9 to 14) (size 15 to 20)
#    0.000    0.857    5.714    2.571    0.000    2.857 
#    0.000    1.429    0.000    0.000    0.000    0.000 
#    0.000    0.000    0.000    0.000    0.000    0.000 
#
# Total GULP energy -78063.306010 kJ/mol
# GULP energy per Si atom -5575.950429 kJ/mol
# Density = 2.373016 g / cm^3
# Si number density = 23.784298 Si / 1000 Ang^3
#
#
#
# Elastic Constant Matrix: (Units=GPa)
#
#
# Indices 1 2 3 4 5 6 
#
# 1 86.6651 27.6064 19.8189 2.8936 -28.1416 -9.9127
# 2 27.6064 137.9706 33.9956 -6.6452 -27.0424 0.7223
# 3 19.8189 33.9956 44.8453 -7.9997 -26.9523 -3.6201
# 4 2.8936 -6.6452 -7.9997 40.6497 -1.3485 -7.7218
# 5 -28.1416 -27.0424 -26.9523 -1.3485 39.0265 -4.4265
# 6 -9.9127 0.7223 -3.6201 -7.7218 -4.4265 42.8212
#
#
#
# Elastic Compliance Matrix: (Units=1/GPa)
#
#
# Indices 1 2 3 4 5 6 
#
# 1 0.016251 -0.001227 0.002012 0.000486 0.012884 0.005372
# 2 -0.001227 0.009174 -0.005337 0.000475 0.001732 -0.000625
# 3 0.002012 -0.005337 0.047588 0.011303 0.032135 0.009939
# 4 0.000486 0.000475 0.011303 0.028593 0.010300 0.007281
# 5 0.012884 0.001732 0.032135 0.010300 0.060223 0.013753
# 6 0.005372 -0.000625 0.009939 0.007281 0.013753 0.028182
#
#
# Mechanical properties :
#
#
# Convention : Reuss Voigt Hill
#
# Bulk Modulus (GPa) = 15.64732 48.03584 31.84158
# Shear Modulus (GPa) = 22.68420 37.03684 29.86052
#
# Velocity S-wave (km/s) = 3.09163 3.95041 3.54711
# Velocity P-wave (km/s) = 4.39743 6.40687 5.49479
#
# Compressibility (1/GPa) = 0.06390872
#
# Stress axis : x y z
#
# Youngs Moduli (GPa) = 61.53355 109.00287 21.01387
#
# Poissons Ratio (x) = 0.13372 -0.04227
# Poissons Ratio (y) = 0.07549 0.11215
# Poissons Ratio (z) = -0.12379 0.58176
#
# Static dielectric constant tensor:
#      x y z
#    x 1.980230 -0.062610 -0.013650 
#    y -0.062610 1.957110 0.028950 
#    z -0.013650 0.028950 2.053690 
# 
# From -- ./inp_files/484615.got.cif
#   From: 2010.05.17/outbox.cif.g08.bks.cpg/sg2_243_cif.got.tgz:484615.got - 2010.06.03 11:33:40.
