data_PCOD9053928
_publ_section_title
;
Structure prediction by ZEFSAII (Michael W. Deem and Ramdas Pophale) SiO2 
 PCOD9053928
Probable space group: P -1
;
_chemical_formula_sum "Si O2"
_cell_formula_units_Z 12
_cell_length_a 9.878256
_cell_length_b 8.959153
_cell_length_c 5.744918
_cell_angle_alpha 101.196313
_cell_angle_beta 98.244081
_cell_angle_gamma 70.980714
_cell_volume 469.763244
_symmetry_space_group_name_H-M "P -1"
_symmetry_group_IT_number 2
_symmetry_cell_setting 'triclinic'
loop_
_space_group_symop_operation_xyz
x,y,z
-x,-y,-z
loop_
_atom_site_type_symbol
_atom_site_label
_atom_site_fract_x
_atom_site_fract_y
_atom_site_fract_z
Si Si1 0.637590 0.870018 0.859628
Si Si2 0.367593 0.186349 0.644714
Si Si3 0.844750 0.967900 0.674565
Si Si4 0.860456 0.509935 0.820769
Si Si5 0.342477 0.539177 0.873781
Si Si6 0.139839 0.757730 0.577982
O O1 0.550262 0.864203 0.597180
O O2 0.734984 0.985948 0.867092
O O3 0.761134 0.693201 0.825592
O O4 0.571968 0.874081 0.101455
O O5 0.227104 0.128996 0.554923
O O6 0.333898 0.375616 0.707128
O O7 0.006848 0.860700 0.732762
O O8 0.848635 0.125550 0.591568
O O9 0.898531 0.398017 0.571094
O O10 0.764598 0.429479 0.927709
O O11 0.000000 0.500000 0.000000
O O12 0.288863 0.684010 0.726363
O O13 0.500000 0.500000 0.000000
#
# Coordination Sequence:
#
# PCOD9053928 Si02
#       6
#     2   2   2   2   2   2
#     4   9  18  36  59  88 120 160 210 259 318 375
#     4   9  19  39  61  88 120 170 211 263 317 383
#     4   9  21  34  64  90 132 164 208 273 326 382
#     4  11  22  37  67  93 122 167 219 275 319 382
#     4  11  24  40  62  92 130 171 215 267 322 386
#     4  11  20  39  57  97 126 164 214 267 328 380
#
# _framework density 25.544781
#
# number of rings (size 3 to 8) (size 9 to 14) (size 15 to 20)
#    1.000    1.000    1.667    3.000    0.000    4.000 
#    0.000    5.000    0.000    5.000    0.000    0.000 
#    0.000    0.000    0.000    0.000    0.000    0.000 
#
# Total GULP energy -67075.477391 kJ/mol
# GULP energy per Si atom -5589.623116 kJ/mol
# Density = 2.548664 g / cm^3
# Si number density = 25.544781 Si / 1000 Ang^3
#
#
#
# Elastic Constant Matrix: (Units=GPa)
#
#
# Indices 1 2 3 4 5 6 
#
# 1 111.7206 30.5596 35.8477 -2.2825 1.5067 -9.4560
# 2 30.5596 88.6342 52.9090 -9.3432 7.0207 -1.6508
# 3 35.8477 52.9090 120.4312 -14.9506 -9.8157 -23.1296
# 4 -2.2825 -9.3432 -14.9506 52.3991 -3.8083 7.9303
# 5 1.5067 7.0207 -9.8157 -3.8083 54.5924 -6.4077
# 6 -9.4560 -1.6508 -23.1296 7.9303 -6.4077 31.2273
#
#
#
# Elastic Compliance Matrix: (Units=1/GPa)
#
#
# Indices 1 2 3 4 5 6 
#
# 1 0.010350 -0.002619 -0.001659 -0.000790 -0.000073 0.001952
# 2 -0.002619 0.017717 -0.008653 0.001388 -0.004552 -0.007552
# 3 -0.001659 -0.008653 0.015354 0.001468 0.005328 0.011133
# 4 -0.000790 0.001388 0.001468 0.020405 0.001056 -0.004044
# 5 -0.000073 -0.004552 0.005328 0.001056 0.020839 0.007692
# 6 0.001952 -0.007552 0.011133 -0.004044 0.007692 0.043066
#
#
# Mechanical properties :
#
#
# Convention : Reuss Voigt Hill
#
# Bulk Modulus (GPa) = 56.95566 62.15761 59.55664
# Shear Modulus (GPa) = 31.35853 41.07509 36.21681
#
# Velocity S-wave (km/s) = 3.50750 4.01429 3.76942
# Velocity P-wave (km/s) = 6.22481 6.77286 6.50461
#
# Compressibility (1/GPa) = 0.01755752
#
# Stress axis : x y z
#
# Youngs Moduli (GPa) = 96.62017 56.44327 65.13165
#
# Poissons Ratio (x) = 0.14784 0.10806
# Poissons Ratio (y) = 0.25307 0.56358
# Poissons Ratio (z) = 0.16031 0.48840
#
# Static dielectric constant tensor:
#      x y z
#    x 1.958100 -0.056380 -0.022820 
#    y -0.056380 2.063030 0.010120 
#    z -0.022820 0.010120 2.062020 
# 
# From -- ./inp_files/59696.got.cif
#   From: 2010.05.17/outbox.cif.g08.bks.cpg/sg2_30_cif.got.tgz:59696.got - 2010.06.03 11:33:40.
