data_PCOD9053764
_publ_section_title
;
Structure prediction by ZEFSAII (Michael W. Deem and Ramdas Pophale) SiO2 
 PCOD9053764
Probable space group: P -1
;
_chemical_formula_sum "Si O2"
_cell_formula_units_Z 16
_cell_length_a 12.484395
_cell_length_b 14.979494
_cell_length_c 8.919012
_cell_angle_alpha 29.970576
_cell_angle_beta 91.938077
_cell_angle_gamma 81.387178
_cell_volume 777.357911
_symmetry_space_group_name_H-M "P -1"
_symmetry_group_IT_number 2
_symmetry_cell_setting 'triclinic'
loop_
_space_group_symop_operation_xyz
x,y,z
-x,-y,-z
loop_
_atom_site_type_symbol
_atom_site_label
_atom_site_fract_x
_atom_site_fract_y
_atom_site_fract_z
Si Si1 0.090640 0.112183 0.527544
Si Si2 0.582732 0.445198 0.936715
Si Si3 0.291051 0.348627 0.719539
Si Si4 0.119596 0.335713 0.487805
Si Si5 0.873684 0.561113 0.151435
Si Si6 0.157409 0.660593 0.807488
Si Si7 0.508740 0.180837 0.821338
Si Si8 0.313536 0.753858 0.052774
O O1 0.112575 0.175556 0.604834
O O2 0.954850 0.146356 0.458957
O O3 0.109945 0.270040 0.190300
O O4 0.188576 0.911923 0.785968
O O5 0.543187 0.644083 0.552533
O O6 0.599367 0.296293 0.013564
O O7 0.500000 0.500000 0.000000
O O8 0.713376 0.358770 0.128668
O O9 0.220878 0.278520 0.694271
O O10 0.228889 0.355609 0.861272
O O11 0.421988 0.216462 0.904837
O O12 0.290287 0.560740 0.373509
O O13 0.995694 0.437116 0.410896
O O14 0.137745 0.501585 0.145898
O O15 0.848604 0.415532 0.248246
O O16 0.626454 0.181261 0.898844
O O17 0.500000 0.000000 0.000000
#
# Coordination Sequence:
#
# PCOD9053764 Si02
#       8
#     2   2   2   2   2   2   2   2
#     4   9  20  39  62  86 120 157 203 240 287 366
#     4  11  24  41  65  89 121 158 199 251 297 358
#     4  11  20  37  60  87 121 155 196 252 300 348
#     4   9  16  37  59  85 115 160 199 232 295 352
#     4   9  20  32  63  88 114 157 201 243 283 358
#     4   9  18  37  62  85 118 160 195 235 302 345
#     4  11  25  43  62  84 118 163 204 245 298 357
#     4  11  24  40  60  91 122 158 196 247 308 349
#
# _framework density 20.582540000000002
#
# number of rings (size 3 to 8) (size 9 to 14) (size 15 to 20)
#    0.000    2.000    2.500    4.125    5.250    1.500 
#    0.000    3.750    2.750    0.000    0.000    0.000 
#    0.000    0.000    0.000    0.000    0.000    0.000 
#
# Total GULP energy -89138.522832 kJ/mol
# GULP energy per Si atom -5571.157677 kJ/mol
# Density = 2.053569 g / cm^3
# Si number density = 20.582540 Si / 1000 Ang^3
#
#
#
# Elastic Constant Matrix: (Units=GPa)
#
#
# Indices 1 2 3 4 5 6 
#
# 1 121.3164 55.8151 28.4740 2.3634 25.9255 -3.1101
# 2 55.8151 103.1281 28.8774 0.1418 7.2146 -19.7621
# 3 28.4740 28.8774 33.9999 -14.3145 21.8282 -4.4873
# 4 2.3634 0.1418 -14.3145 29.3372 -7.0300 5.3955
# 5 25.9255 7.2146 21.8282 -7.0300 24.6077 3.3719
# 6 -3.1101 -19.7621 -4.4873 5.3955 3.3719 45.1381
#
#
#
# Elastic Compliance Matrix: (Units=1/GPa)
#
#
# Indices 1 2 3 4 5 6 
#
# 1 0.014864 -0.008283 0.005348 -0.002993 -0.018788 -0.000309
# 2 -0.008283 0.023015 -0.035509 -0.010557 0.029774 0.005013
# 3 0.005348 -0.035509 0.146212 0.043572 -0.112826 0.002577
# 4 -0.002993 -0.010557 0.043572 0.052685 -0.016589 -0.005555
# 5 -0.018788 0.029774 -0.112826 -0.016589 0.148220 -0.008565
# 6 -0.000309 0.005013 0.002577 -0.005555 -0.008565 0.025888
#
#
# Mechanical properties :
#
#
# Convention : Reuss Voigt Hill
#
# Bulk Modulus (GPa) = 9.32809 53.86416 31.59612
# Shear Modulus (GPa) = 9.55099 29.50179 19.52639
#
# Velocity S-wave (km/s) = 2.15648 3.79006 3.08342
# Velocity P-wave (km/s) = 3.27756 6.73642 5.29725
#
# Compressibility (1/GPa) = 0.10720311
#
# Stress axis : x y z
#
# Youngs Moduli (GPa) = 67.27682 43.44993 6.83937
#
# Poissons Ratio (x) = 0.35990 -0.03658
# Poissons Ratio (y) = 0.55726 0.24286
# Poissons Ratio (z) = -0.35981 1.54287
#
# Static dielectric constant tensor:
#      x y z
#    x 1.761290 -0.000340 0.017480 
#    y -0.000340 1.775890 -0.006310 
#    z 0.017480 -0.006310 1.716960 
# 
# From -- ./inp_files/176063.got.cif
#   From: 2010.05.17/outbox.cif.g08.bks.cpg/sg2_89_cif.got.tgz:176063.got - 2010.06.03 11:33:40.
