data_PCOD9053272
_publ_section_title
;
Structure prediction by ZEFSAII (Michael W. Deem and Ramdas Pophale) SiO2 
 PCOD9053272
Probable space group: P -1
;
_chemical_formula_sum "Si O2"
_cell_formula_units_Z 16
_cell_length_a 9.416963
_cell_length_b 12.185854
_cell_length_c 18.493637
_cell_angle_alpha 45.558600
_cell_angle_beta 76.650402
_cell_angle_gamma 39.083233
_cell_volume 687.293628
_symmetry_space_group_name_H-M "P -1"
_symmetry_group_IT_number 2
_symmetry_cell_setting 'triclinic'
loop_
_space_group_symop_operation_xyz
x,y,z
-x,-y,-z
loop_
_atom_site_type_symbol
_atom_site_label
_atom_site_fract_x
_atom_site_fract_y
_atom_site_fract_z
Si Si1 0.610488 0.425673 0.602720
Si Si2 0.312021 0.653893 0.876845
Si Si3 0.444367 0.270496 0.204504
Si Si4 0.136625 0.269073 0.028382
Si Si5 0.666422 0.562783 0.279750
Si Si6 0.103991 0.433970 0.293226
Si Si7 0.068623 0.562468 0.401696
Si Si8 0.509206 0.191774 0.969601
O O1 0.500000 0.500000 0.500000
O O2 0.358656 0.578055 0.614487
O O3 0.686259 0.533725 0.558996
O O4 0.945651 0.028485 0.756973
O O5 0.449868 0.664340 0.806778
O O6 0.386841 0.424399 0.936172
O O7 0.500000 0.500000 0.000000
O O8 0.131649 0.571994 0.054471
O O9 0.373077 0.220745 0.301541
O O10 0.722916 0.963041 0.259293
O O11 0.277571 0.262241 0.959841
O O12 0.000000 0.500000 0.000000
O O13 0.421052 0.903193 0.193193
O O14 0.978014 0.376044 0.327872
O O15 0.516522 0.700047 0.154045
O O16 0.158633 0.416213 0.379681
O O17 0.836474 0.810362 0.129834
O O18 0.000000 0.500000 0.500000
#
# Coordination Sequence:
#
# PCOD9053272 Si02
#       8
#     2   2   2   2   2   2   2   2
#     4  11  25  46  67  93 131 175 224 271 329 398
#     4  11  24  41  65 100 133 173 217 276 337 392
#     4  11  22  40  63  95 131 165 223 276 333 393
#     4  11  19  35  62  94 130 170 212 267 329 395
#     4  11  21  39  62  97 134 168 213 268 327 396
#     4  11  22  41  66  98 135 169 218 277 332 396
#     4  11  26  45  67  91 124 177 227 275 335 393
#     4  11  21  36  62 100 133 168 212 267 333 393
#
# _framework density 23.279716000000001
#
# number of rings (size 3 to 8) (size 9 to 14) (size 15 to 20)
#    0.000    1.000    2.500    6.750    1.750    2.000 
#    0.000    0.625    0.000    0.000    0.000    0.000 
#    0.000    0.000    0.000    0.000    0.000    0.000 
#
# Total GULP energy -89439.135445 kJ/mol
# GULP energy per Si atom -5589.945965 kJ/mol
# Density = 2.322673 g / cm^3
# Si number density = 23.279716 Si / 1000 Ang^3
#
#
#
# Elastic Constant Matrix: (Units=GPa)
#
#
# Indices 1 2 3 4 5 6 
#
# 1 147.1495 36.3627 16.4210 21.6051 -3.5627 -30.2275
# 2 36.3627 96.1536 6.0719 24.7372 4.0082 -10.8835
# 3 16.4210 6.0719 64.1351 24.3197 8.6792 -3.6446
# 4 21.6051 24.7372 24.3197 45.3161 -2.8511 -8.3660
# 5 -3.5627 4.0082 8.6792 -2.8511 29.8115 9.6820
# 6 -30.2275 -10.8835 -3.6446 -8.3660 9.6820 48.7305
#
#
#
# Elastic Compliance Matrix: (Units=1/GPa)
#
#
# Indices 1 2 3 4 5 6 
#
# 1 0.008633 -0.002340 -0.001245 -0.001335 0.000124 0.004486
# 2 -0.002340 0.013417 0.002907 -0.007797 -0.004076 0.001234
# 3 -0.001245 0.002907 0.021773 -0.013035 -0.008431 0.000943
# 4 -0.001335 -0.007797 -0.013035 0.034600 0.007712 0.000864
# 5 0.000124 -0.004076 -0.008431 0.007712 0.039921 -0.008071
# 6 0.004486 0.001234 0.000943 0.000864 -0.008071 0.025401
#
#
# Mechanical properties :
#
#
# Convention : Reuss Voigt Hill
#
# Bulk Modulus (GPa) = 23.54720 47.23883 35.39302
# Shear Modulus (GPa) = 31.39576 41.34379 36.36977
#
# Velocity S-wave (km/s) = 3.67636 4.21878 3.95688
# Velocity P-wave (km/s) = 5.30638 6.63828 6.00934
#
# Compressibility (1/GPa) = 0.04246790
#
# Stress axis : x y z
#
# Youngs Moduli (GPa) = 115.82798 74.53173 45.92875
#
# Poissons Ratio (x) = 0.17444 0.05717
# Poissons Ratio (y) = 0.27109 -0.13354
# Poissons Ratio (z) = 0.14418 -0.21670
#
# Static dielectric constant tensor:
#      x y z
#    x 1.888320 -0.042740 -0.059630 
#    y -0.042740 1.930850 -0.011170 
#    z -0.059630 -0.011170 1.917150 
# 
# From -- ./inp_files/185124.got.cif
#   From: 2010.05.17/outbox.cif.g08.bks.cpg/sg2_93_cif.got.tgz:185124.got - 2010.06.03 11:33:40.
