data_PCOD9053341
_publ_section_title
;
Structure prediction by ZEFSAII (Michael W. Deem and Ramdas Pophale) SiO2 
 PCOD9053341
Probable space group: P -1
;
_chemical_formula_sum "Si O2"
_cell_formula_units_Z 16
_cell_length_a 14.152486
_cell_length_b 12.141013
_cell_length_c 13.118691
_cell_angle_alpha 77.485860
_cell_angle_beta 56.530356
_cell_angle_gamma 29.898273
_cell_volume 728.872789
_symmetry_space_group_name_H-M "P -1"
_symmetry_group_IT_number 2
_symmetry_cell_setting 'triclinic'
loop_
_space_group_symop_operation_xyz
x,y,z
-x,-y,-z
loop_
_atom_site_type_symbol
_atom_site_label
_atom_site_fract_x
_atom_site_fract_y
_atom_site_fract_z
Si Si1 0.126638 0.072981 0.773212
Si Si2 0.964000 0.810085 0.430165
Si Si3 0.255001 0.537222 0.909859
Si Si4 0.759910 0.790099 0.313609
Si Si5 0.323622 0.684458 0.227555
Si Si6 0.888223 0.058674 0.917394
Si Si7 0.805742 0.620920 0.681120
Si Si8 0.573085 0.831710 0.229101
O O1 0.291386 0.032393 0.725318
O O2 0.154533 0.055055 0.639445
O O3 0.124206 0.941859 0.824584
O O4 0.819244 0.386014 0.941565
O O5 0.111584 0.788696 0.384516
O O6 0.210071 0.492456 0.325659
O O7 0.707369 0.984524 0.607357
O O8 0.547767 0.339429 0.769344
O O9 0.266784 0.398649 0.894879
O O10 0.017122 0.825326 0.931188
O O11 0.753614 0.704868 0.245056
O O12 0.028922 0.535515 0.278853
O O13 0.500000 0.000000 0.500000
O O14 0.169766 0.882056 0.181182
O O15 0.590717 0.368527 0.084612
O O16 0.000000 0.500000 0.500000
O O17 0.539673 0.945786 0.789168
#
# Coordination Sequence:
#
# PCOD9053341 Si02
#       8
#     2   2   2   2   2   2   2   2
#     4   9  18  36  60  83 105 145 198 227 270 334
#     4   9  18  36  60  83 104 148 198 228 274 332
#     4  11  23  37  54  86 122 146 182 233 282 335
#     4  11  19  37  62  80 110 146 185 241 275 319
#     4   9  18  36  60  78 113 148 188 237 268 329
#     4   9  19  37  58  86 109 148 195 226 276 333
#     4   9  18  35  56  84 105 141 194 228 271 329
#     4  11  23  37  54  85 123 144 183 234 281 338
#
# _framework density 21.951706999999999
#
# number of rings (size 3 to 8) (size 9 to 14) (size 15 to 20)
#    0.000    2.250    3.750    2.250    0.000    4.000 
#    0.000    5.000    0.000    0.000    0.000    0.000 
#    0.000    0.000    0.000    0.000    0.000    0.000 
#
# Total GULP energy -89107.405480 kJ/mol
# GULP energy per Si atom -5569.212842 kJ/mol
# Density = 2.190174 g / cm^3
# Si number density = 21.951707 Si / 1000 Ang^3
#
#
#
# Elastic Constant Matrix: (Units=GPa)
#
#
# Indices 1 2 3 4 5 6 
#
# 1 92.1181 8.8600 -0.4136 6.5245 -2.4088 4.4944
# 2 8.8600 86.5144 2.9374 3.3728 6.4980 -9.2990
# 3 -0.4136 2.9374 26.1190 -1.0111 -12.0636 6.6790
# 4 6.5245 3.3728 -1.0111 14.9025 13.6225 0.8342
# 5 -2.4088 6.4980 -12.0636 13.6225 33.4734 -3.5859
# 6 4.4944 -9.2990 6.6790 0.8342 -3.5859 33.4886
#
#
#
# Elastic Compliance Matrix: (Units=1/GPa)
#
#
# Indices 1 2 3 4 5 6 
#
# 1 0.012028 -0.001619 0.003425 -0.010508 0.006499 -0.001789
# 2 -0.001619 0.012582 -0.004365 0.001130 -0.004152 0.004109
# 3 0.003425 -0.004365 0.053375 -0.022509 0.028558 -0.008698
# 4 -0.010508 0.001130 -0.022509 0.125398 -0.060483 -0.003387
# 5 0.006499 -0.004152 0.028558 -0.060483 0.066148 0.000869
# 6 -0.001789 0.004109 -0.008698 -0.003387 0.000869 0.033154
#
#
# Mechanical properties :
#
#
# Convention : Reuss Voigt Hill
#
# Bulk Modulus (GPa) = 13.72373 25.27989 19.50181
# Shear Modulus (GPa) = 15.05603 29.26408 22.16005
#
# Velocity S-wave (km/s) = 2.62175 3.65514 3.18070
# Velocity P-wave (km/s) = 3.92812 5.41798 4.73206
#
# Compressibility (1/GPa) = 0.07286651
#
# Stress axis : x y z
#
# Youngs Moduli (GPa) = 83.13801 79.47724 18.73547
#
# Poissons Ratio (x) = 0.12866 -0.06417
# Poissons Ratio (y) = 0.13459 0.08179
# Poissons Ratio (z) = -0.28474 0.34695
#
# Static dielectric constant tensor:
#      x y z
#    x 1.895200 -0.017070 -0.059790 
#    y -0.017070 1.846610 -0.024430 
#    z -0.059790 -0.024430 1.874940 
# 
# From -- ./inp_files/531119.got.cif
#   From: 2010.05.17/outbox.cif.g08.bks.cpg/sg2_266_cif.got.tgz:531119.got - 2010.06.03 11:33:40.
