data_PCOD9053647
_publ_section_title
;
Structure prediction by ZEFSAII (Michael W. Deem and Ramdas Pophale) SiO2 
 PCOD9053647
Probable space group: P -1
;
_chemical_formula_sum "Si O2"
_cell_formula_units_Z 16
_cell_length_a 10.629574
_cell_length_b 5.432021
_cell_length_c 17.987451
_cell_angle_alpha 83.411840
_cell_angle_beta 133.527742
_cell_angle_gamma 116.427501
_cell_volume 644.242354
_symmetry_space_group_name_H-M "P -1"
_symmetry_group_IT_number 2
_symmetry_cell_setting 'triclinic'
loop_
_space_group_symop_operation_xyz
x,y,z
-x,-y,-z
loop_
_atom_site_type_symbol
_atom_site_label
_atom_site_fract_x
_atom_site_fract_y
_atom_site_fract_z
Si Si1 0.944602 0.903786 0.312236
Si Si2 0.437061 0.880843 0.647723
Si Si3 0.546320 0.759866 0.066781
Si Si4 0.187180 0.143407 0.264062
Si Si5 0.921892 0.512840 0.574158
Si Si6 0.970946 0.148761 0.051871
Si Si7 0.347917 0.742365 0.135902
Si Si8 0.616549 0.356980 0.588056
O O1 0.129270 0.003808 0.325647
O O2 0.985189 0.146970 0.382308
O O3 0.770586 0.886824 0.188363
O O4 0.929107 0.614442 0.348879
O O5 0.494992 0.043369 0.745364
O O6 0.459846 0.097086 0.583485
O O7 0.616755 0.821273 0.698815
O O8 0.215197 0.609227 0.551917
O O9 0.429065 0.643789 0.102832
O O10 0.500000 0.500000 0.000000
O O11 0.500000 0.000000 0.000000
O O12 0.001473 0.996385 0.139488
O O13 0.225755 0.454621 0.290580
O O14 0.753012 0.371749 0.575600
O O15 0.159201 0.476407 0.110308
O O16 0.755991 0.111376 0.956576
O O17 0.000000 0.000000 0.000000
O O18 0.500000 0.500000 0.500000
#
# Coordination Sequence:
#
# PCOD9053647 Si02
#       8
#     2   2   2   2   2   2   2   2
#     4  11  25  43  67 100 139 182 243 279 337 409
#     4  12  21  38  62 101 137 181 223 284 363 415
#     4  12  29  53  78 100 136 191 244 295 350 421
#     4  11  21  34  64  96 139 180 219 288 350 421
#     4  11  23  39  65 100 143 183 229 285 339 416
#     4  11  23  41  66 103 142 171 223 296 369 423
#     4  11  27  43  70 102 138 182 238 292 360 430
#     4  11  20  35  56  97 141 180 225 272 348 427
#
# _framework density 24.835377000000001
#
# number of rings (size 3 to 8) (size 9 to 14) (size 15 to 20)
#    0.000    0.750    5.000    3.375    3.500    1.000 
#    0.000    1.250    0.000    0.000    0.000    0.000 
#    0.000    0.000    0.000    0.000    0.000    0.000 
#
# Total GULP energy -89147.988728 kJ/mol
# GULP energy per Si atom -5571.749296 kJ/mol
# Density = 2.477885 g / cm^3
# Si number density = 24.835377 Si / 1000 Ang^3
#
#
#
# Elastic Constant Matrix: (Units=GPa)
#
#
# Indices 1 2 3 4 5 6 
#
# 1 67.9711 20.3238 14.6527 3.1153 -14.1289 5.1939
# 2 20.3238 86.5998 40.4268 -3.7732 -9.9614 -25.9371
# 3 14.6527 40.4268 141.8733 6.1716 -14.0494 -20.7770
# 4 3.1153 -3.7732 6.1716 40.9192 -17.0086 -6.6165
# 5 -14.1289 -9.9614 -14.0494 -17.0086 40.9058 -0.8547
# 6 5.1939 -25.9371 -20.7770 -6.6165 -0.8547 28.4691
#
#
#
# Elastic Compliance Matrix: (Units=1/GPa)
#
#
# Indices 1 2 3 4 5 6 
#
# 1 0.018601 -0.006825 -0.001157 -0.002313 0.003176 -0.010898
# 2 -0.006825 0.021817 -0.002053 0.009082 0.006485 0.021929
# 3 -0.001157 -0.002053 0.008674 0.000333 0.002319 0.004818
# 4 -0.002313 0.009082 0.000333 0.035101 0.016490 0.017593
# 5 0.003176 0.006485 0.002319 0.016490 0.035024 0.011905
# 6 -0.010898 0.021929 0.004818 0.017593 0.011905 0.065055
#
#
# Mechanical properties :
#
#
# Convention : Reuss Voigt Hill
#
# Bulk Modulus (GPa) = 34.45742 49.69453 42.07597
# Shear Modulus (GPa) = 23.36275 36.79488 30.07882
#
# Velocity S-wave (km/s) = 3.07042 3.85327 3.48390
# Velocity P-wave (km/s) = 5.14533 6.31268 5.75866
#
# Compressibility (1/GPa) = 0.02902133
#
# Stress axis : x y z
#
# Youngs Moduli (GPa) = 53.76000 45.83567 115.28942
#
# Poissons Ratio (x) = 0.31281 0.13343
# Poissons Ratio (y) = 0.36689 0.23673
# Poissons Ratio (z) = 0.06222 0.09412
#
# Static dielectric constant tensor:
#      x y z
#    x 2.041320 0.043660 0.023070 
#    y 0.043660 2.117120 0.023920 
#    z 0.023070 0.023920 1.972810 
# 
# From -- ./inp_files/592566.got.cif
#   From: 2010.05.17/outbox.cif.g08.bks.cpg/sg2_297_cif.got.tgz:592566.got - 2010.06.03 11:33:40.
