data_PCOD9053423
_publ_section_title
;
Structure prediction by ZEFSAII (Michael W. Deem and Ramdas Pophale) SiO2 
 PCOD9053423
Probable space group: P -1
;
_chemical_formula_sum "Si O2"
_cell_formula_units_Z 16
_cell_length_a 8.109912
_cell_length_b 15.574111
_cell_length_c 8.918109
_cell_angle_alpha 128.736947
_cell_angle_beta 108.727763
_cell_angle_gamma 103.027957
_cell_volume 679.543759
_symmetry_space_group_name_H-M "P -1"
_symmetry_group_IT_number 2
_symmetry_cell_setting 'triclinic'
loop_
_space_group_symop_operation_xyz
x,y,z
-x,-y,-z
loop_
_atom_site_type_symbol
_atom_site_label
_atom_site_fract_x
_atom_site_fract_y
_atom_site_fract_z
Si Si1 0.854530 0.254337 0.030410
Si Si2 0.548415 0.640744 0.505292
Si Si3 0.396146 0.165579 0.765419
Si Si4 0.135710 0.111780 0.338401
Si Si5 0.065110 0.727644 0.569499
Si Si6 0.626162 0.481399 0.145044
Si Si7 0.850127 0.832179 0.035500
Si Si8 0.083495 0.536964 0.236914
O O1 0.898986 0.258973 0.227693
O O2 0.947364 0.404115 0.163510
O O3 0.597601 0.157557 0.829029
O O4 0.982911 0.205243 0.927481
O O5 0.670098 0.772980 0.579016
O O6 0.637123 0.556422 0.380483
O O7 0.301620 0.542033 0.299447
O O8 0.640737 0.700582 0.759595
O O9 0.252504 0.105122 0.511206
O O10 0.234833 0.119505 0.806466
O O11 0.511957 0.326140 0.962823
O O12 0.997537 0.173943 0.392474
O O13 0.971331 0.953822 0.083736
O O14 0.226656 0.703421 0.512038
O O15 0.878007 0.575191 0.281221
O O16 0.500000 0.500000 0.000000
O O17 0.000000 0.500000 0.000000
#
# Coordination Sequence:
#
# PCOD9053423 Si02
#       8
#     2   2   2   2   2   2   2   2
#     4  12  26  44  71 105 142 175 226 298 344 411
#     4  11  23  41  70  99 131 186 223 283 349 406
#     4  12  25  44  71 102 137 184 229 287 356 403
#     4  11  25  50  68  93 143 192 230 283 337 410
#     4  11  23  42  69  97 140 178 219 288 350 401
#     4  11  19  39  67  94 131 174 218 273 354 404
#     4  12  27  46  70 101 139 187 244 277 333 413
#     4  12  25  41  68 110 142 170 229 291 356 418
#
# _framework density 23.545210999999998
#
# number of rings (size 3 to 8) (size 9 to 14) (size 15 to 20)
#    0.000    0.500    6.250    4.125    3.500    1.500 
#    2.250    1.250    0.000    0.000    0.000    0.000 
#    0.000    0.000    0.000    0.000    0.000    0.000 
#
# Total GULP energy -89180.459595 kJ/mol
# GULP energy per Si atom -5573.778725 kJ/mol
# Density = 2.349162 g / cm^3
# Si number density = 23.545211 Si / 1000 Ang^3
#
#
#
# Elastic Constant Matrix: (Units=GPa)
#
#
# Indices 1 2 3 4 5 6 
#
# 1 104.0394 23.6572 15.7182 -15.8441 15.6441 -6.5271
# 2 23.6572 74.6725 20.6331 8.2156 13.3171 -16.2457
# 3 15.7182 20.6331 83.7348 -10.5506 15.0697 -1.1799
# 4 -15.8441 8.2156 -10.5506 40.2466 -4.0000 -1.0985
# 5 15.6441 13.3171 15.0697 -4.0000 27.6024 -0.1421
# 6 -6.5271 -16.2457 -1.1799 -1.0985 -0.1421 36.8645
#
#
#
# Elastic Compliance Matrix: (Units=1/GPa)
#
#
# Indices 1 2 3 4 5 6 
#
# 1 0.011827 -0.003353 0.000027 0.004932 -0.004381 0.000747
# 2 -0.003353 0.018880 -0.003639 -0.006536 -0.006131 0.007392
# 3 0.000027 -0.003639 0.014305 0.003928 -0.005506 -0.001045
# 4 0.004932 -0.006536 0.003928 0.029370 0.002464 -0.000996
# 5 -0.004381 -0.006131 -0.005506 0.002464 0.045015 -0.003407
# 6 0.000747 0.007392 -0.001045 -0.000996 -0.003407 0.030440
#
#
# Mechanical properties :
#
#
# Convention : Reuss Voigt Hill
#
# Bulk Modulus (GPa) = 32.17301 42.49597 37.33449
# Shear Modulus (GPa) = 28.71444 34.43858 31.57651
#
# Velocity S-wave (km/s) = 3.49599 3.82862 3.66608
# Velocity P-wave (km/s) = 5.47631 6.13452 5.81473
#
# Compressibility (1/GPa) = 0.03108195
#
# Stress axis : x y z
#
# Youngs Moduli (GPa) = 84.55225 52.96578 69.90504
#
# Poissons Ratio (x) = 0.17760 -0.00186
# Poissons Ratio (y) = 0.28350 0.25437
# Poissons Ratio (z) = -0.00225 0.19273
#
# Static dielectric constant tensor:
#      x y z
#    x 2.228870 0.014880 0.024220 
#    y 0.014880 1.871430 -0.003900 
#    z 0.024220 -0.003900 1.928370 
# 
# From -- ./inp_files/208853.got.cif
#   From: 2010.05.17/outbox.cif.g08.bks.cpg/sg2_105_cif.got.tgz:208853.got - 2010.06.03 11:33:40.
