data_PCOD9053404
_publ_section_title
;
Structure prediction by ZEFSAII (Michael W. Deem and Ramdas Pophale) SiO2 
 PCOD9053404
Probable space group: P -1
;
_chemical_formula_sum "Si O2"
_cell_formula_units_Z 14
_cell_length_a 12.402626
_cell_length_b 18.509873
_cell_length_c 9.048766
_cell_angle_alpha 130.692410
_cell_angle_beta 142.895738
_cell_angle_gamma 27.611888
_cell_volume 569.600971
_symmetry_space_group_name_H-M "P -1"
_symmetry_group_IT_number 2
_symmetry_cell_setting 'triclinic'
loop_
_space_group_symop_operation_xyz
x,y,z
-x,-y,-z
loop_
_atom_site_type_symbol
_atom_site_label
_atom_site_fract_x
_atom_site_fract_y
_atom_site_fract_z
Si Si1 0.285571 0.758713 0.742077
Si Si2 0.142123 0.650516 0.662275
Si Si3 0.336888 0.885889 0.458766
Si Si4 0.216823 0.187071 0.974148
Si Si5 0.462040 0.879773 0.246062
Si Si6 0.811041 0.486226 0.736437
Si Si7 0.913070 0.217001 0.945291
O O1 0.236533 0.703361 0.743959
O O2 0.508825 0.623505 0.683078
O O3 0.433772 0.789911 0.015414
O O4 0.959071 0.933012 0.564204
O O5 0.257057 0.512617 0.506013
O O6 0.788529 0.781553 0.452419
O O7 0.209448 0.647945 0.902292
O O8 0.628218 0.791175 0.741028
O O9 0.379203 0.899148 0.352600
O O10 0.266756 0.804486 0.280570
O O11 0.995198 0.226430 0.892019
O O12 0.025530 0.309663 0.794359
O O13 0.500000 0.000000 0.000000
O O14 0.226156 0.049332 0.136853
O O15 0.000000 0.500000 0.000000
#
# Coordination Sequence:
#
# PCOD9053404 Si02
#       7
#     2   2   2   2   2   2   2
#     4  11  22  42  71 108 138 188 241 286 353 430
#     4  12  21  41  75 100 136 193 240 284 342 437
#     4  11  22  43  77 109 142 179 247 301 346 417
#     4  12  28  47  71 110 147 184 237 304 357 415
#     4  11  19  38  75 109 139 179 244 295 348 419
#     4  12  28  50  69 103 153 195 227 292 373 428
#     4  11  22  40  73 108 134 182 244 297 340 410
#
# _framework density 24.578610999999999
#
# number of rings (size 3 to 8) (size 9 to 14) (size 15 to 20)
#    0.000    0.571    5.714    4.286    2.000    0.571 
#    5.143    3.571    0.000    0.000    0.000    0.000 
#    0.000    0.000    0.000    0.000    0.000    0.000 
#
# Total GULP energy -78501.364916 kJ/mol
# GULP energy per Si atom -5607.240351 kJ/mol
# Density = 2.452267 g / cm^3
# Si number density = 24.578611 Si / 1000 Ang^3
#
#
#
# Elastic Constant Matrix: (Units=GPa)
#
#
# Indices 1 2 3 4 5 6 
#
# 1 131.8301 50.0360 37.2721 10.2317 13.0423 -16.6013
# 2 50.0360 142.0175 19.6690 3.0376 -11.9359 -19.9853
# 3 37.2721 19.6690 68.9492 33.5273 0.5840 -11.6074
# 4 10.2317 3.0376 33.5273 40.7829 -3.9543 -5.9023
# 5 13.0423 -11.9359 0.5840 -3.9543 43.7950 1.5156
# 6 -16.6013 -19.9853 -11.6074 -5.9023 1.5156 32.2494
#
#
#
# Elastic Compliance Matrix: (Units=1/GPa)
#
#
# Indices 1 2 3 4 5 6 
#
# 1 0.010842 -0.003112 -0.005548 0.002014 -0.003897 0.002208
# 2 -0.003112 0.009099 -0.001311 0.002065 0.003480 0.003780
# 3 -0.005548 -0.001311 0.029146 -0.022179 -0.001194 0.002819
# 4 0.002014 0.002065 -0.022179 0.042772 0.004052 0.001972
# 5 -0.003897 0.003480 -0.001194 0.004052 0.025350 -0.000729
# 6 0.002208 0.003780 0.002819 0.001972 -0.000729 0.035897
#
#
# Mechanical properties :
#
#
# Convention : Reuss Voigt Hill
#
# Bulk Modulus (GPa) = 34.30999 61.86122 48.08560
# Shear Modulus (GPa) = 27.35756 39.08675 33.22216
#
# Velocity S-wave (km/s) = 3.33988 3.99215 3.68049
# Velocity P-wave (km/s) = 5.37240 6.81712 6.13741
#
# Compressibility (1/GPa) = 0.02914603
#
# Stress axis : x y z
#
# Youngs Moduli (GPa) = 92.22980 109.89694 34.30977
#
# Poissons Ratio (x) = 0.34195 0.19036
# Poissons Ratio (y) = 0.28698 0.04498
# Poissons Ratio (z) = 0.51172 0.14409
#
# Static dielectric constant tensor:
#      x y z
#    x 1.868370 -0.007850 -0.020640 
#    y -0.007850 1.987220 0.023550 
#    z -0.020640 0.023550 1.980870 
# 
# From -- ./inp_files/279997.got.cif
#   From: 2010.05.17/outbox.cif.g08.bks.cpg/sg2_140_cif.got.tgz:279997.got - 2010.06.03 11:33:40.
