data_PCOD9053313
_publ_section_title
;
Structure prediction by ZEFSAII (Michael W. Deem and Ramdas Pophale) SiO2 
 PCOD9053313
Probable space group: P -1
;
_chemical_formula_sum "Si O2"
_cell_formula_units_Z 14
_cell_length_a 11.620575
_cell_length_b 9.506714
_cell_length_c 9.419759
_cell_angle_alpha 104.510085
_cell_angle_beta 37.179026
_cell_angle_gamma 101.781859
_cell_volume 608.785697
_symmetry_space_group_name_H-M "P -1"
_symmetry_group_IT_number 2
_symmetry_cell_setting 'triclinic'
loop_
_space_group_symop_operation_xyz
x,y,z
-x,-y,-z
loop_
_atom_site_type_symbol
_atom_site_label
_atom_site_fract_x
_atom_site_fract_y
_atom_site_fract_z
Si Si1 0.987865 0.572887 0.245000
Si Si2 0.303033 0.587025 0.689551
Si Si3 0.760597 0.075376 0.523946
Si Si4 0.329003 0.204529 0.315090
Si Si5 0.686806 0.080214 0.285327
Si Si6 0.820658 0.991933 0.832381
Si Si7 0.291521 0.710852 0.140834
O O1 0.827496 0.453835 0.330531
O O2 0.850165 0.713442 0.420865
O O3 0.125951 0.590608 0.251512
O O4 0.150503 0.566891 0.962234
O O5 0.500000 0.500000 0.500000
O O6 0.354075 0.755328 0.675004
O O7 0.803422 0.084320 0.318390
O O8 0.689948 0.224516 0.702435
O O9 0.956841 0.038918 0.399181
O O10 0.628892 0.936317 0.662731
O O11 0.280465 0.131607 0.192903
O O12 0.502303 0.315404 0.138976
O O13 0.500000 0.000000 0.500000
O O14 0.769926 0.997352 0.048854
O O15 0.771285 0.147552 0.853105
#
# Coordination Sequence:
#
# PCOD9053313 Si02
#       7
#     2   2   2   2   2   2   2
#     4  11  22  41  71  94 129 172 237 255 318 394
#     4  11  26  46  68  97 132 180 221 266 326 402
#     4  11  21  36  61  98 140 164 212 279 333 379
#     4  11  20  37  69 101 129 171 223 275 317 390
#     4  12  25  41  64 102 136 167 217 277 340 380
#     4  11  20  38  62 100 133 174 220 269 329 390
#     4  11  19  36  64  97 130 174 219 266 321 388
#
# _framework density 22.996597999999999
#
# number of rings (size 3 to 8) (size 9 to 14) (size 15 to 20)
#    0.000    0.857    4.286    5.571    2.000    0.000 
#    2.571    0.714    0.000    2.571    0.000    0.000 
#    0.000    0.000    0.000    0.000    0.000    0.000 
#
# Total GULP energy -78119.944932 kJ/mol
# GULP energy per Si atom -5579.996067 kJ/mol
# Density = 2.294426 g / cm^3
# Si number density = 22.996598 Si / 1000 Ang^3
#
#
#
# Elastic Constant Matrix: (Units=GPa)
#
#
# Indices 1 2 3 4 5 6 
#
# 1 91.4921 18.9450 37.5761 -0.5284 0.0841 18.7277
# 2 18.9450 56.8906 23.2419 -0.4043 -10.5533 29.2759
# 3 37.5761 23.2419 142.0579 11.5769 -2.0561 2.5142
# 4 -0.5284 -0.4043 11.5769 26.5292 5.4422 -2.1433
# 5 0.0841 -10.5533 -2.0561 5.4422 56.3672 -2.0548
# 6 18.7277 29.2759 2.5142 -2.1433 -2.0548 35.5278
#
#
#
# Elastic Compliance Matrix: (Units=1/GPa)
#
#
# Indices 1 2 3 4 5 6 
#
# 1 0.013897 0.000785 -0.003790 0.001413 -0.000427 -0.007644
# 2 0.000785 0.035390 -0.005362 -0.000555 0.005429 -0.028916
# 3 -0.003790 -0.005362 0.009118 -0.003666 -0.000110 0.005544
# 4 0.001413 -0.000555 -0.003666 0.040321 -0.004054 0.002170
# 5 -0.000427 0.005429 -0.000110 -0.004054 0.019022 -0.003385
# 6 -0.007644 -0.028916 0.005544 0.002170 -0.003385 0.055547
#
#
# Mechanical properties :
#
#
# Convention : Reuss Voigt Hill
#
# Bulk Modulus (GPa) = 23.99784 49.99630 36.99707
# Shear Modulus (GPa) = 24.51929 37.73003 31.12466
#
# Velocity S-wave (km/s) = 3.26884 4.05492 3.68291
# Velocity P-wave (km/s) = 4.97042 6.61144 5.84877
#
# Compressibility (1/GPa) = 0.04167041
#
# Stress axis : x y z
#
# Youngs Moduli (GPa) = 71.95654 28.25627 109.66884
#
# Poissons Ratio (x) = -0.02218 0.41570
# Poissons Ratio (y) = -0.05648 0.58807
# Poissons Ratio (z) = 0.27275 0.15152
#
# Static dielectric constant tensor:
#      x y z
#    x 1.994340 0.077630 0.017980 
#    y 0.077630 1.864900 -0.023380 
#    z 0.017980 -0.023380 1.956110 
# 
# From -- ./inp_files/244319.got.cif
#   From: 2010.05.17/outbox.cif.g08.bks.cpg/sg2_123_cif.got.tgz:244319.got - 2010.06.03 11:33:40.
