data_PCOD9053897
_publ_section_title
;
Structure prediction by ZEFSAII (Michael W. Deem and Ramdas Pophale) SiO2 
 PCOD9053897
Probable space group: P -1
;
_chemical_formula_sum "Si O2"
_cell_formula_units_Z 14
_cell_length_a 15.146305
_cell_length_b 20.421986
_cell_length_c 12.500849
_cell_angle_alpha 31.409988
_cell_angle_beta 140.012713
_cell_angle_gamma 162.178173
_cell_volume 590.185700
_symmetry_space_group_name_H-M "P -1"
_symmetry_group_IT_number 2
_symmetry_cell_setting 'triclinic'
loop_
_space_group_symop_operation_xyz
x,y,z
-x,-y,-z
loop_
_atom_site_type_symbol
_atom_site_label
_atom_site_fract_x
_atom_site_fract_y
_atom_site_fract_z
Si Si1 0.961457 0.994110 0.346960
Si Si2 0.574983 0.823264 0.523536
Si Si3 0.455581 0.286573 0.960446
Si Si4 0.696844 0.466839 0.694107
Si Si5 0.159943 0.317840 0.689060
Si Si6 0.521092 0.044882 0.082267
Si Si7 0.845324 0.570899 0.122436
O O1 0.124333 0.012835 0.414716
O O2 0.116290 0.247389 0.097431
O O3 0.000000 0.000000 0.500000
O O4 0.615936 0.732147 0.366451
O O5 0.372256 0.591993 0.564662
O O6 0.652596 0.028773 0.281529
O O7 0.382167 0.657686 0.680949
O O8 0.698604 0.426123 0.072977
O O9 0.625471 0.432788 0.800906
O O10 0.338276 0.329675 0.828674
O O11 0.144607 0.953582 0.145801
O O12 0.914813 0.696118 0.481695
O O13 0.693584 0.313263 0.892738
O O14 0.171247 0.779330 0.158473
O O15 0.500000 0.000000 0.000000
#
# Coordination Sequence:
#
# PCOD9053897 Si02
#       7
#     2   2   2   2   2   2   2
#     4  11  20  38  68 100 124 165 225 276 316 375
#     4  12  22  41  69  97 128 165 228 272 322 376
#     4  11  25  41  63  99 140 170 213 261 336 399
#     4  11  23  44  68  96 136 169 217 273 328 387
#     4  11  22  40  66  97 132 175 210 270 328 383
#     4  11  23  45  70  93 124 170 225 274 323 382
#     4  11  24  41  65  99 129 171 216 273 324 388
#
# _framework density 23.721349
#
# number of rings (size 3 to 8) (size 9 to 14) (size 15 to 20)
#    0.000    0.857    4.286    3.857    4.000    0.000 
#    2.571    3.571    0.000    0.000    0.000    0.000 
#    0.000    0.000    0.000    0.000    0.000    0.000 
#
# Total GULP energy -78360.937750 kJ/mol
# GULP energy per Si atom -5597.209839 kJ/mol
# Density = 2.366736 g / cm^3
# Si number density = 23.721349 Si / 1000 Ang^3
#
#
#
# Elastic Constant Matrix: (Units=GPa)
#
#
# Indices 1 2 3 4 5 6 
#
# 1 71.4637 5.0950 16.7842 -0.3867 -8.4731 -7.7919
# 2 5.0950 35.2212 9.1607 -11.0419 1.7772 2.0630
# 3 16.7842 9.1607 51.5770 -24.7818 -7.0680 15.9616
# 4 -0.3867 -11.0419 -24.7818 29.4656 4.4658 -5.6551
# 5 -8.4731 1.7772 -7.0680 4.4658 55.5202 13.7113
# 6 -7.7919 2.0630 15.9616 -5.6551 13.7113 35.9832
#
#
#
# Elastic Compliance Matrix: (Units=1/GPa)
#
#
# Indices 1 2 3 4 5 6 
#
# 1 0.017987 -0.002905 -0.012584 -0.009893 0.000038 0.008075
# 2 -0.002905 0.032908 0.001453 0.013870 -0.002412 -0.000061
# 3 -0.012584 0.001453 0.047534 0.035410 0.006361 -0.020752
# 4 -0.009893 0.013870 0.035410 0.067464 -0.000978 -0.007670
# 5 0.000038 -0.002412 0.006361 -0.000978 0.021726 -0.011108
# 6 0.008075 -0.000061 -0.020752 -0.007670 -0.011108 0.041775
#
#
# Mechanical properties :
#
#
# Convention : Reuss Voigt Hill
#
# Bulk Modulus (GPa) = 14.21349 24.48241 19.34795
# Shear Modulus (GPa) = 17.79879 32.67526 25.23702
#
# Velocity S-wave (km/s) = 2.74218 3.71544 3.26528
# Velocity P-wave (km/s) = 4.00387 5.36183 4.73182
#
# Compressibility (1/GPa) = 0.07035572
#
# Stress axis : x y z
#
# Youngs Moduli (GPa) = 55.59504 30.38803 21.03777
#
# Poissons Ratio (x) = 0.08828 0.26475
# Poissons Ratio (y) = 0.16151 -0.03057
# Poissons Ratio (z) = 0.69963 -0.04416
#
# Static dielectric constant tensor:
#      x y z
#    x 1.929260 -0.058450 0.020130 
#    y -0.058450 1.930290 -0.049320 
#    z 0.020130 -0.049320 1.869520 
# 
# From -- ./inp_files/153805.got.cif
#   From: 2010.05.17/outbox.cif.g08.bks.cpg/sg2_77_cif.got.tgz:153805.got - 2010.06.03 11:33:40.
