data_PCOD9053744
_publ_section_title
;
Structure prediction by ZEFSAII (Michael W. Deem and Ramdas Pophale) SiO2 
 PCOD9053744
Probable space group: P -1
;
_chemical_formula_sum "Si O2"
_cell_formula_units_Z 14
_cell_length_a 8.897050
_cell_length_b 11.704215
_cell_length_c 17.570701
_cell_angle_alpha 33.082192
_cell_angle_beta 125.498607
_cell_angle_gamma 137.639710
_cell_volume 669.240540
_symmetry_space_group_name_H-M "P -1"
_symmetry_group_IT_number 2
_symmetry_cell_setting 'triclinic'
loop_
_space_group_symop_operation_xyz
x,y,z
-x,-y,-z
loop_
_atom_site_type_symbol
_atom_site_label
_atom_site_fract_x
_atom_site_fract_y
_atom_site_fract_z
Si Si1 0.711450 0.710546 0.394701
Si Si2 0.474796 0.524509 0.683248
Si Si3 0.277960 0.719721 0.086354
Si Si4 0.825638 0.456350 0.167339
Si Si5 0.887222 0.076235 0.489660
Si Si6 0.349515 0.831599 0.882003
Si Si7 0.739204 0.782421 0.052648
O O1 0.500000 0.500000 0.500000
O O2 0.685445 0.577466 0.380356
O O3 0.942392 0.821396 0.446116
O O4 0.681451 0.940565 0.246480
O O5 0.657388 0.458069 0.758648
O O6 0.339223 0.359919 0.809289
O O7 0.637167 0.827272 0.572558
O O8 0.071573 0.691499 0.082712
O O9 0.227836 0.653642 0.019366
O O10 0.500000 0.000000 0.000000
O O11 0.859492 0.292744 0.329130
O O12 0.730582 0.292199 0.154622
O O13 0.689469 0.561816 0.102055
O O14 0.000000 0.000000 0.500000
O O15 0.598357 0.898321 0.926816
O O16 0.000000 0.000000 0.000000
#
# Coordination Sequence:
#
# PCOD9053744 Si02
#       7
#     2   2   2   2   2   2   2
#     4  12  22  39  73 103 131 170 227 277 329 391
#     4  11  23  45  65 100 136 173 225 274 329 398
#     4  11  20  36  67  96 130 166 221 279 326 380
#     4  12  23  44  65  96 137 170 222 275 328 401
#     4  12  23  41  70 103 130 174 219 283 330 383
#     4  11  23  40  67  99 125 173 223 274 338 385
#     4  11  28  45  66  93 139 179 215 271 344 401
#
# _framework density 20.919235
#
# number of rings (size 3 to 8) (size 9 to 14) (size 15 to 20)
#    0.000    0.571    5.714    2.571    2.000    1.714 
#    2.571    0.714    0.000    0.000    0.000    0.000 
#    0.000    0.000    0.000    0.000    0.000    0.000 
#
# Total GULP energy -78227.376552 kJ/mol
# GULP energy per Si atom -5587.669754 kJ/mol
# Density = 2.087162 g / cm^3
# Si number density = 20.919235 Si / 1000 Ang^3
#
#
#
# Elastic Constant Matrix: (Units=GPa)
#
#
# Indices 1 2 3 4 5 6 
#
# 1 63.6203 36.8842 5.0727 6.3768 -12.5967 1.9754
# 2 36.8842 171.3688 53.4669 18.7820 -16.7954 0.5171
# 3 5.0727 53.4669 70.4505 12.1710 -8.3805 8.3645
# 4 6.3768 18.7820 12.1710 36.3429 3.8633 -5.4045
# 5 -12.5967 -16.7954 -8.3805 3.8633 34.8724 -2.3384
# 6 1.9754 0.5171 8.3645 -5.4045 -2.3384 29.6606
#
#
#
# Elastic Compliance Matrix: (Units=1/GPa)
#
#
# Indices 1 2 3 4 5 6 
#
# 1 0.019546 -0.004317 0.003438 -0.003336 0.006021 -0.002329
# 2 -0.004317 0.009067 -0.006282 -0.001741 0.001606 0.001710
# 3 0.003438 -0.006282 0.020919 -0.005737 0.003424 -0.006794
# 4 -0.003336 -0.001741 -0.005737 0.032707 -0.006555 0.007313
# 5 0.006021 0.001606 0.003424 -0.006555 0.033175 0.000027
# 6 -0.002329 0.001710 -0.006794 0.007313 0.000027 0.037091
#
#
# Mechanical properties :
#
#
# Convention : Reuss Voigt Hill
#
# Bulk Modulus (GPa) = 28.40027 55.14303 41.77165
# Shear Modulus (GPa) = 28.00124 34.17622 31.08873
#
# Velocity S-wave (km/s) = 3.66258 4.04632 3.85922
# Velocity P-wave (km/s) = 5.61174 6.94604 6.31423
#
# Compressibility (1/GPa) = 0.03521094
#
# Stress axis : x y z
#
# Youngs Moduli (GPa) = 51.16234 110.28406 47.80242
#
# Poissons Ratio (x) = 0.47606 -0.16434
# Poissons Ratio (y) = 0.22085 0.30030
# Poissons Ratio (z) = -0.17589 0.69281
#
# Static dielectric constant tensor:
#      x y z
#    x 1.744710 -0.024070 -0.006920 
#    y -0.024070 1.823210 -0.011700 
#    z -0.006920 -0.011700 1.759290 
# 
# From -- ./inp_files/239061.got.cif
#   From: 2010.05.17/outbox.cif.g08.bks.cpg/sg2_120_cif.got.tgz:239061.got - 2010.06.03 11:33:40.
