data_PCOD9053799
_publ_section_title
;
Structure prediction by ZEFSAII (Michael W. Deem and Ramdas Pophale) SiO2 
 PCOD9053799
Probable space group: P -1
;
_chemical_formula_sum "Si O2"
_cell_formula_units_Z 16
_cell_length_a 8.452405
_cell_length_b 26.419672
_cell_length_c 14.128180
_cell_angle_alpha 21.636214
_cell_angle_beta 54.428739
_cell_angle_gamma 40.925494
_cell_volume 660.221288
_symmetry_space_group_name_H-M "P -1"
_symmetry_group_IT_number 2
_symmetry_cell_setting 'triclinic'
loop_
_space_group_symop_operation_xyz
x,y,z
-x,-y,-z
loop_
_atom_site_type_symbol
_atom_site_label
_atom_site_fract_x
_atom_site_fract_y
_atom_site_fract_z
Si Si1 0.746930 0.638713 0.159762
Si Si2 0.110830 0.120443 0.353754
Si Si3 0.554529 0.261157 0.231081
Si Si4 0.344151 0.531360 0.677927
Si Si5 0.900286 0.916165 0.060165
Si Si6 0.040806 0.687267 0.216907
Si Si7 0.847184 0.961278 0.297783
Si Si8 0.460134 0.052065 0.725710
O O1 0.755325 0.535796 0.244514
O O2 0.924088 0.479901 0.458005
O O3 0.828694 0.751344 0.909955
O O4 0.423829 0.801879 0.018784
O O5 0.813590 0.220610 0.245277
O O6 0.330191 0.906765 0.596308
O O7 0.118702 0.098425 0.502188
O O8 0.454294 0.218912 0.427176
O O9 0.336924 0.468846 0.892977
O O10 0.147625 0.755127 0.327339
O O11 0.665230 0.411340 0.755810
O O12 0.969445 0.818882 0.103042
O O13 0.894640 0.080929 0.757136
O O14 0.642846 0.969180 0.106124
O O15 0.781351 0.842216 0.968628
O O16 0.739463 0.899891 0.371518
#
# Coordination Sequence:
#
# PCOD9053799 Si02
#       8
#     2   2   2   2   2   2   2   2
#     4  11  20  37  64  94 119 156 199 260 306 346
#     4  11  22  38  63  94 124 155 205 263 302 356
#     4  11  22  38  60  93 123 159 205 253 309 354
#     4  11  21  40  68  90 122 157 210 258 300 353
#     4  11  23  43  63  89 127 167 201 245 306 374
#     4  11  22  41  65  93 121 159 209 259 298 351
#     4  12  21  40  63  90 126 161 204 249 305 368
#     4  12  26  38  62  93 128 167 198 245 313 369
#
# _framework density 24.234299
#
# number of rings (size 3 to 8) (size 9 to 14) (size 15 to 20)
#    0.000    0.750    5.000    4.875    0.000    2.000 
#    0.000    0.000    0.000    4.500    0.000    0.000 
#    0.000    0.000    0.000    0.000    0.000    0.000 
#
# Total GULP energy -89559.116279 kJ/mol
# GULP energy per Si atom -5597.444767 kJ/mol
# Density = 2.417914 g / cm^3
# Si number density = 24.234299 Si / 1000 Ang^3
#
#
#
# Elastic Constant Matrix: (Units=GPa)
#
#
# Indices 1 2 3 4 5 6 
#
# 1 86.7163 37.7330 49.4588 24.8253 4.2244 -6.7107
# 2 37.7330 68.4536 18.9162 26.1561 0.3158 -16.8784
# 3 49.4588 18.9162 140.7475 38.4435 10.0677 -17.5851
# 4 24.8253 26.1561 38.4435 35.6924 -9.5768 -6.5764
# 5 4.2244 0.3158 10.0677 -9.5768 43.7937 7.5182
# 6 -6.7107 -16.8784 -17.5851 -6.5764 7.5182 34.7046
#
#
#
# Elastic Compliance Matrix: (Units=1/GPa)
#
#
# Indices 1 2 3 4 5 6 
#
# 1 0.018769 -0.009479 -0.005609 -0.000785 0.000060 -0.003985
# 2 -0.009479 0.030571 0.008439 -0.024661 -0.009149 0.014620
# 3 -0.005609 0.008439 0.014827 -0.018932 -0.008580 0.008803
# 4 -0.000785 -0.024661 -0.018932 0.070580 0.022306 -0.013196
# 5 0.000060 -0.009149 -0.008580 0.022306 0.031706 -0.011427
# 6 -0.003985 0.014620 0.008803 -0.013196 -0.011427 0.039590
#
#
# Mechanical properties :
#
#
# Convention : Reuss Voigt Hill
#
# Bulk Modulus (GPa) = 19.65833 56.45927 38.05880
# Shear Modulus (GPa) = 21.15975 35.49211 28.32593
#
# Velocity S-wave (km/s) = 2.95809 3.83108 3.42253
# Velocity P-wave (km/s) = 4.44932 6.55114 5.59973
#
# Compressibility (1/GPa) = 0.05086902
#
# Stress axis : x y z
#
# Youngs Moduli (GPa) = 53.27940 32.71046 67.44659
#
# Poissons Ratio (x) = 0.31005 0.37833
# Poissons Ratio (y) = 0.50502 -0.56918
# Poissons Ratio (z) = 0.29886 -0.27604
#
# Static dielectric constant tensor:
#      x y z
#    x 1.922530 0.018450 -0.018590 
#    y 0.018450 1.993800 -0.006200 
#    z -0.018590 -0.006200 1.914440 
# 
# From -- ./inp_files/320335.got.cif
#   From: 2010.05.17/outbox.cif.g08.bks.cpg/sg2_161_cif.got.tgz:320335.got - 2010.06.03 11:33:40.
