data_PCOD9053217
_publ_section_title
;
Structure prediction by ZEFSAII (Michael W. Deem and Ramdas Pophale) SiO2 
 PCOD9053217
Probable space group: P -1
;
_chemical_formula_sum "Si O2"
_cell_formula_units_Z 16
_cell_length_a 14.403676
_cell_length_b 14.484065
_cell_length_c 14.331488
_cell_angle_alpha 133.084608
_cell_angle_beta 160.205865
_cell_angle_gamma 47.767164
_cell_volume 734.223020
_symmetry_space_group_name_H-M "P -1"
_symmetry_group_IT_number 2
_symmetry_cell_setting 'triclinic'
loop_
_space_group_symop_operation_xyz
x,y,z
-x,-y,-z
loop_
_atom_site_type_symbol
_atom_site_label
_atom_site_fract_x
_atom_site_fract_y
_atom_site_fract_z
Si Si1 0.911461 0.863404 0.349343
Si Si2 0.363915 0.043169 0.660186
Si Si3 0.449333 0.132976 0.600664
Si Si4 0.223799 0.542068 0.067659
Si Si5 0.931170 0.886140 0.082429
Si Si6 0.330320 0.373614 0.314971
Si Si7 0.960510 0.238488 0.094700
Si Si8 0.506923 0.297724 0.229410
O O1 0.183021 0.762550 0.534089
O O2 0.767380 0.876156 0.322682
O O3 0.000000 0.000000 0.500000
O O4 0.685317 0.815807 0.033774
O O5 0.329507 0.108139 0.571433
O O6 0.687933 0.999236 0.947871
O O7 0.200633 0.918243 0.413270
O O8 0.734197 0.192654 0.917205
O O9 0.500000 0.000000 0.500000
O O10 0.246604 0.228405 0.412107
O O11 0.432392 0.618196 0.378129
O O12 0.133269 0.626972 0.950507
O O13 0.387436 0.402764 0.113178
O O14 0.940074 0.529156 0.847242
O O15 0.806174 0.757725 0.900318
O O16 0.003361 0.864510 0.026798
O O17 0.460093 0.373193 0.334945
#
# Coordination Sequence:
#
# PCOD9053217 Si02
#       8
#     2   2   2   2   2   2   2   2
#     4  12  26  44  63  90 122 166 213 250 299 355
#     4  12  23  36  59  86 125 165 204 245 304 362
#     4  12  21  36  59  91 128 157 198 250 316 368
#     4  11  23  39  63  92 124 160 202 251 317 369
#     4  11  19  34  56  88 126 156 191 244 305 377
#     4  11  21  37  62  94 123 156 203 250 315 364
#     4  11  21  36  57  92 126 157 189 249 319 374
#     4  12  24  43  65  86 124 163 211 258 296 363
#
# _framework density 21.791744000000001
#
# number of rings (size 3 to 8) (size 9 to 14) (size 15 to 20)
#    0.000    0.500    2.500    9.000    0.000    0.000 
#    0.000    0.000    0.000    4.500    0.000    0.000 
#    0.000    0.000    0.000    0.000    0.000    0.000 
#
# Total GULP energy -89561.776118 kJ/mol
# GULP energy per Si atom -5597.611007 kJ/mol
# Density = 2.174214 g / cm^3
# Si number density = 21.791744 Si / 1000 Ang^3
#
#
#
# Elastic Constant Matrix: (Units=GPa)
#
#
# Indices 1 2 3 4 5 6 
#
# 1 93.2868 30.6623 7.6372 -2.4884 7.9205 -5.8424
# 2 30.6623 77.9562 0.2647 -12.4123 5.9396 -3.4247
# 3 7.6372 0.2647 73.8038 -4.1468 14.8844 -11.9051
# 4 -2.4884 -12.4123 -4.1468 39.1407 -2.8578 4.4819
# 5 7.9205 5.9396 14.8844 -2.8578 30.4886 -1.8110
# 6 -5.8424 -3.4247 -11.9051 4.4819 -1.8110 31.3351
#
#
#
# Elastic Compliance Matrix: (Units=1/GPa)
#
#
# Indices 1 2 3 4 5 6 
#
# 1 0.012636 -0.004930 -0.000694 -0.001163 -0.001997 0.001605
# 2 -0.004930 0.015657 0.001167 0.004584 -0.001881 0.000471
# 3 -0.000694 0.001167 0.016069 0.000847 -0.007483 0.005550
# 4 -0.001163 0.004584 0.000847 0.027491 0.001380 -0.003247
# 5 -0.001997 -0.001881 -0.007483 0.001380 0.037380 -0.001458
# 6 0.001605 0.000471 0.005550 -0.003247 -0.001458 0.034752
#
#
# Mechanical properties :
#
#
# Convention : Reuss Voigt Hill
#
# Bulk Modulus (GPa) = 28.21032 35.79724 32.00378
# Shear Modulus (GPa) = 30.35542 33.95836 32.15689
#
# Velocity S-wave (km/s) = 3.73631 3.95183 3.84558
# Velocity P-wave (km/s) = 5.62022 6.10616 5.86823
#
# Compressibility (1/GPa) = 0.03544802
#
# Stress axis : x y z
#
# Youngs Moduli (GPa) = 79.13914 63.86976 62.23185
#
# Poissons Ratio (x) = 0.31489 0.04316
# Poissons Ratio (y) = 0.39018 -0.07262
# Poissons Ratio (z) = 0.05489 -0.07454
#
# Static dielectric constant tensor:
#      x y z
#    x 1.802590 0.028540 0.011510 
#    y 0.028540 1.823360 0.013100 
#    z 0.011510 0.013100 1.795070 
# 
# From -- ./inp_files/455700.got.cif
#   From: 2010.05.17/outbox.cif.g08.bks.cpg/sg2_228_cif.got.tgz:455700.got - 2010.06.03 11:33:40.
