data_PCOD9053453
_publ_section_title
;
Structure prediction by ZEFSAII (Michael W. Deem and Ramdas Pophale) SiO2 
 PCOD9053453
Probable space group: P -1
;
_chemical_formula_sum "Si O2"
_cell_formula_units_Z 16
_cell_length_a 8.910203
_cell_length_b 9.384822
_cell_length_c 11.774537
_cell_angle_alpha 79.954714
_cell_angle_beta 83.046004
_cell_angle_gamma 132.127639
_cell_volume 679.750862
_symmetry_space_group_name_H-M "P -1"
_symmetry_group_IT_number 2
_symmetry_cell_setting 'triclinic'
loop_
_space_group_symop_operation_xyz
x,y,z
-x,-y,-z
loop_
_atom_site_type_symbol
_atom_site_label
_atom_site_fract_x
_atom_site_fract_y
_atom_site_fract_z
Si Si1 0.718057 0.567704 0.426062
Si Si2 0.945189 0.908815 0.164647
Si Si3 0.829219 0.591478 0.057790
Si Si4 0.062382 0.631241 0.817181
Si Si5 0.433898 0.120089 0.460846
Si Si6 0.345328 0.242823 0.234542
Si Si7 0.636874 0.924218 0.278429
Si Si8 0.786146 0.546250 0.659010
O O1 0.500000 0.500000 0.500000
O O2 0.829439 0.727271 0.293950
O O3 0.644496 0.362568 0.416414
O O4 0.859178 0.643192 0.514128
O O5 0.921316 0.804285 0.065650
O O6 0.793567 0.944319 0.179681
O O7 0.174720 0.097051 0.171486
O O8 0.933566 0.532309 0.128761
O O9 0.577804 0.413318 0.131935
O O10 0.897386 0.598497 0.923107
O O11 0.972012 0.601942 0.706454
O O12 0.296814 0.864076 0.775743
O O13 0.336979 0.112629 0.352278
O O14 0.305084 0.072581 0.595334
O O15 0.500000 0.000000 0.500000
O O16 0.297670 0.364547 0.283865
O O17 0.402674 0.700949 0.307244
#
# Coordination Sequence:
#
# PCOD9053453 Si02
#       8
#     2   2   2   2   2   2   2   2
#     4  11  19  40  65  96 142 170 207 276 328 388
#     4  12  23  40  70 101 129 179 219 271 337 388
#     4  11  26  50  63  94 142 168 223 284 330 391
#     4  11  27  45  71  93 129 184 216 278 343 385
#     4  11  22  38  65  97 138 175 208 272 331 390
#     4  12  23  42  68  98 133 178 219 271 331 396
#     4  11  22  41  66 102 132 168 222 276 323 393
#     4  11  22  42  70 100 130 171 226 270 324 401
#
# _framework density 23.538038
#
# number of rings (size 3 to 8) (size 9 to 14) (size 15 to 20)
#    0.000    0.750    7.500    0.750    1.750    6.000 
#    0.000    3.750    0.000    0.000    0.000    0.000 
#    0.000    0.000    0.000    0.000    0.000    0.000 
#
# Total GULP energy -89504.954917 kJ/mol
# GULP energy per Si atom -5594.059682 kJ/mol
# Density = 2.348446 g / cm^3
# Si number density = 23.538038 Si / 1000 Ang^3
#
#
#
# Elastic Constant Matrix: (Units=GPa)
#
#
# Indices 1 2 3 4 5 6 
#
# 1 49.6203 24.8725 -12.8257 8.0801 7.3175 -7.0591
# 2 24.8725 103.9993 -15.0351 -2.2104 -1.4490 8.2003
# 3 -12.8257 -15.0351 50.5197 0.3880 -8.5610 16.9002
# 4 8.0801 -2.2104 0.3880 39.5532 2.7138 5.0915
# 5 7.3175 -1.4490 -8.5610 2.7138 36.4332 -4.6623
# 6 -7.0591 8.2003 16.9002 5.0915 -4.6623 36.8209
#
#
#
# Elastic Compliance Matrix: (Units=1/GPa)
#
#
# Indices 1 2 3 4 5 6 
#
# 1 0.026504 -0.006689 0.002134 -0.006314 -0.003853 0.005977
# 2 -0.006689 0.012417 0.004362 0.002685 0.001871 -0.006184
# 3 0.002134 0.004362 0.026469 0.000831 0.004331 -0.012278
# 4 -0.006314 0.002685 0.000831 0.027596 -0.001274 -0.006167
# 5 -0.003853 0.001871 0.004331 -0.001274 0.029507 0.000769
# 6 0.005977 -0.006184 -0.012278 -0.006167 0.000769 0.036267
#
#
# Mechanical properties :
#
#
# Convention : Reuss Voigt Hill
#
# Bulk Modulus (GPa) = 15.38349 22.01806 18.70078
# Shear Modulus (GPa) = 27.65274 36.36995 32.01134
#
# Velocity S-wave (km/s) = 3.43127 3.93511 3.69180
# Velocity P-wave (km/s) = 4.71677 5.47918 5.11221
#
# Compressibility (1/GPa) = 0.06500475
#
# Stress axis : x y z
#
# Youngs Moduli (GPa) = 37.72950 80.53654 37.77970
#
# Poissons Ratio (x) = 0.53874 -0.08063
# Poissons Ratio (y) = 0.25239 -0.16481
# Poissons Ratio (z) = -0.08052 -0.35133
#
# Static dielectric constant tensor:
#      x y z
#    x 1.895030 -0.037240 -0.026360 
#    y -0.037240 1.915780 -0.004930 
#    z -0.026360 -0.004930 1.934360 
# 
# From -- ./inp_files/382283.got.cif
#   From: 2010.05.17/outbox.cif.g08.bks.cpg/sg2_192_cif.got.tgz:382283.got - 2010.06.03 11:33:40.
