data_PCOD9053347
_publ_section_title
;
Structure prediction by ZEFSAII (Michael W. Deem and Ramdas Pophale) SiO2 
 PCOD9053347
Probable space group: P -1
;
_chemical_formula_sum "Si O2"
_cell_formula_units_Z 14
_cell_length_a 17.874232
_cell_length_b 6.881043
_cell_length_c 15.717408
_cell_angle_alpha 43.900099
_cell_angle_beta 146.850882
_cell_angle_gamma 144.134978
_cell_volume 613.962220
_symmetry_space_group_name_H-M "P -1"
_symmetry_group_IT_number 2
_symmetry_cell_setting 'triclinic'
loop_
_space_group_symop_operation_xyz
x,y,z
-x,-y,-z
loop_
_atom_site_type_symbol
_atom_site_label
_atom_site_fract_x
_atom_site_fract_y
_atom_site_fract_z
Si Si1 0.762075 0.270097 0.928807
Si Si2 0.067504 0.882336 0.015625
Si Si3 0.948462 0.729054 0.253563
Si Si4 0.308443 0.317836 0.851568
Si Si5 0.489341 0.809018 0.412868
Si Si6 0.173986 0.444807 0.336741
Si Si7 0.184318 0.496644 0.514872
O O1 0.856900 0.200018 0.968255
O O2 0.590585 0.138133 0.763671
O O3 0.872154 0.668570 0.914142
O O4 0.756365 0.066967 0.068472
O O5 0.118357 0.707097 0.189135
O O6 0.103671 0.231493 0.903871
O O7 0.790133 0.586087 0.208103
O O8 0.040778 0.536038 0.400851
O O9 0.079663 0.111149 0.292856
O O10 0.258928 0.370438 0.695217
O O11 0.500000 0.500000 0.000000
O O12 0.500000 0.500000 0.500000
O O13 0.360888 0.674610 0.410337
O O14 0.665474 0.137912 0.487189
O O15 0.137829 0.304034 0.442126
#
# Coordination Sequence:
#
# PCOD9053347 Si02
#       7
#     2   2   2   2   2   2   2
#     4   9  15  32  60  83 108 161 199 228 298 356
#     4   9  15  35  63  82 111 157 193 242 299 347
#     4  11  21  42  63  86 123 159 201 247 296 353
#     4  11  22  39  63  84 120 168 202 239 298 366
#     4  11  19  37  63  89 122 154 195 252 300 347
#     4  11  21  37  63  92 120 155 198 250 300 353
#     4  12  25  36  61  96 120 157 201 246 298 354
#
# _framework density 22.802705
#
# number of rings (size 3 to 8) (size 9 to 14) (size 15 to 20)
#    0.000    1.429    8.571    0.857    0.000    1.143 
#    0.000    0.000    0.000    2.571    0.000    0.000 
#    0.000    0.000    0.000    0.000    0.000    0.000 
#
# Total GULP energy -77983.285706 kJ/mol
# GULP energy per Si atom -5570.234693 kJ/mol
# Density = 2.275080 g / cm^3
# Si number density = 22.802705 Si / 1000 Ang^3
#
#
#
# Elastic Constant Matrix: (Units=GPa)
#
#
# Indices 1 2 3 4 5 6 
#
# 1 103.0252 21.6734 60.2872 -7.3881 -6.9573 15.0545
# 2 21.6734 54.1738 24.4989 -4.4756 4.5348 15.4254
# 3 60.2872 24.4989 142.5132 -24.5362 -13.2625 7.7449
# 4 -7.3881 -4.4756 -24.5362 37.3740 19.6659 4.9790
# 5 -6.9573 4.5348 -13.2625 19.6659 43.2631 -2.7956
# 6 15.0545 15.4254 7.7449 4.9790 -2.7956 23.7563
#
#
#
# Elastic Compliance Matrix: (Units=1/GPa)
#
#
# Indices 1 2 3 4 5 6 
#
# 1 0.014065 -0.001587 -0.005377 -0.000464 0.000606 -0.005961
# 2 -0.001587 0.026841 -0.002295 0.008506 -0.008834 -0.018497
# 3 -0.005377 -0.002295 0.010636 0.005533 0.000140 0.000287
# 4 -0.000464 0.008506 0.005533 0.044806 -0.020857 -0.018878
# 5 0.000606 -0.008834 0.000140 -0.020857 0.034550 0.013744
# 6 -0.005961 -0.018497 0.000287 -0.018878 0.013744 0.063362
#
#
# Mechanical properties :
#
#
# Convention : Reuss Voigt Hill
#
# Bulk Modulus (GPa) = 30.28095 56.95901 43.61998
# Shear Modulus (GPa) = 22.34279 33.76219 28.05249
#
# Velocity S-wave (km/s) = 3.13362 3.85206 3.51126
# Velocity P-wave (km/s) = 5.13820 6.69461 5.96737
#
# Compressibility (1/GPa) = 0.03302406
#
# Stress axis : x y z
#
# Youngs Moduli (GPa) = 71.09721 37.25644 94.02051
#
# Poissons Ratio (x) = 0.05914 0.50552
# Poissons Ratio (y) = 0.11285 0.21578
# Poissons Ratio (z) = 0.38227 0.08551
#
# Static dielectric constant tensor:
#      x y z
#    x 1.967470 -0.068740 -0.151880 
#    y -0.068740 1.959600 0.122230 
#    z -0.151880 0.122230 2.098590 
# 
# From -- ./inp_files/577204.got.cif
#   From: 2010.05.17/outbox.cif.g08.bks.cpg/sg2_289_cif.got.tgz:577204.got - 2010.06.03 11:33:40.
