data_PCOD9053295
_publ_section_title
;
Structure prediction by ZEFSAII (Michael W. Deem and Ramdas Pophale) SiO2 
 PCOD9053295
Probable space group: P -1
;
_chemical_formula_sum "Si O2"
_cell_formula_units_Z 16
_cell_length_a 11.790444
_cell_length_b 17.753390
_cell_length_c 14.196066
_cell_angle_alpha 21.458186
_cell_angle_beta 139.626666
_cell_angle_gamma 138.728251
_cell_volume 692.704887
_symmetry_space_group_name_H-M "P -1"
_symmetry_group_IT_number 2
_symmetry_cell_setting 'triclinic'
loop_
_space_group_symop_operation_xyz
x,y,z
-x,-y,-z
loop_
_atom_site_type_symbol
_atom_site_label
_atom_site_fract_x
_atom_site_fract_y
_atom_site_fract_z
Si Si1 0.137564 0.349869 0.671932
Si Si2 0.861293 0.087547 0.529396
Si Si3 0.763989 0.772915 0.308074
Si Si4 0.702205 0.201903 0.690110
Si Si5 0.806939 0.375125 0.996433
Si Si6 0.235307 0.935911 0.296901
Si Si7 0.081979 0.899697 0.758898
Si Si8 0.591587 0.732611 0.423084
O O1 0.248880 0.381758 0.607757
O O2 0.166875 0.574791 0.478062
O O3 0.945409 0.227092 0.657475
O O4 0.211573 0.173513 0.984095
O O5 0.772206 0.193223 0.264752
O O6 0.745565 0.071097 0.570297
O O7 0.051435 0.229080 0.517015
O O8 0.933296 0.887283 0.761522
O O9 0.587701 0.729967 0.310144
O O10 0.788683 0.006353 0.007468
O O11 0.637642 0.138143 0.616582
O O12 0.552056 0.220582 0.649184
O O13 0.838614 0.292031 0.008914
O O14 0.665326 0.525136 0.739494
O O15 0.000000 0.500000 0.000000
O O16 0.249480 0.067939 0.699119
O O17 0.000000 0.000000 0.500000
#
# Coordination Sequence:
#
# PCOD9053295 Si02
#       8
#     2   2   2   2   2   2   2   2
#     4   9  19  36  57  79 108 152 192 230 266 321
#     4   9  18  36  58  84 107 141 186 235 269 319
#     4   9  19  35  54  80 117 142 184 230 274 329
#     4  11  22  35  55  82 119 151 183 220 280 334
#     4  11  19  36  59  84 110 136 186 232 275 329
#     4   9  19  38  55  79 115 146 191 229 264 323
#     4   9  18  35  58  81 105 138 181 232 282 314
#     4  11  22  36  54  86 118 147 179 227 283 335
#
# _framework density 23.097857999999999
#
# number of rings (size 3 to 8) (size 9 to 14) (size 15 to 20)
#    0.000    2.250    3.750    1.500    0.000    4.500 
#    2.250    0.625    0.000    3.750    0.000    0.000 
#    0.000    0.000    0.000    0.000    0.000    0.000 
#
# Total GULP energy -89192.141194 kJ/mol
# GULP energy per Si atom -5574.508825 kJ/mol
# Density = 2.304529 g / cm^3
# Si number density = 23.097858 Si / 1000 Ang^3
#
#
#
# Elastic Constant Matrix: (Units=GPa)
#
#
# Indices 1 2 3 4 5 6 
#
# 1 138.5200 18.7187 25.7871 -2.1653 -6.7057 -37.0093
# 2 18.7187 37.1519 20.3273 -18.5936 4.5901 -21.0277
# 3 25.7871 20.3273 90.5228 -11.4758 9.4324 -21.3838
# 4 -2.1653 -18.5936 -11.4758 21.7123 -5.2135 3.9115
# 5 -6.7057 4.5901 9.4324 -5.2135 31.8385 -0.7404
# 6 -37.0093 -21.0277 -21.3838 3.9115 -0.7404 43.9596
#
#
#
# Elastic Compliance Matrix: (Units=1/GPa)
#
#
# Indices 1 2 3 4 5 6 
#
# 1 0.009598 -0.001108 -0.001234 -0.001326 0.002495 0.007111
# 2 -0.001108 0.071995 -0.002332 0.055311 -0.000226 0.027445
# 3 -0.001234 -0.002332 0.013696 0.003582 -0.003299 0.004134
# 4 -0.001326 0.055311 0.003582 0.093320 0.006405 0.018888
# 5 0.002495 -0.000226 -0.003299 0.006405 0.034002 0.000390
# 6 0.007111 0.027445 0.004134 0.018888 0.000390 0.042199
#
#
# Mechanical properties :
#
#
# Convention : Reuss Voigt Hill
#
# Bulk Modulus (GPa) = 11.63595 43.98456 27.81025
# Shear Modulus (GPa) = 16.51221 32.92618 24.71919
#
# Velocity S-wave (km/s) = 2.67663 3.77969 3.27493
# Velocity P-wave (km/s) = 3.82113 6.17512 5.13484
#
# Compressibility (1/GPa) = 0.08594054
#
# Stress axis : x y z
#
# Youngs Moduli (GPa) = 104.18318 13.88995 73.01143
#
# Poissons Ratio (x) = 0.01540 0.09008
# Poissons Ratio (y) = 0.11548 0.17028
# Poissons Ratio (z) = 0.12854 0.03239
#
# Static dielectric constant tensor:
#      x y z
#    x 2.068390 0.000560 -0.016430 
#    y 0.000560 1.848600 0.006610 
#    z -0.016430 0.006610 1.863360 
# 
# From -- ./inp_files/519037.got.cif
#   From: 2010.05.17/outbox.cif.g08.bks.cpg/sg2_260_cif.got.tgz:519037.got - 2010.06.03 11:33:40.
