data_PCOD9053008
_publ_section_title
;
Structure prediction by ZEFSAII (Michael W. Deem and Ramdas Pophale) SiO2 
 PCOD9053008
Probable space group: P -1
;
_chemical_formula_sum "Si O2"
_cell_formula_units_Z 14
_cell_length_a 6.687890
_cell_length_b 16.398699
_cell_length_c 7.486866
_cell_angle_alpha 117.031100
_cell_angle_beta 80.391478
_cell_angle_gamma 65.702352
_cell_volume 599.941124
_symmetry_space_group_name_H-M "P -1"
_symmetry_group_IT_number 2
_symmetry_cell_setting 'triclinic'
loop_
_space_group_symop_operation_xyz
x,y,z
-x,-y,-z
loop_
_atom_site_type_symbol
_atom_site_label
_atom_site_fract_x
_atom_site_fract_y
_atom_site_fract_z
Si Si1 0.863232 0.273243 0.952852
Si Si2 0.025848 0.308171 0.315862
Si Si3 0.636121 0.129509 0.551925
Si Si4 0.594135 0.511019 0.687367
Si Si5 0.502086 0.100200 0.183322
Si Si6 0.700491 0.311983 0.641569
Si Si7 0.149709 0.931576 0.180468
O O1 0.885723 0.284429 0.750194
O O2 0.933897 0.151926 0.863016
O O3 0.570080 0.361379 0.115092
O O4 0.998838 0.304910 0.103972
O O5 0.288532 0.218862 0.260687
O O6 0.887366 0.432339 0.540725
O O7 0.853320 0.272185 0.395152
O O8 0.504985 0.099490 0.396592
O O9 0.565480 0.252097 0.645587
O O10 0.639825 0.105498 0.736668
O O11 0.923921 0.052389 0.381513
O O12 0.500000 0.500000 0.500000
O O13 0.536347 0.442531 0.764455
O O14 0.745329 0.081374 0.043252
O O15 0.500000 0.000000 0.000000
#
# Coordination Sequence:
#
# PCOD9053008 Si02
#       7
#     2   2   2   2   2   2   2
#     4  10  17  35  59  78 105 139 184 218 252 312
#     4   9  20  32  50  83 106 137 174 213 269 303
#     4  10  21  38  56  81 106 137 181 222 259 313
#     4   8  17  32  56  81 105 135 178 222 254 306
#     4  12  23  35  54  78 112 144 172 216 273 320
#     4   9  18  33  59  78 105 138 179 218 261 305
#     4  10  22  36  58  80 104 142 180 219 261 309
#
# _framework density 23.335623999999999
#
# number of rings (size 3 to 8) (size 9 to 14) (size 15 to 20)
#    0.857    1.429    0.000    3.429    0.000    1.714 
#    0.000    0.714    0.000    1.714    0.000    0.000 
#    0.000    0.000    0.000    0.000    0.000    0.000 
#
# Total GULP energy -78004.875446 kJ/mol
# GULP energy per Si atom -5571.776818 kJ/mol
# Density = 2.328251 g / cm^3
# Si number density = 23.335624 Si / 1000 Ang^3
#
#
#
# Elastic Constant Matrix: (Units=GPa)
#
#
# Indices 1 2 3 4 5 6 
#
# 1 24.3364 12.7800 12.5891 1.5797 8.0115 -16.7420
# 2 12.7800 73.3458 12.6286 -3.5595 3.7892 -8.3229
# 3 12.5891 12.6286 68.0184 7.5743 14.1261 -10.6936
# 4 1.5797 -3.5595 7.5743 37.3035 -16.1487 -0.8511
# 5 8.0115 3.7892 14.1261 -16.1487 32.2846 -0.1156
# 6 -16.7420 -8.3229 -10.6936 -0.8511 -0.1156 31.9039
#
#
#
# Elastic Compliance Matrix: (Units=1/GPa)
#
#
# Indices 1 2 3 4 5 6 
#
# 1 0.084515 -0.009362 0.000021 -0.015412 -0.027444 0.041404
# 2 -0.009362 0.015533 -0.002585 0.003919 0.003586 -0.001610
# 3 0.000021 -0.002585 0.019973 -0.009979 -0.013412 0.005717
# 4 -0.015412 0.003919 -0.009979 0.042099 0.028756 -0.009183
# 5 -0.027444 0.003586 -0.013412 0.028756 0.057555 -0.016986
# 6 0.041404 -0.001610 0.005717 -0.009183 -0.016986 0.054261
#
#
# Mechanical properties :
#
#
# Convention : Reuss Voigt Hill
#
# Bulk Modulus (GPa) = 10.39832 26.85510 18.62671
# Shear Modulus (GPa) = 15.15868 28.81192 21.98530
#
# Velocity S-wave (km/s) = 2.55148 3.51761 3.07275
# Velocity P-wave (km/s) = 3.62570 5.29446 4.53745
#
# Compressibility (1/GPa) = 0.09616937
#
# Stress axis : x y z
#
# Youngs Moduli (GPa) = 11.83225 64.38045 50.06668
#
# Poissons Ratio (x) = 0.60270 -0.00106
# Poissons Ratio (y) = 0.11077 0.12944
# Poissons Ratio (z) = -0.00025 0.16645
#
# Static dielectric constant tensor:
#      x y z
#    x 1.942410 -0.031630 -0.008680 
#    y -0.031630 1.884650 0.012450 
#    z -0.008680 0.012450 1.890740 
# 
# From -- ./inp_files/115944.got.cif
#   From: 2010.05.17/outbox.cif.g08.bks.cpg/sg2_58_cif.got.tgz:115944.got - 2010.06.03 11:33:40.
