data_PCOD9053710
_publ_section_title
;
Structure prediction by ZEFSAII (Michael W. Deem and Ramdas Pophale) SiO2 
 PCOD9053710
Probable space group: P -1
;
_chemical_formula_sum "Si O2"
_cell_formula_units_Z 16
_cell_length_a 9.296508
_cell_length_b 10.030169
_cell_length_c 16.440348
_cell_angle_alpha 65.262430
_cell_angle_beta 153.553360
_cell_angle_gamma 116.179676
_cell_volume 611.644572
_symmetry_space_group_name_H-M "P -1"
_symmetry_group_IT_number 2
_symmetry_cell_setting 'triclinic'
loop_
_space_group_symop_operation_xyz
x,y,z
-x,-y,-z
loop_
_atom_site_type_symbol
_atom_site_label
_atom_site_fract_x
_atom_site_fract_y
_atom_site_fract_z
Si Si1 0.715261 0.795939 0.567638
Si Si2 0.428565 0.918063 0.898946
Si Si3 0.378977 0.531270 0.208194
Si Si4 0.556507 0.208059 0.396100
Si Si5 0.879383 0.426307 0.243653
Si Si6 0.594197 0.847959 0.840335
Si Si7 0.131620 0.672866 0.196240
Si Si8 0.225961 0.304279 0.775976
O O1 0.684084 0.821457 0.641582
O O2 0.357048 0.770894 0.352344
O O3 0.047115 0.907182 0.686238
O O4 0.832048 0.643451 0.635931
O O5 0.612463 0.963151 0.895658
O O6 0.551934 0.762053 0.027763
O O7 0.500000 0.000000 0.000000
O O8 0.527905 0.379529 0.316482
O O9 0.367756 0.601917 0.273389
O O10 0.560398 0.647813 0.206805
O O11 0.000000 0.500000 0.000000
O O12 0.494130 0.115243 0.305317
O O13 0.908364 0.194474 0.613879
O O14 0.678379 0.287118 0.227724
O O15 0.917241 0.553645 0.298892
O O16 0.847521 0.543191 0.122401
O O17 0.927550 0.782290 0.020345
#
# Coordination Sequence:
#
# PCOD9053710 Si02
#       8
#     2   2   2   2   2   2   2   2
#     4  11  24  38  66  93 130 169 211 258 316 384
#     4  11  27  50  67  85 119 172 227 272 315 368
#     4  12  23  34  60 101 148 169 196 247 318 398
#     4  12  22  38  60 106 133 165 199 257 324 388
#     4  11  20  36  60  96 132 174 200 242 314 392
#     4  11  24  37  66  92 132 167 210 254 320 381
#     4  12  21  37  58  99 135 169 204 246 316 390
#     4  12  24  39  64  91 136 169 209 258 318 379
#
# _framework density 26.158985000000001
#
# number of rings (size 3 to 8) (size 9 to 14) (size 15 to 20)
#    0.000    0.500    6.250    2.625    7.000    0.000 
#    0.000    3.750    0.000    0.000    0.000    0.000 
#    0.000    0.000    0.000    0.000    0.000    0.000 
#
# Total GULP energy -89303.297125 kJ/mol
# GULP energy per Si atom -5581.456070 kJ/mol
# Density = 2.609945 g / cm^3
# Si number density = 26.158985 Si / 1000 Ang^3
#
#
#
# Elastic Constant Matrix: (Units=GPa)
#
#
# Indices 1 2 3 4 5 6 
#
# 1 187.8108 45.6479 8.6711 8.5926 -19.8548 -20.1401
# 2 45.6479 70.7573 8.0560 3.3317 3.7530 -16.6582
# 3 8.6711 8.0560 71.3855 9.1249 -2.2548 0.0274
# 4 8.5926 3.3317 9.1249 15.5923 -13.7518 -7.4297
# 5 -19.8548 3.7530 -2.2548 -13.7518 41.8919 13.0416
# 6 -20.1401 -16.6582 0.0274 -7.4297 13.0416 45.0749
#
#
#
# Elastic Compliance Matrix: (Units=1/GPa)
#
#
# Indices 1 2 3 4 5 6 
#
# 1 0.006845 -0.004521 -0.000323 0.000951 0.003806 0.000443
# 2 -0.004521 0.019338 -0.001326 -0.004251 -0.007385 0.006563
# 3 -0.000323 -0.001326 0.015622 -0.011747 -0.002469 -0.001866
# 4 0.000951 -0.004251 -0.011747 0.102598 0.031836 0.006561
# 5 0.003806 -0.007385 -0.002469 0.031836 0.038839 -0.007017
# 6 0.000443 0.006563 -0.001866 0.006561 -0.007017 0.027922
#
#
# Mechanical properties :
#
#
# Convention : Reuss Voigt Hill
#
# Bulk Modulus (GPa) = 33.93868 50.52262 42.23065
# Shear Modulus (GPa) = 21.42948 38.35039 29.88994
#
# Velocity S-wave (km/s) = 2.86527 3.83306 3.38394
# Velocity P-wave (km/s) = 4.89373 6.24062 5.60776
#
# Compressibility (1/GPa) = 0.02946490
#
# Stress axis : x y z
#
# Youngs Moduli (GPa) = 146.09865 51.71259 64.01395
#
# Poissons Ratio (x) = 0.23381 0.02066
# Poissons Ratio (y) = 0.66056 0.08485
# Poissons Ratio (z) = 0.04714 0.06855
#
# Static dielectric constant tensor:
#      x y z
#    x 2.048230 -0.066030 -0.018260 
#    y -0.066030 2.170730 0.064630 
#    z -0.018260 0.064630 2.048400 
# 
# From -- ./inp_files/447384.got.cif
#   From: 2010.05.17/outbox.cif.g08.bks.cpg/sg2_224_cif.got.tgz:447384.got - 2010.06.03 11:33:40.
