data_PCOD9053388
_publ_section_title
;
Structure prediction by ZEFSAII (Michael W. Deem and Ramdas Pophale) SiO2 
 PCOD9053388
Probable space group: P -1
;
_chemical_formula_sum "Si O2"
_cell_formula_units_Z 16
_cell_length_a 16.038197
_cell_length_b 6.396894
_cell_length_c 10.586467
_cell_angle_alpha 59.321640
_cell_angle_beta 51.339854
_cell_angle_gamma 51.477387
_cell_volume 650.353042
_symmetry_space_group_name_H-M "P -1"
_symmetry_group_IT_number 2
_symmetry_cell_setting 'triclinic'
loop_
_space_group_symop_operation_xyz
x,y,z
-x,-y,-z
loop_
_atom_site_type_symbol
_atom_site_label
_atom_site_fract_x
_atom_site_fract_y
_atom_site_fract_z
Si Si1 0.870700 0.320086 0.332992
Si Si2 0.294616 0.555146 0.871827
Si Si3 0.498941 0.094718 0.681318
Si Si4 0.320972 0.058607 0.668867
Si Si5 0.398522 0.404289 0.101626
Si Si6 0.833354 0.181133 0.685865
Si Si7 0.983401 0.745714 0.345490
Si Si8 0.912352 0.602378 0.880454
O O1 0.759523 0.616956 0.348092
O O2 0.889616 0.235666 0.489663
O O3 0.985222 0.347102 0.160480
O O4 0.869548 0.044386 0.367162
O O5 0.409184 0.395883 0.721070
O O6 0.252949 0.876710 0.810691
O O7 0.341078 0.460140 0.999707
O O8 0.190383 0.475592 0.952096
O O9 0.417273 0.989586 0.711531
O O10 0.606219 0.039023 0.500747
O O11 0.550443 0.909561 0.812426
O O12 0.297880 0.580691 0.244543
O O13 0.500000 0.500000 0.000000
O O14 0.907184 0.202088 0.728339
O O15 0.840755 0.883158 0.780932
O O16 0.005959 0.634100 0.219213
O O17 0.000000 0.500000 0.500000
#
# Coordination Sequence:
#
# PCOD9053388 Si02
#       8
#     2   2   2   2   2   2   2   2
#     4  11  23  40  69 100 141 186 227 282 350 416
#     4  12  26  45  71 103 143 183 233 293 353 414
#     4  11  25  48  71  99 138 189 240 285 343 417
#     4  11  26  48  68 101 146 189 231 282 347 428
#     4  12  23  43  72 103 136 178 237 300 350 396
#     4  11  21  39  65 102 140 173 230 291 347 404
#     4  11  19  38  65 103 136 174 227 289 344 408
#     4  11  23  39  67 104 138 175 231 292 345 412
#
# _framework density 24.602021000000001
#
# number of rings (size 3 to 8) (size 9 to 14) (size 15 to 20)
#    0.000    0.750    6.250    2.250    0.000    1.500 
#    0.000    5.000    0.000    0.000    0.000    0.000 
#    0.000    0.000    0.000    0.000    0.000    0.000 
#
# Total GULP energy -89432.102498 kJ/mol
# GULP energy per Si atom -5589.506406 kJ/mol
# Density = 2.454603 g / cm^3
# Si number density = 24.602021 Si / 1000 Ang^3
#
#
#
# Elastic Constant Matrix: (Units=GPa)
#
#
# Indices 1 2 3 4 5 6 
#
# 1 85.5698 9.9854 20.8461 -13.7744 0.7714 -5.0039
# 2 9.9854 180.8787 47.9212 -8.7887 -9.0598 -11.3107
# 3 20.8461 47.9212 90.4529 -5.9135 -8.3151 -3.4998
# 4 -13.7744 -8.7887 -5.9135 36.3603 2.3817 -1.9347
# 5 0.7714 -9.0598 -8.3151 2.3817 35.3798 2.2415
# 6 -5.0039 -11.3107 -3.4998 -1.9347 2.2415 32.8253
#
#
#
# Elastic Compliance Matrix: (Units=1/GPa)
#
#
# Indices 1 2 3 4 5 6 
#
# 1 0.013291 0.000360 -0.002977 0.004845 -0.001363 0.002212
# 2 0.000360 0.006622 -0.003369 0.001251 0.000685 0.002004
# 3 -0.002977 -0.003369 0.013747 0.000117 0.002445 -0.000309
# 4 0.004845 0.001251 0.000117 0.029952 -0.001969 0.003082
# 5 -0.001363 0.000685 0.002445 -0.001969 0.029293 -0.001828
# 6 0.002212 0.002004 -0.000309 0.003082 -0.001828 0.031766
#
#
# Mechanical properties :
#
#
# Convention : Reuss Voigt Hill
#
# Bulk Modulus (GPa) = 46.10736 57.15630 51.63183
# Shear Modulus (GPa) = 34.75341 39.45632 37.10487
#
# Velocity S-wave (km/s) = 3.76257 4.00907 3.88777
# Velocity P-wave (km/s) = 6.13660 6.68678 6.41759
#
# Compressibility (1/GPa) = 0.02168851
#
# Stress axis : x y z
#
# Youngs Moduli (GPa) = 75.23827 151.02050 72.74408
#
# Poissons Ratio (x) = -0.05443 0.21656
# Poissons Ratio (y) = -0.02712 0.24506
# Poissons Ratio (z) = 0.22399 0.50877
#
# Static dielectric constant tensor:
#      x y z
#    x 1.965530 -0.002170 -0.002540 
#    y -0.002170 2.005430 -0.031060 
#    z -0.002540 -0.031060 1.984050 
# 
# From -- ./inp_files/459431.got.cif
#   From: 2010.05.17/outbox.cif.g08.bks.cpg/sg2_230_cif.got.tgz:459431.got - 2010.06.03 11:33:40.
