data_PCOD9053010
_publ_section_title
;
Structure prediction by ZEFSAII (Michael W. Deem and Ramdas Pophale) SiO2 
 PCOD9053010
Probable space group: P -1
;
_chemical_formula_sum "Si O2"
_cell_formula_units_Z 16
_cell_length_a 10.064645
_cell_length_b 18.818941
_cell_length_c 10.948811
_cell_angle_alpha 142.723574
_cell_angle_beta 58.826539
_cell_angle_gamma 144.241026
_cell_volume 684.230583
_symmetry_space_group_name_H-M "P -1"
_symmetry_group_IT_number 2
_symmetry_cell_setting 'triclinic'
loop_
_space_group_symop_operation_xyz
x,y,z
-x,-y,-z
loop_
_atom_site_type_symbol
_atom_site_label
_atom_site_fract_x
_atom_site_fract_y
_atom_site_fract_z
Si Si1 0.482810 0.032691 0.852308
Si Si2 0.276061 0.014240 0.170069
Si Si3 0.230020 0.215678 0.215572
Si Si4 0.970925 0.639492 0.523990
Si Si5 0.847609 0.815239 0.244219
Si Si6 0.323702 0.642900 0.931267
Si Si7 0.547085 0.390428 0.552371
Si Si8 0.646141 0.497020 0.057401
O O1 0.680585 0.075826 0.893324
O O2 0.259650 0.818490 0.630660
O O3 0.584965 0.171257 0.883068
O O4 0.360545 0.042139 0.029751
O O5 0.997714 0.888473 0.147241
O O6 0.444744 0.213510 0.419724
O O7 0.439738 0.298208 0.135538
O O8 0.369030 0.292595 0.384508
O O9 0.134071 0.291696 0.357704
O O10 0.000000 0.000000 0.000000
O O11 0.874143 0.497810 0.271546
O O12 0.824681 0.528916 0.567889
O O13 0.832647 0.681870 0.140182
O O14 0.569996 0.685759 0.169050
O O15 0.000000 0.000000 0.500000
O O16 0.245905 0.539607 0.955145
O O17 0.490895 0.475009 0.768385
#
# Coordination Sequence:
#
# PCOD9053010 Si02
#       8
#     2   2   2   2   2   2   2   2
#     4  11  24  39  60  90 128 170 192 241 308 367
#     4  11  23  42  59  87 130 164 206 241 297 372
#     4  11  18  28  55  92 125 154 187 248 314 356
#     4  11  19  34  55  92 126 154 197 245 308 363
#     4  11  25  43  65  91 121 158 206 258 305 354
#     4  11  21  36  58  93 123 150 204 246 307 364
#     4  11  19  34  59  92 125 154 198 254 307 362
#     4  11  23  39  65  96 115 157 203 261 312 348
#
# _framework density 23.383929999999999
#
# number of rings (size 3 to 8) (size 9 to 14) (size 15 to 20)
#    0.000    1.000    7.500    1.500    1.750    1.500 
#    2.250    0.625    0.000    1.500    0.000    0.000 
#    0.000    0.000    0.000    0.000    0.000    0.000 
#
# Total GULP energy -89361.322318 kJ/mol
# GULP energy per Si atom -5585.082645 kJ/mol
# Density = 2.333071 g / cm^3
# Si number density = 23.383930 Si / 1000 Ang^3
#
#
#
# Elastic Constant Matrix: (Units=GPa)
#
#
# Indices 1 2 3 4 5 6 
#
# 1 49.4392 2.8362 -4.1862 4.3049 -6.5477 -18.4659
# 2 2.8362 61.5480 31.6417 21.2866 -8.3244 -19.0883
# 3 -4.1862 31.6417 106.7963 30.7720 11.9310 2.8489
# 4 4.3049 21.2866 30.7720 31.6120 -2.9307 -1.2065
# 5 -6.5477 -8.3244 11.9310 -2.9307 20.9206 11.2498
# 6 -18.4659 -19.0883 2.8489 -1.2065 11.2498 28.5142
#
#
#
# Elastic Compliance Matrix: (Units=1/GPa)
#
#
# Indices 1 2 3 4 5 6 
#
# 1 0.030333 0.009734 0.001150 -0.011084 -0.003294 0.026876
# 2 0.009734 0.033499 -0.005587 -0.017177 0.002282 0.027660
# 3 0.001150 -0.005587 0.016464 -0.013641 -0.013147 -0.000031
# 4 -0.011084 -0.017177 -0.013641 0.058771 0.017366 -0.021679
# 5 -0.003294 0.002282 -0.013147 0.017366 0.072136 -0.027017
# 6 0.026876 0.027660 -0.000031 -0.021679 -0.027017 0.080737
#
#
# Mechanical properties :
#
#
# Convention : Reuss Voigt Hill
#
# Bulk Modulus (GPa) = 11.00225 30.92967 20.96596
# Shear Modulus (GPa) = 16.04406 28.70880 22.37643
#
# Velocity S-wave (km/s) = 2.62222 3.50768 3.09676
# Velocity P-wave (km/s) = 3.72603 5.44616 4.66605
#
# Compressibility (1/GPa) = 0.09089054
#
# Stress axis : x y z
#
# Youngs Moduli (GPa) = 32.96730 29.85159 60.73807
#
# Poissons Ratio (x) = -0.29059 -0.06983
# Poissons Ratio (y) = -0.32092 0.33935
# Poissons Ratio (z) = -0.03790 0.16678
#
# Static dielectric constant tensor:
#      x y z
#    x 1.894540 -0.044260 -0.011370 
#    y -0.044260 1.946030 0.008490 
#    z -0.011370 0.008490 1.911750 
# 
# From -- ./inp_files/438677.got.cif
#   From: 2010.05.17/outbox.cif.g08.bks.cpg/sg2_220_cif.got.tgz:438677.got - 2010.06.03 11:33:40.
