data_PCOD9053212
_publ_section_title
;
Structure prediction by ZEFSAII (Michael W. Deem and Ramdas Pophale) SiO2 
 PCOD9053212
Probable space group: P -1
;
_chemical_formula_sum "Si O2"
_cell_formula_units_Z 16
_cell_length_a 14.537674
_cell_length_b 14.310210
_cell_length_c 15.012951
_cell_angle_alpha 131.599783
_cell_angle_beta 48.388295
_cell_angle_gamma 160.018101
_cell_volume 788.218953
_symmetry_space_group_name_H-M "P -1"
_symmetry_group_IT_number 2
_symmetry_cell_setting 'triclinic'
loop_
_space_group_symop_operation_xyz
x,y,z
-x,-y,-z
loop_
_atom_site_type_symbol
_atom_site_label
_atom_site_fract_x
_atom_site_fract_y
_atom_site_fract_z
Si Si1 0.677111 0.967902 0.994417
Si Si2 0.067269 0.697426 0.321259
Si Si3 0.414661 0.360046 0.326623
Si Si4 0.871961 0.519124 0.862182
Si Si5 0.473129 0.273883 0.422193
Si Si6 0.787107 0.207927 0.916137
Si Si7 0.925453 0.859120 0.197298
Si Si8 0.769535 0.713623 0.015889
O O1 0.835011 0.211361 0.107190
O O2 0.364067 0.692783 0.044202
O O3 0.785059 0.081897 0.896611
O O4 0.834271 0.983381 0.921113
O O5 0.131935 0.618825 0.271063
O O6 0.173950 0.780171 0.203702
O O7 0.751083 0.446033 0.357811
O O8 0.235170 0.968846 0.419254
O O9 0.409892 0.264835 0.356116
O O10 0.481733 0.559376 0.445581
O O11 0.680814 0.568936 0.226795
O O12 0.126154 0.103692 0.296600
O O13 0.820774 0.608241 0.908136
O O14 0.000000 0.500000 0.000000
O O15 0.500000 0.000000 0.000000
O O16 0.749449 0.743831 0.151227
O O17 0.500000 0.500000 0.000000
O O18 0.000000 0.000000 0.000000
#
# Coordination Sequence:
#
# PCOD9053212 Si02
#       8
#     2   2   2   2   2   2   2   2
#     4  11  19  34  49  81 113 156 185 233 271 346
#     4  12  22  36  52  83 114 164 195 238 290 335
#     4  11  22  41  56  87 115 163 208 254 277 318
#     4  11  22  36  55  80 120 147 189 228 289 367
#     4  11  24  37  59  81 123 162 214 244 274 321
#     4  12  20  30  46  73 114 156 193 218 262 331
#     4  11  22  37  64  82 117 151 198 243 301 344
#     4  11  23  41  63  92 117 146 186 240 310 384
#
# _framework density 20.298926999999999
#
# number of rings (size 3 to 8) (size 9 to 14) (size 15 to 20)
#    0.000    0.750    2.500    8.250    0.000    2.000 
#    0.000    0.000    0.000    0.000    0.000   17.500 
#    0.000    0.000    0.000    0.000    0.000    0.000 
#
# Total GULP energy -89068.167899 kJ/mol
# GULP energy per Si atom -5566.760494 kJ/mol
# Density = 2.025273 g / cm^3
# Si number density = 20.298927 Si / 1000 Ang^3
#
#
#
# Elastic Constant Matrix: (Units=GPa)
#
#
# Indices 1 2 3 4 5 6 
#
# 1 106.7938 40.5676 24.8389 14.9107 -12.7659 -4.9201
# 2 40.5676 120.7883 17.4974 16.4469 2.9068 11.2089
# 3 24.8389 17.4974 51.1747 15.3670 -13.5809 5.3110
# 4 14.9107 16.4469 15.3670 37.4411 1.6991 -3.2074
# 5 -12.7659 2.9068 -13.5809 1.6991 32.4290 5.5324
# 6 -4.9201 11.2089 5.3110 -3.2074 5.5324 38.1671
#
#
#
# Elastic Compliance Matrix: (Units=1/GPa)
#
#
# Indices 1 2 3 4 5 6 
#
# 1 0.012372 -0.003715 -0.003579 -0.001761 0.003362 0.002548
# 2 -0.003715 0.010436 -0.001152 -0.002817 -0.002168 -0.003306
# 3 -0.003579 -0.001152 0.029111 -0.011187 0.012657 -0.006949
# 4 -0.001761 -0.002817 -0.011187 0.034130 -0.007968 0.006180
# 5 0.003362 -0.002168 0.012657 -0.007968 0.039276 -0.007054
# 6 0.002548 -0.003306 -0.006949 0.006180 -0.007054 0.030009
#
#
# Mechanical properties :
#
#
# Convention : Reuss Voigt Hill
#
# Bulk Modulus (GPa) = 28.54723 49.39607 38.97165
# Shear Modulus (GPa) = 27.18863 34.66429 30.92646
#
# Velocity S-wave (km/s) = 3.66377 4.13690 3.90750
# Velocity P-wave (km/s) = 5.65611 6.87065 6.29275
#
# Compressibility (1/GPa) = 0.03502966
#
# Stress axis : x y z
#
# Youngs Moduli (GPa) = 80.82483 95.82322 34.35119
#
# Poissons Ratio (x) = 0.35594 0.12293
# Poissons Ratio (y) = 0.30023 0.03956
# Poissons Ratio (z) = 0.28924 0.11036
#
# Static dielectric constant tensor:
#      x y z
#    x 2.445950 0.003760 -0.093130 
#    y 0.003760 1.775440 0.013990 
#    z -0.093130 0.013990 1.855320 
# 
# From -- ./inp_files/534371.got.cif
#   From: 2010.05.17/outbox.cif.g08.bks.cpg/sg2_268_cif.got.tgz:534371.got - 2010.06.03 11:33:40.
