data_PCOD9053766
_publ_section_title
;
Structure prediction by ZEFSAII (Michael W. Deem and Ramdas Pophale) SiO2 
 PCOD9053766
Probable space group: P -1
;
_chemical_formula_sum "Si O2"
_cell_formula_units_Z 16
_cell_length_a 12.109040
_cell_length_b 12.170609
_cell_length_c 15.177202
_cell_angle_alpha 53.061705
_cell_angle_beta 150.985495
_cell_angle_gamma 119.079131
_cell_volume 862.613070
_symmetry_space_group_name_H-M "P -1"
_symmetry_group_IT_number 2
_symmetry_cell_setting 'triclinic'
loop_
_space_group_symop_operation_xyz
x,y,z
-x,-y,-z
loop_
_atom_site_type_symbol
_atom_site_label
_atom_site_fract_x
_atom_site_fract_y
_atom_site_fract_z
Si Si1 0.399677 0.141576 0.312132
Si Si2 0.991906 0.896271 0.703122
Si Si3 0.654281 0.957511 0.212267
Si Si4 0.665653 0.581918 0.783098
Si Si5 0.934448 0.599209 0.778842
Si Si6 0.497198 0.978764 0.736045
Si Si7 0.456727 0.344159 0.659243
Si Si8 0.870751 0.152847 0.978380
O O1 0.468194 0.277055 0.344375
O O2 0.472537 0.134725 0.264091
O O3 0.500000 0.000000 0.500000
O O4 0.123483 0.158706 0.115873
O O5 0.051690 0.741873 0.783494
O O6 0.718310 0.919391 0.497718
O O7 0.097213 0.007359 0.661801
O O8 0.086010 0.902997 0.864472
O O9 0.626635 0.798196 0.292677
O O10 0.569601 0.045322 0.197453
O O11 0.500000 0.000000 0.000000
O O12 0.804854 0.610060 0.777497
O O13 0.513605 0.458907 0.713131
O O14 0.863414 0.523180 0.017154
O O15 0.739437 0.593142 0.573461
O O16 0.726992 0.054267 0.867971
O O17 0.697389 0.292266 0.802988
#
# Coordination Sequence:
#
# PCOD9053766 Si02
#       8
#     2   2   2   2   2   2   2   2
#     4  12  24  41  60  87 129 169 199 246 307 383
#     4  12  19  39  64  96 122 156 207 261 308 350
#     4  11  21  37  66  97 121 155 209 266 303 347
#     4  11  22  39  58  86 130 161 199 252 303 368
#     4  11  20  37  60  92 122 160 204 251 310 357
#     4  11  23  37  59  90 123 165 195 250 314 360
#     4  11  22  37  63  95 122 159 204 256 310 353
#     4  11  20  38  62  91 126 152 204 254 307 360
#
# _framework density 18.548293999999999
#
# number of rings (size 3 to 8) (size 9 to 14) (size 15 to 20)
#    0.000    0.750    8.750    1.875    0.000    0.000 
#    2.250    0.000    0.000    3.750    0.000    0.000 
#    0.000    0.000    0.000    0.000    0.000    0.000 
#
# Total GULP energy -89267.651746 kJ/mol
# GULP energy per Si atom -5579.228234 kJ/mol
# Density = 1.850608 g / cm^3
# Si number density = 18.548294 Si / 1000 Ang^3
#
#
#
# Elastic Constant Matrix: (Units=GPa)
#
#
# Indices 1 2 3 4 5 6 
#
# 1 71.5212 35.3234 21.0326 -6.4833 -8.8136 -12.0164
# 2 35.3234 98.5757 35.8124 -5.1620 2.5021 -7.8501
# 3 21.0326 35.8124 124.1848 4.6950 -16.2075 -4.6563
# 4 -6.4833 -5.1620 4.6950 27.7157 -3.1529 2.7555
# 5 -8.8136 2.5021 -16.2075 -3.1529 21.7658 5.5323
# 6 -12.0164 -7.8501 -4.6563 2.7555 5.5323 34.2347
#
#
#
# Elastic Compliance Matrix: (Units=1/GPa)
#
#
# Indices 1 2 3 4 5 6 
#
# 1 0.019215 -0.006457 -0.000374 0.003892 0.007887 0.003625
# 2 -0.006457 0.014261 -0.003968 0.000804 -0.007502 0.001611
# 3 -0.000374 -0.003968 0.010330 -0.001591 0.007969 -0.000796
# 4 0.003892 0.000804 -0.001591 0.038440 0.006585 -0.002824
# 5 0.007887 -0.007502 0.007969 0.006585 0.058899 -0.007916
# 6 0.003625 0.001611 -0.000796 -0.002824 -0.007916 0.032250
#
#
# Mechanical properties :
#
#
# Convention : Reuss Voigt Hill
#
# Bulk Modulus (GPa) = 45.02972 53.17981 49.10477
# Shear Modulus (GPa) = 24.70397 30.21747 27.46072
#
# Velocity S-wave (km/s) = 3.65344 4.04062 3.85190
# Velocity P-wave (km/s) = 6.49050 7.10648 6.80546
#
# Compressibility (1/GPa) = 0.02220755
#
# Stress axis : x y z
#
# Youngs Moduli (GPa) = 52.04340 70.12275 96.80097
#
# Poissons Ratio (x) = 0.45279 0.03622
# Poissons Ratio (y) = 0.33605 0.38410
# Poissons Ratio (z) = 0.01947 0.27824
#
# Static dielectric constant tensor:
#      x y z
#    x 1.654180 0.015460 -0.004440 
#    y 0.015460 1.692160 0.016150 
#    z -0.004440 0.016150 1.663560 
# 
# From -- ./inp_files/434071.got.cif
#   From: 2010.05.17/outbox.cif.g08.bks.cpg/sg2_218_cif.got.tgz:434071.got - 2010.06.03 11:33:40.
