data_PCOD9053876
_publ_section_title
;
Structure prediction by ZEFSAII (Michael W. Deem and Ramdas Pophale) SiO2 
 PCOD9053876
Probable space group: P -1
;
_chemical_formula_sum "Si O2"
_cell_formula_units_Z 16
_cell_length_a 21.551408
_cell_length_b 15.198831
_cell_length_c 11.013137
_cell_angle_alpha 128.307355
_cell_angle_beta 30.853822
_cell_angle_gamma 150.316927
_cell_volume 795.557380
_symmetry_space_group_name_H-M "P -1"
_symmetry_group_IT_number 2
_symmetry_cell_setting 'triclinic'
loop_
_space_group_symop_operation_xyz
x,y,z
-x,-y,-z
loop_
_atom_site_type_symbol
_atom_site_label
_atom_site_fract_x
_atom_site_fract_y
_atom_site_fract_z
Si Si1 0.960828 0.945279 0.877749
Si Si2 0.310155 0.842378 0.526371
Si Si3 0.240115 0.938723 0.072112
Si Si4 0.792282 0.464567 0.459277
Si Si5 0.812709 0.573442 0.778450
Si Si6 0.375020 0.166968 0.289387
Si Si7 0.672973 0.897555 0.174889
Si Si8 0.712398 0.112077 0.672579
O O1 0.865864 0.746045 0.848108
O O2 0.795617 0.904028 0.057879
O O3 0.201167 0.131913 0.568930
O O4 0.000000 0.000000 0.000000
O O5 0.176861 0.642290 0.649165
O O6 0.262901 0.818452 0.442718
O O7 0.284220 0.944299 0.712625
O O8 0.560512 0.990098 0.237056
O O9 0.014700 0.696040 0.243603
O O10 0.292772 0.030507 0.194508
O O11 0.237050 0.031637 0.053876
O O12 0.726402 0.472567 0.704475
O O13 0.590627 0.321943 0.583087
O O14 0.045875 0.690006 0.504211
O O15 0.625180 0.394287 0.036330
O O16 0.345123 0.064839 0.370527
O O17 0.500000 0.000000 0.000000
#
# Coordination Sequence:
#
# PCOD9053876 Si02
#       8
#     2   2   2   2   2   2   2   2
#     4  11  26  48  66  91 134 169 215 270 325 392
#     4  11  23  40  63  97 137 169 210 268 322 389
#     4  11  21  42  63  97 131 164 217 268 326 379
#     4  11  21  41  65  97 129 164 220 267 324 382
#     4  11  22  41  67  96 127 172 216 272 318 379
#     4  11  22  42  65  95 129 170 216 274 319 378
#     4  11  25  41  64  95 131 173 210 265 328 386
#     4  11  20  38  64  97 134 167 213 262 323 380
#
# _framework density 20.111685000000001
#
# number of rings (size 3 to 8) (size 9 to 14) (size 15 to 20)
#    0.000    1.000    6.250    3.000    0.000    7.500 
#    0.000    2.500    0.000    0.000    0.000    0.000 
#    0.000    0.000    0.000    0.000    0.000    0.000 
#
# Total GULP energy -89352.924380 kJ/mol
# GULP energy per Si atom -5584.557774 kJ/mol
# Density = 2.006591 g / cm^3
# Si number density = 20.111685 Si / 1000 Ang^3
#
#
#
# Elastic Constant Matrix: (Units=GPa)
#
#
# Indices 1 2 3 4 5 6 
#
# 1 111.3036 24.7491 29.8428 -4.7920 -32.6927 -1.5871
# 2 24.7491 86.9134 39.1631 -8.5332 -15.1057 -0.3990
# 3 29.8428 39.1631 82.6801 -11.3242 -12.7066 -1.4412
# 4 -4.7920 -8.5332 -11.3242 42.1833 -8.6871 8.2090
# 5 -32.6927 -15.1057 -12.7066 -8.6871 28.2609 -1.9542
# 6 -1.5871 -0.3990 -1.4412 8.2090 -1.9542 19.0732
#
#
#
# Elastic Compliance Matrix: (Units=1/GPa)
#
#
# Indices 1 2 3 4 5 6 
#
# 1 0.015022 0.000291 -0.002111 0.004751 0.018107 0.000907
# 2 0.000291 0.015649 -0.006039 0.003145 0.006901 -0.000751
# 3 -0.002111 -0.006039 0.016666 0.003680 0.002933 -0.000326
# 4 0.004751 0.003145 0.003680 0.031693 0.017808 -0.011077
# 5 0.018107 0.006901 0.002933 0.017808 0.066886 0.001061
# 6 0.000907 -0.000751 -0.000326 -0.011077 0.001061 0.057341
#
#
# Mechanical properties :
#
#
# Convention : Reuss Voigt Hill
#
# Bulk Modulus (GPa) = 31.62630 52.04521 41.83575
# Shear Modulus (GPa) = 21.78531 30.37962 26.08246
#
# Velocity S-wave (km/s) = 3.29480 3.89079 3.60513
# Velocity P-wave (km/s) = 5.49852 6.79107 6.17869
#
# Compressibility (1/GPa) = 0.03161925
#
# Stress axis : x y z
#
# Youngs Moduli (GPa) = 66.57087 63.90301 60.00137
#
# Poissons Ratio (x) = -0.01861 0.12664
# Poissons Ratio (y) = -0.01939 0.36237
# Poissons Ratio (z) = 0.14050 0.38593
#
# Static dielectric constant tensor:
#      x y z
#    x 1.756100 0.000840 0.011460 
#    y 0.000840 1.714350 0.004290 
#    z 0.011460 0.004290 1.733610 
# 
# From -- ./inp_files/464550.got.cif
#   From: 2010.05.17/outbox.cif.g08.bks.cpg/sg2_233_cif.got.tgz:464550.got - 2010.06.03 11:33:40.
