data_PCOD9053165
_publ_section_title
;
Structure prediction by ZEFSAII (Michael W. Deem and Ramdas Pophale) SiO2 
 PCOD9053165
Probable space group: P -1
;
_chemical_formula_sum "Si O2"
_cell_formula_units_Z 14
_cell_length_a 28.046390
_cell_length_b 16.350991
_cell_length_c 13.648408
_cell_angle_alpha 155.555648
_cell_angle_beta 20.266226
_cell_angle_gamma 163.523528
_cell_volume 611.170341
_symmetry_space_group_name_H-M "P -1"
_symmetry_group_IT_number 2
_symmetry_cell_setting 'triclinic'
loop_
_space_group_symop_operation_xyz
x,y,z
-x,-y,-z
loop_
_atom_site_type_symbol
_atom_site_label
_atom_site_fract_x
_atom_site_fract_y
_atom_site_fract_z
Si Si1 0.392295 0.409399 0.761037
Si Si2 0.783008 0.927990 0.459567
Si Si3 0.847520 0.360597 0.905359
Si Si4 0.820710 0.095934 0.873729
Si Si5 0.803584 0.513377 0.653762
Si Si6 0.286603 0.617672 0.533228
Si Si7 0.396716 0.547415 0.433245
O O1 0.610154 0.638324 0.538475
O O2 0.236869 0.167711 0.716665
O O3 0.412267 0.298581 0.698826
O O4 0.347984 0.584975 0.076237
O O5 0.745859 0.125775 0.758534
O O6 0.003767 0.142314 0.316748
O O7 0.819882 0.198885 0.880843
O O8 0.086736 0.584979 0.666273
O O9 0.749917 0.463422 0.232884
O O10 0.057307 0.323802 0.691718
O O11 0.712962 0.775266 0.726909
O O12 0.714523 0.145372 0.201703
O O13 0.709474 0.449330 0.658878
O O14 0.430481 0.681743 0.408891
#
# Coordination Sequence:
#
# PCOD9053165 Si02
#       7
#     2   2   2   2   2   2   2
#     4  11  20  34  65  81 108 156 185 230 295 322
#     4   9  20  38  58  82 111 147 196 230 272 346
#     4   8  18  35  56  79 117 142 186 233 271 333
#     4   9  16  32  54  82 112 153 185 222 279 340
#     4   9  19  38  56  82 116 148 185 234 279 333
#     4   9  18  31  54  82 118 144 182 235 276 332
#     4  11  19  31  59  87 109 151 188 225 288 337
#
# _framework density 22.906872
#
# number of rings (size 3 to 8) (size 9 to 14) (size 15 to 20)
#    0.857    1.714    1.429    1.714    0.000    1.143 
#    0.000    0.714   12.571    1.714    0.000    0.000 
#    0.000    0.000    0.000    0.000    0.000    0.000 
#
# Total GULP energy -78064.639791 kJ/mol
# GULP energy per Si atom -5576.045699 kJ/mol
# Density = 2.285473 g / cm^3
# Si number density = 22.906872 Si / 1000 Ang^3
#
#
#
# Elastic Constant Matrix: (Units=GPa)
#
#
# Indices 1 2 3 4 5 6 
#
# 1 114.8851 35.9817 57.4749 7.1943 29.3821 27.4622
# 2 35.9817 60.0849 13.8349 -2.4048 0.5064 13.7755
# 3 57.4749 13.8349 124.7462 11.4996 21.4317 1.8823
# 4 7.1943 -2.4048 11.4996 25.3947 5.2580 0.3057
# 5 29.3821 0.5064 21.4317 5.2580 36.0905 6.0037
# 6 27.4622 13.7755 1.8823 0.3057 6.0037 26.5696
#
#
#
# Elastic Compliance Matrix: (Units=1/GPa)
#
#
# Indices 1 2 3 4 5 6 
#
# 1 0.020372 -0.007339 -0.006516 -0.001268 -0.010014 -0.014513
# 2 -0.007339 0.022467 -0.000410 0.003141 0.006361 -0.005508
# 3 -0.006516 -0.000410 0.011635 -0.003074 -0.002260 0.006669
# 4 -0.001268 0.003141 -0.003074 0.042119 -0.003352 0.000172
# 5 -0.010014 0.006361 -0.002260 -0.003352 0.037818 -0.001294
# 6 -0.014513 -0.005508 0.006669 0.000172 -0.001294 0.055311
#
#
# Mechanical properties :
#
#
# Convention : Reuss Voigt Hill
#
# Bulk Modulus (GPa) = 38.54274 57.14436 47.84355
# Shear Modulus (GPa) = 22.03625 30.43929 26.23777
#
# Velocity S-wave (km/s) = 3.10497 3.64926 3.38806
# Velocity P-wave (km/s) = 5.45131 6.53886 6.01970
#
# Compressibility (1/GPa) = 0.02594523
#
# Stress axis : x y z
#
# Youngs Moduli (GPa) = 49.08623 44.50952 85.94806
#
# Poissons Ratio (x) = 0.32664 0.56004
# Poissons Ratio (y) = 0.36023 0.03523
# Poissons Ratio (z) = 0.31985 0.01824
#
# Static dielectric constant tensor:
#      x y z
#    x 1.850660 0.018780 0.013340 
#    y 0.018780 1.892710 -0.049560 
#    z 0.013340 -0.049560 1.901810 
# 
# From -- ./inp_files/545072.got.cif
#   From: 2010.05.17/outbox.cif.g08.bks.cpg/sg2_273_cif.got.tgz:545072.got - 2010.06.03 11:33:40.
