data_PCOD9053122
_publ_section_title
;
Structure prediction by ZEFSAII (Michael W. Deem and Ramdas Pophale) SiO2 
 PCOD9053122
Probable space group: P -1
;
_chemical_formula_sum "Si O2"
_cell_formula_units_Z 14
_cell_length_a 7.693925
_cell_length_b 18.378265
_cell_length_c 8.731094
_cell_angle_alpha 39.513611
_cell_angle_beta 124.683747
_cell_angle_gamma 139.488880
_cell_volume 509.812743
_symmetry_space_group_name_H-M "P -1"
_symmetry_group_IT_number 2
_symmetry_cell_setting 'triclinic'
loop_
_space_group_symop_operation_xyz
x,y,z
-x,-y,-z
loop_
_atom_site_type_symbol
_atom_site_label
_atom_site_fract_x
_atom_site_fract_y
_atom_site_fract_z
Si Si1 0.649192 0.371948 0.387569
Si Si2 0.598943 0.137035 0.941714
Si Si3 0.281226 0.980937 0.540691
Si Si4 0.429891 0.288505 0.088931
Si Si5 0.013324 0.881237 0.107809
Si Si6 0.831911 0.369966 0.921746
Si Si7 0.142989 0.279032 0.412089
O O1 0.656221 0.242976 0.658867
O O2 0.491938 0.355824 0.178091
O O3 0.463109 0.379413 0.401844
O O4 0.953790 0.506418 0.287152
O O5 0.751482 0.092788 0.193807
O O6 0.600918 0.233098 0.927682
O O7 0.311327 0.983985 0.025610
O O8 0.988822 0.876790 0.485379
O O9 0.500000 0.000000 0.500000
O O10 0.396116 0.144124 0.348824
O O11 0.684032 0.396451 0.930939
O O12 0.178601 0.219332 0.963911
O O13 0.964254 0.769292 0.392978
O O14 0.000000 0.000000 0.000000
O O15 0.994878 0.329227 0.165045
#
# Coordination Sequence:
#
# PCOD9053122 Si02
#       7
#     2   2   2   2   2   2   2
#     4  12  26  38  57  96 128 154 197 253 297 344
#     4  11  21  38  66  91 115 159 206 244 296 358
#     4  11  18  38  67  89 114 155 203 247 296 361
#     4  12  23  39  64  90 124 156 196 255 306 346
#     4  12  18  37  66  89 114 154 207 244 300 365
#     4  11  22  44  63  81 122 173 204 229 288 378
#     4  11  21  39  65  89 115 159 210 244 290 355
#
# _framework density 27.461062999999999
#
# number of rings (size 3 to 8) (size 9 to 14) (size 15 to 20)
#    0.000    0.571    8.571    1.286    0.000    2.857 
#    0.000    5.000    0.000    0.000    0.000    0.000 
#    0.000    0.000    0.000    0.000    0.000    0.000 
#
# Total GULP energy -78280.147127 kJ/mol
# GULP energy per Si atom -5591.439081 kJ/mol
# Density = 2.739856 g / cm^3
# Si number density = 27.461063 Si / 1000 Ang^3
#
#
#
# Elastic Constant Matrix: (Units=GPa)
#
#
# Indices 1 2 3 4 5 6 
#
# 1 39.9487 12.4474 25.1106 -10.2028 -24.1308 28.2974
# 2 12.4474 130.3462 53.3138 4.2169 -19.1877 17.6171
# 3 25.1106 53.3138 227.2172 9.3418 -30.9278 20.5146
# 4 -10.2028 4.2169 9.3418 52.7216 5.7902 -17.2869
# 5 -24.1308 -19.1877 -30.9278 5.7902 40.9615 -8.4519
# 6 28.2974 17.6171 20.5146 -17.2869 -8.4519 44.0468
#
#
#
# Elastic Compliance Matrix: (Units=1/GPa)
#
#
# Indices 1 2 3 4 5 6 
#
# 1 0.080892 0.004934 -0.000006 -0.004977 0.040745 -0.048074
# 2 0.004934 0.009452 -0.001398 -0.002144 0.005319 -0.006120
# 3 -0.000006 -0.001398 0.005444 -0.001899 0.003290 -0.002086
# 4 -0.004977 -0.002144 -0.001899 0.023429 -0.006003 0.012983
# 5 0.040745 0.005319 0.003290 -0.006003 0.049560 -0.022682
# 6 -0.048074 -0.006120 -0.002086 0.012983 -0.022682 0.057750
#
#
# Mechanical properties :
#
#
# Convention : Reuss Voigt Hill
#
# Bulk Modulus (GPa) = 9.72320 64.36175 37.04247
# Shear Modulus (GPa) = 19.70440 47.98868 33.84654
#
# Velocity S-wave (km/s) = 2.68160 4.18487 3.51455
# Velocity P-wave (km/s) = 3.62441 6.84391 5.47611
#
# Compressibility (1/GPa) = 0.10284678
#
# Stress axis : x y z
#
# Youngs Moduli (GPa) = 12.36219 105.79573 183.68314
#
# Poissons Ratio (x) = -0.52202 0.00118
# Poissons Ratio (y) = -0.06100 0.25687
# Poissons Ratio (z) = 0.00008 0.14795
#
# Static dielectric constant tensor:
#      x y z
#    x 2.366370 -0.009160 0.018340 
#    y -0.009160 2.187880 0.005390 
#    z 0.018340 0.005390 2.113090 
# 
# From -- ./inp_files/189990.got.cif
#   From: 2010.05.17/outbox.cif.g08.bks.cpg/sg2_95_cif.got.tgz:189990.got - 2010.06.03 11:33:40.
