data_PCOD9053722
_publ_section_title
;
Structure prediction by ZEFSAII (Michael W. Deem and Ramdas Pophale) SiO2 
 PCOD9053722
Probable space group: P -1
;
_chemical_formula_sum "Si O2"
_cell_formula_units_Z 14
_cell_length_a 7.084452
_cell_length_b 9.601816
_cell_length_c 13.422557
_cell_angle_alpha 70.333766
_cell_angle_beta 47.441836
_cell_angle_gamma 57.641950
_cell_volume 567.637153
_symmetry_space_group_name_H-M "P -1"
_symmetry_group_IT_number 2
_symmetry_cell_setting 'triclinic'
loop_
_space_group_symop_operation_xyz
x,y,z
-x,-y,-z
loop_
_atom_site_type_symbol
_atom_site_label
_atom_site_fract_x
_atom_site_fract_y
_atom_site_fract_z
Si Si1 0.986403 0.982746 0.154252
Si Si2 0.592930 0.858585 0.584641
Si Si3 0.152807 0.246012 0.074984
Si Si4 0.851702 0.951755 0.709373
Si Si5 0.391574 0.625925 0.100705
Si Si6 0.229181 0.767513 0.453404
Si Si7 0.510002 0.542355 0.692908
O O1 0.137108 0.796086 0.109971
O O2 0.123887 0.108105 0.047103
O O3 0.066355 0.964527 0.247794
O O4 0.644934 0.075492 0.257420
O O5 0.599047 0.684274 0.596648
O O6 0.911184 0.813863 0.515366
O O7 0.500000 0.000000 0.500000
O O8 0.272399 0.154136 0.160746
O O9 0.826042 0.373244 0.180160
O O10 0.361791 0.325234 0.957957
O O11 0.142499 0.821108 0.584494
O O12 0.681620 0.099963 0.659926
O O13 0.324883 0.546521 0.242286
O O14 0.500000 0.500000 0.000000
O O15 0.427682 0.587985 0.386597
#
# Coordination Sequence:
#
# PCOD9053722 Si02
#       7
#     2   2   2   2   2   2   2
#     4   9  20  42  60  82 119 163 198 235 303 357
#     4  11  20  39  59  88 125 158 190 244 304 359
#     4   9  21  42  62  81 124 160 202 238 300 354
#     4   9  20  39  60  90 115 161 198 235 299 373
#     4  12  24  41  60  90 119 154 207 260 289 337
#     4  11  20  36  63  94 122 148 201 242 294 359
#     4  11  22  39  61  90 120 160 197 242 301 353
#
# _framework density 24.663643
#
# number of rings (size 3 to 8) (size 9 to 14) (size 15 to 20)
#    0.857    0.857    2.857    1.286    2.000    0.571 
#    5.143    2.857    0.000    0.000    0.000    0.000 
#    0.000    0.000    0.000    0.000    0.000    0.000 
#
# Total GULP energy -78109.700834 kJ/mol
# GULP energy per Si atom -5579.264345 kJ/mol
# Density = 2.460751 g / cm^3
# Si number density = 24.663643 Si / 1000 Ang^3
#
#
#
# Elastic Constant Matrix: (Units=GPa)
#
#
# Indices 1 2 3 4 5 6 
#
# 1 42.8835 13.6889 11.0883 -9.0455 0.1649 0.0328
# 2 13.6889 191.1310 47.9013 16.8388 8.4076 11.6825
# 3 11.0883 47.9013 52.5038 -0.9292 7.3311 4.0523
# 4 -9.0455 16.8388 -0.9292 68.2909 -0.2560 2.0170
# 5 0.1649 8.4076 7.3311 -0.2560 40.6886 3.5197
# 6 0.0328 11.6825 4.0523 2.0170 3.5197 19.6786
#
#
#
# Elastic Compliance Matrix: (Units=1/GPa)
#
#
# Indices 1 2 3 4 5 6 
#
# 1 0.025596 -0.001115 -0.004526 0.003577 0.000876 0.001028
# 2 -0.001115 0.007193 -0.006125 -0.001923 -0.000150 -0.002783
# 3 -0.004526 -0.006125 0.026175 0.001293 -0.003313 -0.001286
# 4 0.003577 -0.001923 0.001293 0.015633 0.000317 -0.000789
# 5 0.000876 -0.000150 -0.003313 0.000317 0.025534 -0.003830
# 6 0.001028 -0.002783 -0.001286 -0.000789 -0.003830 0.053498
#
#
# Mechanical properties :
#
#
# Convention : Reuss Voigt Hill
#
# Bulk Modulus (GPa) = 28.22471 47.98615 38.10543
# Shear Modulus (GPa) = 26.45865 39.98759 33.22312
#
# Velocity S-wave (km/s) = 3.27888 4.03093 3.67420
# Velocity P-wave (km/s) = 5.07971 6.41584 5.78647
#
# Compressibility (1/GPa) = 0.03542994
#
# Stress axis : x y z
#
# Youngs Moduli (GPa) = 39.06918 139.02083 38.20385
#
# Poissons Ratio (x) = 0.15504 0.17293
# Poissons Ratio (y) = 0.04357 0.23402
# Poissons Ratio (z) = 0.17684 0.85156
#
# Static dielectric constant tensor:
#      x y z
#    x 2.029300 -0.016290 0.031100 
#    y -0.016290 2.004110 0.002380 
#    z 0.031100 0.002380 1.967610 
# 
# From -- ./inp_files/554279.got.cif
#   From: 2010.05.17/outbox.cif.g08.bks.cpg/sg2_278_cif.got.tgz:554279.got - 2010.06.03 11:33:40.
