data_PCOD9053768
_publ_section_title
;
Structure prediction by ZEFSAII (Michael W. Deem and Ramdas Pophale) SiO2 
 PCOD9053768
Probable space group: P -1
;
_chemical_formula_sum "Si O2"
_cell_formula_units_Z 14
_cell_length_a 7.161445
_cell_length_b 8.843698
_cell_length_c 18.321090
_cell_angle_alpha 33.100683
_cell_angle_beta 72.046640
_cell_angle_gamma 71.063857
_cell_volume 597.892962
_symmetry_space_group_name_H-M "P -1"
_symmetry_group_IT_number 2
_symmetry_cell_setting 'triclinic'
loop_
_space_group_symop_operation_xyz
x,y,z
-x,-y,-z
loop_
_atom_site_type_symbol
_atom_site_label
_atom_site_fract_x
_atom_site_fract_y
_atom_site_fract_z
Si Si1 0.079150 0.093101 0.875559
Si Si2 0.125494 0.354486 0.977795
Si Si3 0.476598 0.153039 0.099940
Si Si4 0.184031 0.094748 0.600772
Si Si5 0.983092 0.334129 0.288625
Si Si6 0.761884 0.271719 0.642493
Si Si7 0.408748 0.097977 0.291796
O O1 0.078152 0.425630 0.741840
O O2 0.294303 0.927299 0.905659
O O3 0.937654 0.954557 0.894928
O O4 0.000000 0.000000 0.000000
O O5 0.354924 0.329763 0.981149
O O6 0.000000 0.500000 0.000000
O O7 0.074012 0.517111 0.843250
O O8 0.380447 0.863434 0.230750
O O9 0.425787 0.253933 0.148277
O O10 0.218755 0.416484 0.462812
O O11 0.983604 0.111471 0.667285
O O12 0.383179 0.943971 0.675286
O O13 0.129852 0.938828 0.595973
O O14 0.219127 0.249239 0.295515
O O15 0.655055 0.201761 0.606638
#
# Coordination Sequence:
#
# PCOD9053768 Si02
#       7
#     2   2   2   2   2   2   2
#     4  10  25  41  54  80 123 155 189 236 288 341
#     4  11  21  39  61  85 114 148 194 245 279 335
#     4  10  22  36  60  88 112 150 198 233 283 338
#     4  10  17  35  62  83 122 147 184 242 289 330
#     4  10  22  38  54  89 117 151 193 229 292 344
#     4   8  19  33  56  96 111 143 196 240 279 335
#     4   9  19  33  60  90 112 150 194 235 280 337
#
# _framework density 23.415564
#
# number of rings (size 3 to 8) (size 9 to 14) (size 15 to 20)
#    0.857    1.429    1.429    0.429    4.000    6.286 
#    0.000    0.714    0.000    1.714    0.000    0.000 
#    0.000    0.000    0.000    0.000    0.000    0.000 
#
# Total GULP energy -78108.073132 kJ/mol
# GULP energy per Si atom -5579.148081 kJ/mol
# Density = 2.336227 g / cm^3
# Si number density = 23.415564 Si / 1000 Ang^3
#
#
#
# Elastic Constant Matrix: (Units=GPa)
#
#
# Indices 1 2 3 4 5 6 
#
# 1 168.2581 27.7333 15.2025 -15.2738 19.6285 3.6187
# 2 27.7333 84.9082 11.0037 -36.2017 -1.7141 19.3077
# 3 15.2025 11.0037 35.9041 -19.6828 -3.2027 7.6195
# 4 -15.2738 -36.2017 -19.6828 38.7595 0.3944 -13.1583
# 5 19.6285 -1.7141 -3.2027 0.3944 38.4595 -16.1338
# 6 3.6187 19.3077 7.6195 -13.1583 -16.1338 33.4626
#
#
#
# Elastic Compliance Matrix: (Units=1/GPa)
#
#
# Indices 1 2 3 4 5 6 
#
# 1 0.007034 -0.002220 -0.003129 -0.001353 -0.004565 -0.001500
# 2 -0.002220 0.021954 0.007110 0.021344 0.000142 -0.005585
# 3 -0.003129 0.007110 0.042111 0.026562 0.004924 -0.000535
# 4 -0.001353 0.021344 0.026562 0.061880 0.007251 0.009612
# 5 -0.004565 0.000142 0.004924 0.007251 0.037069 0.020015
# 6 -0.001500 -0.005585 -0.000535 0.009612 0.020015 0.046820
#
#
# Mechanical properties :
#
#
# Convention : Reuss Voigt Hill
#
# Bulk Modulus (GPa) = 13.40073 44.10548 28.75311
# Shear Modulus (GPa) = 20.98903 37.81170 29.40036
#
# Velocity S-wave (km/s) = 2.99719 4.02283 3.54728
# Velocity P-wave (km/s) = 4.20868 6.36038 5.39293
#
# Compressibility (1/GPa) = 0.07462281
#
# Stress axis : x y z
#
# Youngs Moduli (GPa) = 142.17127 45.54947 23.74653
#
# Poissons Ratio (x) = 0.10112 0.07429
# Poissons Ratio (y) = 0.31561 -0.16884
# Poissons Ratio (z) = 0.44479 -0.32387
#
# Static dielectric constant tensor:
#      x y z
#    x 1.845990 0.064460 -0.039920 
#    y 0.064460 1.891020 -0.045070 
#    z -0.039920 -0.045070 2.012390 
# 
# From -- ./inp_files/581788.got.cif
#   From: 2010.05.17/outbox.cif.g08.bks.cpg/sg2_291_cif.got.tgz:581788.got - 2010.06.03 11:33:40.
