data_PCOD9053616
_publ_section_title
;
Structure prediction by ZEFSAII (Michael W. Deem and Ramdas Pophale) SiO2 
 PCOD9053616
Probable space group: P -1
;
_chemical_formula_sum "Si O2"
_cell_formula_units_Z 14
_cell_length_a 11.373794
_cell_length_b 11.313122
_cell_length_c 10.368506
_cell_angle_alpha 96.646699
_cell_angle_beta 110.663999
_cell_angle_gamma 142.191770
_cell_volume 555.438739
_symmetry_space_group_name_H-M "P -1"
_symmetry_group_IT_number 2
_symmetry_cell_setting 'triclinic'
loop_
_space_group_symop_operation_xyz
x,y,z
-x,-y,-z
loop_
_atom_site_type_symbol
_atom_site_label
_atom_site_fract_x
_atom_site_fract_y
_atom_site_fract_z
Si Si1 0.314231 0.994205 0.228693
Si Si2 0.602228 0.738090 0.368829
Si Si3 0.218746 0.744611 0.939565
Si Si4 0.135046 0.197465 0.967956
Si Si5 0.492732 0.088198 0.693270
Si Si6 0.069383 0.411992 0.419603
Si Si7 0.003883 0.916010 0.675130
O O1 0.622157 0.311269 0.367791
O O2 0.375945 0.921147 0.313961
O O3 0.090926 0.897612 0.182210
O O4 0.191286 0.840319 0.026791
O O5 0.510848 0.794722 0.374989
O O6 0.723021 0.755075 0.527180
O O7 0.853994 0.975773 0.395566
O O8 0.378187 0.475743 0.166425
O O9 0.992608 0.547465 0.714508
O O10 0.298846 0.714297 0.075247
O O11 0.500000 0.000000 0.000000
O O12 0.201649 0.160539 0.875707
O O13 0.000000 0.000000 0.000000
O O14 0.187902 0.800022 0.603147
O O15 0.054097 0.267833 0.331561
#
# Coordination Sequence:
#
# PCOD9053616 Si02
#       7
#     2   2   2   2   2   2   2
#     4  10  21  34  56  92 119 156 196 247 310 351
#     4  10  22  45  63  85 128 160 208 257 291 378
#     4   8  17  32  54  87 116 154 199 236 297 350
#     4  12  25  40  62  93 127 160 205 256 310 365
#     4   8  19  37  57  87 116 159 200 243 303 352
#     4  10  17  35  61  86 123 151 205 256 284 359
#     4  10  23  41  66  92 114 172 208 245 312 352
#
# _framework density 25.205300000000001
#
# number of rings (size 3 to 8) (size 9 to 14) (size 15 to 20)
#    0.857    1.429    0.000    2.571    0.000    4.000 
#    2.571    5.000    0.000    0.000    0.000    0.000 
#    0.000    0.000    0.000    0.000    0.000    0.000 
#
# Total GULP energy -78180.681385 kJ/mol
# GULP energy per Si atom -5584.334385 kJ/mol
# Density = 2.514793 g / cm^3
# Si number density = 25.205300 Si / 1000 Ang^3
#
#
#
# Elastic Constant Matrix: (Units=GPa)
#
#
# Indices 1 2 3 4 5 6 
#
# 1 103.5033 9.7250 -2.0568 2.5697 -13.8217 -25.2555
# 2 9.7250 71.5424 11.0353 8.1043 11.7780 -17.0724
# 3 -2.0568 11.0353 97.0893 6.8215 4.4769 -15.0624
# 4 2.5697 8.1043 6.8215 28.7420 -0.1698 5.1039
# 5 -13.8217 11.7780 4.4769 -0.1698 32.9049 -2.5710
# 6 -25.2555 -17.0724 -15.0624 5.1039 -2.5710 41.1964
#
#
#
# Elastic Compliance Matrix: (Units=1/GPa)
#
#
# Indices 1 2 3 4 5 6 
#
# 1 0.012815 -0.000509 0.001654 -0.002956 0.006027 0.008992
# 2 -0.000509 0.017478 -0.000164 -0.006169 -0.005912 0.007267
# 3 0.001654 -0.000164 0.011510 -0.003831 -0.000394 0.005605
# 4 -0.002956 -0.006169 -0.003831 0.039597 0.000862 -0.010622
# 5 0.006027 -0.005912 -0.000394 0.000862 0.035346 0.003200
# 6 0.008992 0.007267 0.005605 -0.010622 0.003200 0.036363
#
#
# Mechanical properties :
#
#
# Convention : Reuss Voigt Hill
#
# Bulk Modulus (GPa) = 22.84847 34.39356 28.62101
# Shear Modulus (GPa) = 30.16862 37.46410 33.81636
#
# Velocity S-wave (km/s) = 3.46340 3.85951 3.66681
# Velocity P-wave (km/s) = 5.00781 5.79104 5.41361
#
# Compressibility (1/GPa) = 0.04376660
#
# Stress axis : x y z
#
# Youngs Moduli (GPa) = 78.03574 57.21347 86.87860
#
# Poissons Ratio (x) = 0.02910 -0.14371
# Poissons Ratio (y) = 0.03969 0.01424
# Poissons Ratio (z) = -0.12908 0.00938
#
# Static dielectric constant tensor:
#      x y z
#    x 2.067050 0.025350 0.008590 
#    y 0.025350 1.961810 -0.008440 
#    z 0.008590 -0.008440 2.020500 
# 
# From -- ./inp_files/426217.got.cif
#   From: 2010.05.17/outbox.cif.g08.bks.cpg/sg2_214_cif.got.tgz:426217.got - 2010.06.03 11:33:40.
