data_PCOD9053649
_publ_section_title
;
Structure prediction by ZEFSAII (Michael W. Deem and Ramdas Pophale) SiO2 
 PCOD9053649
Probable space group: P -1
;
_chemical_formula_sum "Si O2"
_cell_formula_units_Z 16
_cell_length_a 11.955777
_cell_length_b 8.955292
_cell_length_c 20.976972
_cell_angle_alpha 143.300864
_cell_angle_beta 27.534441
_cell_angle_gamma 141.535075
_cell_volume 599.024264
_symmetry_space_group_name_H-M "P -1"
_symmetry_group_IT_number 2
_symmetry_cell_setting 'triclinic'
loop_
_space_group_symop_operation_xyz
x,y,z
-x,-y,-z
loop_
_atom_site_type_symbol
_atom_site_label
_atom_site_fract_x
_atom_site_fract_y
_atom_site_fract_z
Si Si1 0.375284 0.193809 0.373300
Si Si2 0.670731 0.618151 0.675771
Si Si3 0.045844 0.207375 0.285330
Si Si4 0.435551 0.605711 0.137578
Si Si5 0.140269 0.119080 0.907868
Si Si6 0.462054 0.016118 0.602814
Si Si7 0.812537 0.218429 0.997469
Si Si8 0.733261 0.651510 0.392951
O O1 0.272669 0.308847 0.401451
O O2 0.678058 0.390028 0.286709
O O3 0.168038 0.195768 0.537468
O O4 0.401781 0.899259 0.250777
O O5 0.890979 0.692351 0.641296
O O6 0.533235 0.318877 0.656832
O O7 0.468505 0.773572 0.850090
O O8 0.201720 0.416747 0.227387
O O9 0.757403 0.128984 0.382910
O O10 0.142018 0.949643 0.141995
O O11 0.670282 0.618477 0.071725
O O12 0.500000 0.500000 0.000000
O O13 0.327618 0.983722 0.729168
O O14 0.922544 0.098222 0.960139
O O15 0.000000 0.000000 0.000000
O O16 0.676837 0.868624 0.450943
O O17 0.000000 0.500000 0.000000
O O18 0.500000 0.500000 0.500000
#
# Coordination Sequence:
#
# PCOD9053649 Si02
#       8
#     2   2   2   2   2   2   2   2
#     4   9  21  38  65  91 114 167 205 257 310 363
#     4  12  21  39  61  86 133 155 205 255 313 372
#     4  11  23  37  59  89 124 169 198 248 315 368
#     4  12  21  39  58  93 128 162 208 256 308 364
#     4  11  20  35  57  86 123 164 207 246 297 366
#     4  11  21  41  62  89 121 164 206 254 308 368
#     4  11  21  36  54  87 126 166 199 245 305 372
#     4   8  19  42  67  86 119 157 219 254 304 360
#
# _framework density 26.710103
#
# number of rings (size 3 to 8) (size 9 to 14) (size 15 to 20)
#    0.750    0.500    5.000    3.375    0.000    1.500 
#    0.000    1.250    0.000    0.000    0.000    0.000 
#    0.000    0.000    0.000    0.000    0.000    0.000 
#
# Total GULP energy -89103.498651 kJ/mol
# GULP energy per Si atom -5568.968666 kJ/mol
# Density = 2.664931 g / cm^3
# Si number density = 26.710103 Si / 1000 Ang^3
#
#
#
# Elastic Constant Matrix: (Units=GPa)
#
#
# Indices 1 2 3 4 5 6 
#
# 1 177.6579 64.1554 37.8490 8.4871 29.4346 12.2428
# 2 64.1554 150.5267 30.5918 22.4406 -11.0810 -0.4958
# 3 37.8490 30.5918 120.1418 30.3986 10.1103 8.0455
# 4 8.4871 22.4406 30.3986 38.5104 -0.5201 -1.4256
# 5 29.4346 -11.0810 10.1103 -0.5201 31.0693 -0.2658
# 6 12.2428 -0.4958 8.0455 -1.4256 -0.2658 49.9966
#
#
#
# Elastic Compliance Matrix: (Units=1/GPa)
#
#
# Indices 1 2 3 4 5 6 
#
# 1 0.009329 -0.004710 -0.001072 0.001317 -0.010166 -0.002175
# 2 -0.004710 0.010028 -0.000847 -0.003977 0.008259 0.001320
# 3 -0.001072 -0.000847 0.011380 -0.008364 -0.003146 -0.001833
# 4 0.001317 -0.003977 -0.008364 0.034678 0.000653 0.001976
# 5 -0.010166 0.008259 -0.003146 0.000653 0.045826 0.003340
# 6 -0.002175 0.001320 -0.001833 0.001976 0.003340 0.020916
#
#
# Mechanical properties :
#
#
# Convention : Reuss Voigt Hill
#
# Bulk Modulus (GPa) = 57.20687 79.27988 68.24337
# Shear Modulus (GPa) = 33.05926 44.96396 39.01161
#
# Velocity S-wave (km/s) = 3.52192 4.10738 3.82587
# Velocity P-wave (km/s) = 6.16464 7.22774 6.71725
#
# Compressibility (1/GPa) = 0.01748042
#
# Stress axis : x y z
#
# Youngs Moduli (GPa) = 107.18705 99.71845 87.86989
#
# Poissons Ratio (x) = 0.46971 0.09417
# Poissons Ratio (y) = 0.50489 0.07441
# Poissons Ratio (z) = 0.11487 0.08444
#
# Static dielectric constant tensor:
#      x y z
#    x 1.862580 -0.195800 -0.179030 
#    y -0.195800 1.998160 -0.133310 
#    z -0.179030 -0.133310 2.027330 
# 
# From -- ./inp_files/594247.got.cif
#   From: 2010.05.17/outbox.cif.g08.bks.cpg/sg2_298_cif.got.tgz:594247.got - 2010.06.03 11:33:40.
