data_PCOD9053226
_publ_section_title
;
Structure prediction by ZEFSAII (Michael W. Deem and Ramdas Pophale) SiO2 
 PCOD9053226
Probable space group: P -1
;
_chemical_formula_sum "Si O2"
_cell_formula_units_Z 14
_cell_length_a 8.123774
_cell_length_b 11.406185
_cell_length_c 20.423945
_cell_angle_alpha 29.488304
_cell_angle_beta 43.342847
_cell_angle_gamma 42.965075
_cell_volume 611.496458
_symmetry_space_group_name_H-M "P -1"
_symmetry_group_IT_number 2
_symmetry_cell_setting 'triclinic'
loop_
_space_group_symop_operation_xyz
x,y,z
-x,-y,-z
loop_
_atom_site_type_symbol
_atom_site_label
_atom_site_fract_x
_atom_site_fract_y
_atom_site_fract_z
Si Si1 0.338623 0.323322 0.260892
Si Si2 0.018101 0.180999 0.846961
Si Si3 0.598842 0.995754 0.732954
Si Si4 0.230261 0.614577 0.435151
Si Si5 0.205467 0.922841 0.170203
Si Si6 0.270049 0.117184 0.606515
Si Si7 0.280872 0.344444 0.010327
O O1 0.073127 0.525117 0.252766
O O2 0.333554 0.165655 0.273597
O O3 0.482891 0.101079 0.376843
O O4 0.521870 0.500089 0.115636
O O5 0.841617 0.154094 0.850996
O O6 0.303394 0.084612 0.788815
O O7 0.000000 0.000000 0.000000
O O8 0.716369 0.807664 0.849822
O O9 0.692953 0.238143 0.599603
O O10 0.324637 0.710183 0.292974
O O11 0.319722 0.319324 0.544474
O O12 0.924536 0.710950 0.472574
O O13 0.919354 0.009977 0.240174
O O14 0.334392 0.138396 0.037399
O O15 0.000000 0.500000 0.000000
#
# Coordination Sequence:
#
# PCOD9053226 Si02
#       7
#     2   2   2   2   2   2   2
#     4  12  23  36  60  88 123 155 197 234 294 353
#     4  12  25  38  56  88 126 161 188 233 303 353
#     4  11  21  41  57  85 124 154 191 247 288 350
#     4   8  18  38  70  83 111 158 199 241 303 328
#     4   9  19  38  58  84 118 148 194 243 283 346
#     4   9  17  39  65  89 107 156 204 240 292 343
#     4  11  19  34  61  84 111 158 193 240 290 340
#
# _framework density 22.894653000000002
#
# number of rings (size 3 to 8) (size 9 to 14) (size 15 to 20)
#    0.857    0.857    4.286    0.429    2.000    1.143 
#    0.000    1.429    0.000    0.000    0.000    0.000 
#    0.000    0.000    0.000    0.000    0.000    0.000 
#
# Total GULP energy -78054.989804 kJ/mol
# GULP energy per Si atom -5575.356415 kJ/mol
# Density = 2.284254 g / cm^3
# Si number density = 22.894653 Si / 1000 Ang^3
#
#
#
# Elastic Constant Matrix: (Units=GPa)
#
#
# Indices 1 2 3 4 5 6 
#
# 1 107.6210 30.1398 36.0967 -10.8515 -18.8878 21.2198
# 2 30.1398 75.7884 14.7954 -25.3178 13.4727 3.2508
# 3 36.0967 14.7954 92.8949 -30.6329 -7.4950 9.5388
# 4 -10.8515 -25.3178 -30.6329 31.6060 -1.6499 -3.3531
# 5 -18.8878 13.4727 -7.4950 -1.6499 47.6479 -17.2661
# 6 21.2198 3.2508 9.5388 -3.3531 -17.2661 35.7729
#
#
#
# Elastic Compliance Matrix: (Units=1/GPa)
#
#
# Indices 1 2 3 4 5 6 
#
# 1 0.014491 -0.007702 -0.005866 -0.007093 0.005113 -0.004529
# 2 -0.007702 0.023893 0.005685 0.021418 -0.008637 -0.001279
# 3 -0.005866 0.005685 0.019056 0.020959 -0.000321 -0.000309
# 4 -0.007093 0.021418 0.020959 0.066710 -0.002667 0.001638
# 5 0.005113 -0.008637 -0.000321 -0.002667 0.029619 0.011884
# 6 -0.004529 -0.001279 -0.000309 0.001638 0.011884 0.036729
#
#
# Mechanical properties :
#
#
# Convention : Reuss Voigt Hill
#
# Bulk Modulus (GPa) = 23.99557 48.70759 36.35158
# Shear Modulus (GPa) = 22.71127 36.02353 29.36740
#
# Velocity S-wave (km/s) = 3.15300 3.97097 3.58539
# Velocity P-wave (km/s) = 4.87431 6.50736 5.74911
#
# Compressibility (1/GPa) = 0.04167437
#
# Stress axis : x y z
#
# Youngs Moduli (GPa) = 69.00691 41.85369 52.47674
#
# Poissons Ratio (x) = 0.32235 0.30781
# Poissons Ratio (y) = 0.53148 -0.29831
# Poissons Ratio (z) = 0.40477 -0.23792
#
# Static dielectric constant tensor:
#      x y z
#    x 1.915780 -0.019970 0.032730 
#    y -0.019970 1.916070 0.005350 
#    z 0.032730 0.005350 1.908880 
# 
# From -- ./inp_files/491599.got.cif
#   From: 2010.05.17/outbox.cif.g08.bks.cpg/sg2_246_cif.got.tgz:491599.got - 2010.06.03 11:33:40.
