data_PCOD9053733
_publ_section_title
;
Structure prediction by ZEFSAII (Michael W. Deem and Ramdas Pophale) SiO2 
 PCOD9053733
Probable space group: P -1
;
_chemical_formula_sum "Si O2"
_cell_formula_units_Z 16
_cell_length_a 10.740977
_cell_length_b 14.976181
_cell_length_c 9.201321
_cell_angle_alpha 66.948527
_cell_angle_beta 109.468588
_cell_angle_gamma 51.729224
_cell_volume 645.691778
_symmetry_space_group_name_H-M "P -1"
_symmetry_group_IT_number 2
_symmetry_cell_setting 'triclinic'
loop_
_space_group_symop_operation_xyz
x,y,z
-x,-y,-z
loop_
_atom_site_type_symbol
_atom_site_label
_atom_site_fract_x
_atom_site_fract_y
_atom_site_fract_z
Si Si1 0.965148 0.887333 0.440932
Si Si2 0.619756 0.221073 0.306340
Si Si3 0.327360 0.395285 0.586868
Si Si4 0.245546 0.959447 0.233402
Si Si5 0.496465 0.895839 0.999257
Si Si6 0.654797 0.355196 0.787270
Si Si7 0.193337 0.217705 0.041534
Si Si8 0.103918 0.644184 0.891014
O O1 0.234859 0.771227 0.594774
O O2 0.768916 0.091516 0.304126
O O3 0.004250 0.774054 0.639014
O O4 0.801118 0.953589 0.199375
O O5 0.313735 0.435645 0.043034
O O6 0.684709 0.103762 0.531707
O O7 0.315104 0.301925 0.726944
O O8 0.454002 0.399495 0.732758
O O9 0.063939 0.595503 0.275833
O O10 0.549536 0.233570 0.654508
O O11 0.278726 0.052276 0.155784
O O12 0.936290 0.133957 0.987134
O O13 0.585082 0.853512 0.892740
O O14 0.500000 0.000000 0.000000
O O15 0.500000 0.500000 0.500000
O O16 0.745513 0.377494 0.925664
O O17 0.109193 0.274120 0.141820
#
# Coordination Sequence:
#
# PCOD9053733 Si02
#       8
#     2   2   2   2   2   2   2   2
#     4  11  26  46  69 100 142 178 225 292 345 412
#     4  11  22  45  72 106 136 174 227 282 363 411
#     4  12  23  42  69  98 141 183 226 288 343 397
#     4  11  20  40  68  97 140 177 225 283 343 409
#     4  12  28  48  69  97 140 191 236 281 336 406
#     4  11  20  36  66 109 136 169 221 282 349 408
#     4  11  23  45  66  99 137 180 235 277 332 410
#     4  11  23  44  70 103 141 174 227 287 344 417
#
# _framework density 24.779623999999998
#
# number of rings (size 3 to 8) (size 9 to 14) (size 15 to 20)
#    0.000    0.750    7.500    1.875    1.750    2.500 
#    4.500    0.625    0.000    0.000    0.000    0.000 
#    0.000    0.000    0.000    0.000    0.000    0.000 
#
# Total GULP energy -89586.478731 kJ/mol
# GULP energy per Si atom -5599.154921 kJ/mol
# Density = 2.472322 g / cm^3
# Si number density = 24.779624 Si / 1000 Ang^3
#
#
#
# Elastic Constant Matrix: (Units=GPa)
#
#
# Indices 1 2 3 4 5 6 
#
# 1 80.5955 -4.2216 6.9855 -7.7513 -18.1742 0.9104
# 2 -4.2216 55.4031 2.1019 -15.2017 1.2905 -7.6397
# 3 6.9855 2.1019 117.5483 -16.6654 -25.4355 6.7795
# 4 -7.7513 -15.2017 -16.6654 30.5258 -1.1113 1.8320
# 5 -18.1742 1.2905 -25.4355 -1.1113 46.2567 -2.4697
# 6 0.9104 -7.6397 6.7795 1.8320 -2.4697 29.2591
#
#
#
# Elastic Compliance Matrix: (Units=1/GPa)
#
#
# Indices 1 2 3 4 5 6 
#
# 1 0.014452 0.002525 0.001329 0.005884 0.006484 0.000081
# 2 0.002525 0.022143 0.001243 0.012118 0.001605 0.004792
# 3 0.001329 0.001243 0.010997 0.007330 0.006595 -0.002167
# 4 0.005884 0.012118 0.007330 0.044601 0.007027 -0.000917
# 5 0.006484 0.001605 0.006595 0.007027 0.027949 0.000608
# 6 0.000081 0.004792 -0.002167 -0.000917 0.000608 0.036037
#
#
# Mechanical properties :
#
#
# Convention : Reuss Voigt Hill
#
# Bulk Modulus (GPa) = 17.30531 29.25317 23.27924
# Shear Modulus (GPa) = 30.25774 37.78708 34.02241
#
# Velocity S-wave (km/s) = 3.49818 3.90927 3.70942
# Velocity P-wave (km/s) = 4.82858 5.67516 5.26890
#
# Compressibility (1/GPa) = 0.05778572
#
# Stress axis : x y z
#
# Youngs Moduli (GPa) = 69.19535 45.16080 90.93201
#
# Poissons Ratio (x) = -0.11405 -0.12081
# Poissons Ratio (y) = -0.17474 -0.11302
# Poissons Ratio (z) = -0.09193 -0.05613
#
# Static dielectric constant tensor:
#      x y z
#    x 1.988600 0.002590 -0.004270 
#    y 0.002590 1.993340 0.031480 
#    z -0.004270 0.031480 1.897620 
# 
# From -- ./inp_files/272620.got.cif
#   From: 2010.05.17/outbox.cif.g08.bks.cpg/sg2_137_cif.got.tgz:272620.got - 2010.06.03 11:33:40.
