data_PCOD9053502
_publ_section_title
;
Structure prediction by ZEFSAII (Michael W. Deem and Ramdas Pophale) SiO2 
 PCOD9053502
Probable space group: P -1
;
_chemical_formula_sum "Si O2"
_cell_formula_units_Z 16
_cell_length_a 10.746538
_cell_length_b 22.875141
_cell_length_c 8.655117
_cell_angle_alpha 35.669835
_cell_angle_beta 60.460667
_cell_angle_gamma 37.225190
_cell_volume 675.394072
_symmetry_space_group_name_H-M "P -1"
_symmetry_group_IT_number 2
_symmetry_cell_setting 'triclinic'
loop_
_space_group_symop_operation_xyz
x,y,z
-x,-y,-z
loop_
_atom_site_type_symbol
_atom_site_label
_atom_site_fract_x
_atom_site_fract_y
_atom_site_fract_z
Si Si1 0.477476 0.199884 0.502792
Si Si2 0.586428 0.369863 0.017346
Si Si3 0.570913 0.032034 0.532245
Si Si4 0.335769 0.334080 0.634461
Si Si5 0.004046 0.905258 0.824547
Si Si6 0.787741 0.078172 0.087140
Si Si7 0.044770 0.319243 0.959814
Si Si8 0.177022 0.709764 0.628668
O O1 0.493965 0.305697 0.202873
O O2 0.409135 0.158173 0.499414
O O3 0.341330 0.282137 0.570605
O O4 0.739650 0.024816 0.755154
O O5 0.799527 0.272117 0.984888
O O6 0.693279 0.322306 0.226672
O O7 0.375815 0.560595 0.717989
O O8 0.661926 0.081827 0.288892
O O9 0.500000 0.000000 0.500000
O O10 0.789849 0.852517 0.850851
O O11 0.200078 0.333980 0.832464
O O12 0.191040 0.514751 0.326843
O O13 0.593895 0.206937 0.804718
O O14 0.106441 0.889401 0.953766
O O15 0.000000 0.000000 0.500000
O O16 0.992531 0.893982 0.302881
O O17 0.968675 0.307898 0.188957
#
# Coordination Sequence:
#
# PCOD9053502 Si02
#       8
#     2   2   2   2   2   2   2   2
#     4  11  21  39  63  95 125 165 203 253 323 378
#     4  10  18  35  61  95 116 157 208 261 306 359
#     4  11  21  40  68  89 115 163 223 256 294 365
#     4  11  24  40  60  89 134 168 202 249 328 373
#     4  10  17  35  60  91 119 161 202 254 311 360
#     4  11  20  37  63  92 121 161 210 261 295 372
#     4  10  22  40  60  86 126 175 199 251 318 369
#     4  10  19  34  65  92 119 158 221 252 297 367
#
# _framework density 23.689872999999999
#
# number of rings (size 3 to 8) (size 9 to 14) (size 15 to 20)
#    0.000    1.500    7.500    0.750    0.000    1.000 
#    0.000    1.875    8.250    2.250    0.000    0.000 
#    0.000    0.000    0.000    0.000    0.000    0.000 
#
# Total GULP energy -89342.477076 kJ/mol
# GULP energy per Si atom -5583.904817 kJ/mol
# Density = 2.363595 g / cm^3
# Si number density = 23.689873 Si / 1000 Ang^3
#
#
#
# Elastic Constant Matrix: (Units=GPa)
#
#
# Indices 1 2 3 4 5 6 
#
# 1 91.5007 35.6889 28.2944 -4.3764 10.4526 17.5785
# 2 35.6889 105.4932 54.1565 -28.8648 -9.5639 17.8251
# 3 28.2944 54.1565 106.4087 -42.3922 19.2946 24.5993
# 4 -4.3764 -28.8648 -42.3922 44.2260 -1.2634 1.3376
# 5 10.4526 -9.5639 19.2946 -1.2634 18.6347 -6.5410
# 6 17.5785 17.8251 24.5993 1.3376 -6.5410 32.5638
#
#
#
# Elastic Compliance Matrix: (Units=1/GPa)
#
#
# Indices 1 2 3 4 5 6 
#
# 1 0.038028 -0.036056 0.076911 0.052476 -0.147758 -0.090727
# 2 -0.036056 0.057452 -0.107303 -0.066705 0.195265 0.111036
# 3 0.076911 -0.107303 0.278266 0.199661 -0.477050 -0.297014
# 4 0.052476 -0.066705 0.199661 0.172647 -0.334863 -0.216996
# 5 -0.147758 0.195265 -0.477050 -0.334863 0.892745 0.526328
# 6 -0.090727 0.111036 -0.297014 -0.216996 0.526328 0.357912
#
#
# Mechanical properties :
#
#
# Convention : Reuss Voigt Hill
#
# Bulk Modulus (GPa) = 4.15195 59.96469 32.05832
# Shear Modulus (GPa) = 2.48728 31.43573 16.96151
#
# Velocity S-wave (km/s) = 1.02577 3.64671 2.67869
# Velocity P-wave (km/s) = 1.77747 6.56496 4.80926
#
# Compressibility (1/GPa) = 0.24085049
#
# Stress axis : x y z
#
# Youngs Moduli (GPa) = 26.29636 17.40588 3.59368
#
# Poissons Ratio (x) = 0.62758 -0.27639
# Poissons Ratio (y) = 0.94813 0.38561
# Poissons Ratio (z) = -2.02248 1.86770
#
# Static dielectric constant tensor:
#      x y z
#    x 1.993500 -0.017250 -0.009310 
#    y -0.017250 1.925770 0.018230 
#    z -0.009310 0.018230 1.928380 
# 
# From -- ./inp_files/285139.got.cif
#   From: 2010.05.17/outbox.cif.g08.bks.cpg/sg2_143_cif.got.tgz:285139.got - 2010.06.03 11:33:40.
