data_PCOD9053218
_publ_section_title
;
Structure prediction by ZEFSAII (Michael W. Deem and Ramdas Pophale) SiO2 
 PCOD9053218
Probable space group: P -1
;
_chemical_formula_sum "Si O2"
_cell_formula_units_Z 14
_cell_length_a 8.054769
_cell_length_b 23.553850
_cell_length_c 14.931554
_cell_angle_alpha 21.830138
_cell_angle_beta 143.720572
_cell_angle_gamma 140.195711
_cell_volume 620.769079
_symmetry_space_group_name_H-M "P -1"
_symmetry_group_IT_number 2
_symmetry_cell_setting 'triclinic'
loop_
_space_group_symop_operation_xyz
x,y,z
-x,-y,-z
loop_
_atom_site_type_symbol
_atom_site_label
_atom_site_fract_x
_atom_site_fract_y
_atom_site_fract_z
Si Si1 0.878032 0.318455 0.343782
Si Si2 0.626674 0.171147 0.282498
Si Si3 0.190374 0.808663 0.874222
Si Si4 0.697813 0.560783 0.297205
Si Si5 0.464116 0.402322 0.272577
Si Si6 0.407358 0.124754 0.534646
Si Si7 0.888999 0.538343 0.601607
O O1 0.865839 0.240673 0.354407
O O2 0.672015 0.195298 0.489925
O O3 0.124450 0.367502 0.449917
O O4 0.737944 0.479800 0.031080
O O5 0.738734 0.183745 0.211719
O O6 0.500000 0.000000 0.500000
O O7 0.375122 0.284316 0.010341
O O8 0.867355 0.848729 0.682537
O O9 0.389972 0.944169 0.808330
O O10 0.194687 0.640313 0.160257
O O11 0.479862 0.435877 0.336208
O O12 0.707983 0.591112 0.362765
O O13 0.000000 0.500000 0.500000
O O14 0.391527 0.230050 0.460934
O O15 0.780380 0.444099 0.309865
#
# Coordination Sequence:
#
# PCOD9053218 Si02
#       7
#     2   2   2   2   2   2   2
#     4  10  17  35  60  81 112 153 199 232 275 352
#     4  11  23  39  58  88 119 150 193 246 288 333
#     4  11  21  31  57  88 121 144 192 244 290 328
#     4   9  21  37  63  83 115 156 193 233 288 353
#     4   9  16  34  58  85 109 153 203 228 271 349
#     4  10  18  32  56  88 113 153 191 240 279 340
#     4  10  18  34  56  86 109 152 193 231 284 346
#
# _framework density 22.552669000000002
#
# number of rings (size 3 to 8) (size 9 to 14) (size 15 to 20)
#    0.000    2.000    4.286    0.857    0.000    1.143 
#    0.000    1.429    0.000    0.000    0.000    0.000 
#    0.000    0.000    0.000    0.000    0.000    0.000 
#
# Total GULP energy -78159.130629 kJ/mol
# GULP energy per Si atom -5582.795045 kJ/mol
# Density = 2.250134 g / cm^3
# Si number density = 22.552669 Si / 1000 Ang^3
#
#
#
# Elastic Constant Matrix: (Units=GPa)
#
#
# Indices 1 2 3 4 5 6 
#
# 1 62.8949 25.5146 17.1646 -4.8224 -3.4192 -14.4070
# 2 25.5146 171.1920 62.7534 -20.6206 -13.5498 -45.0881
# 3 17.1646 62.7534 82.5280 -19.5109 -10.5610 -11.1880
# 4 -4.8224 -20.6206 -19.5109 44.5580 -3.7982 0.6618
# 5 -3.4192 -13.5498 -10.5610 -3.7982 24.4312 5.5603
# 6 -14.4070 -45.0881 -11.1880 0.6618 5.5603 42.8462
#
#
#
# Elastic Compliance Matrix: (Units=1/GPa)
#
#
# Indices 1 2 3 4 5 6 
#
# 1 0.017946 -0.000299 -0.002675 0.000570 0.000141 0.004994
# 2 -0.000299 0.011209 -0.006380 0.002349 0.001554 0.009792
# 3 -0.002675 -0.006380 0.019182 0.005726 0.006061 -0.003479
# 4 0.000570 0.002349 0.005726 0.026685 0.007371 0.002790
# 5 0.000141 0.001554 0.006061 0.007371 0.046227 -0.002847
# 6 0.004994 0.009792 -0.003479 0.002790 -0.002847 0.034740
#
#
# Mechanical properties :
#
#
# Convention : Reuss Voigt Hill
#
# Bulk Modulus (GPa) = 33.74955 58.60891 46.17923
# Shear Modulus (GPa) = 27.08924 36.44591 31.76758
#
# Velocity S-wave (km/s) = 3.46953 4.02436 3.75720
# Velocity P-wave (km/s) = 5.57202 6.90202 6.27237
#
# Compressibility (1/GPa) = 0.02963003
#
# Stress axis : x y z
#
# Youngs Moduli (GPa) = 55.72175 89.21172 52.13135
#
# Poissons Ratio (x) = 0.02665 0.13947
# Poissons Ratio (y) = 0.01665 0.33259
# Poissons Ratio (z) = 0.14908 0.56915
#
# Static dielectric constant tensor:
#      x y z
#    x 1.939770 -0.022400 0.020590 
#    y -0.022400 1.896850 0.005240 
#    z 0.020590 0.005240 1.793500 
# 
# From -- ./inp_files/207390.got.cif
#   From: 2010.05.17/outbox.cif.g08.bks.cpg/sg2_104_cif.got.tgz:207390.got - 2010.06.03 11:33:40.
