data_PCOD9053783
_publ_section_title
;
Structure prediction by ZEFSAII (Michael W. Deem and Ramdas Pophale) SiO2 
 PCOD9053783
Probable space group: P -1
;
_chemical_formula_sum "Si O2"
_cell_formula_units_Z 12
_cell_length_a 14.133395
_cell_length_b 6.773895
_cell_length_c 10.635357
_cell_angle_alpha 76.990224
_cell_angle_beta 137.492272
_cell_angle_gamma 73.407978
_cell_volume 487.848128
_symmetry_space_group_name_H-M "P -1"
_symmetry_group_IT_number 2
_symmetry_cell_setting 'triclinic'
loop_
_space_group_symop_operation_xyz
x,y,z
-x,-y,-z
loop_
_atom_site_type_symbol
_atom_site_label
_atom_site_fract_x
_atom_site_fract_y
_atom_site_fract_z
Si Si1 0.039658 0.184548 0.146576
Si Si2 0.991811 0.412460 0.330461
Si Si3 0.246054 0.826440 0.609322
Si Si4 0.628487 0.572440 0.616313
Si Si5 0.686787 0.684716 0.193262
Si Si6 0.429014 0.950357 0.591877
O O1 0.990999 0.393217 0.182314
O O2 0.856744 0.314112 0.867363
O O3 0.114097 0.922255 0.341593
O O4 0.234608 0.089002 0.298705
O O5 0.138789 0.431559 0.523789
O O6 0.786420 0.633268 0.163638
O O7 0.102218 0.090612 0.522773
O O8 0.339443 0.529343 0.787493
O O9 0.391755 0.853104 0.692756
O O10 0.500000 0.500000 0.500000
O O11 0.594268 0.698716 0.703570
O O12 0.566182 0.813071 0.425813
O O13 0.500000 0.000000 0.000000
#
# Coordination Sequence:
#
# PCOD9053783 Si02
#       6
#     2   2   2   2   2   2
#     4   8  20  41  59  82 126 162 192 249 298 359
#     4   8  21  39  57  88 121 159 198 249 305 357
#     4   8  20  41  59  83 127 163 198 242 308 355
#     4  11  20  37  62  92 116 156 203 248 300 356
#     4  11  20  37  62  93 117 158 207 251 295 360
#     4   8  21  39  55  88 122 152 205 242 306 359
#
# _framework density 24.597819000000001
#
# number of rings (size 3 to 8) (size 9 to 14) (size 15 to 20)
#    2.000    0.667    0.000    1.000    0.000    6.667 
#   12.000    0.000    0.000    0.000    0.000    0.000 
#    0.000    0.000    0.000    0.000    0.000    0.000 
#
# Total GULP energy -66876.911153 kJ/mol
# GULP energy per Si atom -5573.075929 kJ/mol
# Density = 2.454183 g / cm^3
# Si number density = 24.597819 Si / 1000 Ang^3
#
#
#
# Elastic Constant Matrix: (Units=GPa)
#
#
# Indices 1 2 3 4 5 6 
#
# 1 52.8237 29.8771 21.9861 -14.5659 16.8932 4.6172
# 2 29.8771 104.0172 43.7763 -12.3595 4.6696 27.0924
# 3 21.9861 43.7763 91.8278 -6.0728 17.7377 11.2345
# 4 -14.5659 -12.3595 -6.0728 45.6888 -1.9561 5.4719
# 5 16.8932 4.6696 17.7377 -1.9561 45.0123 -6.3839
# 6 4.6172 27.0924 11.2345 5.4719 -6.3839 54.6634
#
#
#
# Elastic Compliance Matrix: (Units=1/GPa)
#
#
# Indices 1 2 3 4 5 6 
#
# 1 0.027720 -0.005890 -0.001540 0.006753 -0.009010 -0.000834
# 2 -0.005890 0.015326 -0.005393 0.002355 0.001998 -0.005992
# 3 -0.001540 -0.005393 0.014857 -0.000086 -0.004835 -0.000806
# 4 0.006753 0.002355 -0.000086 0.025107 -0.002292 -0.004501
# 5 -0.009010 0.001998 -0.004835 -0.002292 0.027797 0.004240
# 6 -0.000834 -0.005992 -0.000806 -0.004501 0.004240 0.022446
#
#
# Mechanical properties :
#
#
# Convention : Reuss Voigt Hill
#
# Bulk Modulus (GPa) = 31.00142 48.88308 39.94225
# Shear Modulus (GPa) = 29.47234 39.27487 34.37360
#
# Velocity S-wave (km/s) = 3.46521 4.00018 3.74227
# Velocity P-wave (km/s) = 5.35172 6.42272 5.91153
#
# Compressibility (1/GPa) = 0.03225659
#
# Stress axis : x y z
#
# Youngs Moduli (GPa) = 36.07541 65.24784 67.30965
#
# Poissons Ratio (x) = 0.38429 0.10366
# Poissons Ratio (y) = 0.21247 0.36302
# Poissons Ratio (z) = 0.05556 0.35190
#
# Static dielectric constant tensor:
#      x y z
#    x 1.943220 -0.009780 -0.047070 
#    y -0.009780 1.971690 0.031960 
#    z -0.047070 0.031960 2.091150 
# 
# From -- ./inp_files/535904.got.cif
#   From: 2010.05.17/outbox.cif.g08.bks.cpg/sg2_268_cif.got.tgz:535904.got - 2010.06.03 11:33:40.
