data_PCOD9053564
_publ_section_title
;
Structure prediction by ZEFSAII (Michael W. Deem and Ramdas Pophale) SiO2 
 PCOD9053564
Probable space group: P -1
;
_chemical_formula_sum "Si O2"
_cell_formula_units_Z 16
_cell_length_a 8.641769
_cell_length_b 13.765680
_cell_length_c 9.079630
_cell_angle_alpha 97.673082
_cell_angle_beta 64.716299
_cell_angle_gamma 118.612471
_cell_volume 853.934762
_symmetry_space_group_name_H-M "P -1"
_symmetry_group_IT_number 2
_symmetry_cell_setting 'triclinic'
loop_
_space_group_symop_operation_xyz
x,y,z
-x,-y,-z
loop_
_atom_site_type_symbol
_atom_site_label
_atom_site_fract_x
_atom_site_fract_y
_atom_site_fract_z
Si Si1 0.898141 0.290765 0.582099
Si Si2 0.949839 0.737728 0.201675
Si Si3 0.955327 0.211115 0.153090
Si Si4 0.726754 0.051462 0.453397
Si Si5 0.628895 0.495413 0.310428
Si Si6 0.279177 0.668067 0.597078
Si Si7 0.266331 0.312637 0.277739
Si Si8 0.728659 0.835089 0.505160
O O1 0.792582 0.162287 0.545475
O O2 0.794316 0.349035 0.545509
O O3 0.912084 0.287966 0.750782
O O4 0.116725 0.339772 0.438906
O O5 0.766814 0.617639 0.221970
O O6 0.871381 0.808867 0.341155
O O7 0.041090 0.795088 0.023604
O O8 0.847162 0.095320 0.261790
O O9 0.837348 0.276562 0.263143
O O10 0.169683 0.277897 0.150840
O O11 0.500000 0.000000 0.500000
O O12 0.766828 0.959888 0.497996
O O13 0.500000 0.500000 0.500000
O O14 0.748870 0.438880 0.323112
O O15 0.479705 0.413222 0.233479
O O16 0.507910 0.753895 0.526587
O O17 0.258487 0.206422 0.344797
#
# Coordination Sequence:
#
# PCOD9053564 Si02
#       8
#     2   2   2   2   2   2   2   2
#     4   9  18  34  54  86 106 135 187 224 259 318
#     4  11  23  35  53  84 120 132 175 237 267 303
#     4  10  22  38  52  84 115 137 176 231 266 316
#     4  10  18  35  64  75 103 148 184 215 270 326
#     4  11  18  35  60  80 106 146 182 219 263 316
#     4   9  18  35  60  77 104 144 189 210 258 334
#     4   8  18  34  55  80 107 140 185 211 259 331
#     4  10  17  35  61  81 100 145 187 219 260 324
#
# _framework density 18.736792000000001
#
# number of rings (size 3 to 8) (size 9 to 14) (size 15 to 20)
#    0.000    2.500    6.250    0.000    0.000    6.500 
#    0.000    3.125    0.000    0.000    0.000    0.000 
#    0.000    0.000    0.000    0.000    0.000    0.000 
#
# Total GULP energy -89187.254613 kJ/mol
# GULP energy per Si atom -5574.203413 kJ/mol
# Density = 1.869415 g / cm^3
# Si number density = 18.736792 Si / 1000 Ang^3
#
#
#
# Elastic Constant Matrix: (Units=GPa)
#
#
# Indices 1 2 3 4 5 6 
#
# 1 89.4352 3.7399 9.2808 5.3780 19.6660 5.0038
# 2 3.7399 50.4698 -5.0219 -9.8009 -4.4193 3.4934
# 3 9.2808 -5.0219 59.9684 4.1678 15.7375 16.6038
# 4 5.3780 -9.8009 4.1678 17.2166 4.1803 1.6933
# 5 19.6660 -4.4193 15.7375 4.1803 19.6824 3.7936
# 6 5.0038 3.4934 16.6038 1.6933 3.7936 33.2872
#
#
#
# Elastic Compliance Matrix: (Units=1/GPa)
#
#
# Indices 1 2 3 4 5 6 
#
# 1 0.014930 -0.002775 0.002296 -0.002662 -0.016605 -0.001071
# 2 -0.002775 0.023384 0.001245 0.013044 0.005007 -0.003892
# 3 0.002296 0.001245 0.024447 -0.000162 -0.019516 -0.010438
# 4 -0.002662 0.013044 -0.000162 0.068713 -0.008211 -0.003448
# 5 -0.016605 0.005007 -0.019516 -0.008211 0.085410 0.002389
# 6 -0.001071 -0.003892 -0.010438 -0.003448 0.002389 0.035721
#
#
# Mechanical properties :
#
#
# Convention : Reuss Voigt Hill
#
# Bulk Modulus (GPa) = 15.55364 23.98567 19.76966
# Shear Modulus (GPa) = 18.34837 26.82889 22.58863
#
# Velocity S-wave (km/s) = 3.13272 3.78813 3.47591
# Velocity P-wave (km/s) = 4.62649 5.65353 5.16560
#
# Compressibility (1/GPa) = 0.06429363
#
# Stress axis : x y z
#
# Youngs Moduli (GPa) = 66.97791 42.76378 40.90475
#
# Poissons Ratio (x) = 0.11866 -0.09392
# Poissons Ratio (y) = 0.18585 -0.05091
# Poissons Ratio (z) = -0.15379 -0.05323
#
# Static dielectric constant tensor:
#      x y z
#    x 1.695720 0.006710 0.022890 
#    y 0.006710 1.674730 0.001220 
#    z 0.022890 0.001220 1.633180 
# 
# From -- ./inp_files/196545.got.cif
#   From: 2010.05.17/outbox.cif.g08.bks.cpg/sg2_99_cif.got.tgz:196545.got - 2010.06.03 11:33:40.
