data_PCOD9053787
_publ_section_title
;
Structure prediction by ZEFSAII (Michael W. Deem and Ramdas Pophale) SiO2 
 PCOD9053787
Probable space group: P -1
;
_chemical_formula_sum "Si O2"
_cell_formula_units_Z 16
_cell_length_a 15.471192
_cell_length_b 14.073799
_cell_length_c 12.302598
_cell_angle_alpha 106.831437
_cell_angle_beta 25.816849
_cell_angle_gamma 125.321354
_cell_volume 723.488456
_symmetry_space_group_name_H-M "P -1"
_symmetry_group_IT_number 2
_symmetry_cell_setting 'triclinic'
loop_
_space_group_symop_operation_xyz
x,y,z
-x,-y,-z
loop_
_atom_site_type_symbol
_atom_site_label
_atom_site_fract_x
_atom_site_fract_y
_atom_site_fract_z
Si Si1 0.778227 0.194675 0.097502
Si Si2 0.899454 0.347523 0.538512
Si Si3 0.574130 0.809288 0.353629
Si Si4 0.979505 0.526199 0.216114
Si Si5 0.499334 0.893548 0.261980
Si Si6 0.901430 0.738144 0.025756
Si Si7 0.240465 0.406626 0.355483
Si Si8 0.595415 0.464686 0.150380
O O1 0.487531 0.125830 0.471344
O O2 0.679457 0.063457 0.094303
O O3 0.902985 0.336098 0.938592
O O4 0.014668 0.247229 0.939151
O O5 0.593779 0.205334 0.770946
O O6 0.000000 0.500000 0.500000
O O7 0.934805 0.297383 0.592172
O O8 0.152940 0.412161 0.185016
O O9 0.236358 0.630630 0.657629
O O10 0.670530 0.890176 0.155247
O O11 0.795061 0.808876 0.146810
O O12 0.763155 0.489496 0.542945
O O13 0.269116 0.580156 0.958979
O O14 0.197549 0.814875 0.646558
O O15 0.623075 0.562303 0.239883
O O16 0.300951 0.352072 0.367122
O O17 0.500000 0.500000 0.000000
#
# Coordination Sequence:
#
# PCOD9053787 Si02
#       8
#     2   2   2   2   2   2   2   2
#     4  11  25  37  55  86 132 162 184 235 306 358
#     4  10  17  35  62  85 105 142 200 253 286 327
#     4  11  20  37  64  84 118 161 205 240 277 346
#     4  12  21  38  58  91 121 154 197 245 293 353
#     4  10  22  40  57  88 121 154 201 240 293 357
#     4  10  20  36  62  86 116 157 207 238 279 344
#     4  10  21  34  59  89 112 143 196 260 296 326
#     4  10  19  33  57  91 113 143 193 253 287 335
#
# _framework density 22.115072999999999
#
# number of rings (size 3 to 8) (size 9 to 14) (size 15 to 20)
#    0.000    1.500    6.250    1.875    0.000    3.500 
#    0.000    0.625    0.000    0.750    0.000    0.000 
#    0.000    0.000    0.000    0.000    0.000    0.000 
#
# Total GULP energy -89211.938000 kJ/mol
# GULP energy per Si atom -5575.746125 kJ/mol
# Density = 2.206474 g / cm^3
# Si number density = 22.115073 Si / 1000 Ang^3
#
#
#
# Elastic Constant Matrix: (Units=GPa)
#
#
# Indices 1 2 3 4 5 6 
#
# 1 167.7384 65.4175 26.4753 -6.3943 -39.8710 -16.4910
# 2 65.4175 128.7975 17.6639 -3.4305 -5.8484 4.6330
# 3 26.4753 17.6639 37.0690 2.1396 -10.3980 -1.9175
# 4 -6.3943 -3.4305 2.1396 29.8194 -12.6185 -0.5108
# 5 -39.8710 -5.8484 -10.3980 -12.6185 21.5828 11.5246
# 6 -16.4910 4.6330 -1.9175 -0.5108 11.5246 36.8450
#
#
#
# Elastic Compliance Matrix: (Units=1/GPa)
#
#
# Indices 1 2 3 4 5 6 
#
# 1 0.029086 -0.010237 0.004111 0.038970 0.081253 -0.010355
# 2 -0.010237 0.012140 -0.004814 -0.011064 -0.025130 0.001348
# 3 0.004111 -0.004814 0.034593 0.011680 0.032931 -0.005893
# 4 0.038970 -0.011064 0.011680 0.101848 0.147701 -0.025345
# 5 0.081253 -0.025130 0.032931 0.147701 0.322613 -0.057621
# 6 -0.010355 0.001348 -0.005893 -0.025345 -0.057621 0.039701
#
#
# Mechanical properties :
#
#
# Convention : Reuss Voigt Hill
#
# Bulk Modulus (GPa) = 18.53958 61.41317 39.97637
# Shear Modulus (GPa) = 8.62305 32.58598 20.60452
#
# Velocity S-wave (km/s) = 1.97677 3.84275 3.05568
# Velocity P-wave (km/s) = 3.68939 6.89341 5.52859
#
# Compressibility (1/GPa) = 0.05393867
#
# Stress axis : x y z
#
# Youngs Moduli (GPa) = 34.38039 82.37519 28.90772
#
# Poissons Ratio (x) = 0.84328 -0.11883
# Poissons Ratio (y) = 0.35196 0.13916
# Poissons Ratio (z) = -0.14133 0.39654
#
# Static dielectric constant tensor:
#      x y z
#    x 1.887490 0.025340 -0.048960 
#    y 0.025340 1.821220 -0.001680 
#    z -0.048960 -0.001680 1.906360 
# 
# From -- ./inp_files/455726.got.cif
#   From: 2010.05.17/outbox.cif.g08.bks.cpg/sg2_228_cif.got.tgz:455726.got - 2010.06.03 11:33:40.
