data_PCOD9053726
_publ_section_title
;
Structure prediction by ZEFSAII (Michael W. Deem and Ramdas Pophale) SiO2 
 PCOD9053726
Probable space group: P -1
;
_chemical_formula_sum "Si O2"
_cell_formula_units_Z 16
_cell_length_a 14.087273
_cell_length_b 24.097187
_cell_length_c 17.517776
_cell_angle_alpha 158.515214
_cell_angle_beta 158.511885
_cell_angle_gamma 30.971387
_cell_volume 796.243258
_symmetry_space_group_name_H-M "P -1"
_symmetry_group_IT_number 2
_symmetry_cell_setting 'triclinic'
loop_
_space_group_symop_operation_xyz
x,y,z
-x,-y,-z
loop_
_atom_site_type_symbol
_atom_site_label
_atom_site_fract_x
_atom_site_fract_y
_atom_site_fract_z
Si Si1 0.973457 0.834254 0.302701
Si Si2 0.733669 0.985245 0.829163
Si Si3 0.528663 0.166925 0.693377
Si Si4 0.496061 0.672198 0.491810
Si Si5 0.787426 0.599860 0.148727
Si Si6 0.695468 0.557742 0.652769
Si Si7 0.246107 0.155837 0.682822
Si Si8 0.931296 0.884028 0.007847
O O1 0.814388 0.840117 0.268847
O O2 0.254880 0.775561 0.456435
O O3 0.831322 0.716031 0.987104
O O4 0.000000 0.000000 0.500000
O O5 0.570375 0.851660 0.491340
O O6 0.785999 0.953474 0.915815
O O7 0.549840 0.124925 0.860977
O O8 0.000000 0.000000 0.000000
O O9 0.353383 0.283119 0.753161
O O10 0.500000 0.000000 0.500000
O O11 0.834795 0.206507 0.969203
O O12 0.558679 0.587975 0.509235
O O13 0.739229 0.777066 0.777584
O O14 0.398535 0.548910 0.197626
O O15 0.822124 0.689540 0.209889
O O16 0.069828 0.552902 0.325252
O O17 0.500000 0.500000 0.500000
O O18 0.073106 0.019657 0.337554
#
# Coordination Sequence:
#
# PCOD9053726 Si02
#       8
#     2   2   2   2   2   2   2   2
#     4  11  24  42  64  93 127 164 214 264 316 376
#     4  11  20  36  64  94 125 158 210 262 313 372
#     4  11  21  42  63  96 127 159 212 266 305 373
#     4  11  26  43  61  93 134 166 208 264 321 380
#     4  11  23  42  64  92 129 165 210 263 318 372
#     4  11  25  44  65  94 128 171 217 256 317 381
#     4  11  22  38  64  93 123 164 214 265 308 371
#     4  11  23  40  63  94 127 165 211 260 318 373
#
# _framework density 20.094362
#
# number of rings (size 3 to 8) (size 9 to 14) (size 15 to 20)
#    0.000    1.000    3.750    3.000    0.000   14.500 
#    0.000    1.250    0.000    0.000    0.000    0.000 
#    0.000    0.000    0.000    0.000    0.000    0.000 
#
# Total GULP energy -89422.031175 kJ/mol
# GULP energy per Si atom -5588.876948 kJ/mol
# Density = 2.004863 g / cm^3
# Si number density = 20.094362 Si / 1000 Ang^3
#
#
#
# Elastic Constant Matrix: (Units=GPa)
#
#
# Indices 1 2 3 4 5 6 
#
# 1 53.8664 23.6552 5.1612 -5.7529 -4.2086 -15.6757
# 2 23.6552 137.4019 35.6744 -12.4739 -6.2280 -15.7182
# 3 5.1612 35.6744 66.5398 -8.2792 12.7439 -11.0495
# 4 -5.7529 -12.4739 -8.2792 30.9235 2.5365 -3.2407
# 5 -4.2086 -6.2280 12.7439 2.5365 36.9601 -4.7649
# 6 -15.6757 -15.7182 -11.0495 -3.2407 -4.7649 32.4921
#
#
#
# Elastic Compliance Matrix: (Units=1/GPa)
#
#
# Indices 1 2 3 4 5 6 
#
# 1 0.023653 -0.002576 0.001501 0.004738 0.002909 0.011575
# 2 -0.002576 0.009602 -0.004899 0.002074 0.003182 0.002410
# 3 0.001501 -0.004899 0.020333 0.004842 -0.007396 0.004667
# 4 0.004738 0.002074 0.004842 0.036398 -0.002216 0.008241
# 5 0.002909 0.003182 -0.007396 -0.002216 0.031243 0.004788
# 6 0.011575 0.002410 0.004667 0.008241 0.004788 0.040638
#
#
# Mechanical properties :
#
#
# Convention : Reuss Voigt Hill
#
# Bulk Modulus (GPa) = 24.01583 42.97666 33.49625
# Shear Modulus (GPa) = 26.63897 32.96295 29.80096
#
# Velocity S-wave (km/s) = 3.64496 4.05459 3.85522
# Velocity P-wave (km/s) = 5.44901 6.58433 6.04339
#
# Compressibility (1/GPa) = 0.04163920
#
# Stress axis : x y z
#
# Youngs Moduli (GPa) = 42.27706 104.15009 49.18143
#
# Poissons Ratio (x) = 0.26827 -0.07381
# Poissons Ratio (y) = 0.10890 0.24095
# Poissons Ratio (z) = -0.06344 0.51026
#
# Static dielectric constant tensor:
#      x y z
#    x 1.710900 -0.010450 -0.010190 
#    y -0.010450 1.712190 -0.018770 
#    z -0.010190 -0.018770 1.728600 
# 
# From -- ./inp_files/77731.got.cif
#   From: 2010.05.17/outbox.cif.g08.bks.cpg/sg2_39_cif.got.tgz:77731.got - 2010.06.03 11:33:40.
