data_PCOD9053542
_publ_section_title
;
Structure prediction by ZEFSAII (Michael W. Deem and Ramdas Pophale) SiO2 
 PCOD9053542
Probable space group: P -1
;
_chemical_formula_sum "Si O2"
_cell_formula_units_Z 14
_cell_length_a 13.718131
_cell_length_b 8.698522
_cell_length_c 7.813741
_cell_angle_alpha 50.902253
_cell_angle_beta 47.879658
_cell_angle_gamma 66.665057
_cell_volume 536.139767
_symmetry_space_group_name_H-M "P -1"
_symmetry_group_IT_number 2
_symmetry_cell_setting 'triclinic'
loop_
_space_group_symop_operation_xyz
x,y,z
-x,-y,-z
loop_
_atom_site_type_symbol
_atom_site_label
_atom_site_fract_x
_atom_site_fract_y
_atom_site_fract_z
Si Si1 0.411210 0.167122 0.909872
Si Si2 0.983618 0.573406 0.678575
Si Si3 0.073332 0.085900 0.689447
Si Si4 0.740576 0.492286 0.483875
Si Si5 0.769066 0.263006 0.245936
Si Si6 0.858567 0.852784 0.907002
Si Si7 0.461689 0.571425 0.741035
O O1 0.400059 0.353310 0.918813
O O2 0.473136 0.288252 0.587925
O O3 0.270227 0.072963 0.086396
O O4 0.500000 0.000000 0.000000
O O5 0.926212 0.695581 0.818813
O O6 0.140513 0.596648 0.491782
O O7 0.923930 0.679664 0.508211
O O8 0.909021 0.364382 0.954878
O O9 0.206733 0.968982 0.597372
O O10 0.970450 0.008340 0.720477
O O11 0.000000 0.000000 0.000000
O O12 0.728595 0.372396 0.396977
O O13 0.595957 0.513643 0.720124
O O14 0.797534 0.716790 0.226467
O O15 0.669197 0.304407 0.178381
#
# Coordination Sequence:
#
# PCOD9053542 Si02
#       7
#     2   2   2   2   2   2   2
#     4  10  19  29  54  92 124 142 179 238 302 342
#     4  11  21  36  65  86 108 150 197 247 299 329
#     4  12  27  38  55  86 120 160 198 236 289 346
#     4  10  17  35  60  94 114 144 184 251 296 339
#     4  11  19  38  58  84 124 146 193 244 287 347
#     4  10  19  37  58  92 115 146 197 241 288 343
#     4  10  19  32  53  92 123 141 179 243 306 334
#
# _framework density 26.112593
#
# number of rings (size 3 to 8) (size 9 to 14) (size 15 to 20)
#    0.000    1.429    8.571    1.286    4.000    0.571 
#    0.000    0.000    0.000    4.286    0.000    0.000 
#    0.000    0.000    0.000    0.000    0.000    0.000 
#
# Total GULP energy -78137.048948 kJ/mol
# GULP energy per Si atom -5581.217782 kJ/mol
# Density = 2.605316 g / cm^3
# Si number density = 26.112593 Si / 1000 Ang^3
#
#
#
# Elastic Constant Matrix: (Units=GPa)
#
#
# Indices 1 2 3 4 5 6 
#
# 1 123.5345 55.6547 -6.2968 7.1124 -16.3934 -57.9055
# 2 55.6547 95.8663 17.2723 -22.7787 7.8513 -50.1548
# 3 -6.2968 17.2723 53.0175 -7.1958 2.2434 -3.8758
# 4 7.1124 -22.7787 -7.1958 41.4819 -15.4582 8.3863
# 5 -16.3934 7.8513 2.2434 -15.4582 31.3419 -0.8787
# 6 -57.9055 -50.1548 -3.8758 8.3863 -0.8787 61.3888
#
#
#
# Elastic Compliance Matrix: (Units=1/GPa)
#
#
# Indices 1 2 3 4 5 6 
#
# 1 0.019566 -0.007001 0.004445 -0.005823 0.009189 0.013944
# 2 -0.007001 0.024244 -0.006424 0.009494 -0.004272 0.011440
# 3 0.004445 -0.006424 0.021440 0.000328 0.002570 0.000290
# 4 -0.005823 0.009494 0.000328 0.035284 0.011889 -0.002365
# 5 0.009189 -0.004272 0.002570 0.011889 0.043584 0.004339
# 6 0.013944 0.011440 0.000290 -0.002365 0.004339 0.039192
#
#
# Mechanical properties :
#
#
# Convention : Reuss Voigt Hill
#
# Bulk Modulus (GPa) = 21.14657 45.07541 33.11099
# Shear Modulus (GPa) = 23.03798 40.56171 31.79985
#
# Velocity S-wave (km/s) = 2.97350 3.94552 3.49348
# Velocity P-wave (km/s) = 4.46147 6.16892 5.38332
#
# Compressibility (1/GPa) = 0.04728899
#
# Stress axis : x y z
#
# Youngs Moduli (GPa) = 51.10859 41.24766 46.64288
#
# Poissons Ratio (x) = 0.28878 -0.20732
# Poissons Ratio (y) = 0.35781 0.29964
# Poissons Ratio (z) = -0.22717 0.26498
#
# Static dielectric constant tensor:
#      x y z
#    x 2.220330 0.022230 0.126780 
#    y 0.022230 2.130060 0.056000 
#    z 0.126780 0.056000 2.128060 
# 
# From -- ./inp_files/302042.got.cif
#   From: 2010.05.17/outbox.cif.g08.bks.cpg/sg2_152_cif.got.tgz:302042.got - 2010.06.03 11:33:40.
