data_PCOD9053661
_publ_section_title
;
Structure prediction by ZEFSAII (Michael W. Deem and Ramdas Pophale) SiO2 
 PCOD9053661
Probable space group: P -1
;
_chemical_formula_sum "Si O2"
_cell_formula_units_Z 14
_cell_length_a 9.046788
_cell_length_b 14.014473
_cell_length_c 15.393358
_cell_angle_alpha 140.342816
_cell_angle_beta 132.517808
_cell_angle_gamma 77.849752
_cell_volume 690.784264
_symmetry_space_group_name_H-M "P -1"
_symmetry_group_IT_number 2
_symmetry_cell_setting 'triclinic'
loop_
_space_group_symop_operation_xyz
x,y,z
-x,-y,-z
loop_
_atom_site_type_symbol
_atom_site_label
_atom_site_fract_x
_atom_site_fract_y
_atom_site_fract_z
Si Si1 0.297625 0.171645 0.193103
Si Si2 0.545696 0.408996 0.619661
Si Si3 0.451093 0.938759 0.575665
Si Si4 0.031843 0.341558 0.386348
Si Si5 0.926546 0.190744 0.812255
Si Si6 0.418974 0.904352 0.077942
Si Si7 0.788227 0.945731 0.113635
O O1 0.477833 0.366331 0.460231
O O2 0.464429 0.099288 0.208724
O O3 0.261027 0.177083 0.079680
O O4 0.000000 0.000000 0.000000
O O5 0.496693 0.211403 0.489039
O O6 0.323843 0.418625 0.568136
O O7 0.821695 0.593759 0.901186
O O8 0.173506 0.818635 0.330313
O O9 0.683521 0.104648 0.719897
O O10 0.479785 0.051780 0.753142
O O11 0.000000 0.500000 0.500000
O O12 0.869590 0.147812 0.248903
O O13 0.898774 0.262619 0.182126
O O14 0.994034 0.047375 0.745693
O O15 0.559560 0.866892 0.037741
#
# Coordination Sequence:
#
# PCOD9053661 Si02
#       7
#     2   2   2   2   2   2   2
#     4  10  17  35  61  89 126 159 191 253 304 358
#     4  11  21  38  66  94 121 157 207 256 303 368
#     4  10  23  45  62  89 125 159 215 258 300 354
#     4  11  21  37  60  92 130 156 196 258 309 371
#     4  11  23  40  69  88 117 170 209 258 302 356
#     4  10  21  38  60  86 128 167 193 253 311 367
#     4  11  21  39  59  92 128 165 201 242 320 362
#
# _framework density 20.266819000000002
#
# number of rings (size 3 to 8) (size 9 to 14) (size 15 to 20)
#    0.000    1.429    4.286    3.857    0.000    1.143 
#    7.714    0.000    0.000    1.714    0.000    0.000 
#    0.000    0.000    0.000    0.000    0.000    0.000 
#
# Total GULP energy -77941.683267 kJ/mol
# GULP energy per Si atom -5567.263090 kJ/mol
# Density = 2.022069 g / cm^3
# Si number density = 20.266819 Si / 1000 Ang^3
#
#
#
# Elastic Constant Matrix: (Units=GPa)
#
#
# Indices 1 2 3 4 5 6 
#
# 1 100.3708 22.6097 52.2160 -18.2248 -9.1346 -1.2289
# 2 22.6097 82.4261 39.2652 -24.6976 -16.2265 -4.9546
# 3 52.2160 39.2652 160.8967 -22.4437 -8.2536 3.7495
# 4 -18.2248 -24.6976 -22.4437 36.1031 -4.6538 -3.9956
# 5 -9.1346 -16.2265 -8.2536 -4.6538 26.0264 3.4668
# 6 -1.2289 -4.9546 3.7495 -3.9956 3.4668 29.6347
#
#
#
# Elastic Compliance Matrix: (Units=1/GPa)
#
#
# Indices 1 2 3 4 5 6 
#
# 1 0.013069 0.000823 -0.003411 0.005816 0.004882 0.001324
# 2 0.000823 0.020924 -0.002553 0.015509 0.014736 0.004223
# 3 -0.003411 -0.002553 0.008203 0.001508 0.000273 -0.001435
# 4 0.005816 0.015509 0.001508 0.045406 0.019443 0.006491
# 5 0.004882 0.014736 0.000273 0.019443 0.053013 -0.000949
# 6 0.001324 0.004223 -0.001435 0.006491 -0.000949 0.035673
#
#
# Mechanical properties :
#
#
# Convention : Reuss Voigt Hill
#
# Bulk Modulus (GPa) = 31.33367 63.54173 47.43770
# Shear Modulus (GPa) = 25.35421 33.65969 29.50695
#
# Velocity S-wave (km/s) = 3.54081 4.07975 3.81980
# Velocity P-wave (km/s) = 5.67544 7.32210 6.55071
#
# Compressibility (1/GPa) = 0.03191455
#
# Stress axis : x y z
#
# Youngs Moduli (GPa) = 76.51860 47.79210 121.90730
#
# Poissons Ratio (x) = -0.03935 0.41587
# Poissons Ratio (y) = -0.06301 0.31118
# Poissons Ratio (z) = 0.26103 0.12199
#
# Static dielectric constant tensor:
#      x y z
#    x 1.761730 0.023000 -0.001550 
#    y 0.023000 1.746950 0.023340 
#    z -0.001550 0.023340 1.810720 
# 
# From -- ./inp_files/315143.got.cif
#   From: 2010.05.17/outbox.cif.g08.bks.cpg/sg2_158_cif.got.tgz:315143.got - 2010.06.03 11:33:40.
