data_PCOD9053211
_publ_section_title
;
Structure prediction by ZEFSAII (Michael W. Deem and Ramdas Pophale) SiO2 
 PCOD9053211
Probable space group: P -1
;
_chemical_formula_sum "Si O2"
_cell_formula_units_Z 12
_cell_length_a 11.134622
_cell_length_b 9.060963
_cell_length_c 12.233517
_cell_angle_alpha 130.300032
_cell_angle_beta 88.854135
_cell_angle_gamma 125.682702
_cell_volume 624.626954
_symmetry_space_group_name_H-M "P -1"
_symmetry_group_IT_number 2
_symmetry_cell_setting 'triclinic'
loop_
_space_group_symop_operation_xyz
x,y,z
-x,-y,-z
loop_
_atom_site_type_symbol
_atom_site_label
_atom_site_fract_x
_atom_site_fract_y
_atom_site_fract_z
Si Si1 0.032669 0.618491 0.729377
Si Si2 0.567150 0.400839 0.524558
Si Si3 0.968310 0.747841 0.149455
Si Si4 0.066306 0.282961 0.441447
Si Si5 0.828130 0.909828 0.909018
Si Si6 0.785773 0.277233 0.764312
O O1 0.727853 0.502431 0.498181
O O2 0.020327 0.718270 0.663566
O O3 0.851867 0.425757 0.714848
O O4 0.057640 0.424541 0.607479
O O5 0.500000 0.500000 0.500000
O O6 0.188878 0.917901 0.936749
O O7 0.403980 0.058485 0.387131
O O8 0.056127 0.688254 0.193009
O O9 0.799718 0.458552 0.945396
O O10 0.966519 0.956585 0.304892
O O11 0.109078 0.949080 0.144234
O O12 0.348205 0.424592 0.277688
O O13 0.000000 0.000000 0.000000
#
# Coordination Sequence:
#
# PCOD9053211 Si02
#       6
#     2   2   2   2   2   2
#     4  10  21  36  58  86 111 152 191 221 284 343
#     4  11  20  37  60  85 113 145 189 240 277 322
#     4   9  18  35  57  80 111 151 183 227 277 340
#     4  10  20  38  58  80 118 153 181 230 285 337
#     4  10  17  35  60  80 106 155 186 218 275 347
#     4  10  20  34  59  87 108 143 196 235 270 330
#
# _framework density 19.211466999999999
#
# number of rings (size 3 to 8) (size 9 to 14) (size 15 to 20)
#    0.000    2.000    6.667    0.000    0.000    1.333 
#    0.000    2.500    0.000    4.000    0.000    0.000 
#    0.000    0.000    0.000    0.000    0.000    0.000 
#
# Total GULP energy -66805.368796 kJ/mol
# GULP energy per Si atom -5567.114066 kJ/mol
# Density = 1.916774 g / cm^3
# Si number density = 19.211467 Si / 1000 Ang^3
#
#
#
# Elastic Constant Matrix: (Units=GPa)
#
#
# Indices 1 2 3 4 5 6 
#
# 1 60.6643 0.2755 53.1792 8.3590 -28.6702 -9.0381
# 2 0.2755 48.5982 31.7773 20.7497 -4.9032 -4.0028
# 3 53.1792 31.7773 171.8931 41.0394 -26.6456 6.6070
# 4 8.3590 20.7497 41.0394 45.5346 -5.5527 1.9016
# 5 -28.6702 -4.9032 -26.6456 -5.5527 31.7672 6.6046
# 6 -9.0381 -4.0028 6.6070 1.9016 6.6046 24.2706
#
#
#
# Elastic Compliance Matrix: (Units=1/GPa)
#
#
# Indices 1 2 3 4 5 6 
#
# 1 0.040117 0.010374 -0.010828 0.000342 0.026198 0.012442
# 2 0.010374 0.030001 -0.005933 -0.009998 0.005235 0.009785
# 3 -0.010828 -0.005933 0.011922 -0.005737 -0.000072 -0.007787
# 4 0.000342 -0.009998 -0.005737 0.031729 0.000008 -0.002448
# 5 0.026198 0.005235 -0.000072 0.000008 0.056878 -0.004840
# 6 0.012442 0.009785 -0.007787 -0.002448 -0.004840 0.051078
#
#
# Mechanical properties :
#
#
# Convention : Reuss Voigt Hill
#
# Bulk Modulus (GPa) = 14.43702 50.17995 32.30848
# Shear Modulus (GPa) = 19.41097 33.37605 26.39351
#
# Velocity S-wave (km/s) = 3.18210 4.17261 3.71056
# Velocity P-wave (km/s) = 4.58608 7.02786 5.93392
#
# Compressibility (1/GPa) = 0.06926637
#
# Stress axis : x y z
#
# Youngs Moduli (GPa) = 24.92736 33.33258 83.87687
#
# Poissons Ratio (x) = -0.34581 0.90820
# Poissons Ratio (y) = -0.25861 0.49766
# Poissons Ratio (z) = 0.26991 0.19777
#
# Static dielectric constant tensor:
#      x y z
#    x 1.715170 -0.061670 -0.013760 
#    y -0.061670 1.704560 0.021710 
#    z -0.013760 0.021710 1.775790 
# 
# From -- ./inp_files/415672.got.cif
#   From: 2010.05.17/outbox.cif.g08.bks.cpg/sg2_208_cif.got.tgz:415672.got - 2010.06.03 11:33:40.
