data_PCOD9053563
_publ_section_title
;
Structure prediction by ZEFSAII (Michael W. Deem and Ramdas Pophale) SiO2 
 PCOD9053563
Probable space group: P -1
;
_chemical_formula_sum "Si O2"
_cell_formula_units_Z 16
_cell_length_a 14.855266
_cell_length_b 14.734123
_cell_length_c 7.463179
_cell_angle_alpha 57.173595
_cell_angle_beta 112.867667
_cell_angle_gamma 149.737134
_cell_volume 679.455376
_symmetry_space_group_name_H-M "P -1"
_symmetry_group_IT_number 2
_symmetry_cell_setting 'triclinic'
loop_
_space_group_symop_operation_xyz
x,y,z
-x,-y,-z
loop_
_atom_site_type_symbol
_atom_site_label
_atom_site_fract_x
_atom_site_fract_y
_atom_site_fract_z
Si Si1 0.503484 0.269939 0.037363
Si Si2 0.162436 0.910537 0.385423
Si Si3 0.777556 0.557284 0.469465
Si Si4 0.870722 0.278804 0.112855
Si Si5 0.472286 0.475282 0.790254
Si Si6 0.111355 0.316203 0.156603
Si Si7 0.216306 0.101602 0.547544
Si Si8 0.522812 0.861897 0.199531
O O1 0.415704 0.302778 0.872255
O O2 0.703865 0.495670 0.012274
O O3 0.530391 0.206512 0.973358
O O4 0.354796 0.085604 0.252349
O O5 0.147632 0.795636 0.629569
O O6 0.969310 0.730465 0.329177
O O7 0.166188 0.022612 0.388618
O O8 0.665537 0.557537 0.325063
O O9 0.824340 0.616438 0.655454
O O10 0.652832 0.332654 0.608633
O O11 0.981354 0.298717 0.051326
O O12 0.661755 0.090562 0.088071
O O13 0.000000 0.500000 0.000000
O O14 0.657750 0.676994 0.609779
O O15 0.500000 0.500000 0.000000
O O16 0.970265 0.084052 0.285967
O O17 0.346542 0.121499 0.678195
#
# Coordination Sequence:
#
# PCOD9053563 Si02
#       8
#     2   2   2   2   2   2   2   2
#     4  11  20  33  50  78 113 139 171 226 262 289
#     4   9  18  35  53  76 107 142 168 220 265 303
#     4   8  17  34  51  71 108 142 185 206 246 313
#     4   9  18  39  64  78  97 135 175 207 262 347
#     4  11  20  31  50  78 106 147 193 214 239 300
#     4   8  18  35  54  76 107 137 172 219 272 304
#     4   8  16  35  49  70 106 143 187 204 245 313
#     4   8  17  33  53  76 102 133 166 217 269 303
#
# _framework density 23.548271
#
# number of rings (size 3 to 8) (size 9 to 14) (size 15 to 20)
#    0.000    3.500    1.250    0.000    0.000    5.500 
#    4.500    6.875    0.000    0.750    0.000    0.000 
#    0.000    0.000    0.000    0.000    0.000    0.000 
#
# Total GULP energy -89170.998669 kJ/mol
# GULP energy per Si atom -5573.187417 kJ/mol
# Density = 2.349467 g / cm^3
# Si number density = 23.548271 Si / 1000 Ang^3
#
#
#
# Elastic Constant Matrix: (Units=GPa)
#
#
# Indices 1 2 3 4 5 6 
#
# 1 48.3687 21.6107 24.9753 -17.2778 -15.3947 6.9955
# 2 21.6107 111.9283 42.8803 -35.2826 -9.0703 17.1954
# 3 24.9753 42.8803 79.2015 -52.7006 -10.4047 8.0439
# 4 -17.2778 -35.2826 -52.7006 51.1931 7.2949 -3.7261
# 5 -15.3947 -9.0703 -10.4047 7.2949 21.7569 -19.4145
# 6 6.9955 17.1954 8.0439 -3.7261 -19.4145 48.9092
#
#
#
# Elastic Compliance Matrix: (Units=1/GPa)
#
#
# Indices 1 2 3 4 5 6 
#
# 1 0.032059 -0.003143 -0.006748 -0.001357 0.025386 0.007603
# 2 -0.003143 0.012533 -0.002060 0.005706 -0.004240 -0.004866
# 3 -0.006748 -0.002060 0.042899 0.040424 -0.001102 -0.002724
# 4 -0.001357 0.005706 0.040424 0.065107 -0.006508 -0.006084
# 5 0.025386 -0.004240 -0.001102 -0.006508 0.095422 0.035423
# 6 0.007603 -0.004866 -0.002724 -0.006084 0.035423 0.035115
#
#
# Mechanical properties :
#
#
# Convention : Reuss Voigt Hill
#
# Bulk Modulus (GPa) = 15.72609 46.49234 31.10921
# Shear Modulus (GPa) = 15.23306 34.37399 24.80352
#
# Velocity S-wave (km/s) = 2.54616 3.82478 3.24899
# Velocity P-wave (km/s) = 3.91620 6.26830 5.22629
#
# Compressibility (1/GPa) = 0.06358860
#
# Stress axis : x y z
#
# Youngs Moduli (GPa) = 31.19283 79.78793 23.31048
#
# Poissons Ratio (x) = 0.25080 0.15729
# Poissons Ratio (y) = 0.09805 0.04803
# Poissons Ratio (z) = 0.21048 0.16439
#
# Static dielectric constant tensor:
#      x y z
#    x 1.953770 0.026880 -0.004110 
#    y 0.026880 2.047680 0.015580 
#    z -0.004110 0.015580 1.948030 
# 
# From -- ./inp_files/314810.got.cif
#   From: 2010.05.17/outbox.cif.g08.bks.cpg/sg2_158_cif.got.tgz:314810.got - 2010.06.03 11:33:40.
