data_PCOD9053556
_publ_section_title
;
Structure prediction by ZEFSAII (Michael W. Deem and Ramdas Pophale) SiO2 
 PCOD9053556
Probable space group: P -1
;
_chemical_formula_sum "Si O2"
_cell_formula_units_Z 16
_cell_length_a 11.232179
_cell_length_b 13.212083
_cell_length_c 10.756188
_cell_angle_alpha 132.301593
_cell_angle_beta 137.856362
_cell_angle_gamma 42.049686
_cell_volume 690.223747
_symmetry_space_group_name_H-M "P -1"
_symmetry_group_IT_number 2
_symmetry_cell_setting 'triclinic'
loop_
_space_group_symop_operation_xyz
x,y,z
-x,-y,-z
loop_
_atom_site_type_symbol
_atom_site_label
_atom_site_fract_x
_atom_site_fract_y
_atom_site_fract_z
Si Si1 0.772482 0.977568 0.497334
Si Si2 0.397894 0.252399 0.215566
Si Si3 0.032081 0.727392 0.706266
Si Si4 0.812446 0.443966 0.557226
Si Si5 0.750599 0.689051 0.129129
Si Si6 0.346261 0.819470 0.034097
Si Si7 0.811772 0.124829 0.324871
Si Si8 0.675948 0.859267 0.702953
O O1 0.889025 0.867028 0.614621
O O2 0.732488 0.858384 0.283175
O O3 0.950105 0.004888 0.598543
O O4 0.549981 0.115509 0.476291
O O5 0.367888 0.397525 0.397692
O O6 0.634400 0.129049 0.274144
O O7 0.297957 0.171735 0.154541
O O8 0.300176 0.315106 0.057445
O O9 0.868825 0.724482 0.670026
O O10 0.162999 0.584126 0.595376
O O11 0.190680 0.769964 0.931166
O O12 0.803293 0.292753 0.477847
O O13 0.020425 0.433608 0.759601
O O14 0.580869 0.687437 0.087358
O O15 0.267540 0.862763 0.867005
O O16 0.333691 0.977361 0.205734
#
# Coordination Sequence:
#
# PCOD9053556 Si02
#       8
#     2   2   2   2   2   2   2   2
#     4   8  17  33  51  70  93 125 161 195 231 279
#     4  11  20  29  48  76 102 124 149 194 247 284
#     4   9  18  34  52  68  92 129 168 194 220 275
#     4   9  18  34  52  68  92 129 168 194 220 275
#     4   8  16  31  51  70  90 123 162 199 233 273
#     4   8  16  31  51  70  90 123 162 199 233 273
#     4   8  17  33  51  70  93 125 161 195 231 279
#     4  11  20  29  48  76 102 124 149 194 247 284
#
# _framework density 23.180889000000001
#
# number of rings (size 3 to 8) (size 9 to 14) (size 15 to 20)
#    0.000    3.500    0.000    1.500    0.000    5.500 
#    0.000    3.750    0.000    1.500    0.000    0.000 
#    0.000    0.000    0.000    0.000    0.000    0.000 
#
# Total GULP energy -89184.305169 kJ/mol
# GULP energy per Si atom -5574.019073 kJ/mol
# Density = 2.312813 g / cm^3
# Si number density = 23.180889 Si / 1000 Ang^3
#
#
#
# Elastic Constant Matrix: (Units=GPa)
#
#
# Indices 1 2 3 4 5 6 
#
# 1 121.3690 18.4515 17.7238 6.0433 8.2300 -38.4823
# 2 18.4515 27.1888 5.1136 -2.2089 6.2941 -2.0945
# 3 17.7238 5.1136 38.6387 -5.3381 7.5267 -9.4518
# 4 6.0433 -2.2089 -5.3381 17.9241 -6.9795 3.2386
# 5 8.2300 6.2941 7.5267 -6.9795 24.5772 1.3815
# 6 -38.4823 -2.0945 -9.4518 3.2386 1.3815 28.4511
#
#
#
# Elastic Compliance Matrix: (Units=1/GPa)
#
#
# Indices 1 2 3 4 5 6 
#
# 1 0.021396 -0.010902 -0.001402 -0.018727 -0.010967 0.030336
# 2 -0.010902 0.045238 -0.002106 0.009466 -0.003870 -0.013005
# 3 -0.001402 -0.002106 0.030916 0.005065 -0.007471 0.008006
# 4 -0.018727 0.009466 0.005065 0.081480 0.027320 -0.033551
# 5 -0.010967 -0.003870 -0.007471 0.027320 0.056717 -0.023464
# 6 0.030336 -0.013005 0.008006 -0.033551 -0.023464 0.082840
#
#
# Mechanical properties :
#
#
# Convention : Reuss Voigt Hill
#
# Bulk Modulus (GPa) = 14.54963 29.97493 22.26228
# Shear Modulus (GPa) = 13.50195 23.91767 18.70981
#
# Velocity S-wave (km/s) = 2.41604 3.21562 2.84407
# Velocity P-wave (km/s) = 3.75142 5.17165 4.51769
#
# Compressibility (1/GPa) = 0.06873029
#
# Stress axis : x y z
#
# Youngs Moduli (GPa) = 46.73740 22.10539 32.34583
#
# Poissons Ratio (x) = 0.24100 0.04534
# Poissons Ratio (y) = 0.50955 0.06811
# Poissons Ratio (z) = 0.06552 0.04654
#
# Static dielectric constant tensor:
#      x y z
#    x 1.969630 -0.029540 0.009100 
#    y -0.029540 1.897210 -0.010890 
#    z 0.009100 -0.010890 1.886370 
# 
# From -- ./inp_files/276263.got.cif
#   From: 2010.05.17/outbox.cif.g08.bks.cpg/sg2_139_cif.got.tgz:276263.got - 2010.06.03 11:33:40.
