data_PCOD9053606
_publ_section_title
;
Structure prediction by ZEFSAII (Michael W. Deem and Ramdas Pophale) SiO2 
 PCOD9053606
Probable space group: P -1
;
_chemical_formula_sum "Si O2"
_cell_formula_units_Z 14
_cell_length_a 8.579310
_cell_length_b 11.396403
_cell_length_c 17.238759
_cell_angle_alpha 40.626954
_cell_angle_beta 49.952136
_cell_angle_gamma 41.977579
_cell_volume 721.792408
_symmetry_space_group_name_H-M "P -1"
_symmetry_group_IT_number 2
_symmetry_cell_setting 'triclinic'
loop_
_space_group_symop_operation_xyz
x,y,z
-x,-y,-z
loop_
_atom_site_type_symbol
_atom_site_label
_atom_site_fract_x
_atom_site_fract_y
_atom_site_fract_z
Si Si1 0.652528 0.764873 0.489805
Si Si2 0.957278 0.109297 0.728709
Si Si3 0.733603 0.411434 0.520353
Si Si4 0.862104 0.886952 0.572279
Si Si5 0.265472 0.648976 0.899500
Si Si6 0.291031 0.552681 0.234772
Si Si7 0.722292 0.608576 0.837923
O O1 0.823483 0.859193 0.381348
O O2 0.723003 0.597998 0.480825
O O3 0.683072 0.631056 0.624321
O O4 0.381328 0.947063 0.475055
O O5 0.764245 0.236013 0.660602
O O6 0.851950 0.233061 0.780468
O O7 0.052206 0.865556 0.828479
O O8 0.500000 0.500000 0.500000
O O9 0.956202 0.296145 0.450393
O O10 0.790808 0.783347 0.715821
O O11 0.000000 0.000000 0.500000
O O12 0.442743 0.510210 0.843596
O O13 0.439140 0.702943 0.868298
O O14 0.202715 0.515493 0.043844
O O15 0.179835 0.544445 0.192075
#
# Coordination Sequence:
#
# PCOD9053606 Si02
#       7
#     2   2   2   2   2   2   2
#     4  11  20  35  56  88 114 142 190 233 284 337
#     4  11  20  33  62  84 113 149 184 234 289 326
#     4  11  23  37  53  88 119 142 186 235 281 343
#     4  12  22  36  58  80 113 157 178 231 292 328
#     4   9  19  35  54  84 115 145 186 237 271 331
#     4   9  18  32  54  85 114 141 177 239 286 320
#     4   9  19  37  53  84 117 139 193 235 269 333
#
# _framework density 19.396156999999999
#
# number of rings (size 3 to 8) (size 9 to 14) (size 15 to 20)
#    0.857    0.857    2.857    4.286    0.000    2.286 
#    0.000    0.000    0.000    4.286    0.000    0.000 
#    0.000    0.000    0.000    0.000    0.000    0.000 
#
# Total GULP energy -78108.928203 kJ/mol
# GULP energy per Si atom -5579.209157 kJ/mol
# Density = 1.935201 g / cm^3
# Si number density = 19.396157 Si / 1000 Ang^3
#
#
#
# Elastic Constant Matrix: (Units=GPa)
#
#
# Indices 1 2 3 4 5 6 
#
# 1 59.1751 17.8063 21.2508 2.0193 7.4873 -10.8039
# 2 17.8063 107.7784 27.2421 12.9829 6.1779 -14.2402
# 3 21.2508 27.2421 102.3746 8.6132 2.8896 3.9239
# 4 2.0193 12.9829 8.6132 21.3658 0.5373 9.1675
# 5 7.4873 6.1779 2.8896 0.5373 20.3670 -4.4169
# 6 -10.8039 -14.2402 3.9239 9.1675 -4.4169 19.9426
#
#
#
# Elastic Compliance Matrix: (Units=1/GPa)
#
#
# Indices 1 2 3 4 5 6 
#
# 1 0.021996 0.000754 -0.004641 -0.007373 -0.004021 0.015867
# 2 0.000754 0.014243 -0.003374 -0.015223 0.000251 0.018296
# 3 -0.004641 -0.003374 0.011858 0.001130 -0.000703 -0.007932
# 4 -0.007373 -0.015223 0.001130 0.079148 -0.006389 -0.052885
# 5 -0.004021 0.000251 -0.000703 -0.006389 0.053576 0.012942
# 6 0.015867 0.018296 -0.007932 -0.052885 0.012942 0.100543
#
#
# Mechanical properties :
#
#
# Convention : Reuss Voigt Hill
#
# Bulk Modulus (GPa) = 29.78395 44.65850 37.22123
# Shear Modulus (GPa) = 16.28252 25.87033 21.07643
#
# Velocity S-wave (km/s) = 2.90051 3.65607 3.29998
# Velocity P-wave (km/s) = 5.15812 6.39506 5.80960
#
# Compressibility (1/GPa) = 0.03357513
#
# Stress axis : x y z
#
# Youngs Moduli (GPa) = 45.46292 70.20823 84.33047
#
# Poissons Ratio (x) = -0.05294 0.39137
# Poissons Ratio (y) = -0.03428 0.28456
# Poissons Ratio (z) = 0.21099 0.23690
#
# Static dielectric constant tensor:
#      x y z
#    x 1.721370 0.002560 0.002510 
#    y 0.002560 1.687390 0.010640 
#    z 0.002510 0.010640 1.677900 
# 
# From -- ./inp_files/558337.got.cif
#   From: 2010.05.17/outbox.cif.g08.bks.cpg/sg2_280_cif.got.tgz:558337.got - 2010.06.03 11:33:40.
