data_PCOD9053589
_publ_section_title
;
Structure prediction by ZEFSAII (Michael W. Deem and Ramdas Pophale) SiO2 
 PCOD9053589
Probable space group: P -1
;
_chemical_formula_sum "Si O2"
_cell_formula_units_Z 12
_cell_length_a 9.030074
_cell_length_b 19.133643
_cell_length_c 7.894633
_cell_angle_alpha 154.212923
_cell_angle_beta 109.625118
_cell_angle_gamma 66.162693
_cell_volume 541.420929
_symmetry_space_group_name_H-M "P -1"
_symmetry_group_IT_number 2
_symmetry_cell_setting 'triclinic'
loop_
_space_group_symop_operation_xyz
x,y,z
-x,-y,-z
loop_
_atom_site_type_symbol
_atom_site_label
_atom_site_fract_x
_atom_site_fract_y
_atom_site_fract_z
Si Si1 0.672190 0.615658 0.235190
Si Si2 0.440236 0.080986 0.332716
Si Si3 0.877070 0.564005 0.745776
Si Si4 0.436678 0.228828 0.107491
Si Si5 0.231619 0.697447 0.627257
Si Si6 0.088024 0.213362 0.453871
O O1 0.565103 0.726997 0.286242
O O2 0.599306 0.666373 0.501071
O O3 0.836188 0.680410 0.422987
O O4 0.712155 0.428471 0.784106
O O5 0.251357 0.076026 0.263957
O O6 0.500000 0.000000 0.000000
O O7 0.545849 0.962621 0.252081
O O8 0.713749 0.692357 0.896419
O O9 0.821275 0.414493 0.491263
O O10 0.000000 0.500000 0.500000
O O11 0.951499 0.667434 0.138359
O O12 0.610166 0.242445 0.134281
O O13 0.067767 0.824881 0.775501
#
# Coordination Sequence:
#
# PCOD9053589 Si02
#       6
#     2   2   2   2   2   2
#     4   8  17  35  54  79 101 146 178 209 259 328
#     4   8  18  34  57  79 103 143 180 212 257 331
#     4  11  22  35  55  80 109 145 180 215 263 319
#     4  11  20  33  56  85 110 131 175 233 271 297
#     4  11  20  34  56  83 106 137 181 229 260 304
#     4   9  19  36  57  76 106 143 186 203 261 328
#
# _framework density 22.163900999999999
#
# number of rings (size 3 to 8) (size 9 to 14) (size 15 to 20)
#    1.000    1.333    0.000    5.000    0.000    1.333 
#    0.000    0.000    0.000    1.000    0.000    0.000 
#    0.000    0.000    0.000    0.000    0.000    0.000 
#
# Total GULP energy -66872.036186 kJ/mol
# GULP energy per Si atom -5572.669682 kJ/mol
# Density = 2.211345 g / cm^3
# Si number density = 22.163901 Si / 1000 Ang^3
#
#
#
# Elastic Constant Matrix: (Units=GPa)
#
#
# Indices 1 2 3 4 5 6 
#
# 1 103.8686 46.5173 27.5116 -23.7810 -10.8097 -9.1434
# 2 46.5173 128.2817 10.3380 6.4056 -11.0540 -14.1774
# 3 27.5116 10.3380 29.8165 -6.0496 -19.7950 -2.1386
# 4 -23.7810 6.4056 -6.0496 23.2594 -1.0995 -15.0670
# 5 -10.8097 -11.0540 -19.7950 -1.0995 30.2557 -1.3442
# 6 -9.1434 -14.1774 -2.1386 -15.0670 -1.3442 34.6624
#
#
#
# Elastic Compliance Matrix: (Units=1/GPa)
#
#
# Indices 1 2 3 4 5 6 
#
# 1 0.028930 -0.009100 -0.012049 0.043322 0.001683 0.022063
# 2 -0.009100 0.011351 0.002698 -0.013952 0.001995 -0.003578
# 3 -0.012049 0.002698 0.084110 0.020424 0.053076 0.014050
# 4 0.043322 -0.013952 0.020424 0.143771 0.032110 0.070721
# 5 0.001683 0.001995 0.053076 0.032110 0.071218 0.021254
# 6 0.022063 -0.003578 0.014050 0.070721 0.021254 0.065638
#
#
# Mechanical properties :
#
#
# Convention : Reuss Voigt Hill
#
# Bulk Modulus (GPa) = 11.43014 47.85562 29.64288
# Shear Modulus (GPa) = 10.61384 29.47548 20.04466
#
# Velocity S-wave (km/s) = 2.19071 3.65072 3.01056
# Velocity P-wave (km/s) = 3.40106 6.27765 5.04857
#
# Compressibility (1/GPa) = 0.08748799
#
# Stress axis : x y z
#
# Youngs Moduli (GPa) = 34.56587 88.10028 11.88922
#
# Poissons Ratio (x) = 0.80167 0.14326
# Poissons Ratio (y) = 0.31453 -0.03207
# Poissons Ratio (z) = 0.41650 -0.23766
#
# Static dielectric constant tensor:
#      x y z
#    x 1.830570 -0.016650 -0.005500 
#    y -0.016650 1.889500 0.037380 
#    z -0.005500 0.037380 1.829070 
# 
# From -- ./inp_files/164713.got.cif
#   From: 2010.05.17/outbox.cif.g08.bks.cpg/sg2_83_cif.got.tgz:164713.got - 2010.06.03 11:33:40.
