data_PCOD9053658
_publ_section_title
;
Structure prediction by ZEFSAII (Michael W. Deem and Ramdas Pophale) SiO2 
 PCOD9053658
Probable space group: P -1
;
_chemical_formula_sum "Si O2"
_cell_formula_units_Z 16
_cell_length_a 12.259481
_cell_length_b 8.810239
_cell_length_c 14.776203
_cell_angle_alpha 61.585301
_cell_angle_beta 73.178167
_cell_angle_gamma 126.164708
_cell_volume 675.342173
_symmetry_space_group_name_H-M "P -1"
_symmetry_group_IT_number 2
_symmetry_cell_setting 'triclinic'
loop_
_space_group_symop_operation_xyz
x,y,z
-x,-y,-z
loop_
_atom_site_type_symbol
_atom_site_label
_atom_site_fract_x
_atom_site_fract_y
_atom_site_fract_z
Si Si1 0.573973 0.819518 0.008623
Si Si2 0.687828 0.898686 0.493807
Si Si3 0.842779 0.932477 0.608837
Si Si4 0.037234 0.702946 0.360934
Si Si5 0.517952 0.745178 0.300401
Si Si6 0.928429 0.143932 0.174112
Si Si7 0.718617 0.496706 0.386855
Si Si8 0.667709 0.193313 0.020165
O O1 0.413331 0.461158 0.189219
O O2 0.393427 0.729954 0.050723
O O3 0.721536 0.982789 0.837675
O O4 0.735962 0.122518 0.958783
O O5 0.823841 0.071863 0.505746
O O6 0.580265 0.565598 0.616047
O O7 0.471578 0.742290 0.578445
O O8 0.839709 0.083809 0.313743
O O9 0.960676 0.129794 0.619629
O O10 0.000000 0.000000 0.500000
O O11 0.000000 0.500000 0.500000
O O12 0.862191 0.517649 0.373873
O O13 0.432339 0.668933 0.441751
O O14 0.787097 0.066631 0.156649
O O15 0.461684 0.828136 0.224635
O O16 0.185931 0.533853 0.011927
O O17 0.877448 0.876971 0.238840
#
# Coordination Sequence:
#
# PCOD9053658 Si02
#       8
#     2   2   2   2   2   2   2   2
#     4  11  26  39  60  91 132 167 206 269 311 380
#     4   9  18  35  61  90 120 164 212 255 304 383
#     4  12  24  43  72  95 124 171 218 255 321 386
#     4  12  27  43  65  94 132 166 212 265 328 370
#     4   9  16  33  59  91 120 157 207 261 305 368
#     4   9  18  31  61  92 120 157 207 258 309 374
#     4   9  19  39  61  87 125 165 208 253 320 375
#     4  11  20  35  60  91 128 157 214 255 319 365
#
# _framework density 23.691693000000001
#
# number of rings (size 3 to 8) (size 9 to 14) (size 15 to 20)
#    0.000    1.750    1.250    6.000    5.250    0.000 
#    0.000    1.250    5.500    0.000    0.000    0.000 
#    0.000    0.000    0.000    0.000    0.000    0.000 
#
# Total GULP energy -89143.959222 kJ/mol
# GULP energy per Si atom -5571.497451 kJ/mol
# Density = 2.363777 g / cm^3
# Si number density = 23.691693 Si / 1000 Ang^3
#
#
#
# Elastic Constant Matrix: (Units=GPa)
#
#
# Indices 1 2 3 4 5 6 
#
# 1 99.1220 2.2755 16.8228 -2.4876 13.2059 12.9590
# 2 2.2755 46.9247 5.1269 11.3224 -9.3264 8.4945
# 3 16.8228 5.1269 77.2141 15.0426 5.2230 -8.8044
# 4 -2.4876 11.3224 15.0426 20.7293 5.6703 4.3776
# 5 13.2059 -9.3264 5.2230 5.6703 34.0628 1.9832
# 6 12.9590 8.4945 -8.8044 4.3776 1.9832 30.8234
#
#
#
# Elastic Compliance Matrix: (Units=1/GPa)
#
#
# Indices 1 2 3 4 5 6 
#
# 1 0.012975 -0.002308 -0.004954 0.009598 -0.006081 -0.007206
# 2 -0.002308 0.029295 0.000925 -0.019271 0.012267 -0.004891
# 3 -0.004954 0.000925 0.018169 -0.016689 0.001626 0.009283
# 4 0.009598 -0.019271 -0.016689 0.080103 -0.018978 -0.013647
# 5 -0.006081 0.012267 0.001626 -0.018978 0.037990 -0.000109
# 6 -0.007206 -0.004891 0.009283 -0.013647 -0.000109 0.041417
#
#
# Mechanical properties :
#
#
# Convention : Reuss Voigt Hill
#
# Bulk Modulus (GPa) = 20.93587 30.19015 25.56301
# Shear Modulus (GPa) = 20.11702 30.39215 25.25459
#
# Velocity S-wave (km/s) = 2.91712 3.58553 3.26846
# Velocity P-wave (km/s) = 4.49468 5.46918 5.00570
#
# Compressibility (1/GPa) = 0.04776492
#
# Stress axis : x y z
#
# Youngs Moduli (GPa) = 77.06844 34.13546 55.03921
#
# Poissons Ratio (x) = 0.07878 0.27266
# Poissons Ratio (y) = 0.17787 -0.05089
# Poissons Ratio (z) = 0.38179 -0.03156
#
# Static dielectric constant tensor:
#      x y z
#    x 1.963110 0.065040 -0.044180 
#    y 0.065040 1.977600 -0.034930 
#    z -0.044180 -0.034930 1.910040 
# 
# From -- ./inp_files/224343.got.cif
#   From: 2010.05.17/outbox.cif.g08.bks.cpg/sg2_113_cif.got.tgz:224343.got - 2010.06.03 11:33:40.
