data_PCOD9053374
_publ_section_title
;
Structure prediction by ZEFSAII (Michael W. Deem and Ramdas Pophale) SiO2 
 PCOD9053374
Probable space group: P -1
;
_chemical_formula_sum "Si O2"
_cell_formula_units_Z 16
_cell_length_a 12.141507
_cell_length_b 14.945354
_cell_length_c 8.642542
_cell_angle_alpha 69.931064
_cell_angle_beta 109.742382
_cell_angle_gamma 50.163391
_cell_volume 717.415962
_symmetry_space_group_name_H-M "P -1"
_symmetry_group_IT_number 2
_symmetry_cell_setting 'triclinic'
loop_
_space_group_symop_operation_xyz
x,y,z
-x,-y,-z
loop_
_atom_site_type_symbol
_atom_site_label
_atom_site_fract_x
_atom_site_fract_y
_atom_site_fract_z
Si Si1 0.857750 0.696160 0.307309
Si Si2 0.340066 0.455934 0.985632
Si Si3 0.980736 0.805891 0.395569
Si Si4 0.726137 0.004810 0.663647
Si Si5 0.017235 0.625207 0.004011
Si Si6 0.510735 0.140712 0.147656
Si Si7 0.846145 0.121616 0.510527
Si Si8 0.724565 0.720994 0.553511
O O1 0.748517 0.768931 0.385730
O O2 0.000000 0.500000 0.500000
O O3 0.975709 0.716340 0.338816
O O4 0.664058 0.815600 0.018545
O O5 0.157542 0.651850 0.705423
O O6 0.228093 0.498681 0.065902
O O7 0.381116 0.332441 0.976400
O O8 0.589612 0.321523 0.214644
O O9 0.062462 0.853850 0.360287
O O10 0.728349 0.995187 0.228488
O O11 0.915873 0.794756 0.909967
O O12 0.603034 0.061114 0.410708
O O13 0.827474 0.037483 0.650438
O O14 0.529368 0.136292 0.619380
O O15 0.829984 0.703350 0.761197
O O16 0.112991 0.484799 0.257359
O O17 0.000000 0.000000 0.500000
#
# Coordination Sequence:
#
# PCOD9053374 Si02
#       8
#     2   2   2   2   2   2   2   2
#     4  12  25  43  64  94 134 172 212 261 325 390
#     4  11  19  38  61  96 128 161 212 265 316 378
#     4  12  22  39  61  95 129 170 209 263 325 371
#     4  11  22  40  65  98 126 163 216 265 328 371
#     4  11  20  37  62  93 131 163 204 268 323 373
#     4  11  21  39  62  91 131 164 211 260 319 385
#     4  11  21  37  64  95 134 163 213 268 319 377
#     4  11  23  39  61  94 134 162 211 265 321 386
#
# _framework density 22.302265999999999
#
# number of rings (size 3 to 8) (size 9 to 14) (size 15 to 20)
#    0.000    0.750    8.750    1.125    1.750    0.000 
#    2.250    0.000    0.000    1.500    0.000    0.000 
#    0.000    0.000    0.000    0.000    0.000    0.000 
#
# Total GULP energy -89497.871080 kJ/mol
# GULP energy per Si atom -5593.616942 kJ/mol
# Density = 2.225150 g / cm^3
# Si number density = 22.302266 Si / 1000 Ang^3
#
#
#
# Elastic Constant Matrix: (Units=GPa)
#
#
# Indices 1 2 3 4 5 6 
#
# 1 156.0890 54.3404 49.4668 -2.2171 17.6965 23.2880
# 2 54.3404 71.2452 34.7646 -19.8231 4.3090 17.6708
# 3 49.4668 34.7646 50.8926 -20.5689 1.9901 16.2347
# 4 -2.2171 -19.8231 -20.5689 42.3722 0.4349 4.5714
# 5 17.6965 4.3090 1.9901 0.4349 44.3674 -2.7355
# 6 23.2880 17.6708 16.2347 4.5714 -2.7355 41.9956
#
#
#
# Elastic Compliance Matrix: (Units=1/GPa)
#
#
# Indices 1 2 3 4 5 6 
#
# 1 0.012107 -0.005972 -0.010674 -0.007357 -0.003668 0.000487
# 2 -0.005972 0.025688 -0.005869 0.009538 -0.000331 -0.006288
# 3 -0.010674 -0.005869 0.045692 0.020080 0.001882 -0.011338
# 4 -0.007357 0.009538 0.020080 0.038710 -0.000007 -0.011911
# 5 -0.003668 -0.000331 0.001882 -0.000007 0.024136 0.003019
# 6 0.000487 -0.006288 -0.011338 -0.011911 0.003019 0.032064
#
#
# Mechanical properties :
#
#
# Convention : Reuss Voigt Hill
#
# Bulk Modulus (GPa) = 26.00245 61.70783 43.85514
# Shear Modulus (GPa) = 21.16431 35.05737 28.11084
#
# Velocity S-wave (km/s) = 3.08389 3.96905 3.55413
# Velocity P-wave (km/s) = 4.93608 6.98093 6.04559
#
# Compressibility (1/GPa) = 0.03845791
#
# Stress axis : x y z
#
# Youngs Moduli (GPa) = 82.59722 38.92805 21.88566
#
# Poissons Ratio (x) = 0.23247 0.23360
# Poissons Ratio (y) = 0.49326 0.12845
# Poissons Ratio (z) = 0.88161 0.22848
#
# Static dielectric constant tensor:
#      x y z
#    x 1.822350 0.011650 -0.005620 
#    y 0.011650 1.882850 -0.012820 
#    z -0.005620 -0.012820 1.817130 
# 
# From -- ./inp_files/272589.got.cif
#   From: 2010.05.17/outbox.cif.g08.bks.cpg/sg2_137_cif.got.tgz:272589.got - 2010.06.03 11:33:40.
