data_PCOD9053627
_publ_section_title
;
Structure prediction by ZEFSAII (Michael W. Deem and Ramdas Pophale) SiO2 
 PCOD9053627
Probable space group: P -1
;
_chemical_formula_sum "Si O2"
_cell_formula_units_Z 16
_cell_length_a 20.389919
_cell_length_b 13.936705
_cell_length_c 7.999359
_cell_angle_alpha 44.115187
_cell_angle_beta 43.457604
_cell_angle_gamma 31.048425
_cell_volume 776.282829
_symmetry_space_group_name_H-M "P -1"
_symmetry_group_IT_number 2
_symmetry_cell_setting 'triclinic'
loop_
_space_group_symop_operation_xyz
x,y,z
-x,-y,-z
loop_
_atom_site_type_symbol
_atom_site_label
_atom_site_fract_x
_atom_site_fract_y
_atom_site_fract_z
Si Si1 0.863167 0.054446 0.339481
Si Si2 0.404233 0.481606 0.268985
Si Si3 0.588724 0.053979 0.568886
Si Si4 0.133106 0.083209 0.857966
Si Si5 0.130514 0.791296 0.373506
Si Si6 0.592514 0.321597 0.678073
Si Si7 0.153194 0.630577 0.899524
Si Si8 0.557490 0.774177 0.021889
O O1 0.872440 0.989179 0.218667
O O2 0.731371 0.133250 0.576444
O O3 0.845567 0.237021 0.148673
O O4 0.996646 0.888680 0.403243
O O5 0.481617 0.262926 0.421198
O O6 0.267636 0.603416 0.269930
O O7 0.371707 0.596882 0.356785
O O8 0.500000 0.500000 0.000000
O O9 0.734501 0.957935 0.356314
O O10 0.548334 0.113762 0.766316
O O11 0.568276 0.914071 0.748622
O O12 0.142690 0.947096 0.145493
O O13 0.988707 0.300441 0.884813
O O14 0.133384 0.712625 0.646154
O O15 0.500000 0.500000 0.500000
O O16 0.501460 0.279457 0.930620
O O17 0.294420 0.411919 0.943993
#
# Coordination Sequence:
#
# PCOD9053627 Si02
#       8
#     2   2   2   2   2   2   2   2
#     4  11  20  34  58  91 122 152 199 254 303 348
#     4  12  23  37  65  91 122 155 205 254 301 358
#     4  11  22  40  61  92 117 166 203 251 304 358
#     4  11  22  35  61  89 123 153 207 250 300 362
#     4  11  21  34  56  92 121 153 193 257 306 353
#     4  12  20  38  62  91 118 160 209 249 297 359
#     4  11  21  36  59  90 120 161 194 254 306 357
#     4  11  23  39  64  85 126 160 209 247 303 365
#
# _framework density 20.611045000000001
#
# number of rings (size 3 to 8) (size 9 to 14) (size 15 to 20)
#    0.000    0.750    7.500    3.000    0.000    1.500 
#    0.000    0.625    0.000    3.000    0.000    0.000 
#    0.000    1.000    0.000    0.000    0.000    0.000 
#
# Total GULP energy -89172.735892 kJ/mol
# GULP energy per Si atom -5573.295993 kJ/mol
# Density = 2.056413 g / cm^3
# Si number density = 20.611045 Si / 1000 Ang^3
#
#
#
# Elastic Constant Matrix: (Units=GPa)
#
#
# Indices 1 2 3 4 5 6 
#
# 1 52.5545 45.9101 28.3763 -7.2824 -12.1854 -19.4355
# 2 45.9101 131.7446 72.3444 14.4440 -23.7669 -35.1241
# 3 28.3763 72.3444 95.6591 -6.3716 -19.9177 -19.5364
# 4 -7.2824 14.4440 -6.3716 41.5623 3.2211 -9.0532
# 5 -12.1854 -23.7669 -19.9177 3.2211 31.4262 9.8801
# 6 -19.4355 -35.1241 -19.5364 -9.0532 9.8801 31.2111
#
#
#
# Elastic Compliance Matrix: (Units=1/GPa)
#
#
# Indices 1 2 3 4 5 6 
#
# 1 0.034475 -0.010308 0.001502 0.012922 0.000692 0.014337
# 2 -0.010308 0.020622 -0.011246 -0.009723 0.003653 0.005773
# 3 0.001502 -0.011246 0.020122 0.007407 0.003465 0.001926
# 4 0.012922 -0.009723 0.007407 0.034159 -0.005344 0.013342
# 5 0.000692 0.003653 0.003465 -0.005344 0.039949 -0.007485
# 6 0.014337 0.005773 0.001926 0.013342 -0.007485 0.054909
#
#
# Mechanical properties :
#
#
# Convention : Reuss Voigt Hill
#
# Bulk Modulus (GPa) = 28.47894 63.69109 46.08501
# Shear Modulus (GPa) = 19.52786 29.72842 24.62814
#
# Velocity S-wave (km/s) = 3.08140 3.80195 3.46048
# Velocity P-wave (km/s) = 5.14853 7.08813 6.19472
#
# Compressibility (1/GPa) = 0.03511367
#
# Stress axis : x y z
#
# Youngs Moduli (GPa) = 29.00677 48.49156 49.69766
#
# Poissons Ratio (x) = 0.49985 -0.07464
# Poissons Ratio (y) = 0.29900 0.55891
# Poissons Ratio (z) = -0.04356 0.54535
#
# Static dielectric constant tensor:
#      x y z
#    x 1.578580 -0.118050 -0.150880 
#    y -0.118050 1.684910 -0.037400 
#    z -0.150880 -0.037400 1.639470 
# 
# From -- ./inp_files/347115.got.cif
#   From: 2010.05.17/outbox.cif.g08.bks.cpg/sg2_174_cif.got.tgz:347115.got - 2010.06.03 11:33:40.
