data_PCOD9053780
_publ_section_title
;
Structure prediction by ZEFSAII (Michael W. Deem and Ramdas Pophale) SiO2 
 PCOD9053780
Probable space group: P -1
;
_chemical_formula_sum "Si O2"
_cell_formula_units_Z 14
_cell_length_a 18.030113
_cell_length_b 10.599151
_cell_length_c 8.798926
_cell_angle_alpha 133.618325
_cell_angle_beta 146.912459
_cell_angle_gamma 44.721069
_cell_volume 626.069794
_symmetry_space_group_name_H-M "P -1"
_symmetry_group_IT_number 2
_symmetry_cell_setting 'triclinic'
loop_
_space_group_symop_operation_xyz
x,y,z
-x,-y,-z
loop_
_atom_site_type_symbol
_atom_site_label
_atom_site_fract_x
_atom_site_fract_y
_atom_site_fract_z
Si Si1 0.202163 0.404755 0.279202
Si Si2 0.498039 0.194734 0.731801
Si Si3 0.199032 0.795120 0.684384
Si Si4 0.131212 0.383200 0.786471
Si Si5 0.379627 0.156053 0.823233
Si Si6 0.949341 0.974284 0.635027
Si Si7 0.905051 0.776163 0.774745
O O1 0.372050 0.341527 0.545830
O O2 0.152221 0.618076 0.420669
O O3 0.142091 0.286116 0.194270
O O4 0.168956 0.378064 0.026461
O O5 0.457048 0.203792 0.848030
O O6 0.500000 0.000000 0.500000
O O7 0.645417 0.236124 0.005903
O O8 0.085240 0.918129 0.709250
O O9 0.186736 0.906085 0.598243
O O10 0.281565 0.328254 0.902986
O O11 0.072856 0.214066 0.515029
O O12 0.004061 0.578941 0.712250
O O13 0.245860 0.110707 0.473214
O O14 0.500000 0.000000 0.000000
O O15 0.990013 0.105718 0.931345
#
# Coordination Sequence:
#
# PCOD9053780 Si02
#       7
#     2   2   2   2   2   2   2
#     4  11  21  39  68  97 130 171 216 269 321 380
#     4  11  23  42  66  94 129 173 222 265 318 390
#     4  11  20  37  62 102 130 164 220 267 319 383
#     4  12  23  43  68  98 137 168 213 273 326 386
#     4  11  25  44  67  93 134 177 213 269 331 382
#     4  11  22  36  69  98 128 168 214 269 327 380
#     4  11  23  43  67 100 130 170 222 267 320 390
#
# _framework density 22.361723999999999
#
# number of rings (size 3 to 8) (size 9 to 14) (size 15 to 20)
#    0.000    0.857    2.857    7.286    0.000    0.571 
#    0.000    0.714    3.143    0.000    0.000    0.000 
#    0.000    0.000    0.000    0.000    0.000    0.000 
#
# Total GULP energy -78191.517961 kJ/mol
# GULP energy per Si atom -5585.108426 kJ/mol
# Density = 2.231083 g / cm^3
# Si number density = 22.361724 Si / 1000 Ang^3
#
#
#
# Elastic Constant Matrix: (Units=GPa)
#
#
# Indices 1 2 3 4 5 6 
#
# 1 78.2787 6.4647 28.1406 -0.3060 -3.4039 -7.9826
# 2 6.4647 101.2786 41.9412 -6.2715 7.5262 4.9594
# 3 28.1406 41.9412 107.4765 -5.4203 12.3987 5.4540
# 4 -0.3060 -6.2715 -5.4203 63.3911 -5.8902 1.4193
# 5 -3.4039 7.5262 12.3987 -5.8902 27.8738 -6.4021
# 6 -7.9826 4.9594 5.4540 1.4193 -6.4021 39.7186
#
#
#
# Elastic Compliance Matrix: (Units=1/GPa)
#
#
# Indices 1 2 3 4 5 6 
#
# 1 0.015193 0.000505 -0.004972 0.000060 0.004971 0.004472
# 2 0.000505 0.011909 -0.004555 0.000701 -0.001204 -0.000979
# 3 -0.004972 -0.004555 0.013245 0.000175 -0.005971 -0.003218
# 4 0.000060 0.000701 0.000175 0.016153 0.003113 -0.000175
# 5 0.004971 -0.001204 -0.005971 0.003113 0.042108 0.008645
# 6 0.004472 -0.000979 -0.003218 -0.000175 0.008645 0.028040
#
#
# Mechanical properties :
#
#
# Convention : Reuss Voigt Hill
#
# Bulk Modulus (GPa) = 44.84159 48.90297 46.87228
# Shear Modulus (GPa) = 32.86723 40.22918 36.54821
#
# Velocity S-wave (km/s) = 3.83795 4.24609 4.04717
# Velocity P-wave (km/s) = 6.30367 6.77905 6.54568
#
# Compressibility (1/GPa) = 0.02230073
#
# Stress axis : x y z
#
# Youngs Moduli (GPa) = 65.81906 83.97098 75.50072
#
# Poissons Ratio (x) = -0.04238 0.37542
# Poissons Ratio (y) = -0.03322 0.34394
# Poissons Ratio (z) = 0.32728 0.38252
#
# Static dielectric constant tensor:
#      x y z
#    x 1.898920 -0.003700 -0.064490 
#    y -0.003700 1.868890 -0.006270 
#    z -0.064490 -0.006270 1.853210 
# 
# From -- ./inp_files/345773.got.cif
#   From: 2010.05.17/outbox.cif.g08.bks.cpg/sg2_173_cif.got.tgz:345773.got - 2010.06.03 11:33:40.
