data_PCOD9053383
_publ_section_title
;
Structure prediction by ZEFSAII (Michael W. Deem and Ramdas Pophale) SiO2 
 PCOD9053383
Probable space group: P -1
;
_chemical_formula_sum "Si O2"
_cell_formula_units_Z 14
_cell_length_a 7.046426
_cell_length_b 30.860899
_cell_length_c 8.198441
_cell_angle_alpha 144.337127
_cell_angle_beta 142.662656
_cell_angle_gamma 34.663877
_cell_volume 546.228794
_symmetry_space_group_name_H-M "P -1"
_symmetry_group_IT_number 2
_symmetry_cell_setting 'triclinic'
loop_
_space_group_symop_operation_xyz
x,y,z
-x,-y,-z
loop_
_atom_site_type_symbol
_atom_site_label
_atom_site_fract_x
_atom_site_fract_y
_atom_site_fract_z
Si Si1 0.540843 0.396098 0.623173
Si Si2 0.020119 0.291311 0.189846
Si Si3 0.260124 0.561356 0.770895
Si Si4 0.240652 0.043801 0.306362
Si Si5 0.339680 0.805622 0.451834
Si Si6 0.338812 0.125685 0.346568
Si Si7 0.461378 0.770007 0.960692
O O1 0.556163 0.463873 0.717644
O O2 0.610216 0.310129 0.318790
O O3 0.118525 0.436670 0.508854
O O4 0.746647 0.390436 0.915402
O O5 0.293915 0.273345 0.468840
O O6 0.294396 0.253729 0.107483
O O7 0.726271 0.385418 0.211527
O O8 0.841083 0.232237 0.906669
O O9 0.460466 0.045784 0.305347
O O10 0.956537 0.143377 0.456439
O O11 0.500000 0.000000 0.500000
O O12 0.000000 0.000000 0.000000
O O13 0.425946 0.875476 0.647906
O O14 0.937974 0.150557 0.095714
O O15 0.348221 0.202722 0.689430
#
# Coordination Sequence:
#
# PCOD9053383 Si02
#       7
#     2   2   2   2   2   2   2
#     4   9  17  29  52  90 126 164 216 264 305 357
#     4  11  19  38  64  90 127 171 213 258 310 365
#     4   9  17  29  52  90 126 164 216 264 305 357
#     4  12  26  46  70  94 125 160 203 254 320 382
#     4  12  25  42  66  97 127 163 208 258 312 375
#     4  12  25  42  66  97 127 163 208 258 312 375
#     4  11  19  38  64  90 127 171 213 258 310 365
#
# _framework density 25.630285000000001
#
# number of rings (size 3 to 8) (size 9 to 14) (size 15 to 20)
#    0.000    1.143    2.857    6.000    0.000    1.143 
#    0.000    0.000    0.000    5.143    0.000    0.000 
#    0.000    0.000    0.000    0.000    0.000    0.000 
#
# Total GULP energy -78260.551991 kJ/mol
# GULP energy per Si atom -5590.039428 kJ/mol
# Density = 2.557195 g / cm^3
# Si number density = 25.630285 Si / 1000 Ang^3
#
#
#
# Elastic Constant Matrix: (Units=GPa)
#
#
# Indices 1 2 3 4 5 6 
#
# 1 76.9097 13.0416 7.9411 2.6103 8.2466 19.4354
# 2 13.0416 115.7661 33.7709 -6.8309 9.0220 26.1513
# 3 7.9411 33.7709 140.9479 -10.8633 10.5675 0.2413
# 4 2.6103 -6.8309 -10.8633 49.8909 2.9884 5.0422
# 5 8.2466 9.0220 10.5675 2.9884 32.2199 6.0357
# 6 19.4354 26.1513 0.2413 5.0422 6.0357 23.5106
#
#
#
# Elastic Compliance Matrix: (Units=1/GPa)
#
#
# Indices 1 2 3 4 5 6 
#
# 1 0.017044 0.002366 -0.001310 0.000909 -0.001590 -0.016494
# 2 0.002366 0.013368 -0.003063 0.002810 -0.000363 -0.017303
# 3 -0.001310 -0.003063 0.008165 0.001090 -0.002487 0.004810
# 4 0.000909 0.002810 0.001090 0.021542 -0.001871 -0.008028
# 5 -0.001590 -0.000363 -0.002487 -0.001871 0.033756 -0.006521
# 6 -0.016494 -0.017303 0.004810 -0.008028 -0.006521 0.078762
#
#
# Mechanical properties :
#
#
# Convention : Reuss Voigt Hill
#
# Bulk Modulus (GPa) = 28.93254 49.23673 39.08464
# Shear Modulus (GPa) = 26.57157 39.71561 33.14359
#
# Velocity S-wave (km/s) = 3.22332 3.94071 3.59993
# Velocity P-wave (km/s) = 5.01657 6.32121 5.70630
#
# Compressibility (1/GPa) = 0.03456316
#
# Stress axis : x y z
#
# Youngs Moduli (GPa) = 58.67110 74.80629 122.47897
#
# Poissons Ratio (x) = -0.17696 0.16039
# Poissons Ratio (y) = -0.13879 0.37512
# Poissons Ratio (z) = 0.07683 0.22911
#
# Static dielectric constant tensor:
#      x y z
#    x 2.049870 0.031110 -0.044090 
#    y 0.031110 2.093550 0.048200 
#    z -0.044090 0.048200 1.921550 
# 
# From -- ./inp_files/138990.got.cif
#   From: 2010.05.17/outbox.cif.g08.bks.cpg/sg2_70_cif.got.tgz:138990.got - 2010.06.03 11:33:40.
