data_PCOD9053471
_publ_section_title
;
Structure prediction by ZEFSAII (Michael W. Deem and Ramdas Pophale) SiO2 
 PCOD9053471
Probable space group: P -1
;
_chemical_formula_sum "Si O2"
_cell_formula_units_Z 16
_cell_length_a 7.294517
_cell_length_b 15.443340
_cell_length_c 12.082288
_cell_angle_alpha 153.630151
_cell_angle_beta 70.246271
_cell_angle_gamma 103.708919
_cell_volume 561.874562
_symmetry_space_group_name_H-M "P -1"
_symmetry_group_IT_number 2
_symmetry_cell_setting 'triclinic'
loop_
_space_group_symop_operation_xyz
x,y,z
-x,-y,-z
loop_
_atom_site_type_symbol
_atom_site_label
_atom_site_fract_x
_atom_site_fract_y
_atom_site_fract_z
Si Si1 0.153185 0.314314 0.046882
Si Si2 0.317473 0.649261 0.160315
Si Si3 0.855867 0.365257 0.435863
Si Si4 0.592532 0.277728 0.197167
Si Si5 0.620639 0.902171 0.689572
Si Si6 0.751407 0.474446 0.203172
Si Si7 0.941825 0.093718 0.311438
Si Si8 0.766775 0.954439 0.481534
O O1 0.216445 0.225464 0.813105
O O2 0.134163 0.115229 0.892020
O O3 0.264708 0.460798 0.262487
O O4 0.948278 0.456983 0.217712
O O5 0.180328 0.741730 0.394303
O O6 0.355182 0.850581 0.324008
O O7 0.500000 0.500000 0.000000
O O8 0.216708 0.553826 0.966876
O O9 0.755218 0.259683 0.238538
O O10 0.930004 0.188695 0.302275
O O11 0.000000 0.500000 0.500000
O O12 0.500000 0.500000 0.500000
O O13 0.666017 0.298747 0.079974
O O14 0.484300 0.087446 0.986761
O O15 0.609232 0.683704 0.483301
O O16 0.645884 0.902512 0.553407
O O17 0.837827 0.930740 0.716906
O O18 0.000000 0.000000 0.500000
#
# Coordination Sequence:
#
# PCOD9053471 Si02
#       8
#     2   2   2   2   2   2   2   2
#     4  11  21  41  68 107 133 173 234 292 335 408
#     4  11  24  42  68 104 148 180 223 291 364 418
#     4  12  25  43  69 102 140 179 242 292 333 423
#     4  12  28  49  67  94 147 192 223 294 361 426
#     4  12  22  42  74 101 128 185 237 291 346 420
#     4  12  23  44  70 102 136 179 242 282 352 424
#     4  11  22  40  71 103 134 182 224 291 355 399
#     4  11  19  40  71 100 140 176 227 286 351 420
#
# _framework density 28.476106000000001
#
# number of rings (size 3 to 8) (size 9 to 14) (size 15 to 20)
#    0.000    0.500    8.750    0.000    3.500    4.500 
#    4.500    0.625    0.000    0.000    0.000    0.000 
#    0.000    0.000    0.000    0.000    0.000    0.000 
#
# Total GULP energy -89530.683144 kJ/mol
# GULP energy per Si atom -5595.667696 kJ/mol
# Density = 2.841129 g / cm^3
# Si number density = 28.476106 Si / 1000 Ang^3
#
#
#
# Elastic Constant Matrix: (Units=GPa)
#
#
# Indices 1 2 3 4 5 6 
#
# 1 90.6208 38.9286 24.1479 1.2384 6.4611 -20.0462
# 2 38.9286 240.0382 55.4881 17.4227 5.8565 -26.4245
# 3 24.1479 55.4881 205.0972 -1.9737 22.3095 -8.2613
# 4 1.2384 17.4227 -1.9737 53.3354 -3.0817 6.0805
# 5 6.4611 5.8565 22.3095 -3.0817 32.8278 11.9957
# 6 -20.0462 -26.4245 -8.2613 6.0805 11.9957 41.4174
#
#
#
# Elastic Compliance Matrix: (Units=1/GPa)
#
#
# Indices 1 2 3 4 5 6 
#
# 1 0.013640 -0.001081 -0.000484 -0.001115 -0.004980 0.007422
# 2 -0.001081 0.005121 -0.000992 -0.002140 -0.001423 0.003273
# 3 -0.000484 -0.000992 0.005709 0.000144 -0.004122 0.001444
# 4 -0.001115 -0.002140 0.000144 0.020463 0.004706 -0.006244
# 5 -0.004980 -0.001423 -0.004122 0.004706 0.041049 -0.016720
# 6 0.007422 0.003273 0.001444 -0.006244 -0.016720 0.035872
#
#
# Mechanical properties :
#
#
# Convention : Reuss Voigt Hill
#
# Bulk Modulus (GPa) = 51.66086 85.87615 68.76851
# Shear Modulus (GPa) = 37.47563 53.32889 45.40226
#
# Velocity S-wave (km/s) = 3.63166 4.33223 3.99732
# Velocity P-wave (km/s) = 5.98051 7.43284 6.74587
#
# Compressibility (1/GPa) = 0.01935701
#
# Stress axis : x y z
#
# Youngs Moduli (GPa) = 73.31213 195.27735 175.16110
#
# Poissons Ratio (x) = 0.21106 0.08472
# Poissons Ratio (y) = 0.07924 0.17379
# Poissons Ratio (z) = 0.03546 0.19374
#
# Static dielectric constant tensor:
#      x y z
#    x 2.354840 0.040840 -0.187940 
#    y 0.040840 2.216010 -0.009520 
#    z -0.187940 -0.009520 2.429740 
# 
# From -- ./inp_files/399996.got.cif
#   From: 2010.05.17/outbox.cif.g08.bks.cpg/sg2_200_cif.got.tgz:399996.got - 2010.06.03 11:33:40.
