data_PCOD9053777
_publ_section_title
;
Structure prediction by ZEFSAII (Michael W. Deem and Ramdas Pophale) SiO2 
 PCOD9053777
Probable space group: P -1
;
_chemical_formula_sum "Si O2"
_cell_formula_units_Z 14
_cell_length_a 11.829559
_cell_length_b 11.528215
_cell_length_c 12.260490
_cell_angle_alpha 47.030669
_cell_angle_beta 67.679176
_cell_angle_gamma 38.531794
_cell_volume 717.683852
_symmetry_space_group_name_H-M "P -1"
_symmetry_group_IT_number 2
_symmetry_cell_setting 'triclinic'
loop_
_space_group_symop_operation_xyz
x,y,z
-x,-y,-z
loop_
_atom_site_type_symbol
_atom_site_label
_atom_site_fract_x
_atom_site_fract_y
_atom_site_fract_z
Si Si1 0.584095 0.742758 0.138623
Si Si2 0.906613 0.099806 0.352352
Si Si3 0.908768 0.408521 0.424202
Si Si4 0.369106 0.293411 0.483607
Si Si5 0.507196 0.486950 0.639316
Si Si6 0.105808 0.558612 0.960336
Si Si7 0.252553 0.285780 0.298797
O O1 0.743957 0.559666 0.293528
O O2 0.430705 0.756046 0.202409
O O3 0.695635 0.626079 0.059461
O O4 0.500000 0.000000 0.000000
O O5 0.683475 0.313735 0.338003
O O6 0.979179 0.186408 0.209333
O O7 0.000000 0.000000 0.500000
O O8 0.989725 0.861724 0.414870
O O9 0.802907 0.590791 0.449598
O O10 0.080692 0.342245 0.359323
O O11 0.384147 0.464021 0.396811
O O12 0.325583 0.304907 0.366168
O O13 0.567993 0.001491 0.625030
O O14 0.500000 0.500000 0.500000
O O15 0.161759 0.487703 0.110611
O O16 0.000000 0.500000 0.000000
#
# Coordination Sequence:
#
# PCOD9053777 Si02
#       7
#     2   2   2   2   2   2   2
#     4  11  23  36  61  97 124 158 209 269 316 364
#     4  11  20  37  61  94 125 167 211 258 320 371
#     4  12  21  42  66  91 128 164 217 257 311 387
#     4  11  24  41  69  94 127 173 212 255 315 384
#     4  11  21  38  63  92 127 161 211 262 306 378
#     4  11  22  37  62  91 126 162 211 263 311 369
#     4  11  24  44  66  93 131 169 213 257 317 375
#
# _framework density 19.507197000000001
#
# number of rings (size 3 to 8) (size 9 to 14) (size 15 to 20)
#    0.000    0.857    7.143    1.286    0.000    1.143 
#    0.000    3.571    3.143    0.000    0.000    0.000 
#    0.000    0.000    0.000    0.000    0.000    0.000 
#
# Total GULP energy -77965.221335 kJ/mol
# GULP energy per Si atom -5568.944381 kJ/mol
# Density = 1.946280 g / cm^3
# Si number density = 19.507197 Si / 1000 Ang^3
#
#
#
# Elastic Constant Matrix: (Units=GPa)
#
#
# Indices 1 2 3 4 5 6 
#
# 1 59.0439 12.7268 43.9347 -0.4244 -9.6275 9.4009
# 2 12.7268 103.3943 34.1311 8.6515 -13.1327 -1.5627
# 3 43.9347 34.1311 147.9290 1.3300 -26.0303 6.0843
# 4 -0.4244 8.6515 1.3300 25.4009 1.9471 -3.7201
# 5 -9.6275 -13.1327 -26.0303 1.9471 33.2975 1.1768
# 6 9.4009 -1.5627 6.0843 -3.7201 1.1768 27.8019
#
#
#
# Elastic Compliance Matrix: (Units=1/GPa)
#
#
# Indices 1 2 3 4 5 6 
#
# 1 0.022938 -0.000671 -0.006056 -0.000178 0.001876 -0.006572
# 2 -0.000671 0.011059 -0.001826 -0.003818 0.002942 0.000612
# 3 -0.006056 -0.001826 0.009948 -0.000487 0.005352 -0.000524
# 4 -0.000178 -0.003818 -0.000487 0.041886 -0.004591 0.005751
# 5 0.001876 0.002942 0.005352 -0.004591 0.036322 -0.003792
# 6 -0.006572 0.000612 -0.000524 0.005751 -0.003792 0.039270
#
#
# Mechanical properties :
#
#
# Convention : Reuss Voigt Hill
#
# Bulk Modulus (GPa) = 37.25621 54.66138 45.95879
# Shear Modulus (GPa) = 26.67029 31.93836 29.30433
#
# Velocity S-wave (km/s) = 3.70158 4.05070 3.88007
# Velocity P-wave (km/s) = 6.11630 7.06820 6.60941
#
# Compressibility (1/GPa) = 0.02684116
#
# Stress axis : x y z
#
# Youngs Moduli (GPa) = 43.59521 90.42087 100.52705
#
# Poissons Ratio (x) = 0.06063 0.60878
# Poissons Ratio (y) = 0.02923 0.18353
# Poissons Ratio (z) = 0.26401 0.16508
#
# Static dielectric constant tensor:
#      x y z
#    x 1.717860 0.003530 -0.056080 
#    y 0.003530 1.825110 -0.115540 
#    z -0.056080 -0.115540 1.699620 
# 
# From -- ./inp_files/206946.got.cif
#   From: 2010.05.17/outbox.cif.g08.bks.cpg/sg2_104_cif.got.tgz:206946.got - 2010.06.03 11:33:40.
