data_PCOD9053920
_publ_section_title
;
Structure prediction by ZEFSAII (Michael W. Deem and Ramdas Pophale) SiO2 
 PCOD9053920
Probable space group: P -1
;
_chemical_formula_sum "Si O2"
_cell_formula_units_Z 16
_cell_length_a 15.060540
_cell_length_b 7.827377
_cell_length_c 8.983957
_cell_angle_alpha 91.450582
_cell_angle_beta 132.896292
_cell_angle_gamma 67.580376
_cell_volume 672.930258
_symmetry_space_group_name_H-M "P -1"
_symmetry_group_IT_number 2
_symmetry_cell_setting 'triclinic'
loop_
_space_group_symop_operation_xyz
x,y,z
-x,-y,-z
loop_
_atom_site_type_symbol
_atom_site_label
_atom_site_fract_x
_atom_site_fract_y
_atom_site_fract_z
Si Si1 0.075794 0.567331 0.709174
Si Si2 0.288952 0.019291 0.892829
Si Si3 0.542634 0.432590 0.879692
Si Si4 0.316169 0.399504 0.423021
Si Si5 0.141482 0.846755 0.241260
Si Si6 0.210826 0.137385 0.467524
Si Si7 0.970445 0.181644 0.570581
Si Si8 0.363278 0.283236 0.156776
O O1 0.000000 0.500000 0.500000
O O2 0.952513 0.738004 0.667434
O O3 0.139888 0.643488 0.656578
O O4 0.196072 0.421436 0.948551
O O5 0.662225 0.204169 0.015978
O O6 0.286823 0.056118 0.712552
O O7 0.127326 0.146318 0.765825
O O8 0.386038 0.091992 0.087369
O O9 0.419238 0.424622 0.651021
O O10 0.572760 0.591848 0.839061
O O11 0.500000 0.500000 0.000000
O O12 0.219370 0.626346 0.258739
O O13 0.244742 0.292432 0.428374
O O14 0.392250 0.264185 0.364053
O O15 0.095676 0.811322 0.349434
O O16 0.228607 0.959841 0.376855
O O17 0.000000 0.000000 0.000000
O O18 0.000000 0.000000 0.500000
#
# Coordination Sequence:
#
# PCOD9053920 Si02
#       8
#     2   2   2   2   2   2   2   2
#     4  11  20  38  71 103 140 175 235 290 356 420
#     4  11  25  45  76 104 136 189 250 294 353 423
#     4  12  29  50  78 101 140 195 252 303 348 426
#     4  12  30  47  70 108 155 190 238 294 366 434
#     4  12  27  43  70 109 153 191 232 297 370 436
#     4  11  24  44  70 108 144 188 235 298 357 429
#     4  11  21  40  70 104 141 182 240 295 350 426
#     4  12  27  47  73 107 145 195 236 302 362 429
#
# _framework density 23.776609000000001
#
# number of rings (size 3 to 8) (size 9 to 14) (size 15 to 20)
#    0.000    0.500    5.000    4.125    5.250    4.500 
#    0.000    0.000    0.000    0.000    0.000    0.000 
#    0.000    0.000    0.000    0.000    0.000    0.000 
#
# Total GULP energy -89370.375458 kJ/mol
# GULP energy per Si atom -5585.648466 kJ/mol
# Density = 2.372249 g / cm^3
# Si number density = 23.776609 Si / 1000 Ang^3
#
#
#
# Elastic Constant Matrix: (Units=GPa)
#
#
# Indices 1 2 3 4 5 6 
#
# 1 63.6336 20.3105 19.5707 17.6016 -1.2518 21.0173
# 2 20.3105 109.8611 34.7981 30.7706 13.8512 20.9275
# 3 19.5707 34.7981 113.0635 29.8096 -8.4667 9.5323
# 4 17.6016 30.7706 29.8096 47.2681 -5.7244 8.8282
# 5 -1.2518 13.8512 -8.4667 -5.7244 27.7256 2.2973
# 6 21.0173 20.9275 9.5323 8.8282 2.2973 38.7272
#
#
#
# Elastic Compliance Matrix: (Units=1/GPa)
#
#
# Indices 1 2 3 4 5 6 
#
# 1 0.020779 -0.000253 -0.001394 -0.004823 0.000449 -0.009724
# 2 -0.000253 0.014146 -0.002563 -0.007744 -0.009081 -0.004572
# 3 -0.001394 -0.002563 0.011337 -0.004542 0.003728 0.000165
# 4 -0.004823 -0.007744 -0.004542 0.031905 0.008841 0.000123
# 5 0.000449 -0.009081 0.003728 0.008841 0.043660 -0.000859
# 6 -0.009724 -0.004572 0.000165 0.000123 -0.000859 0.033552
#
#
# Mechanical properties :
#
#
# Convention : Reuss Voigt Hill
#
# Bulk Modulus (GPa) = 26.42515 48.43520 37.43017
# Shear Modulus (GPa) = 28.34256 36.86945 32.60600
#
# Velocity S-wave (km/s) = 3.45633 3.94211 3.70719
# Velocity P-wave (km/s) = 5.20253 6.41370 5.83960
#
# Compressibility (1/GPa) = 0.03784274
#
# Stress axis : x y z
#
# Youngs Moduli (GPa) = 48.12499 70.69238 88.20417
#
# Poissons Ratio (x) = 0.01792 0.12292
# Poissons Ratio (y) = 0.01220 0.22604
# Poissons Ratio (z) = 0.06707 0.18116
#
# Static dielectric constant tensor:
#      x y z
#    x 1.926850 0.036360 0.094350 
#    y 0.036360 2.139440 0.022670 
#    z 0.094350 0.022670 1.947620 
# 
# From -- ./inp_files/292650.got.cif
#   From: 2010.05.17/outbox.cif.g08.bks.cpg/sg2_147_cif.got.tgz:292650.got - 2010.06.03 11:33:40.
