data_PCOD9053020
_publ_section_title
;
Structure prediction by ZEFSAII (Michael W. Deem and Ramdas Pophale) SiO2 
 PCOD9053020
Probable space group: P -1
;
_chemical_formula_sum "Si O2"
_cell_formula_units_Z 14
_cell_length_a 17.040413
_cell_length_b 8.951801
_cell_length_c 9.236854
_cell_angle_alpha 30.928961
_cell_angle_beta 119.699981
_cell_angle_gamma 115.105226
_cell_volume 629.059353
_symmetry_space_group_name_H-M "P -1"
_symmetry_group_IT_number 2
_symmetry_cell_setting 'triclinic'
loop_
_space_group_symop_operation_xyz
x,y,z
-x,-y,-z
loop_
_atom_site_type_symbol
_atom_site_label
_atom_site_fract_x
_atom_site_fract_y
_atom_site_fract_z
Si Si1 0.236139 0.657223 0.712839
Si Si2 0.657208 0.941883 0.701735
Si Si3 0.069170 0.706049 0.689951
Si Si4 0.701613 0.885576 0.361256
Si Si5 0.420335 0.630604 0.222339
Si Si6 0.499011 0.793830 0.848910
Si Si7 0.110683 0.333691 0.308246
O O1 0.268083 0.813111 0.464897
O O2 0.265410 0.882353 0.679977
O O3 0.131091 0.607078 0.695107
O O4 0.292784 0.362811 0.018252
O O5 0.596995 0.937635 0.795719
O O6 0.577841 0.002653 0.460998
O O7 0.500000 0.500000 0.000000
O O8 0.965006 0.609549 0.687093
O O9 0.073699 0.054179 0.416865
O O10 0.113387 0.583652 0.981658
O O11 0.654813 0.617644 0.622160
O O12 0.790413 0.755691 0.474462
O O13 0.631894 0.065542 0.049464
O O14 0.500000 0.500000 0.500000
O O15 0.466981 0.700288 0.054115
#
# Coordination Sequence:
#
# PCOD9053020 Si02
#       7
#     2   2   2   2   2   2   2
#     4  11  18  31  50  77 104 135 172 209 264 320
#     4  11  21  30  50  77  98 136 173 216 255 317
#     4   9  17  26  43  72 105 128 167 211 254 311
#     4  11  20  35  52  69 103 146 179 206 268 320
#     4  12  26  38  53  76 106 141 185 227 258 302
#     4  11  22  36  54  74 102 136 183 218 265 310
#     4   9  17  28  44  69  97 141 169 201 256 324
#
# _framework density 22.25545
#
# number of rings (size 3 to 8) (size 9 to 14) (size 15 to 20)
#    0.000    1.429    2.857    5.571    2.000    0.000 
#    0.000    0.000    0.000    0.000    0.000    0.000 
#    0.000    6.857    0.000    0.000    0.000    0.000 
#
# Total GULP energy -78159.793049 kJ/mol
# GULP energy per Si atom -5582.842361 kJ/mol
# Density = 2.220480 g / cm^3
# Si number density = 22.255450 Si / 1000 Ang^3
#
#
#
# Elastic Constant Matrix: (Units=GPa)
#
#
# Indices 1 2 3 4 5 6 
#
# 1 219.2943 29.7281 78.1821 -2.4264 2.5477 53.4108
# 2 29.7281 18.7788 28.0053 -7.8257 -5.7359 12.6667
# 3 78.1821 28.0053 152.4940 -24.9947 0.0559 13.3341
# 4 -2.4264 -7.8257 -24.9947 31.1485 2.0840 -2.7222
# 5 2.5477 -5.7359 0.0559 2.0840 40.6869 -7.5517
# 6 53.4108 12.6667 13.3341 -2.7222 -7.5517 25.6342
#
#
#
# Elastic Compliance Matrix: (Units=1/GPa)
#
#
# Indices 1 2 3 4 5 6 
#
# 1 0.012722 0.002589 -0.005407 -0.004710 -0.005195 -0.027006
# 2 0.002589 0.113069 -0.015901 0.011076 0.005940 -0.050068
# 3 -0.005407 -0.015901 0.012124 0.006482 0.000269 0.013584
# 4 -0.004710 0.011076 0.006482 0.040146 0.000806 0.005469
# 5 -0.005195 0.005940 0.000269 0.000806 0.028724 0.016297
# 6 -0.027006 -0.050068 0.013584 0.005469 0.016297 0.118335
#
#
# Mechanical properties :
#
#
# Convention : Reuss Voigt Hill
#
# Bulk Modulus (GPa) = 9.95240 73.59980 41.77610
# Shear Modulus (GPa) = 12.62466 36.47071 24.54769
#
# Velocity S-wave (km/s) = 2.38431 4.05252 3.32474
# Velocity P-wave (km/s) = 3.47297 7.41886 5.79228
#
# Compressibility (1/GPa) = 0.10047825
#
# Stress axis : x y z
#
# Youngs Moduli (GPa) = 78.60179 8.84417 82.47790
#
# Poissons Ratio (x) = -0.02290 0.44594
# Poissons Ratio (y) = -0.20352 1.31149
# Poissons Ratio (z) = 0.42498 0.14063
#
# Static dielectric constant tensor:
#      x y z
#    x 1.918920 0.035850 -0.014690 
#    y 0.035850 1.873600 -0.000520 
#    z -0.014690 -0.000520 1.819640 
# 
# From -- ./inp_files/465715.got.cif
#   From: 2010.05.17/outbox.cif.g08.bks.cpg/sg2_233_cif.got.tgz:465715.got - 2010.06.03 11:33:40.
