data_PCOD9053936
_publ_section_title
;
Structure prediction by ZEFSAII (Michael W. Deem and Ramdas Pophale) SiO2 
 PCOD9053936
Probable space group: P -1
;
_chemical_formula_sum "Si O2"
_cell_formula_units_Z 16
_cell_length_a 7.339431
_cell_length_b 14.480480
_cell_length_c 7.776071
_cell_angle_alpha 68.973995
_cell_angle_beta 117.088992
_cell_angle_gamma 130.910317
_cell_volume 553.789287
_symmetry_space_group_name_H-M "P -1"
_symmetry_group_IT_number 2
_symmetry_cell_setting 'triclinic'
loop_
_space_group_symop_operation_xyz
x,y,z
-x,-y,-z
loop_
_atom_site_type_symbol
_atom_site_label
_atom_site_fract_x
_atom_site_fract_y
_atom_site_fract_z
Si Si1 0.068821 0.657485 0.052737
Si Si2 0.187336 0.348433 0.361863
Si Si3 0.752807 0.430035 0.564240
Si Si4 0.551482 0.849404 0.688196
Si Si5 0.558146 0.045309 0.760945
Si Si6 0.891549 0.777953 0.231486
Si Si7 0.096692 0.009391 0.731548
Si Si8 0.625403 0.383779 0.063088
O O1 0.796035 0.530316 0.660547
O O2 0.238649 0.678474 0.279192
O O3 0.974996 0.713754 0.839544
O O4 0.198429 0.472163 0.925411
O O5 0.465584 0.381007 0.425503
O O6 0.073475 0.270210 0.540659
O O7 0.766561 0.360922 0.995139
O O8 0.000000 0.500000 0.500000
O O9 0.509501 0.905500 0.467161
O O10 0.843071 0.898650 0.785667
O O11 0.398398 0.704866 0.737960
O O12 0.515120 0.918704 0.777398
O O13 0.859963 0.149881 0.829608
O O14 0.648524 0.980206 0.173239
O O15 0.648900 0.669342 0.097793
O O16 0.843416 0.873247 0.220014
O O17 0.000000 0.000000 0.500000
#
# Coordination Sequence:
#
# PCOD9053936 Si02
#       8
#     2   2   2   2   2   2   2   2
#     4  11  22  44  67  96 138 180 222 274 326 393
#     4  11  21  43  69  91 135 183 219 265 337 392
#     4  11  23  41  68  96 131 174 226 280 324 382
#     4   9  19  37  63  87 118 168 207 262 331 392
#     4   9  19  37  63  90 120 159 215 263 331 395
#     4  11  22  37  65  97 122 175 220 265 326 396
#     4   9  20  40  61  92 130 156 215 277 328 391
#     4  11  20  39  63  91 130 172 222 269 325 386
#
# _framework density 28.891855
#
# number of rings (size 3 to 8) (size 9 to 14) (size 15 to 20)
#    0.000    1.750    3.750    2.250    0.000    3.500 
#    2.250    2.500    2.750    0.000    0.000    0.000 
#    0.000    0.000    0.000    0.000    0.000    0.000 
#
# Total GULP energy -89586.071830 kJ/mol
# GULP energy per Si atom -5599.129489 kJ/mol
# Density = 2.882610 g / cm^3
# Si number density = 28.891855 Si / 1000 Ang^3
#
#
#
# Elastic Constant Matrix: (Units=GPa)
#
#
# Indices 1 2 3 4 5 6 
#
# 1 227.7163 64.3933 52.3438 16.3039 10.0423 23.9675
# 2 64.3933 119.0977 17.6778 -3.4402 17.9505 27.3061
# 3 52.3438 17.6778 160.0013 2.2120 34.5872 13.3636
# 4 16.3039 -3.4402 2.2120 37.3440 8.4722 7.6577
# 5 10.0423 17.9505 34.5872 8.4722 42.0216 11.4504
# 6 23.9675 27.3061 13.3636 7.6577 11.4504 52.3929
#
#
#
# Elastic Compliance Matrix: (Units=1/GPa)
#
#
# Indices 1 2 3 4 5 6 
#
# 1 0.005959 -0.003249 -0.002024 -0.003215 0.002436 -0.000579
# 2 -0.003249 0.011907 0.001126 0.004501 -0.004892 -0.004595
# 3 -0.002024 0.001126 0.008353 0.002233 -0.007173 -0.000550
# 4 -0.003215 0.004501 0.002233 0.031174 -0.008126 -0.004225
# 5 0.002436 -0.004892 -0.007173 -0.008126 0.033637 -0.002899
# 6 -0.000579 -0.004595 -0.000550 -0.004225 -0.002899 0.023138
#
#
# Mechanical properties :
#
#
# Convention : Reuss Voigt Hill
#
# Bulk Modulus (GPa) = 55.78453 86.18280 70.98366
# Shear Modulus (GPa) = 38.92964 51.17841 45.05402
#
# Velocity S-wave (km/s) = 3.67471 4.21334 3.95321
# Velocity P-wave (km/s) = 6.11184 7.31873 6.74235
#
# Compressibility (1/GPa) = 0.01792612
#
# Stress axis : x y z
#
# Youngs Moduli (GPa) = 167.81017 83.98602 119.71096
#
# Poissons Ratio (x) = 0.27285 0.24233
# Poissons Ratio (y) = 0.54517 -0.13484
# Poissons Ratio (z) = 0.33970 -0.09460
#
# Static dielectric constant tensor:
#      x y z
#    x 2.219730 -0.047320 -0.054240 
#    y -0.047320 2.254150 0.013540 
#    z -0.054240 0.013540 2.400100 
# 
# From -- ./inp_files/285532.got.cif
#   From: 2010.05.17/outbox.cif.g08.bks.cpg/sg2_143_cif.got.tgz:285532.got - 2010.06.03 11:33:40.
