data_PCOD9053072
_publ_section_title
;
Structure prediction by ZEFSAII (Michael W. Deem and Ramdas Pophale) SiO2 
 PCOD9053072
Probable space group: P -1
;
_chemical_formula_sum "Si O2"
_cell_formula_units_Z 16
_cell_length_a 5.517744
_cell_length_b 8.409066
_cell_length_c 15.139181
_cell_angle_alpha 100.824958
_cell_angle_beta 110.884779
_cell_angle_gamma 83.646595
_cell_volume 643.882866
_symmetry_space_group_name_H-M "P -1"
_symmetry_group_IT_number 2
_symmetry_cell_setting 'triclinic'
loop_
_space_group_symop_operation_xyz
x,y,z
-x,-y,-z
loop_
_atom_site_type_symbol
_atom_site_label
_atom_site_fract_x
_atom_site_fract_y
_atom_site_fract_z
Si Si1 0.311053 0.660095 0.391579
Si Si2 0.500700 0.209837 0.892313
Si Si3 0.256150 0.472844 0.086256
Si Si4 0.935712 0.569321 0.202006
Si Si5 0.561493 0.063957 0.698292
Si Si6 0.339948 0.777922 0.897399
Si Si7 0.236202 0.609649 0.567610
Si Si8 0.102386 0.895295 0.705190
O O1 0.424452 0.795790 0.357624
O O2 0.291596 0.711521 0.496561
O O3 0.505567 0.502392 0.395233
O O4 0.024102 0.616025 0.315659
O O5 0.570038 0.398407 0.922645
O O6 0.196672 0.264269 0.840127
O O7 0.618011 0.126280 0.811790
O O8 0.639359 0.149066 0.994115
O O9 0.364921 0.290829 0.084725
O O10 0.206786 0.535163 0.183927
O O11 0.000000 0.500000 0.000000
O O12 0.810168 0.392157 0.153957
O O13 0.273367 0.000370 0.671369
O O14 0.799552 0.940723 0.686480
O O15 0.240500 0.896242 0.819954
O O16 0.153449 0.718566 0.651331
O O17 0.000000 0.500000 0.500000
#
# Coordination Sequence:
#
# PCOD9053072 Si02
#       8
#     2   2   2   2   2   2   2   2
#     4  11  26  48  84 112 146 195 250 315 383 456
#     4  11  23  40  67 107 149 203 259 298 370 443
#     4  11  18  34  66 106 140 185 259 322 363 416
#     4  11  20  39  72 109 147 187 253 324 370 426
#     4  12  30  50  73 112 161 208 244 303 386 466
#     4  11  24  39  69 108 152 207 253 322 358 436
#     4  11  28  52  85 117 139 188 257 323 383 453
#     4  12  31  51  74 112 162 201 250 310 389 446
#
# _framework density 24.849239000000001
#
# number of rings (size 3 to 8) (size 9 to 14) (size 15 to 20)
#    0.000    0.750    3.750    3.000   12.250    2.000 
#    0.000    0.000    0.000    0.000    0.000    0.000 
#    0.000    0.000    0.000    0.000    0.000    0.000 
#
# Total GULP energy -89269.646925 kJ/mol
# GULP energy per Si atom -5579.352933 kJ/mol
# Density = 2.479268 g / cm^3
# Si number density = 24.849239 Si / 1000 Ang^3
#
#
#
# Elastic Constant Matrix: (Units=GPa)
#
#
# Indices 1 2 3 4 5 6 
#
# 1 65.1142 14.9545 9.6376 5.2793 -14.3647 -4.4722
# 2 14.9545 63.9006 20.4034 -9.7998 -14.9187 2.6966
# 3 9.6376 20.4034 126.3929 -13.2575 -22.4446 -7.6381
# 4 5.2793 -9.7998 -13.2575 35.5552 -2.2477 -15.4486
# 5 -14.3647 -14.9187 -22.4446 -2.2477 39.9336 4.0982
# 6 -4.4722 2.6966 -7.6381 -15.4486 4.0982 41.9039
#
#
#
# Elastic Compliance Matrix: (Units=1/GPa)
#
#
# Indices 1 2 3 4 5 6 
#
# 1 0.017494 -0.003429 -0.000263 -0.003165 0.004643 0.000419
# 2 -0.003429 0.018994 -0.001278 0.005466 0.005487 -0.000343
# 3 -0.000263 -0.001278 0.009716 0.005005 0.004843 0.003197
# 4 -0.003165 0.005466 0.005005 0.038290 0.004445 0.013904
# 5 0.004643 0.005487 0.004843 0.004445 0.031779 -0.000444
# 6 0.000419 -0.000343 0.003197 0.013904 -0.000444 0.029683
#
#
# Mechanical properties :
#
#
# Convention : Reuss Voigt Hill
#
# Bulk Modulus (GPa) = 27.57513 38.37763 32.97638
# Shear Modulus (GPa) = 29.76488 37.50602 33.63545
#
# Velocity S-wave (km/s) = 3.46471 3.88924 3.68310
# Velocity P-wave (km/s) = 5.20832 5.97043 5.60235
#
# Compressibility (1/GPa) = 0.03626456
#
# Stress axis : x y z
#
# Youngs Moduli (GPa) = 57.16334 52.64953 102.92050
#
# Poissons Ratio (x) = 0.18055 0.02702
# Poissons Ratio (y) = 0.19603 0.13150
# Poissons Ratio (z) = 0.01501 0.06727
#
# Static dielectric constant tensor:
#      x y z
#    x 3.859920 -1.180070 1.877200 
#    y -1.180070 2.890210 -1.301750 
#    z 1.877200 -1.301750 4.036460 
# 
# From -- ./inp_files/480672.got.cif
#   From: 2010.05.17/outbox.cif.g08.bks.cpg/sg2_241_cif.got.tgz:480672.got - 2010.06.03 11:33:40.
