data_PCOD9053547
_publ_section_title
;
Structure prediction by ZEFSAII (Michael W. Deem and Ramdas Pophale) SiO2 
 PCOD9053547
Probable space group: P -1
;
_chemical_formula_sum "Si O2"
_cell_formula_units_Z 16
_cell_length_a 7.322866
_cell_length_b 13.773843
_cell_length_c 14.152549
_cell_angle_alpha 146.886508
_cell_angle_beta 131.998379
_cell_angle_gamma 53.299634
_cell_volume 577.106681
_symmetry_space_group_name_H-M "P -1"
_symmetry_group_IT_number 2
_symmetry_cell_setting 'triclinic'
loop_
_space_group_symop_operation_xyz
x,y,z
-x,-y,-z
loop_
_atom_site_type_symbol
_atom_site_label
_atom_site_fract_x
_atom_site_fract_y
_atom_site_fract_z
Si Si1 0.050518 0.583717 0.690688
Si Si2 0.112372 0.712715 0.078420
Si Si3 0.178297 0.068483 0.297909
Si Si4 0.024046 0.205870 0.697789
Si Si5 0.657289 0.185436 0.128042
Si Si6 0.565412 0.818342 0.713501
Si Si7 0.330006 0.301118 0.699244
Si Si8 0.279826 0.532126 0.306107
O O1 0.788038 0.676289 0.707658
O O2 0.000000 0.500000 0.500000
O O3 0.218751 0.746405 0.868375
O O4 0.192736 0.436802 0.685340
O O5 0.946911 0.773378 0.162814
O O6 0.391486 0.652297 0.154129
O O7 0.138884 0.865203 0.136651
O O8 0.968198 0.563939 0.859051
O O9 0.897578 0.151258 0.249433
O O10 0.345110 0.119574 0.308699
O O11 0.300889 0.124184 0.483055
O O12 0.778498 0.340624 0.702160
O O13 0.223795 0.259198 0.733034
O O14 0.000000 0.000000 0.500000
O O15 0.484468 0.364099 0.240184
O O16 0.543174 0.998598 0.914353
O O17 0.342047 0.692190 0.527463
#
# Coordination Sequence:
#
# PCOD9053547 Si02
#       8
#     2   2   2   2   2   2   2   2
#     4  11  19  44  81 123 163 211 272 340 419 489
#     4  12  29  50  78 121 173 219 277 342 405 500
#     4  11  22  46  80 125 163 217 280 335 428 497
#     4  12  29  50  80 121 160 220 283 333 412 498
#     4  11  24  46  83 120 168 214 272 355 414 495
#     4  11  24  46  87 122 164 220 272 349 423 494
#     4  12  25  49  89 116 170 223 267 345 422 492
#     4  12  28  52  76 117 169 214 278 349 409 487
#
# _framework density 27.724511
#
# number of rings (size 3 to 8) (size 9 to 14) (size 15 to 20)
#    0.000    0.500    5.000    3.750    3.500    3.000 
#    0.000    4.375    0.000    0.000    0.000    0.000 
#    0.000    0.000    0.000    0.000    0.000    0.000 
#
# Total GULP energy -89533.341171 kJ/mol
# GULP energy per Si atom -5595.833823 kJ/mol
# Density = 2.766141 g / cm^3
# Si number density = 27.724511 Si / 1000 Ang^3
#
#
#
# Elastic Constant Matrix: (Units=GPa)
#
#
# Indices 1 2 3 4 5 6 
#
# 1 167.4859 61.7860 98.7789 -27.2850 -0.7480 22.0569
# 2 61.7860 188.1563 68.2366 11.2763 11.9741 2.0554
# 3 98.7789 68.2366 210.1469 14.9802 34.6364 7.1163
# 4 -27.2850 11.2763 14.9802 44.2766 9.3803 -5.1560
# 5 -0.7480 11.9741 34.6364 9.3803 64.5360 -6.6785
# 6 22.0569 2.0554 7.1163 -5.1560 -6.6785 25.5342
#
#
#
# Elastic Compliance Matrix: (Units=1/GPa)
#
#
# Indices 1 2 3 4 5 6 
#
# 1 0.012928 -0.002699 -0.005928 0.009485 0.001737 -0.006928
# 2 -0.002699 0.006623 -0.000662 -0.002900 -0.000348 0.001306
# 3 -0.005928 -0.000662 0.008758 -0.005576 -0.003772 0.000621
# 4 0.009485 -0.002900 -0.005576 0.031212 -0.000932 -0.000347
# 5 0.001737 -0.000348 -0.003772 -0.000932 0.018168 0.004143
# 6 -0.006928 0.001306 0.000621 -0.000347 0.004143 0.045884
#
#
# Mechanical properties :
#
#
# Convention : Reuss Voigt Hill
#
# Bulk Modulus (GPa) = 102.76435 113.71025 108.23730
# Shear Modulus (GPa) = 34.38925 49.33518 41.86221
#
# Velocity S-wave (km/s) = 3.52574 4.22296 3.89000
# Velocity P-wave (km/s) = 7.32947 8.05489 7.70073
#
# Compressibility (1/GPa) = 0.00973100
#
# Stress axis : x y z
#
# Youngs Moduli (GPa) = 77.35279 150.99655 114.17861
#
# Poissons Ratio (x) = 0.40747 0.67687
# Poissons Ratio (y) = 0.20874 0.07560
# Poissons Ratio (z) = 0.45856 0.09998
#
# Static dielectric constant tensor:
#      x y z
#    x 2.499170 -0.136480 -0.290600 
#    y -0.136480 2.277480 0.137160 
#    z -0.290600 0.137160 2.408540 
# 
# From -- ./inp_files/505962.got.cif
#   From: 2010.05.17/outbox.cif.g08.bks.cpg/sg2_253_cif.got.tgz:505962.got - 2010.06.03 11:33:40.
