data_PCOD9053684
_publ_section_title
;
Structure prediction by ZEFSAII (Michael W. Deem and Ramdas Pophale) SiO2 
 PCOD9053684
Probable space group: P -1
;
_chemical_formula_sum "Si O2"
_cell_formula_units_Z 12
_cell_length_a 11.068556
_cell_length_b 7.053523
_cell_length_c 9.617782
_cell_angle_alpha 85.947794
_cell_angle_beta 40.522100
_cell_angle_gamma 104.941370
_cell_volume 426.745758
_symmetry_space_group_name_H-M "P -1"
_symmetry_group_IT_number 2
_symmetry_cell_setting 'triclinic'
loop_
_space_group_symop_operation_xyz
x,y,z
-x,-y,-z
loop_
_atom_site_type_symbol
_atom_site_label
_atom_site_fract_x
_atom_site_fract_y
_atom_site_fract_z
Si Si1 0.229492 0.659663 0.552786
Si Si2 0.364095 0.308205 0.453644
Si Si3 0.019456 0.274997 0.555574
Si Si4 0.320776 0.397520 0.042019
Si Si5 0.837769 0.087102 0.174857
Si Si6 0.648139 0.010693 0.064084
O O1 0.327545 0.506476 0.534686
O O2 0.108925 0.510399 0.534879
O O3 0.403537 0.889681 0.325219
O O4 0.108664 0.721862 0.772035
O O5 0.578566 0.411066 0.169354
O O6 0.351569 0.133344 0.583327
O O7 0.158197 0.193326 0.534729
O O8 0.108090 0.291302 0.323702
O O9 0.770369 0.149519 0.815778
O O10 0.321108 0.199335 0.973400
O O11 0.500000 0.500000 0.000000
O O12 0.778670 0.143475 0.075812
O O13 0.000000 0.000000 0.000000
#
# Coordination Sequence:
#
# PCOD9053684 Si02
#       6
#     2   2   2   2   2   2
#     4   9  22  39  58  88 124 155 194 245 293 350
#     4   8  19  37  59  85 118 158 184 243 292 341
#     4   9  18  38  62  87 115 159 197 239 294 348
#     4   9  17  36  61  87 116 154 203 240 288 349
#     4  12  22  38  60  92 122 154 199 242 301 355
#     4  11  20  35  65  91 114 162 197 239 298 354
#
# _framework density 28.119786999999999
#
# number of rings (size 3 to 8) (size 9 to 14) (size 15 to 20)
#    1.000    1.333    3.333    1.000    0.000    5.333 
#    0.000    4.167    0.000    2.000    0.000    0.000 
#    0.000    0.000    0.000    0.000    0.000    0.000 
#
# Total GULP energy -67054.827967 kJ/mol
# GULP energy per Si atom -5587.902331 kJ/mol
# Density = 2.805579 g / cm^3
# Si number density = 28.119787 Si / 1000 Ang^3
#
#
#
# Elastic Constant Matrix: (Units=GPa)
#
#
# Indices 1 2 3 4 5 6 
#
# 1 52.8291 30.8116 7.3161 26.6812 10.9736 -8.5912
# 2 30.8116 123.0170 56.1673 24.6726 6.6963 13.9466
# 3 7.3161 56.1673 180.2638 6.5765 21.1374 -8.6522
# 4 26.6812 24.6726 6.5765 66.3920 3.0581 4.1355
# 5 10.9736 6.6963 21.1374 3.0581 41.3405 -0.5621
# 6 -8.5912 13.9466 -8.6522 4.1355 -0.5621 38.7339
#
#
#
# Elastic Compliance Matrix: (Units=1/GPa)
#
#
# Indices 1 2 3 4 5 6 
#
# 1 0.032240 -0.008318 0.003162 -0.010554 -0.007886 0.011865
# 2 -0.008318 0.013045 -0.004321 -0.000720 0.002257 -0.007397
# 3 0.003162 -0.004321 0.007421 -0.000467 -0.003846 0.003909
# 4 -0.010554 -0.000720 -0.000467 0.019809 0.001633 -0.004277
# 5 -0.007886 0.002257 -0.003846 0.001633 0.027719 -0.003193
# 6 0.011865 -0.007397 0.003909 -0.004277 -0.003193 0.032396
#
#
# Mechanical properties :
#
#
# Convention : Reuss Voigt Hill
#
# Bulk Modulus (GPa) = 29.62586 60.52221 45.07403
# Shear Modulus (GPa) = 30.70612 46.74762 38.72687
#
# Velocity S-wave (km/s) = 3.30809 4.08173 3.71510
# Velocity P-wave (km/s) = 5.01495 6.61693 5.87084
#
# Compressibility (1/GPa) = 0.03375430
#
# Stress axis : x y z
#
# Youngs Moduli (GPa) = 31.01708 76.65602 134.75419
#
# Poissons Ratio (x) = 0.63763 -0.42615
# Poissons Ratio (y) = 0.25800 0.58221
# Poissons Ratio (z) = -0.09809 0.33119
#
# Static dielectric constant tensor:
#      x y z
#    x 2.270150 -0.025180 -0.085700 
#    y -0.025180 2.096120 -0.067670 
#    z -0.085700 -0.067670 2.200660 
# 
# From -- ./inp_files/146914.got.cif
#   From: 2010.05.17/outbox.cif.g08.bks.cpg/sg2_74_cif.got.tgz:146914.got - 2010.06.03 11:33:40.
