data_PCOD9053014
_publ_section_title
;
Structure prediction by ZEFSAII (Michael W. Deem and Ramdas Pophale) SiO2 
 PCOD9053014
Probable space group: P -1
;
_chemical_formula_sum "Si O2"
_cell_formula_units_Z 16
_cell_length_a 19.226727
_cell_length_b 9.972916
_cell_length_c 9.315700
_cell_angle_alpha 89.896865
_cell_angle_beta 155.220110
_cell_angle_gamma 84.921691
_cell_volume 731.153763
_symmetry_space_group_name_H-M "P -1"
_symmetry_group_IT_number 2
_symmetry_cell_setting 'triclinic'
loop_
_space_group_symop_operation_xyz
x,y,z
-x,-y,-z
loop_
_atom_site_type_symbol
_atom_site_label
_atom_site_fract_x
_atom_site_fract_y
_atom_site_fract_z
Si Si1 0.417889 0.764342 0.660015
Si Si2 0.266807 0.514416 0.464563
Si Si3 0.509775 0.232686 0.897644
Si Si4 0.809300 0.268917 0.260359
Si Si5 0.025413 0.538176 0.283875
Si Si6 0.722332 0.081388 0.877777
Si Si7 0.652545 0.808806 0.688828
Si Si8 0.719010 0.580970 0.035367
O O1 0.305779 0.660268 0.504605
O O2 0.308682 0.868685 0.343741
O O3 0.477619 0.826712 0.917948
O O4 0.575193 0.672352 0.866304
O O5 0.434600 0.395502 0.775652
O O6 0.173476 0.513008 0.440956
O O7 0.138955 0.481953 0.104468
O O8 0.378461 0.188069 0.540088
O O9 0.689586 0.217147 0.153754
O O10 0.965343 0.313705 0.633720
O O11 0.707733 0.420206 0.009958
O O12 0.840490 0.160390 0.190236
O O13 0.097404 0.430746 0.544906
O O14 0.538522 0.134896 0.608067
O O15 0.756732 0.917765 0.941308
O O16 0.706901 0.658915 0.862312
#
# Coordination Sequence:
#
# PCOD9053014 Si02
#       8
#     2   2   2   2   2   2   2   2
#     4  11  18  30  52  77 103 128 168 208 250 292
#     4  11  18  30  49  82 106 124 164 214 254 291
#     4  11  18  30  52  77 103 128 168 208 250 292
#     4   9  17  33  52  77 101 132 164 201 256 297
#     4   9  19  31  50  76 107 130 160 207 260 298
#     4   9  20  33  50  75 105 135 165 206 249 296
#     4   9  20  33  50  75 105 135 165 206 249 296
#     4   9  17  33  52  77 101 132 164 201 256 297
#
# _framework density 21.883223000000001
#
# number of rings (size 3 to 8) (size 9 to 14) (size 15 to 20)
#    0.750    1.500    3.750    0.375    1.750    2.000 
#    0.000    2.500    0.000    3.000    0.000    3.500 
#    0.000    0.000    0.000    0.000    0.000    0.000 
#
# Total GULP energy -89268.045317 kJ/mol
# GULP energy per Si atom -5579.252832 kJ/mol
# Density = 2.183342 g / cm^3
# Si number density = 21.883223 Si / 1000 Ang^3
#
#
#
# Elastic Constant Matrix: (Units=GPa)
#
#
# Indices 1 2 3 4 5 6 
#
# 1 110.3217 18.8019 25.2395 4.6093 -30.5026 -6.8550
# 2 18.8019 54.6472 11.9940 16.3718 -16.3607 -12.3355
# 3 25.2395 11.9940 80.9980 23.6316 -24.7661 -5.4806
# 4 4.6093 16.3718 23.6316 27.9237 -14.7140 -5.0651
# 5 -30.5026 -16.3607 -24.7661 -14.7140 36.2790 5.9800
# 6 -6.8550 -12.3355 -5.4806 -5.0651 5.9800 13.9944
#
#
#
# Elastic Compliance Matrix: (Units=1/GPa)
#
#
# Indices 1 2 3 4 5 6 
#
# 1 0.012777 -0.002596 -0.002363 0.007261 0.010724 0.001091
# 2 -0.002596 0.027668 0.002938 -0.012860 0.004144 0.017842
# 3 -0.002363 0.002938 0.018620 -0.013528 0.006381 0.001101
# 4 0.007261 -0.012860 -0.013528 0.062514 0.015976 0.002723
# 5 0.010724 0.004144 0.006381 0.015976 0.049972 -0.004167
# 6 0.001091 0.017842 0.001101 0.002723 -0.004167 0.090916
#
#
# Mechanical properties :
#
#
# Convention : Reuss Voigt Hill
#
# Bulk Modulus (GPa) = 18.17386 39.78198 28.97792
# Shear Modulus (GPa) = 17.55313 28.30152 22.92733
#
# Velocity S-wave (km/s) = 2.83526 3.60015 3.24035
# Velocity P-wave (km/s) = 4.36362 5.95819 5.22213
#
# Compressibility (1/GPa) = 0.05502409
#
# Stress axis : x y z
#
# Youngs Moduli (GPa) = 78.26672 36.14232 53.70670
#
# Poissons Ratio (x) = 0.09382 0.12689
# Poissons Ratio (y) = 0.20318 -0.15780
# Poissons Ratio (z) = 0.18491 -0.10619
#
# Static dielectric constant tensor:
#      x y z
#    x 1.841390 -0.030240 -0.009950 
#    y -0.030240 1.785160 0.012240 
#    z -0.009950 0.012240 1.840560 
# 
# From -- ./inp_files/332099.got.cif
#   From: 2010.05.17/outbox.cif.g08.bks.cpg/sg2_167_cif.got.tgz:332099.got - 2010.06.03 11:33:40.
