data_PCOD9053182
_publ_section_title
;
Structure prediction by ZEFSAII (Michael W. Deem and Ramdas Pophale) SiO2 
 PCOD9053182
Probable space group: P -1
;
_chemical_formula_sum "Si O2"
_cell_formula_units_Z 16
_cell_length_a 16.116314
_cell_length_b 10.777864
_cell_length_c 11.832464
_cell_angle_alpha 107.212242
_cell_angle_beta 129.002639
_cell_angle_gamma 32.520637
_cell_volume 710.277094
_symmetry_space_group_name_H-M "P -1"
_symmetry_group_IT_number 2
_symmetry_cell_setting 'triclinic'
loop_
_space_group_symop_operation_xyz
x,y,z
-x,-y,-z
loop_
_atom_site_type_symbol
_atom_site_label
_atom_site_fract_x
_atom_site_fract_y
_atom_site_fract_z
Si Si1 0.607107 0.573913 0.191801
Si Si2 0.631467 0.745606 0.444229
Si Si3 0.192933 0.370887 0.202637
Si Si4 0.868576 0.258338 0.098225
Si Si5 0.918890 0.906007 0.117679
Si Si6 0.377822 0.801700 0.387321
Si Si7 0.825401 0.086133 0.325750
Si Si8 0.498858 0.381486 0.305337
O O1 0.722678 0.551967 0.371362
O O2 0.722142 0.463100 0.137058
O O3 0.634754 0.390868 0.195250
O O4 0.333512 0.885196 0.055114
O O5 0.796767 0.635882 0.650118
O O6 0.474368 0.816511 0.403181
O O7 0.450224 0.041589 0.312146
O O8 0.116443 0.598115 0.164996
O O9 0.000000 0.500000 0.000000
O O10 0.929938 0.039955 0.115338
O O11 0.714933 0.429645 0.901871
O O12 0.104009 0.080810 0.231677
O O13 0.939203 0.894924 0.267063
O O14 0.477812 0.560168 0.355629
O O15 0.458747 0.720662 0.563547
O O16 0.715589 0.122565 0.340345
O O17 0.000000 0.000000 0.500000
#
# Coordination Sequence:
#
# PCOD9053182 Si02
#       8
#     2   2   2   2   2   2   2   2
#     4  11  19  38  64  93 129 159 209 268 310 371
#     4  11  24  45  64  95 127 161 218 268 300 377
#     4  11  25  41  67  91 119 172 218 263 309 355
#     4  11  22  39  63 100 132 163 196 257 329 384
#     4  11  20  36  64  95 125 159 214 262 309 369
#     4  11  25  37  60  93 135 171 198 248 324 388
#     4  11  19  32  57  92 128 163 200 256 319 367
#     4  11  21  36  55  92 133 170 196 237 316 389
#
# _framework density 22.526420000000002
#
# number of rings (size 3 to 8) (size 9 to 14) (size 15 to 20)
#    0.000    1.000    5.000    3.375    3.500    1.000 
#    0.000    0.000    0.000    7.500    0.000    0.000 
#    0.000    0.000    0.000    0.000    0.000    0.000 
#
# Total GULP energy -89389.683638 kJ/mol
# GULP energy per Si atom -5586.855227 kJ/mol
# Density = 2.247515 g / cm^3
# Si number density = 22.526420 Si / 1000 Ang^3
#
#
#
# Elastic Constant Matrix: (Units=GPa)
#
#
# Indices 1 2 3 4 5 6 
#
# 1 75.6928 35.5914 44.4095 1.3514 -6.3278 -24.2641
# 2 35.5914 91.3482 33.3053 10.4496 -8.5501 8.3828
# 3 44.4095 33.3053 181.0108 18.5806 0.1532 -6.9671
# 4 1.3514 10.4496 18.5806 45.1990 -6.8803 -7.1884
# 5 -6.3278 -8.5501 0.1532 -6.8803 31.2001 1.6332
# 6 -24.2641 8.3828 -6.9671 -7.1884 1.6332 24.1629
#
#
#
# Elastic Compliance Matrix: (Units=1/GPa)
#
#
# Indices 1 2 3 4 5 6 
#
# 1 0.044924 -0.021621 -0.006535 0.015688 0.003792 0.055140
# 2 -0.021621 0.023379 0.000774 -0.010045 0.001514 -0.032690
# 3 -0.006535 0.000774 0.007186 -0.004138 -0.001754 -0.005872
# 4 0.015688 -0.010045 -0.004138 0.030835 0.005845 0.026824
# 5 0.003792 0.001514 -0.001754 0.005845 0.034418 0.002189
# 6 0.055140 -0.032690 -0.005872 0.026824 0.002189 0.114236
#
#
# Mechanical properties :
#
#
# Convention : Reuss Voigt Hill
#
# Bulk Modulus (GPa) = 48.24678 63.85157 56.04917
# Shear Modulus (GPa) = 15.79032 35.76212 25.77622
#
# Velocity S-wave (km/s) = 2.65045 3.98875 3.38637
# Velocity P-wave (km/s) = 5.55256 7.04416 6.34236
#
# Compressibility (1/GPa) = 0.02072677
#
# Stress axis : x y z
#
# Youngs Moduli (GPa) = 22.25976 42.77275 139.16686
#
# Poissons Ratio (x) = 0.92477 0.90945
# Poissons Ratio (y) = 0.48127 -0.10777
# Poissons Ratio (z) = 0.14547 -0.03312
#
# Static dielectric constant tensor:
#      x y z
#    x 1.800620 0.014880 0.016350 
#    y 0.014880 1.917420 -0.040990 
#    z 0.016350 -0.040990 1.914540 
# 
# From -- ./inp_files/457035.got.cif
#   From: 2010.05.17/outbox.cif.g08.bks.cpg/sg2_229_cif.got.tgz:457035.got - 2010.06.03 11:33:40.
