data_PCOD9053575
_publ_section_title
;
Structure prediction by ZEFSAII (Michael W. Deem and Ramdas Pophale) SiO2 
 PCOD9053575
Probable space group: P -1
;
_chemical_formula_sum "Si O2"
_cell_formula_units_Z 14
_cell_length_a 7.781812
_cell_length_b 7.864449
_cell_length_c 9.902563
_cell_angle_alpha 71.652733
_cell_angle_beta 105.822311
_cell_angle_gamma 69.678700
_cell_volume 487.229025
_symmetry_space_group_name_H-M "P -1"
_symmetry_group_IT_number 2
_symmetry_cell_setting 'triclinic'
loop_
_space_group_symop_operation_xyz
x,y,z
-x,-y,-z
loop_
_atom_site_type_symbol
_atom_site_label
_atom_site_fract_x
_atom_site_fract_y
_atom_site_fract_z
Si Si1 0.214344 0.491425 0.916871
Si Si2 0.479538 0.778951 0.347710
Si Si3 0.236956 0.761140 0.064002
Si Si4 0.173258 0.193364 0.138459
Si Si5 0.141026 0.581839 0.429955
Si Si6 0.722268 0.948787 0.202868
Si Si7 0.783247 0.199523 0.378406
O O1 0.311080 0.552669 0.048117
O O2 0.232228 0.614451 0.764599
O O3 0.966403 0.610756 0.850204
O O4 0.270267 0.261855 0.020595
O O5 0.660435 0.625200 0.519841
O O6 0.323365 0.005237 0.306882
O O7 0.602979 0.826144 0.243451
O O8 0.334853 0.717095 0.243264
O O9 0.313336 0.895188 0.963246
O O10 0.996651 0.852560 0.955756
O O11 0.253247 0.686346 0.515222
O O12 0.000000 0.500000 0.500000
O O13 0.956382 0.774464 0.272828
O O14 0.687283 0.087729 0.296145
O O15 0.000000 0.000000 0.500000
#
# Coordination Sequence:
#
# PCOD9053575 Si02
#       7
#     2   2   2   2   2   2   2
#     4   8  18  35  56  78 109 148 182 219 275 321
#     4  11  20  32  54  85 115 141 180 228 272 326
#     4   9  18  34  55  80 109 144 183 225 269 319
#     4   9  19  35  53  79 118 142 178 221 278 328
#     4   9  20  35  52  79 112 140 178 226 276 320
#     4   9  19  35  55  79 110 145 185 227 267 319
#     4   9  17  35  60  76 102 148 186 224 266 320
#
# _framework density 28.733920000000001
#
# number of rings (size 3 to 8) (size 9 to 14) (size 15 to 20)
#    0.857    2.000    0.000    0.857    0.000    4.571 
#    0.000    3.571    0.000   11.143    0.000    0.000 
#    0.000    0.000    0.000    0.000    0.000    0.000 
#
# Total GULP energy -78052.533403 kJ/mol
# GULP energy per Si atom -5575.180957 kJ/mol
# Density = 2.866852 g / cm^3
# Si number density = 28.733920 Si / 1000 Ang^3
#
#
#
# Elastic Constant Matrix: (Units=GPa)
#
#
# Indices 1 2 3 4 5 6 
#
# 1 94.6179 -0.6307 27.7516 -13.8132 11.5138 15.5195
# 2 -0.6307 87.2101 39.1647 -12.9896 6.8436 19.7370
# 3 27.7516 39.1647 116.9865 -10.1744 8.4386 14.1989
# 4 -13.8132 -12.9896 -10.1744 52.1384 -3.2424 -3.5292
# 5 11.5138 6.8436 8.4386 -3.2424 52.0121 -13.3837
# 6 15.5195 19.7370 14.1989 -3.5292 -13.3837 38.0130
#
#
#
# Elastic Compliance Matrix: (Units=1/GPa)
#
#
# Indices 1 2 3 4 5 6 
#
# 1 0.013938 0.004224 -0.003075 0.003275 -0.005050 -0.008209
# 2 0.004224 0.016781 -0.004768 0.003397 -0.004732 -0.010007
# 3 -0.003075 -0.004768 0.010996 0.000064 -0.000624 -0.000590
# 4 0.003275 0.003397 0.000064 0.020807 -0.000212 -0.001268
# 5 -0.005050 -0.004732 -0.000624 -0.000212 0.024492 0.013355
# 6 -0.008209 -0.010007 -0.000590 -0.001268 0.013355 0.039659
#
#
# Mechanical properties :
#
#
# Convention : Reuss Voigt Hill
#
# Bulk Modulus (GPa) = 29.00618 47.93176 38.46897
# Shear Modulus (GPa) = 34.38709 43.93462 39.16086
#
# Velocity S-wave (km/s) = 3.46315 3.91451 3.69572
# Velocity P-wave (km/s) = 5.10959 6.09496 5.62390
#
# Compressibility (1/GPa) = 0.03447542
#
# Stress axis : x y z
#
# Youngs Moduli (GPa) = 71.74616 59.59252 90.94270
#
# Poissons Ratio (x) = -0.25170 0.27964
# Poissons Ratio (y) = -0.30303 0.43365
# Poissons Ratio (z) = 0.22061 0.28416
#
# Static dielectric constant tensor:
#      x y z
#    x 2.490730 -0.100420 -0.061970 
#    y -0.100420 2.379070 0.004190 
#    z -0.061970 0.004190 2.210840 
# 
# From -- ./inp_files/187591.got.cif
#   From: 2010.05.17/outbox.cif.g08.bks.cpg/sg2_94_cif.got.tgz:187591.got - 2010.06.03 11:33:40.
