data_PCOD9053335
_publ_section_title
;
Structure prediction by ZEFSAII (Michael W. Deem and Ramdas Pophale) SiO2 
 PCOD9053335
Probable space group: P -1
;
_chemical_formula_sum "Si O2"
_cell_formula_units_Z 16
_cell_length_a 18.247623
_cell_length_b 14.518253
_cell_length_c 11.718506
_cell_angle_alpha 57.596227
_cell_angle_beta 110.382129
_cell_angle_gamma 158.664090
_cell_volume 830.699908
_symmetry_space_group_name_H-M "P -1"
_symmetry_group_IT_number 2
_symmetry_cell_setting 'triclinic'
loop_
_space_group_symop_operation_xyz
x,y,z
-x,-y,-z
loop_
_atom_site_type_symbol
_atom_site_label
_atom_site_fract_x
_atom_site_fract_y
_atom_site_fract_z
Si Si1 0.459299 0.161983 0.361202
Si Si2 0.204749 0.661415 0.152008
Si Si3 0.581728 0.279402 0.793393
Si Si4 0.422220 0.814317 0.803044
Si Si5 0.319978 0.164073 0.106751
Si Si6 0.655179 0.506023 0.896531
Si Si7 0.273524 0.860199 0.700837
Si Si8 0.978712 0.887187 0.167565
O O1 0.506274 0.122672 0.327800
O O2 0.356942 0.122511 0.251733
O O3 0.713898 0.532382 0.294070
O O4 0.306104 0.935690 0.537145
O O5 0.219284 0.551443 0.208403
O O6 0.955031 0.385367 0.209973
O O7 0.344737 0.860621 0.213556
O O8 0.361371 0.929801 0.965799
O O9 0.645551 0.463097 0.787626
O O10 0.492277 0.185033 0.680808
O O11 0.274561 0.729853 0.791073
O O12 0.306866 0.557028 0.970479
O O13 0.500000 0.500000 0.000000
O O14 0.408166 0.225898 0.995995
O O15 0.072924 0.895839 0.164274
O O16 0.852863 0.848815 0.816544
O O17 0.000000 0.000000 0.000000
#
# Coordination Sequence:
#
# PCOD9053335 Si02
#       8
#     2   2   2   2   2   2   2   2
#     4  11  22  35  54  87 115 146 180 222 281 332
#     4   9  19  36  55  76 109 150 188 229 266 314
#     4   9  19  37  54  79 110 144 192 228 262 318
#     4   9  19  35  54  83 115 140 184 228 270 329
#     4   9  18  34  55  80 108 134 180 231 268 314
#     4   9  18  36  58  85 109 140 186 238 264 315
#     4  11  22  35  55  81 118 151 181 217 276 338
#     4  11  19  37  61  84 108 140 181 231 281 319
#
# _framework density 19.260867999999999
#
# number of rings (size 3 to 8) (size 9 to 14) (size 15 to 20)
#    0.000    2.250    3.750    1.500    0.000    5.500 
#    2.250    0.625    0.000    3.750    0.000    0.000 
#    0.000    0.000    0.000    0.000    0.000    0.000 
#
# Total GULP energy -89253.617270 kJ/mol
# GULP energy per Si atom -5578.351079 kJ/mol
# Density = 1.921703 g / cm^3
# Si number density = 19.260868 Si / 1000 Ang^3
#
#
#
# Elastic Constant Matrix: (Units=GPa)
#
#
# Indices 1 2 3 4 5 6 
#
# 1 126.5266 37.2677 16.6218 7.2507 -13.7648 14.0160
# 2 37.2677 41.8880 1.9014 9.2247 -5.4027 9.4800
# 3 16.6218 1.9014 30.6546 10.7220 -11.0210 4.8323
# 4 7.2507 9.2247 10.7220 21.3088 -5.2500 -11.2384
# 5 -13.7648 -5.4027 -11.0210 -5.2500 17.1057 3.4006
# 6 14.0160 9.4800 4.8323 -11.2384 3.4006 46.2130
#
#
#
# Elastic Compliance Matrix: (Units=1/GPa)
#
#
# Indices 1 2 3 4 5 6 
#
# 1 0.012103 -0.011127 -0.006300 0.004858 0.003620 0.000186
# 2 -0.011127 0.045643 0.022180 -0.033044 0.013050 -0.017304
# 3 -0.006300 0.022180 0.066697 -0.044326 0.035883 -0.023033
# 4 0.004858 -0.033044 -0.044326 0.097054 -0.012145 0.034436
# 5 0.003620 0.013050 0.035883 -0.012145 0.088262 -0.016975
# 6 0.000186 -0.017304 -0.023033 0.034436 -0.016975 0.037164
#
#
# Mechanical properties :
#
#
# Convention : Reuss Voigt Hill
#
# Bulk Modulus (GPa) = 7.46550 34.51677 20.99114
# Shear Modulus (GPa) = 13.08668 26.47739 19.78203
#
# Velocity S-wave (km/s) = 2.60944 3.71168 3.20825
# Velocity P-wave (km/s) = 3.60046 6.02730 4.96446
#
# Compressibility (1/GPa) = 0.13394948
#
# Stress axis : x y z
#
# Youngs Moduli (GPa) = 82.62096 21.90926 14.99310
#
# Poissons Ratio (x) = 0.24379 0.09445
# Poissons Ratio (y) = 0.91936 -0.33255
# Poissons Ratio (z) = 0.52048 -0.48595
#
# Static dielectric constant tensor:
#      x y z
#    x 1.706110 -0.014400 -0.002740 
#    y -0.014400 1.707710 -0.005950 
#    z -0.002740 -0.005950 1.690870 
# 
# From -- ./inp_files/432829.got.cif
#   From: 2010.05.17/outbox.cif.g08.bks.cpg/sg2_217_cif.got.tgz:432829.got - 2010.06.03 11:33:40.
