data_PCOD9053963
_publ_section_title
;
Structure prediction by ZEFSAII (Michael W. Deem and Ramdas Pophale) SiO2 
 PCOD9053963
Probable space group: P -1
;
_chemical_formula_sum "Si O2"
_cell_formula_units_Z 16
_cell_length_a 13.866328
_cell_length_b 13.940413
_cell_length_c 9.984840
_cell_angle_alpha 121.518802
_cell_angle_beta 43.041849
_cell_angle_gamma 149.326130
_cell_volume 640.260368
_symmetry_space_group_name_H-M "P -1"
_symmetry_group_IT_number 2
_symmetry_cell_setting 'triclinic'
loop_
_space_group_symop_operation_xyz
x,y,z
-x,-y,-z
loop_
_atom_site_type_symbol
_atom_site_label
_atom_site_fract_x
_atom_site_fract_y
_atom_site_fract_z
Si Si1 0.913056 0.099540 0.418416
Si Si2 0.276566 0.434670 0.842638
Si Si3 0.967742 0.552432 0.205288
Si Si4 0.169915 0.698076 0.394594
Si Si5 0.709750 0.978871 0.082038
Si Si6 0.422880 0.343389 0.052521
Si Si7 0.526806 0.684950 0.494441
Si Si8 0.699363 0.032049 0.843755
O O1 0.920601 0.231062 0.452080
O O2 0.719156 0.978721 0.649293
O O3 0.175891 0.227177 0.291369
O O4 0.777555 0.909013 0.346113
O O5 0.364151 0.542378 0.973681
O O6 0.397183 0.583210 0.702905
O O7 0.412972 0.403555 0.669408
O O8 0.977032 0.213879 0.000202
O O9 0.685061 0.378658 0.407254
O O10 0.131194 0.634398 0.231154
O O11 0.050136 0.733302 0.221602
O O12 0.000000 0.500000 0.000000
O O13 0.000000 0.500000 0.500000
O O14 0.455909 0.883856 0.290042
O O15 0.656536 0.818351 0.069881
O O16 0.691979 0.949927 0.918175
O O17 0.500000 0.500000 0.000000
O O18 0.500000 0.000000 0.000000
#
# Coordination Sequence:
#
# PCOD9053963 Si02
#       8
#     2   2   2   2   2   2   2   2
#     4  11  23  44  70 100 138 189 234 291 363 419
#     4  11  25  43  71 106 139 178 236 296 360 427
#     4  11  23  38  69 101 139 177 232 297 352 414
#     4  11  26  48  70 100 146 197 239 289 361 438
#     4  12  24  44  72 107 137 186 238 297 356 428
#     4  12  28  48  69  96 144 195 240 287 352 434
#     4  11  23  41  69 109 139 171 233 302 357 424
#     4  11  20  39  66 100 137 175 223 291 363 413
#
# _framework density 24.989833000000001
#
# number of rings (size 3 to 8) (size 9 to 14) (size 15 to 20)
#    0.000    0.750    5.000    3.750    3.500    1.500 
#    2.250    0.625    0.000    0.000    0.000    0.000 
#    0.000    0.000    0.000    0.000    0.000    0.000 
#
# Total GULP energy -89161.213266 kJ/mol
# GULP energy per Si atom -5572.575829 kJ/mol
# Density = 2.493296 g / cm^3
# Si number density = 24.989833 Si / 1000 Ang^3
#
#
#
# Elastic Constant Matrix: (Units=GPa)
#
#
# Indices 1 2 3 4 5 6 
#
# 1 74.5901 70.7944 29.3616 -11.3332 -11.1035 -4.2944
# 2 70.7944 136.4242 21.9370 -43.5704 -3.7579 -7.7711
# 3 29.3616 21.9370 72.7357 -18.8055 -26.1706 15.8561
# 4 -11.3332 -43.5704 -18.8055 37.5653 3.0305 -12.4306
# 5 -11.1035 -3.7579 -26.1706 3.0305 45.6850 -8.3948
# 6 -4.2944 -7.7711 15.8561 -12.4306 -8.3948 39.8803
#
#
#
# Elastic Compliance Matrix: (Units=1/GPa)
#
#
# Indices 1 2 3 4 5 6 
#
# 1 0.042912 -0.030023 -0.015065 -0.031051 0.000506 -0.004812
# 2 -0.030023 0.035025 0.009508 0.040426 0.000655 0.012551
# 3 -0.015065 0.009508 0.025760 0.017787 0.010274 -0.002305
# 4 -0.031051 0.040426 0.017787 0.080449 0.004965 0.023583
# 5 0.000506 0.000655 0.010274 0.004965 0.028283 0.003598
# 6 -0.004812 0.012551 -0.002305 0.023583 0.003598 0.036027
#
#
# Mechanical properties :
#
#
# Convention : Reuss Voigt Hill
#
# Bulk Modulus (GPa) = 30.73397 58.65956 44.69677
# Shear Modulus (GPa) = 15.13031 35.40324 25.26677
#
# Velocity S-wave (km/s) = 2.46328 3.76800 3.18320
# Velocity P-wave (km/s) = 4.51836 6.51573 5.60671
#
# Compressibility (1/GPa) = 0.03253729
#
# Stress axis : x y z
#
# Youngs Moduli (GPa) = 23.30328 28.55091 38.82002
#
# Poissons Ratio (x) = 0.85718 0.58482
# Poissons Ratio (y) = 0.69963 -0.36910
# Poissons Ratio (z) = 0.35106 -0.27146
#
# Static dielectric constant tensor:
#      x y z
#    x 2.093290 0.033270 0.039070 
#    y 0.033270 1.745830 0.000410 
#    z 0.039070 0.000410 1.840440 
# 
# From -- ./inp_files/455790.got.cif
#   From: 2010.05.17/outbox.cif.g08.bks.cpg/sg2_228_cif.got.tgz:455790.got - 2010.06.03 11:33:40.
