data_PCOD9053918
_publ_section_title
;
Structure prediction by ZEFSAII (Michael W. Deem and Ramdas Pophale) SiO2 
 PCOD9053918
Probable space group: P -1
;
_chemical_formula_sum "Si O2"
_cell_formula_units_Z 16
_cell_length_a 15.858700
_cell_length_b 12.572144
_cell_length_c 9.654224
_cell_angle_alpha 72.785391
_cell_angle_beta 35.413308
_cell_angle_gamma 48.542035
_cell_volume 691.985005
_symmetry_space_group_name_H-M "P -1"
_symmetry_group_IT_number 2
_symmetry_cell_setting 'triclinic'
loop_
_space_group_symop_operation_xyz
x,y,z
-x,-y,-z
loop_
_atom_site_type_symbol
_atom_site_label
_atom_site_fract_x
_atom_site_fract_y
_atom_site_fract_z
Si Si1 0.452013 0.863597 0.513421
Si Si2 0.717633 0.042372 0.979482
Si Si3 0.079962 0.578907 0.338858
Si Si4 0.161766 0.699837 0.628472
Si Si5 0.572714 0.579019 0.827267
Si Si6 0.526528 0.599721 0.340133
Si Si7 0.317530 0.131730 0.397305
Si Si8 0.111787 0.323549 0.864498
O O1 0.338690 0.918614 0.794266
O O2 0.506455 0.714522 0.427524
O O3 0.670915 0.809521 0.277774
O O4 0.326107 0.009513 0.511037
O O5 0.624929 0.215788 0.984927
O O6 0.563230 0.043828 0.100989
O O7 0.977112 0.854391 0.708047
O O8 0.225356 0.512749 0.305506
O O9 0.000000 0.500000 0.500000
O O10 0.845594 0.779094 0.549091
O O11 0.251802 0.509575 0.008944
O O12 0.320370 0.509440 0.430174
O O13 0.314627 0.710177 0.477255
O O14 0.029183 0.706322 0.919025
O O15 0.500000 0.500000 0.000000
O O16 0.500000 0.500000 0.500000
O O17 0.191852 0.287715 0.614027
O O18 0.000000 0.500000 0.000000
#
# Coordination Sequence:
#
# PCOD9053918 Si02
#       8
#     2   2   2   2   2   2   2   2
#     4  11  23  41  72 108 141 181 245 310 362 431
#     4  11  23  45  75 106 145 186 244 306 366 440
#     4  12  27  48  73 100 149 198 245 299 359 445
#     4  12  24  45  72 101 143 191 241 298 373 436
#     4  12  27  49  69 102 147 199 244 294 371 446
#     4  12  27  47  71 111 147 189 244 308 377 431
#     4  11  21  44  68 108 143 180 245 306 357 428
#     4  11  20  38  71 102 138 186 234 298 362 432
#
# _framework density 23.121888999999999
#
# number of rings (size 3 to 8) (size 9 to 14) (size 15 to 20)
#    0.000    0.500    5.000    5.250    1.750    2.000 
#    2.250    1.250    0.000    0.000    0.000    0.000 
#    0.000    0.000    0.000    0.000    0.000    0.000 
#
# Total GULP energy -89342.055542 kJ/mol
# GULP energy per Si atom -5583.878471 kJ/mol
# Density = 2.306926 g / cm^3
# Si number density = 23.121889 Si / 1000 Ang^3
#
#
#
# Elastic Constant Matrix: (Units=GPa)
#
#
# Indices 1 2 3 4 5 6 
#
# 1 85.8483 26.2854 31.2842 -5.1961 -29.4654 4.9575
# 2 26.2854 127.3334 23.2655 -3.7142 -11.8140 -14.1931
# 3 31.2842 23.2655 85.3295 -10.9505 -21.4942 4.5235
# 4 -5.1961 -3.7142 -10.9505 38.9546 2.5827 -5.5858
# 5 -29.4654 -11.8140 -21.4942 2.5827 50.2818 6.9136
# 6 4.9575 -14.1931 4.5235 -5.5858 6.9136 45.1991
#
#
#
# Elastic Compliance Matrix: (Units=1/GPa)
#
#
# Indices 1 2 3 4 5 6 
#
# 1 0.016602 -0.002481 -0.003128 0.000040 0.008295 -0.003551
# 2 -0.002481 0.009043 -0.001822 0.000555 -0.000612 0.003456
# 3 -0.003128 -0.001822 0.014926 0.003038 0.004238 -0.001996
# 4 0.000040 0.000555 0.003038 0.027078 -0.000388 0.003272
# 5 0.008295 -0.000612 0.004238 -0.000388 0.027226 -0.005739
# 6 -0.003551 0.003456 -0.001996 0.003272 -0.005739 0.025081
#
#
# Mechanical properties :
#
#
# Convention : Reuss Voigt Hill
#
# Bulk Modulus (GPa) = 38.89478 51.13129 45.01303
# Shear Modulus (GPa) = 34.87049 41.39884 38.13466
#
# Velocity S-wave (km/s) = 3.88766 4.23597 4.06555
# Velocity P-wave (km/s) = 6.08359 6.78870 6.44579
#
# Compressibility (1/GPa) = 0.02571039
#
# Stress axis : x y z
#
# Youngs Moduli (GPa) = 60.23209 110.58107 66.99746
#
# Poissons Ratio (x) = 0.27433 0.20954
# Poissons Ratio (y) = 0.14942 0.12208
# Poissons Ratio (z) = 0.18838 0.20150
#
# Static dielectric constant tensor:
#      x y z
#    x 1.897500 -0.039990 -0.014310 
#    y -0.039990 1.941570 -0.042420 
#    z -0.014310 -0.042420 2.105820 
# 
# From -- ./inp_files/464503.got.cif
#   From: 2010.05.17/outbox.cif.g08.bks.cpg/sg2_233_cif.got.tgz:464503.got - 2010.06.03 11:33:40.
