data_PCOD9053102
_publ_section_title
;
Structure prediction by ZEFSAII (Michael W. Deem and Ramdas Pophale) SiO2 
 PCOD9053102
Probable space group: P -1
;
_chemical_formula_sum "Si O2"
_cell_formula_units_Z 12
_cell_length_a 9.171513
_cell_length_b 12.427199
_cell_length_c 8.428814
_cell_angle_alpha 49.471501
_cell_angle_beta 101.757044
_cell_angle_gamma 63.284696
_cell_volume 445.505971
_symmetry_space_group_name_H-M "P -1"
_symmetry_group_IT_number 2
_symmetry_cell_setting 'triclinic'
loop_
_space_group_symop_operation_xyz
x,y,z
-x,-y,-z
loop_
_atom_site_type_symbol
_atom_site_label
_atom_site_fract_x
_atom_site_fract_y
_atom_site_fract_z
Si Si1 0.615063 0.436669 0.914473
Si Si2 0.328798 0.177643 0.122609
Si Si3 0.248058 0.384221 0.588603
Si Si4 0.128151 0.766283 0.317929
Si Si5 0.700807 0.691192 0.675128
Si Si6 0.731761 0.055398 0.183228
O O1 0.394552 0.604292 0.583492
O O2 0.737838 0.496483 0.882454
O O3 0.500000 0.500000 0.000000
O O4 0.584096 0.073487 0.261553
O O5 0.214637 0.305955 0.141346
O O6 0.419385 0.949811 0.361472
O O7 0.196872 0.329608 0.789102
O O8 0.143647 0.620246 0.346095
O O9 0.225617 0.324985 0.472276
O O10 0.535754 0.195751 0.862970
O O11 0.238111 0.810004 0.868748
O O12 0.981447 0.825006 0.385044
O O13 0.000000 0.000000 0.000000
#
# Coordination Sequence:
#
# PCOD9053102 Si02
#       6
#     2   2   2   2   2   2
#     4  11  21  38  61  91 120 160 198 250 305 354
#     4   9  21  37  60  88 115 163 200 250 295 356
#     4   9  20  38  61  85 118 163 194 247 305 351
#     4  11  21  36  61  93 120 158 203 247 304 362
#     4  11  18  36  65  82 118 161 207 235 305 364
#     4   9  20  39  57  87 124 148 199 251 294 355
#
# _framework density 26.935665
#
# number of rings (size 3 to 8) (size 9 to 14) (size 15 to 20)
#    1.000    1.000    1.667    2.500    0.000    3.333 
#    0.000    2.500    3.667    3.000    0.000    0.000 
#    0.000    0.000    0.000    0.000    0.000    0.000 
#
# Total GULP energy -67132.572286 kJ/mol
# GULP energy per Si atom -5594.381024 kJ/mol
# Density = 2.687436 g / cm^3
# Si number density = 26.935665 Si / 1000 Ang^3
#
#
#
# Elastic Constant Matrix: (Units=GPa)
#
#
# Indices 1 2 3 4 5 6 
#
# 1 88.1758 25.0274 -3.1759 8.5376 -9.2911 1.6029
# 2 25.0274 198.6092 35.0881 31.9899 -4.2027 -11.0796
# 3 -3.1759 35.0881 110.0016 36.2767 -8.6661 10.6691
# 4 8.5376 31.9899 36.2767 41.4260 -10.5153 -11.5461
# 5 -9.2911 -4.2027 -8.6661 -10.5153 29.5656 0.0518
# 6 1.6029 -11.0796 10.6691 -11.5461 0.0518 47.7237
#
#
#
# Elastic Compliance Matrix: (Units=1/GPa)
#
#
# Indices 1 2 3 4 5 6 
#
# 1 0.012558 -0.001528 0.002383 -0.003248 0.003276 -0.002099
# 2 -0.001528 0.005987 -0.000953 -0.003549 -0.001172 0.000797
# 3 0.002383 -0.000953 0.015148 -0.015152 -0.000323 -0.007353
# 4 -0.003248 -0.003549 -0.015152 0.047536 0.010915 0.014161
# 5 0.003276 -0.001172 -0.000323 0.010915 0.038470 0.002289
# 6 -0.002099 0.000797 -0.007353 0.014161 0.002289 0.026277
#
#
# Mechanical properties :
#
#
# Convention : Reuss Voigt Hill
#
# Bulk Modulus (GPa) = 29.85313 56.74065 43.29689
# Shear Modulus (GPa) = 31.77861 46.39951 39.08906
#
# Velocity S-wave (km/s) = 3.43854 4.15493 3.81360
# Velocity P-wave (km/s) = 5.18382 6.64296 5.95822
#
# Compressibility (1/GPa) = 0.03349732
#
# Stress axis : x y z
#
# Youngs Moduli (GPa) = 79.62801 167.02006 66.01474
#
# Poissons Ratio (x) = 0.25522 -0.15730
# Poissons Ratio (y) = 0.12168 0.06291
# Poissons Ratio (z) = -0.18974 0.15918
#
# Static dielectric constant tensor:
#      x y z
#    x 2.160750 -0.038210 0.054640 
#    y -0.038210 2.050210 -0.010650 
#    z 0.054640 -0.010650 2.193530 
# 
# From -- ./inp_files/174382.got.cif
#   From: 2010.05.17/outbox.cif.g08.bks.cpg/sg2_88_cif.got.tgz:174382.got - 2010.06.03 11:33:40.
