data_PCOD9053209
_publ_section_title
;
Structure prediction by ZEFSAII (Michael W. Deem and Ramdas Pophale) SiO2 
 PCOD9053209
Probable space group: P -1
;
_chemical_formula_sum "Si O2"
_cell_formula_units_Z 15
_cell_length_a 8.683462
_cell_length_b 19.297835
_cell_length_c 12.133405
_cell_angle_alpha 157.066206
_cell_angle_beta 110.090914
_cell_angle_gamma 58.871063
_cell_volume 622.311339
_symmetry_space_group_name_H-M "P -1"
_symmetry_group_IT_number 2
_symmetry_cell_setting 'triclinic'
loop_
_space_group_symop_operation_xyz
x,y,z
-x,-y,-z
loop_
_atom_site_type_symbol
_atom_site_label
_atom_site_fract_x
_atom_site_fract_y
_atom_site_fract_z
Si Si1 0.806388 0.120159 0.057936
Si Si2 0.273462 0.180524 0.297824
Si Si3 0.000000 0.500000 0.500000
Si Si4 0.180620 0.778328 0.017637
Si Si5 0.979030 0.540758 0.924899
Si Si6 0.194004 0.758159 0.235298
Si Si7 0.576322 0.287448 0.575972
Si Si8 0.647420 0.497283 0.710064
O O1 0.871474 0.065009 0.867484
O O2 0.714528 0.368189 0.423410
O O3 0.676915 0.044756 0.972023
O O4 0.000000 0.000000 0.000000
O O5 0.144207 0.295246 0.324406
O O6 0.132436 0.335642 0.589691
O O7 0.473502 0.174197 0.337136
O O8 0.097624 0.628855 0.759764
O O9 0.416042 0.648777 0.875708
O O10 0.132766 0.863882 0.255164
O O11 0.767055 0.603816 0.921555
O O12 0.038258 0.706230 0.159698
O O13 0.000000 0.500000 0.000000
O O14 0.280035 0.831558 0.460103
O O15 0.390181 0.519946 0.906907
O O16 0.689404 0.334107 0.580458
#
# Coordination Sequence:
#
# PCOD9053209 Si02
#       8
#     2   2   1   2   2   2   2   2
#     4  12  24  39  59  89 132 164 195 252 312 361
#     4  11  23  39  62  89 121 166 202 244 314 363
#     4  12  18  38  64  86 118 164 204 244 298 372
#     4  11  23  39  62  90 123 164 208 249 299 367
#     4  11  19  33  64  93 116 152 210 257 298 357
#     4   9  18  35  60  85 116 156 202 253 300 353
#     4   9  18  36  59  85 114 155 207 252 293 358
#     4  11  21  37  62  94 122 159 208 254 296 366
#
# _framework density 24.103691999999999
#
# number of rings (size 3 to 8) (size 9 to 14) (size 15 to 20)
#    0.000    1.333    8.000    0.400    1.867    0.533 
#    0.000    0.667    0.000    1.600    0.000    0.000 
#    0.000    0.000    0.000    0.000    0.000    0.000 
#
# Total GULP energy -83586.050031 kJ/mol
# GULP energy per Si atom -5572.403335 kJ/mol
# Density = 2.404883 g / cm^3
# Si number density = 24.103692 Si / 1000 Ang^3
#
#
#
# Elastic Constant Matrix: (Units=GPa)
#
#
# Indices 1 2 3 4 5 6 
#
# 1 119.2317 55.7964 32.5742 -20.3046 12.0572 -5.7867
# 2 55.7964 188.4834 28.6167 -19.4721 8.5453 5.7096
# 3 32.5742 28.6167 58.0876 -11.1012 10.7206 -4.2395
# 4 -20.3046 -19.4721 -11.1012 31.3187 0.5927 4.6790
# 5 12.0572 8.5453 10.7206 0.5927 26.4580 -8.3263
# 6 -5.7867 5.7096 -4.2395 4.6790 -8.3263 47.9989
#
#
#
# Elastic Compliance Matrix: (Units=1/GPa)
#
#
# Indices 1 2 3 4 5 6 
#
# 1 0.011637 -0.002229 -0.003941 0.004768 -0.002987 0.000337
# 2 -0.002229 0.006523 -0.001432 0.002360 -0.001062 -0.001585
# 3 -0.003941 -0.001432 0.022273 0.004576 -0.006861 0.000026
# 4 0.004768 0.002360 0.004576 0.038887 -0.007016 -0.004310
# 5 -0.002987 -0.001062 -0.006861 -0.007016 0.044836 0.007622
# 6 0.000337 -0.001585 0.000026 -0.004310 0.007622 0.022808
#
#
# Mechanical properties :
#
#
# Convention : Reuss Voigt Hill
#
# Bulk Modulus (GPa) = 39.63532 66.64193 53.13862
# Shear Modulus (GPa) = 29.31231 37.74281 33.52756
#
# Velocity S-wave (km/s) = 3.49103 3.96138 3.73362
# Velocity P-wave (km/s) = 5.72094 6.97362 6.37811
#
# Compressibility (1/GPa) = 0.02523002
#
# Stress axis : x y z
#
# Youngs Moduli (GPa) = 85.93246 153.31033 44.89671
#
# Poissons Ratio (x) = 0.34169 0.17692
# Poissons Ratio (y) = 0.19152 0.06430
# Poissons Ratio (z) = 0.33862 0.21957
#
# Static dielectric constant tensor:
#      x y z
#    x 1.785060 -0.095840 -0.209760 
#    y -0.095840 1.917510 -0.113680 
#    z -0.209760 -0.113680 1.794840 
# 
# From -- ./inp_files/401572.got.cif
#   From: 2010.05.17/outbox.cif.g08.bks.cpg/sg2_201_cif.got.tgz:401572.got - 2010.06.03 11:33:40.
