data_PCOD9053048
_publ_section_title
;
Structure prediction by ZEFSAII (Michael W. Deem and Ramdas Pophale) SiO2 
 PCOD9053048
Probable space group: P -1
;
_chemical_formula_sum "Si O2"
_cell_formula_units_Z 16
_cell_length_a 14.210450
_cell_length_b 11.173548
_cell_length_c 13.653425
_cell_angle_alpha 58.534814
_cell_angle_beta 40.216904
_cell_angle_gamma 29.775454
_cell_volume 624.517602
_symmetry_space_group_name_H-M "P -1"
_symmetry_group_IT_number 2
_symmetry_cell_setting 'triclinic'
loop_
_space_group_symop_operation_xyz
x,y,z
-x,-y,-z
loop_
_atom_site_type_symbol
_atom_site_label
_atom_site_fract_x
_atom_site_fract_y
_atom_site_fract_z
Si Si1 0.748116 0.825039 0.452128
Si Si2 0.534377 0.619996 0.051721
Si Si3 0.783332 0.240562 0.491060
Si Si4 0.343714 0.495804 0.337447
Si Si5 0.795261 0.755118 0.661215
Si Si6 0.879519 0.996164 0.205781
Si Si7 0.956924 0.861919 0.872998
Si Si8 0.597200 0.693108 0.185972
O O1 0.692484 0.809412 0.610167
O O2 0.780233 0.964845 0.377974
O O3 0.036831 0.517524 0.315594
O O4 0.500000 0.000000 0.500000
O O5 0.346291 0.633492 0.211783
O O6 0.551567 0.688297 0.111291
O O7 0.373829 0.846081 0.003222
O O8 0.829299 0.310093 0.926890
O O9 0.645108 0.472037 0.569721
O O10 0.572180 0.285357 0.624739
O O11 0.919659 0.195928 0.307084
O O12 0.000000 0.000000 0.500000
O O13 0.062802 0.640765 0.486339
O O14 0.649561 0.176606 0.224726
O O15 0.553013 0.035858 0.790830
O O16 0.933225 0.108331 0.153296
O O17 0.084465 0.607470 0.911499
#
# Coordination Sequence:
#
# PCOD9053048 Si02
#       8
#     2   2   2   2   2   2   2   2
#     4  11  25  43  64  91 117 163 207 257 304 351
#     4  11  23  41  56  95 133 163 196 244 310 370
#     4  11  18  33  56  91 126 154 191 249 316 354
#     4  11  20  36  63  91 127 158 189 256 309 363
#     4  11  23  42  65  92 123 152 209 261 306 348
#     4  12  24  39  63  89 129 167 206 245 298 379
#     4  12  22  35  61  94 125 165 198 243 318 368
#     4  11  22  36  61  90 124 161 198 253 303 366
#
# _framework density 25.619776000000002
#
# number of rings (size 3 to 8) (size 9 to 14) (size 15 to 20)
#    0.000    0.750    7.500    2.625    1.750    1.000 
#    0.000    0.625    0.000    1.500    0.000    0.000 
#    0.000    0.000    0.000    0.000    0.000    0.000 
#
# Total GULP energy -89489.619427 kJ/mol
# GULP energy per Si atom -5593.101214 kJ/mol
# Density = 2.556146 g / cm^3
# Si number density = 25.619776 Si / 1000 Ang^3
#
#
#
# Elastic Constant Matrix: (Units=GPa)
#
#
# Indices 1 2 3 4 5 6 
#
# 1 90.0476 48.5299 25.4924 21.6391 7.7852 -11.9703
# 2 48.5299 189.8938 19.5978 44.6769 -5.4593 -13.4650
# 3 25.4924 19.5978 46.0016 20.6929 0.2321 -5.7365
# 4 21.6391 44.6769 20.6929 52.6421 -2.5855 -8.6110
# 5 7.7852 -5.4593 0.2321 -2.5855 21.7590 11.4113
# 6 -11.9703 -13.4650 -5.7365 -8.6110 11.4113 53.0599
#
#
#
# Elastic Compliance Matrix: (Units=1/GPa)
#
#
# Indices 1 2 3 4 5 6 
#
# 1 0.016217 -0.003162 -0.006582 -0.001197 -0.008668 0.003814
# 2 -0.003162 0.007242 0.000943 -0.005119 0.002393 -0.000119
# 3 -0.006582 0.000943 0.029283 -0.009529 0.001072 0.000143
# 4 -0.001197 -0.005119 -0.009529 0.027918 0.001747 0.001556
# 5 -0.008668 0.002393 0.001072 0.001747 0.056755 -0.013155
# 6 0.003814 -0.000119 0.000143 0.001556 -0.013155 0.022774
#
#
# Mechanical properties :
#
#
# Convention : Reuss Voigt Hill
#
# Bulk Modulus (GPa) = 28.45822 57.02036 42.73929
# Shear Modulus (GPa) = 26.38458 40.98038 33.68248
#
# Velocity S-wave (km/s) = 3.21261 4.00379 3.62982
# Velocity P-wave (km/s) = 4.98931 6.60897 5.85541
#
# Compressibility (1/GPa) = 0.03513924
#
# Stress axis : x y z
#
# Youngs Moduli (GPa) = 61.66398 138.09166 34.14935
#
# Poissons Ratio (x) = 0.43669 0.22476
# Poissons Ratio (y) = 0.19500 -0.03220
# Poissons Ratio (z) = 0.40586 -0.13021
#
# Static dielectric constant tensor:
#      x y z
#    x 1.998670 0.014710 -0.011460 
#    y 0.014710 2.099600 0.059360 
#    z -0.011460 0.059360 2.184240 
# 
# From -- ./inp_files/532525.got.cif
#   From: 2010.05.17/outbox.cif.g08.bks.cpg/sg2_267_cif.got.tgz:532525.got - 2010.06.03 11:33:40.
