data_PCOD9053047
_publ_section_title
;
Structure prediction by ZEFSAII (Michael W. Deem and Ramdas Pophale) SiO2 
 PCOD9053047
Probable space group: P -1
;
_chemical_formula_sum "Si O2"
_cell_formula_units_Z 16
_cell_length_a 23.441383
_cell_length_b 15.112636
_cell_length_c 11.262523
_cell_angle_alpha 46.589009
_cell_angle_beta 28.133397
_cell_angle_gamma 29.080667
_cell_volume 851.620293
_symmetry_space_group_name_H-M "P -1"
_symmetry_group_IT_number 2
_symmetry_cell_setting 'triclinic'
loop_
_space_group_symop_operation_xyz
x,y,z
-x,-y,-z
loop_
_atom_site_type_symbol
_atom_site_label
_atom_site_fract_x
_atom_site_fract_y
_atom_site_fract_z
Si Si1 0.805933 0.568022 0.776507
Si Si2 0.570457 0.012395 0.029681
Si Si3 0.561243 0.842723 0.615696
Si Si4 0.017023 0.253950 0.484273
Si Si5 0.450762 0.386158 0.312901
Si Si6 0.661274 0.654308 0.217501
Si Si7 0.163751 0.788394 0.331761
Si Si8 0.013868 0.480762 0.852400
O O1 0.625582 0.791253 0.855773
O O2 0.000000 0.500000 0.500000
O O3 0.865528 0.418716 0.709500
O O4 0.727725 0.570958 0.039501
O O5 0.571665 0.068031 0.108796
O O6 0.579148 0.858287 0.169632
O O7 0.765809 0.915022 0.702950
O O8 0.578975 0.710050 0.625362
O O9 0.769116 0.717897 0.399940
O O10 0.500000 0.000000 0.500000
O O11 0.032961 0.353201 0.271499
O O12 0.939782 0.204801 0.591401
O O13 0.457141 0.340325 0.481962
O O14 0.274324 0.614289 0.385966
O O15 0.656515 0.279921 0.993185
O O16 0.861564 0.507122 0.058172
O O17 0.000000 0.000000 0.500000
O O18 0.000000 0.500000 0.000000
#
# Coordination Sequence:
#
# PCOD9053047 Si02
#       8
#     2   2   2   2   2   2   2   2
#     4  12  22  40  61  93 130 170 199 252 316 378
#     4  11  21  35  60  92 128 160 204 244 317 385
#     4  12  19  33  59  95 128 159 193 261 330 384
#     4  11  22  39  60  85 121 166 209 252 310 368
#     4  11  23  41  62  93 129 161 211 263 315 373
#     4  11  22  37  58  93 127 162 202 258 307 377
#     4  11  24  44  66  88 124 170 216 260 313 374
#     4  11  18  33  56  88 130 154 193 249 321 377
#
# _framework density 18.787717000000001
#
# number of rings (size 3 to 8) (size 9 to 14) (size 15 to 20)
#    0.000    0.750    7.500    1.875    0.000    2.000 
#    2.250    0.625    0.000    1.500    0.000    0.000 
#    0.000    0.000    0.000    0.000    0.000    0.000 
#
# Total GULP energy -89221.299354 kJ/mol
# GULP energy per Si atom -5576.331210 kJ/mol
# Density = 1.874495 g / cm^3
# Si number density = 18.787717 Si / 1000 Ang^3
#
#
#
# Elastic Constant Matrix: (Units=GPa)
#
#
# Indices 1 2 3 4 5 6 
#
# 1 92.9167 41.8239 43.7703 2.7028 22.3223 0.8836
# 2 41.8239 99.0516 59.7502 19.3315 -0.3527 -0.5255
# 3 43.7703 59.7502 108.7843 8.0036 10.9160 -5.0042
# 4 2.7028 19.3315 8.0036 34.5081 -7.8828 -0.2003
# 5 22.3223 -0.3527 10.9160 -7.8828 48.4822 6.1391
# 6 0.8836 -0.5255 -5.0042 -0.2003 6.1391 29.5792
#
#
#
# Elastic Compliance Matrix: (Units=1/GPa)
#
#
# Indices 1 2 3 4 5 6 
#
# 1 0.016076 -0.005147 -0.003017 0.000802 -0.006668 0.000307
# 2 -0.005147 0.018513 -0.007960 -0.007378 0.003299 -0.001599
# 3 -0.003017 -0.007960 0.015101 0.000676 -0.002338 0.002993
# 4 0.000802 -0.007378 0.000676 0.034045 0.005069 -0.000862
# 5 -0.006668 0.003299 -0.002338 0.005069 0.025761 -0.005450
# 6 0.000307 -0.001599 0.002993 -0.000862 -0.005450 0.035402
#
#
# Mechanical properties :
#
#
# Convention : Reuss Voigt Hill
#
# Bulk Modulus (GPa) = 57.32847 65.71573 61.52210
# Shear Modulus (GPa) = 27.32844 32.87444 30.10144
#
# Velocity S-wave (km/s) = 3.81805 4.18758 4.00708
# Velocity P-wave (km/s) = 7.07225 7.64428 7.36382
#
# Compressibility (1/GPa) = 0.01744334
#
# Stress axis : x y z
#
# Youngs Moduli (GPa) = 62.20449 54.01485 66.22112
#
# Poissons Ratio (x) = 0.27799 0.19981
# Poissons Ratio (y) = 0.32014 0.52709
# Poissons Ratio (z) = 0.18769 0.42994
#
# Static dielectric constant tensor:
#      x y z
#    x 1.647960 -0.008320 -0.021600 
#    y -0.008320 1.667630 0.055980 
#    z -0.021600 0.055980 1.746040 
# 
# From -- ./inp_files/475053.got.cif
#   From: 2010.05.17/outbox.cif.g08.bks.cpg/sg2_238_cif.got.tgz:475053.got - 2010.06.03 11:33:40.
