data_PCOD9053245
_publ_section_title
;
Structure prediction by ZEFSAII (Michael W. Deem and Ramdas Pophale) SiO2 
 PCOD9053245
Probable space group: P -1
;
_chemical_formula_sum "Si O2"
_cell_formula_units_Z 12
_cell_length_a 8.981309
_cell_length_b 7.895241
_cell_length_c 8.199957
_cell_angle_alpha 102.067251
_cell_angle_beta 50.831986
_cell_angle_gamma 93.369990
_cell_volume 438.776795
_symmetry_space_group_name_H-M "P -1"
_symmetry_group_IT_number 2
_symmetry_cell_setting 'triclinic'
loop_
_space_group_symop_operation_xyz
x,y,z
-x,-y,-z
loop_
_atom_site_type_symbol
_atom_site_label
_atom_site_fract_x
_atom_site_fract_y
_atom_site_fract_z
Si Si1 0.621119 0.285313 0.742981
Si Si2 0.709281 0.685157 0.477115
Si Si3 0.640515 0.368705 0.100718
Si Si4 0.947427 0.761027 0.641559
Si Si5 0.803235 0.013485 0.345360
Si Si6 0.920623 0.325615 0.143907
O O1 0.466872 0.440043 0.824458
O O2 0.629391 0.114432 0.590997
O O3 0.842623 0.334791 0.575561
O O4 0.607567 0.259838 0.939516
O O5 0.485911 0.695746 0.677048
O O6 0.803997 0.741079 0.592118
O O7 0.785577 0.490993 0.339644
O O8 0.764224 0.816129 0.323643
O O9 0.863753 0.362035 0.000682
O O10 0.006278 0.956680 0.671841
O O11 0.910033 0.692811 0.837588
O O12 0.844832 0.134591 0.189561
#
# Coordination Sequence:
#
# PCOD9053245 Si02
#       6
#     2   2   2   2   2   2
#     4   8  20  35  53  71 113 134 164 210 263 300
#     4  12  18  32  64  74  98 139 176 209 252 300
#     4  11  19  35  54  76 108 137 165 214 258 300
#     4   8  19  37  52  78 102 131 178 209 248 304
#     4   8  20  34  55  77 102 131 178 208 251 302
#     4   9  21  33  52  80 106 129 173 215 252 295
#
# _framework density 27.348755000000001
#
# number of rings (size 3 to 8) (size 9 to 14) (size 15 to 20)
#    2.000    0.333    3.333    1.500    0.000    1.333 
#    0.000    0.833    0.000    2.000    0.000    0.000 
#    0.000    0.000    0.000    0.000    0.000    0.000 
#
# Total GULP energy -66875.282587 kJ/mol
# GULP energy per Si atom -5572.940216 kJ/mol
# Density = 2.728651 g / cm^3
# Si number density = 27.348755 Si / 1000 Ang^3
#
#
#
# Elastic Constant Matrix: (Units=GPa)
#
#
# Indices 1 2 3 4 5 6 
#
# 1 147.0597 20.4782 1.1786 -5.0149 6.5658 -9.8434
# 2 20.4782 68.4552 18.2343 11.2274 -0.2770 0.6316
# 3 1.1786 18.2343 36.8676 3.6451 -8.9436 5.1566
# 4 -5.0149 11.2274 3.6451 40.9330 -3.6935 -1.8007
# 5 6.5658 -0.2770 -8.9436 -3.6935 46.6740 -4.2017
# 6 -9.8434 0.6316 5.1566 -1.8007 -4.2017 22.7839
#
#
#
# Elastic Compliance Matrix: (Units=1/GPa)
#
#
# Indices 1 2 3 4 5 6 
#
# 1 0.007465 -0.002622 0.000294 0.001698 -0.000582 0.003258
# 2 -0.002622 0.018565 -0.008984 -0.004775 -0.001647 -0.000295
# 3 0.000294 -0.008984 0.033867 -0.000266 0.005812 -0.006238
# 4 0.001698 -0.004775 -0.000266 0.026307 0.002069 0.003387
# 5 -0.000582 -0.001647 0.005812 0.002069 0.023035 0.002890
# 6 0.003258 -0.000295 -0.006238 0.003387 0.002890 0.047519
#
#
# Mechanical properties :
#
#
# Convention : Reuss Voigt Hill
#
# Bulk Modulus (GPa) = 26.83075 36.90718 31.86897
# Shear Modulus (GPa) = 26.06782 36.24429 31.15605
#
# Velocity S-wave (km/s) = 3.09068 3.64437 3.37888
# Velocity P-wave (km/s) = 4.75061 5.58863 5.18658
#
# Compressibility (1/GPa) = 0.03727066
#
# Stress axis : x y z
#
# Youngs Moduli (GPa) = 133.96326 53.86523 29.52725
#
# Poissons Ratio (x) = 0.14125 -0.00867
# Poissons Ratio (y) = 0.35128 0.26528
# Poissons Ratio (z) = -0.03932 0.48394
#
# Static dielectric constant tensor:
#      x y z
#    x 2.085070 0.049100 -0.017250 
#    y 0.049100 2.131960 -0.038950 
#    z -0.017250 -0.038950 2.251570 
# 
# From -- ./inp_files/231448.got.cif
#   From: 2010.05.17/outbox.cif.g08.bks.cpg/sg2_116_cif.got.tgz:231448.got - 2010.06.03 11:33:40.
