data_PCOD9053314
_publ_section_title
;
Structure prediction by ZEFSAII (Michael W. Deem and Ramdas Pophale) SiO2 
 PCOD9053314
Probable space group: P -1
;
_chemical_formula_sum "Si O2"
_cell_formula_units_Z 14
_cell_length_a 22.016728
_cell_length_b 9.886389
_cell_length_c 11.914758
_cell_angle_alpha 117.149150
_cell_angle_beta 32.018430
_cell_angle_gamma 141.137282
_cell_volume 681.727028
_symmetry_space_group_name_H-M "P -1"
_symmetry_group_IT_number 2
_symmetry_cell_setting 'triclinic'
loop_
_space_group_symop_operation_xyz
x,y,z
-x,-y,-z
loop_
_atom_site_type_symbol
_atom_site_label
_atom_site_fract_x
_atom_site_fract_y
_atom_site_fract_z
Si Si1 0.886212 0.828251 0.730304
Si Si2 0.927378 0.142843 0.951727
Si Si3 0.321465 0.700629 0.428809
Si Si4 0.089090 0.739046 0.744659
Si Si5 0.471812 0.617722 0.011723
Si Si6 0.669338 0.094256 0.201491
Si Si7 0.914364 0.239031 0.503162
O O1 0.642907 0.566243 0.989137
O O2 0.950366 0.731912 0.629927
O O3 0.942565 0.999948 0.810550
O O4 0.000000 0.000000 0.500000
O O5 0.141599 0.464949 0.710155
O O6 0.748594 0.038756 0.127708
O O7 0.891945 0.117024 0.130596
O O8 0.315169 0.566430 0.292460
O O9 0.268367 0.809740 0.508414
O O10 0.543970 0.922592 0.219970
O O11 0.080874 0.782159 0.646093
O O12 0.873447 0.414071 0.977974
O O13 0.500000 0.500000 0.000000
O O14 0.681060 0.939228 0.787339
O O15 0.500000 0.000000 0.500000
O O16 0.000000 0.500000 0.500000
#
# Coordination Sequence:
#
# PCOD9053314 Si02
#       7
#     2   2   2   2   2   2   2
#     4  12  25  46  70  99 138 184 231 283 337 411
#     4  11  22  40  65  99 136 177 226 281 336 410
#     4  11  20  37  66  97 137 176 229 279 330 408
#     4  11  24  40  62 101 141 174 223 287 349 394
#     4  12  24  44  72 100 133 187 234 271 342 415
#     4  11  19  36  66 101 132 179 229 271 336 413
#     4  12  28  47  69 105 142 178 228 291 346 401
#
# _framework density 20.536076999999999
#
# number of rings (size 3 to 8) (size 9 to 14) (size 15 to 20)
#    0.000    0.571    5.714    3.429    2.000    4.000 
#    0.000    0.714    0.000    0.000    0.000    0.000 
#    0.000    0.000    0.000    0.000    0.000    0.000 
#
# Total GULP energy -78184.602292 kJ/mol
# GULP energy per Si atom -5584.614449 kJ/mol
# Density = 2.048934 g / cm^3
# Si number density = 20.536077 Si / 1000 Ang^3
#
#
#
# Elastic Constant Matrix: (Units=GPa)
#
#
# Indices 1 2 3 4 5 6 
#
# 1 146.5480 62.9700 40.4479 5.1431 2.7627 8.8036
# 2 62.9700 117.8409 31.5284 1.6245 1.0811 5.6984
# 3 40.4479 31.5284 72.9493 -1.3602 0.7663 -4.6064
# 4 5.1431 1.6245 -1.3602 37.4848 12.7804 -6.6562
# 5 2.7627 1.0811 0.7663 12.7804 38.7243 -0.6139
# 6 8.8036 5.6984 -4.6064 -6.6562 -0.6139 38.7988
#
#
#
# Elastic Compliance Matrix: (Units=1/GPa)
#
#
# Indices 1 2 3 4 5 6 
#
# 1 0.009857 -0.004089 -0.003883 -0.001751 0.000028 -0.002397
# 2 -0.004089 0.011469 -0.002767 -0.000270 0.000098 -0.001130
# 3 -0.003883 -0.002767 0.017338 0.002159 -0.000643 0.003706
# 4 -0.001751 -0.000270 0.002159 0.031551 -0.010229 0.005944
# 5 0.000028 0.000098 -0.000643 -0.010229 0.029186 -0.001390
# 6 -0.002397 -0.001130 0.003706 0.005944 -0.001390 0.027922
#
#
# Mechanical properties :
#
#
# Convention : Reuss Voigt Hill
#
# Bulk Modulus (GPa) = 58.18403 67.47008 62.82705
# Shear Modulus (GPa) = 32.35669 36.49438 34.42553
#
# Velocity S-wave (km/s) = 3.97369 4.22012 4.09876
# Velocity P-wave (km/s) = 7.03191 7.52806 7.28421
#
# Compressibility (1/GPa) = 0.01718685
#
# Stress axis : x y z
#
# Youngs Moduli (GPa) = 101.44945 87.19393 57.67716
#
# Poissons Ratio (x) = 0.35651 0.22394
# Poissons Ratio (y) = 0.41480 0.15960
# Poissons Ratio (z) = 0.39389 0.24127
#
# Static dielectric constant tensor:
#      x y z
#    x 1.725120 0.038580 0.035310 
#    y 0.038580 1.771100 0.035520 
#    z 0.035310 0.035520 1.722190 
# 
# From -- ./inp_files/70963.got.cif
#   From: 2010.05.17/outbox.cif.g08.bks.cpg/sg2_36_cif.got.tgz:70963.got - 2010.06.03 11:33:40.
