data_PCOD9053253
_publ_section_title
;
Structure prediction by ZEFSAII (Michael W. Deem and Ramdas Pophale) SiO2 
 PCOD9053253
Probable space group: P -1
;
_chemical_formula_sum "Si O2"
_cell_formula_units_Z 16
_cell_length_a 18.380974
_cell_length_b 12.856085
_cell_length_c 11.495344
_cell_angle_alpha 145.575757
_cell_angle_beta 38.826979
_cell_angle_gamma 151.615698
_cell_volume 715.497817
_symmetry_space_group_name_H-M "P -1"
_symmetry_group_IT_number 2
_symmetry_cell_setting 'triclinic'
loop_
_space_group_symop_operation_xyz
x,y,z
-x,-y,-z
loop_
_atom_site_type_symbol
_atom_site_label
_atom_site_fract_x
_atom_site_fract_y
_atom_site_fract_z
Si Si1 0.010253 0.486689 0.825927
Si Si2 0.702977 0.578462 0.739873
Si Si3 0.455320 0.040219 0.449534
Si Si4 0.499700 0.167618 0.249014
Si Si5 0.821038 0.656761 0.403734
Si Si6 0.305263 0.038015 0.960695
Si Si7 0.258606 0.048820 0.289155
Si Si8 0.124793 0.544238 0.475319
O O1 0.078881 0.422570 0.781390
O O2 0.122620 0.784766 0.963371
O O3 0.048507 0.476484 0.634770
O O4 0.831140 0.235109 0.829391
O O5 0.549641 0.299869 0.638219
O O6 0.791616 0.665831 0.585140
O O7 0.802430 0.587466 0.727252
O O8 0.673640 0.762114 0.960882
O O9 0.286520 0.826095 0.516903
O O10 0.429264 0.043064 0.347475
O O11 0.580627 0.004924 0.258672
O O12 0.668429 0.424767 0.311049
O O13 0.390977 0.207428 0.365748
O O14 0.500000 0.000000 0.000000
O O15 0.853816 0.890824 0.521399
O O16 0.340670 0.121105 0.128136
O O17 0.000000 0.500000 0.500000
#
# Coordination Sequence:
#
# PCOD9053253 Si02
#       8
#     2   2   2   2   2   2   2   2
#     4  11  21  40  60  86 124 162 199 247 302 361
#     4   9  21  39  67  90 118 161 207 249 300 362
#     4  11  21  42  66  87 123 164 203 252 297 365
#     4  11  19  35  56  88 120 153 196 246 301 351
#     4   9  19  36  58  88 119 159 205 240 296 366
#     4  11  21  39  66  95 119 157 213 248 300 363
#     4  11  21  34  61  91 126 157 197 253 301 356
#     4  11  23  42  65  88 123 162 201 254 311 356
#
# _framework density 22.362051999999998
#
# number of rings (size 3 to 8) (size 9 to 14) (size 15 to 20)
#    0.000    1.500    5.000    2.250    0.000    0.500 
#    0.000    0.625    2.750    0.000    0.000    0.000 
#    0.000    0.000    0.000    0.000    0.000    0.000 
#
# Total GULP energy -89090.422379 kJ/mol
# GULP energy per Si atom -5568.151399 kJ/mol
# Density = 2.231116 g / cm^3
# Si number density = 22.362052 Si / 1000 Ang^3
#
#
#
# Elastic Constant Matrix: (Units=GPa)
#
#
# Indices 1 2 3 4 5 6 
#
# 1 187.3361 50.7782 47.3678 10.7621 -5.9086 -1.5411
# 2 50.7782 107.6100 23.1753 9.3878 -15.5624 -3.0192
# 3 47.3678 23.1753 65.8225 16.1758 -19.8774 -1.1870
# 4 10.7621 9.3878 16.1758 28.0294 -9.0553 -1.7499
# 5 -5.9086 -15.5624 -19.8774 -9.0553 33.2127 0.2363
# 6 -1.5411 -3.0192 -1.1870 -1.7499 0.2363 29.2868
#
#
#
# Elastic Compliance Matrix: (Units=1/GPa)
#
#
# Indices 1 2 3 4 5 6 
#
# 1 0.007316 -0.002784 -0.005262 0.000150 -0.003111 -0.000081
# 2 -0.002784 0.011444 -0.000450 -0.001057 0.004303 0.000917
# 3 -0.005262 -0.000450 0.024609 -0.008376 0.011297 0.000083
# 4 0.000150 -0.001057 -0.008376 0.042943 0.006212 0.002075
# 5 -0.003111 0.004303 0.011297 0.006212 0.040021 0.000786
# 6 -0.000081 0.000917 0.000083 0.002075 0.000786 0.034356
#
#
# Mechanical properties :
#
#
# Convention : Reuss Voigt Hill
#
# Bulk Modulus (GPa) = 37.91358 67.04569 52.47964
# Shear Modulus (GPa) = 26.81344 34.06894 30.44119
#
# Velocity S-wave (km/s) = 3.46650 3.90746 3.69357
# Velocity P-wave (km/s) = 5.74573 7.09962 6.45825
#
# Compressibility (1/GPa) = 0.02637577
#
# Stress axis : x y z
#
# Youngs Moduli (GPa) = 136.69104 87.38457 40.63548
#
# Poissons Ratio (x) = 0.24329 0.21383
# Poissons Ratio (y) = 0.38056 0.01829
# Poissons Ratio (z) = 0.71930 0.03933
#
# Static dielectric constant tensor:
#      x y z
#    x 1.868300 0.018640 -0.072990 
#    y 0.018640 1.878990 -0.043620 
#    z -0.072990 -0.043620 1.999500 
# 
# From -- ./inp_files/464115.got.cif
#   From: 2010.05.17/outbox.cif.g08.bks.cpg/sg2_233_cif.got.tgz:464115.got - 2010.06.03 11:33:40.
