data_PCOD9053500
_publ_section_title
;
Structure prediction by ZEFSAII (Michael W. Deem and Ramdas Pophale) SiO2 
 PCOD9053500
Probable space group: P -1
;
_chemical_formula_sum "Si O2"
_cell_formula_units_Z 14
_cell_length_a 7.755966
_cell_length_b 18.213028
_cell_length_c 11.724974
_cell_angle_alpha 27.170591
_cell_angle_beta 133.138772
_cell_angle_gamma 128.433674
_cell_volume 551.446593
_symmetry_space_group_name_H-M "P -1"
_symmetry_group_IT_number 2
_symmetry_cell_setting 'triclinic'
loop_
_space_group_symop_operation_xyz
x,y,z
-x,-y,-z
loop_
_atom_site_type_symbol
_atom_site_label
_atom_site_fract_x
_atom_site_fract_y
_atom_site_fract_z
Si Si1 0.897704 0.311663 0.893108
Si Si2 0.688540 0.232321 0.145898
Si Si3 0.301001 0.618604 0.705708
Si Si4 0.608023 0.492064 0.345968
Si Si5 0.084870 0.325606 0.375546
Si Si6 0.237908 0.008485 0.824558
Si Si7 0.676614 0.875902 0.557237
O O1 0.720600 0.276963 0.966417
O O2 0.147276 0.258859 0.132377
O O3 0.867221 0.170072 0.981278
O O4 0.786805 0.460933 0.571814
O O5 0.906228 0.316724 0.198644
O O6 0.685700 0.038346 0.412839
O O7 0.456761 0.322084 0.957405
O O8 0.284015 0.581809 0.616303
O O9 0.416120 0.794680 0.541623
O O10 0.060893 0.594076 0.701410
O O11 0.500000 0.500000 0.000000
O O12 0.348886 0.400996 0.373024
O O13 0.114117 0.136364 0.670406
O O14 0.243000 0.074201 0.604431
O O15 0.500000 0.000000 0.000000
#
# Coordination Sequence:
#
# PCOD9053500 Si02
#       7
#     2   2   2   2   2   2   2
#     4  11  21  40  74 104 138 183 229 288 357 413
#     4  11  22  41  71 105 133 187 229 283 357 408
#     4  12  27  46  71 103 138 190 241 284 343 421
#     4  12  25  46  71 105 142 182 237 290 344 420
#     4  12  23  43  76  98 139 186 237 279 353 407
#     4  11  19  41  73 106 134 181 238 285 340 420
#     4  11  23  44  71 103 143 179 232 290 352 416
#
# _framework density 25.387768999999999
#
# number of rings (size 3 to 8) (size 9 to 14) (size 15 to 20)
#    0.000    0.571    7.143    1.714    2.000    0.571 
#    0.000    5.000    0.000    0.000    0.000    0.000 
#    0.000    0.000    0.000    0.000    0.000    0.000 
#
# Total GULP energy -78345.601276 kJ/mol
# GULP energy per Si atom -5596.114377 kJ/mol
# Density = 2.532999 g / cm^3
# Si number density = 25.387769 Si / 1000 Ang^3
#
#
#
# Elastic Constant Matrix: (Units=GPa)
#
#
# Indices 1 2 3 4 5 6 
#
# 1 143.5240 41.0575 42.4612 1.2489 19.1095 -15.8454
# 2 41.0575 124.3422 50.6068 2.2190 17.9921 -7.0387
# 3 42.4612 50.6068 143.9392 22.0768 27.7087 -10.2793
# 4 1.2489 2.2190 22.0768 42.7093 -6.7235 -1.4676
# 5 19.1095 17.9921 27.7087 -6.7235 29.7003 -1.5580
# 6 -15.8454 -7.0387 -10.2793 -1.4676 -1.5580 39.3766
#
#
#
# Elastic Compliance Matrix: (Units=1/GPa)
#
#
# Indices 1 2 3 4 5 6 
#
# 1 0.008521 -0.001749 -0.001066 -0.000033 -0.003293 0.002706
# 2 -0.001749 0.010037 -0.002608 0.000513 -0.002388 0.000334
# 3 -0.001066 -0.002608 0.011256 -0.007144 -0.009780 0.001390
# 4 -0.000033 0.000513 -0.007144 0.029114 0.012956 -0.000188
# 5 -0.003293 -0.002388 -0.009780 0.012956 0.049194 -0.001876
# 6 0.002706 0.000334 0.001390 -0.000188 -0.001876 0.026826
#
#
# Mechanical properties :
#
#
# Convention : Reuss Voigt Hill
#
# Bulk Modulus (GPa) = 52.72360 75.56183 64.14271
# Shear Modulus (GPa) = 32.86940 40.86925 36.86933
#
# Velocity S-wave (km/s) = 3.60209 4.01659 3.81497
# Velocity P-wave (km/s) = 6.17353 7.16508 6.68770
#
# Compressibility (1/GPa) = 0.01896684
#
# Stress axis : x y z
#
# Youngs Moduli (GPa) = 117.35824 99.63548 88.83793
#
# Poissons Ratio (x) = 0.17429 0.09474
# Poissons Ratio (y) = 0.20529 0.23168
# Poissons Ratio (z) = 0.12515 0.25984
#
# Static dielectric constant tensor:
#      x y z
#    x 2.003400 0.037520 -0.026180 
#    y 0.037520 2.045510 -0.062850 
#    z -0.026180 -0.062850 2.019390 
# 
# From -- ./inp_files/402771.got.cif
#   From: 2010.05.17/outbox.cif.g08.bks.cpg/sg2_202_cif.got.tgz:402771.got - 2010.06.03 11:33:40.
