data_PCOD9053579
_publ_section_title
;
Structure prediction by ZEFSAII (Michael W. Deem and Ramdas Pophale) SiO2 
 PCOD9053579
Probable space group: P -1
;
_chemical_formula_sum "Si O2"
_cell_formula_units_Z 16
_cell_length_a 11.230114
_cell_length_b 10.667955
_cell_length_c 13.124291
_cell_angle_alpha 145.605188
_cell_angle_beta 119.834452
_cell_angle_gamma 72.935263
_cell_volume 748.168185
_symmetry_space_group_name_H-M "P -1"
_symmetry_group_IT_number 2
_symmetry_cell_setting 'triclinic'
loop_
_space_group_symop_operation_xyz
x,y,z
-x,-y,-z
loop_
_atom_site_type_symbol
_atom_site_label
_atom_site_fract_x
_atom_site_fract_y
_atom_site_fract_z
Si Si1 0.181832 0.208244 0.487310
Si Si2 0.018523 0.741650 0.819928
Si Si3 0.835437 0.453005 0.869920
Si Si4 0.570362 0.389999 0.052016
Si Si5 0.150461 0.951343 0.507029
Si Si6 0.311451 0.153954 0.904387
Si Si7 0.131977 0.717500 0.634697
Si Si8 0.231930 0.805423 0.122954
O O1 0.301130 0.424841 0.717745
O O2 0.179896 0.037259 0.464264
O O3 0.021205 0.234430 0.428760
O O4 0.221779 0.063094 0.314089
O O5 0.124466 0.735480 0.765673
O O6 0.885008 0.537210 0.590158
O O7 0.091580 0.687905 0.919522
O O8 0.000000 0.000000 0.000000
O O9 0.760401 0.333662 0.862098
O O10 0.826476 0.301295 0.662619
O O11 0.776806 0.674329 0.972942
O O12 0.000000 0.500000 0.000000
O O13 0.500000 0.500000 0.000000
O O14 0.470074 0.284701 0.033318
O O15 0.636729 0.204411 0.898510
O O16 0.254247 0.096572 0.727859
O O17 0.000000 0.000000 0.500000
O O18 0.261177 0.912978 0.779303
#
# Coordination Sequence:
#
# PCOD9053579 Si02
#       8
#     2   2   2   2   2   2   2   2
#     4  11  21  39  65  93 127 169 212 258 317 380
#     4  11  24  43  71  98 119 164 224 278 324 365
#     4  11  22  33  60  97 130 163 204 266 325 378
#     4  12  24  40  63  93 140 181 204 248 324 402
#     4  11  20  32  57  91 129 163 206 256 320 373
#     4  12  24  40  60  97 135 168 208 263 322 387
#     4  11  24  42  69  98 123 162 223 275 320 376
#     4  11  23  41  65  93 132 169 216 266 316 381
#
# _framework density 21.385567000000002
#
# number of rings (size 3 to 8) (size 9 to 14) (size 15 to 20)
#    0.000    0.750    7.500    0.750    1.750    1.500 
#    0.000    0.625    0.000    1.500    0.000    0.000 
#    0.000    0.000    0.000    0.000    0.000    0.000 
#
# Total GULP energy -89217.743461 kJ/mol
# GULP energy per Si atom -5576.108966 kJ/mol
# Density = 2.133689 g / cm^3
# Si number density = 21.385567 Si / 1000 Ang^3
#
#
#
# Elastic Constant Matrix: (Units=GPa)
#
#
# Indices 1 2 3 4 5 6 
#
# 1 87.8902 -0.0722 41.3682 19.3961 -5.3670 14.6525
# 2 -0.0722 50.2047 13.7136 6.7233 -0.4305 13.4564
# 3 41.3682 13.7136 123.7587 10.7809 -31.2666 -2.4226
# 4 19.3961 6.7233 10.7809 36.5029 0.9114 4.2203
# 5 -5.3670 -0.4305 -31.2666 0.9114 40.1435 7.2077
# 6 14.6525 13.4564 -2.4226 4.2203 7.2077 18.9659
#
#
#
# Elastic Compliance Matrix: (Units=1/GPa)
#
#
# Indices 1 2 3 4 5 6 
#
# 1 0.020082 0.008750 -0.007109 -0.007742 0.001257 -0.021386
# 2 0.008750 0.029819 -0.005774 -0.005216 0.002197 -0.028329
# 3 -0.007109 -0.005774 0.013255 -0.000236 0.007815 0.008364
# 4 -0.007742 -0.005216 -0.000236 0.032202 -0.002632 0.003486
# 5 0.001257 0.002197 0.007815 -0.002632 0.033720 -0.013761
# 6 -0.021386 -0.028329 0.008364 0.003486 -0.013761 0.094870
#
#
# Mechanical properties :
#
#
# Convention : Reuss Voigt Hill
#
# Bulk Modulus (GPa) = 18.21826 41.31920 29.76873
# Shear Modulus (GPa) = 19.95936 32.91205 26.43570
#
# Velocity S-wave (km/s) = 3.05833 3.92724 3.51970
# Velocity P-wave (km/s) = 4.58351 6.31881 5.51978
#
# Compressibility (1/GPa) = 0.05488999
#
# Stress axis : x y z
#
# Youngs Moduli (GPa) = 49.79691 33.53609 75.44313
#
# Poissons Ratio (x) = -0.29345 0.53631
# Poissons Ratio (y) = -0.43574 0.43562
# Poissons Ratio (z) = 0.35399 0.19364
#
# Static dielectric constant tensor:
#      x y z
#    x 1.737060 0.008450 -0.019580 
#    y 0.008450 1.868570 0.058870 
#    z -0.019580 0.058870 1.905220 
# 
# From -- ./inp_files/519388.got.cif
#   From: 2010.05.17/outbox.cif.g08.bks.cpg/sg2_260_cif.got.tgz:519388.got - 2010.06.03 11:33:40.
