data_PCOD9053280
_publ_section_title
;
Structure prediction by ZEFSAII (Michael W. Deem and Ramdas Pophale) SiO2 
 PCOD9053280
Probable space group: P -1
;
_chemical_formula_sum "Si O2"
_cell_formula_units_Z 16
_cell_length_a 10.850135
_cell_length_b 10.604367
_cell_length_c 11.249943
_cell_angle_alpha 66.636024
_cell_angle_beta 55.661847
_cell_angle_gamma 40.305656
_cell_volume 690.013248
_symmetry_space_group_name_H-M "P -1"
_symmetry_group_IT_number 2
_symmetry_cell_setting 'triclinic'
loop_
_space_group_symop_operation_xyz
x,y,z
-x,-y,-z
loop_
_atom_site_type_symbol
_atom_site_label
_atom_site_fract_x
_atom_site_fract_y
_atom_site_fract_z
Si Si1 0.333167 0.613470 0.201273
Si Si2 0.772908 0.364445 0.130319
Si Si3 0.503381 0.779316 0.057955
Si Si4 0.973120 0.167308 0.510586
Si Si5 0.730951 0.124858 0.337313
Si Si6 0.958089 0.775312 0.182544
Si Si7 0.693675 0.888860 0.771184
Si Si8 0.582224 0.848022 0.406178
O O1 0.579766 0.411369 0.146857
O O2 0.347607 0.763993 0.098498
O O3 0.174887 0.638158 0.192562
O O4 0.248431 0.669049 0.362480
O O5 0.664438 0.583186 0.125841
O O6 0.802414 0.235923 0.265616
O O7 0.973886 0.253188 0.979829
O O8 0.370182 0.970762 0.137500
O O9 0.640099 0.771758 0.889672
O O10 0.131662 0.053766 0.578507
O O11 0.069785 0.224572 0.355825
O O12 0.000000 0.000000 0.500000
O O13 0.494097 0.248909 0.466160
O O14 0.808823 0.000577 0.220089
O O15 0.826805 0.723790 0.299863
O O16 0.535662 0.031498 0.696057
O O17 0.500000 0.000000 0.500000
#
# Coordination Sequence:
#
# PCOD9053280 Si02
#       8
#     2   2   2   2   2   2   2   2
#     4   9  20  35  56  85 115 144 192 235 281 334
#     4  10  20  38  53  89 116 147 188 239 288 333
#     4   9  21  36  58  83 117 147 190 235 293 329
#     4  10  17  35  60  84 103 149 193 229 275 343
#     4   9  20  35  60  82 114 148 189 236 283 338
#     4  10  19  37  58  82 114 153 192 227 283 345
#     4  10  19  39  61  82 114 154 191 236 285 344
#     4   9  20  37  58  84 113 150 197 233 279 344
#
# _framework density 23.187958999999999
#
# number of rings (size 3 to 8) (size 9 to 14) (size 15 to 20)
#    0.750    1.750    1.250    1.500    0.000    4.000 
#    2.250    6.875    0.000    0.000    0.000    0.000 
#    0.000    0.000    0.000    0.000    0.000    0.000 
#
# Total GULP energy -89149.467571 kJ/mol
# GULP energy per Si atom -5571.841723 kJ/mol
# Density = 2.313518 g / cm^3
# Si number density = 23.187959 Si / 1000 Ang^3
#
#
#
# Elastic Constant Matrix: (Units=GPa)
#
#
# Indices 1 2 3 4 5 6 
#
# 1 41.1243 -6.3669 8.0032 16.4358 -10.9140 -2.2972
# 2 -6.3669 50.6684 27.4623 -2.0852 -15.4935 7.4343
# 3 8.0032 27.4623 157.8811 19.1527 -43.7931 10.1753
# 4 16.4358 -2.0852 19.1527 22.5933 -6.8901 -6.7447
# 5 -10.9140 -15.4935 -43.7931 -6.8901 33.3174 1.6029
# 6 -2.2972 7.4343 10.1753 -6.7447 1.6029 16.9288
#
#
#
# Elastic Compliance Matrix: (Units=1/GPa)
#
#
# Indices 1 2 3 4 5 6 
#
# 1 0.044038 0.009509 0.008334 -0.037223 0.023077 -0.020225
# 2 0.009509 0.027604 0.000885 -0.004347 0.016923 -0.014699
# 3 0.008334 0.000885 0.014154 -0.017070 0.019003 -0.016366
# 4 -0.037223 -0.004347 -0.017070 0.093196 -0.019597 0.046104
# 5 0.023077 0.016923 0.019003 -0.019597 0.067810 -0.029951
# 6 -0.020225 -0.014699 -0.016366 0.046104 -0.029951 0.093823
#
#
# Mechanical properties :
#
#
# Convention : Reuss Voigt Hill
#
# Bulk Modulus (GPa) = 8.11341 34.20788 21.16064
# Shear Modulus (GPa) = 14.52419 29.27291 21.89855
#
# Velocity S-wave (km/s) = 2.50545 3.55691 3.07643
# Velocity P-wave (km/s) = 3.44620 5.62612 4.66527
#
# Compressibility (1/GPa) = 0.12325272
#
# Stress axis : x y z
#
# Youngs Moduli (GPa) = 22.70747 36.22692 70.65100
#
# Poissons Ratio (x) = -0.34448 -0.58879
# Poissons Ratio (y) = -0.21593 -0.06255
# Poissons Ratio (z) = -0.18924 -0.03207
#
# Static dielectric constant tensor:
#      x y z
#    x 1.925360 -0.048720 -0.015940 
#    y -0.048720 1.926110 -0.049630 
#    z -0.015940 -0.049630 2.018750 
# 
# From -- ./inp_files/425440.got.cif
#   From: 2010.05.17/outbox.cif.g08.bks.cpg/sg2_213_cif.got.tgz:425440.got - 2010.06.03 11:33:40.
