data_PCOD9053880
_publ_section_title
;
Structure prediction by ZEFSAII (Michael W. Deem and Ramdas Pophale) SiO2 
 PCOD9053880
Probable space group: P -1
;
_chemical_formula_sum "Si O2"
_cell_formula_units_Z 14
_cell_length_a 7.183128
_cell_length_b 15.274442
_cell_length_c 14.676419
_cell_angle_alpha 36.760579
_cell_angle_beta 108.123224
_cell_angle_gamma 133.829147
_cell_volume 573.838833
_symmetry_space_group_name_H-M "P -1"
_symmetry_group_IT_number 2
_symmetry_cell_setting 'triclinic'
loop_
_space_group_symop_operation_xyz
x,y,z
-x,-y,-z
loop_
_atom_site_type_symbol
_atom_site_label
_atom_site_fract_x
_atom_site_fract_y
_atom_site_fract_z
Si Si1 0.790749 0.854626 0.974009
Si Si2 0.377341 0.063019 0.678831
Si Si3 0.192460 0.420525 0.320224
Si Si4 0.654672 0.744062 0.843834
Si Si5 0.755230 0.989958 0.493928
Si Si6 0.335433 0.281680 0.599177
Si Si7 0.541715 0.118399 0.998487
O O1 0.608104 0.767152 0.921648
O O2 0.771125 0.979156 0.936210
O O3 0.557901 0.602153 0.194929
O O4 0.144907 0.063089 0.820231
O O5 0.549544 0.300014 0.555607
O O6 0.439130 0.081218 0.566158
O O7 0.387838 0.935680 0.855770
O O8 0.021323 0.915532 0.749622
O O9 0.120183 0.260827 0.520351
O O10 0.962137 0.244457 0.350408
O O11 0.214972 0.602842 0.202239
O O12 0.565107 0.810254 0.698872
O O13 0.500000 0.500000 0.000000
O O14 0.000000 0.000000 0.500000
O O15 0.500000 0.500000 0.500000
O O16 0.500000 0.000000 0.000000
#
# Coordination Sequence:
#
# PCOD9053880 Si02
#       7
#     2   2   2   2   2   2   2
#     4   9  21  38  63  85 124 162 204 249 324 350
#     4  10  21  38  61  90 124 163 206 258 310 365
#     4  10  20  38  65  82 128 162 198 256 319 350
#     4  10  19  36  63  94 128 155 207 257 312 374
#     4  10  17  35  62  91 123 156 201 262 306 364
#     4  11  21  39  64  91 118 163 220 256 300 372
#     4  10  23  43  60  86 130 170 208 257 310 367
#
# _framework density 24.397092000000001
#
# number of rings (size 3 to 8) (size 9 to 14) (size 15 to 20)
#    0.857    1.143    4.286    2.571    0.000    1.143 
#    2.571    5.000    0.000    0.000    0.000    0.000 
#    0.000    0.000    0.000    0.000    0.000    0.000 
#
# Total GULP energy -77948.651040 kJ/mol
# GULP energy per Si atom -5567.760789 kJ/mol
# Density = 2.434156 g / cm^3
# Si number density = 24.397092 Si / 1000 Ang^3
#
#
#
# Elastic Constant Matrix: (Units=GPa)
#
#
# Indices 1 2 3 4 5 6 
#
# 1 49.6030 24.0523 15.3282 4.7770 18.5732 -10.6511
# 2 24.0523 140.3726 48.6357 5.2730 19.0324 -33.3707
# 3 15.3282 48.6357 122.7742 -0.3503 27.4537 -5.0446
# 4 4.7770 5.2730 -0.3503 50.8852 -1.2688 13.8708
# 5 18.5732 19.0324 27.4537 -1.2688 34.0827 0.8276
# 6 -10.6511 -33.3707 -5.0446 13.8708 0.8276 36.6490
#
#
#
# Elastic Compliance Matrix: (Units=1/GPa)
#
#
# Indices 1 2 3 4 5 6 
#
# 1 0.029394 0.000015 0.000576 -0.006289 -0.017002 0.011400
# 2 0.000015 0.011979 -0.003230 -0.004751 -0.004573 0.012369
# 3 0.000576 -0.003230 0.010923 0.000531 -0.007258 -0.001307
# 4 -0.006289 -0.004751 0.000531 0.025214 0.006974 -0.015781
# 5 -0.017002 -0.004573 -0.007258 0.006974 0.047600 -0.013819
# 6 0.011400 0.012369 -0.001307 -0.015781 -0.013819 0.047966
#
#
# Mechanical properties :
#
#
# Convention : Reuss Voigt Hill
#
# Bulk Modulus (GPa) = 21.26760 54.30914 37.78837
# Shear Modulus (GPa) = 25.76950 39.30561 32.53755
#
# Velocity S-wave (km/s) = 3.25353 4.01818 3.65590
# Velocity P-wave (km/s) = 4.78018 6.62091 5.77437
#
# Compressibility (1/GPa) = 0.04701989
#
# Stress axis : x y z
#
# Youngs Moduli (GPa) = 34.02039 83.47638 91.54707
#
# Poissons Ratio (x) = -0.00127 -0.05277
# Poissons Ratio (y) = -0.00052 0.29571
# Poissons Ratio (z) = -0.01961 0.26964
#
# Static dielectric constant tensor:
#      x y z
#    x 2.068270 -0.037130 -0.065960 
#    y -0.037130 2.367700 -0.088370 
#    z -0.065960 -0.088370 2.002390 
# 
# From -- ./inp_files/491396.got.cif
#   From: 2010.05.17/outbox.cif.g08.bks.cpg/sg2_246_cif.got.tgz:491396.got - 2010.06.03 11:33:40.
