data_PCOD9053022
_publ_section_title
;
Structure prediction by ZEFSAII (Michael W. Deem and Ramdas Pophale) SiO2 
 PCOD9053022
Probable space group: P -1
;
_chemical_formula_sum "Si O2"
_cell_formula_units_Z 16
_cell_length_a 27.434523
_cell_length_b 27.794536
_cell_length_c 14.889422
_cell_angle_alpha 151.922415
_cell_angle_beta 152.668799
_cell_angle_gamma 10.314507
_cell_volume 928.594825
_symmetry_space_group_name_H-M "P -1"
_symmetry_group_IT_number 2
_symmetry_cell_setting 'triclinic'
loop_
_space_group_symop_operation_xyz
x,y,z
-x,-y,-z
loop_
_atom_site_type_symbol
_atom_site_label
_atom_site_fract_x
_atom_site_fract_y
_atom_site_fract_z
Si Si1 0.794884 0.188993 0.209827
Si Si2 0.400137 0.705112 0.379741
Si Si3 0.364741 0.415885 0.617015
Si Si4 0.255579 0.317360 0.178923
Si Si5 0.783155 0.253534 0.501857
Si Si6 0.932200 0.954731 0.872130
Si Si7 0.780094 0.469651 0.764853
Si Si8 0.407443 0.968029 0.914849
O O1 0.493514 0.504207 0.210737
O O2 0.787526 0.192075 0.310876
O O3 0.864752 0.040796 0.006961
O O4 0.068711 0.017582 0.357098
O O5 0.543702 0.610823 0.368680
O O6 0.560157 0.613616 0.573696
O O7 0.198802 0.462883 0.390896
O O8 0.662385 0.135898 0.690521
O O9 0.189687 0.650476 0.775919
O O10 0.477651 0.157513 0.204188
O O11 0.000000 0.500000 0.000000
O O12 0.389770 0.106753 0.110289
O O13 0.500000 0.500000 0.500000
O O14 0.829444 0.334229 0.693810
O O15 0.000000 0.000000 0.500000
O O16 0.000000 0.000000 0.000000
O O17 0.617796 0.723980 0.927141
O O18 0.087850 0.218337 0.816820
#
# Coordination Sequence:
#
# PCOD9053022 Si02
#       8
#     2   2   2   2   2   2   2   2
#     4  11  22  35  54  73 115 149 184 241 270 328
#     4  11  18  31  51  76 103 154 190 223 258 319
#     4  12  23  32  55  74 116 154 204 225 272 318
#     4  11  24  36  53  80 120 155 204 242 279 325
#     4  11  23  39  58  86 112 146 191 245 300 354
#     4  12  23  36  50  82 113 154 205 230 257 341
#     4  11  21  34  56  80 108 149 194 223 292 350
#     4  11  21  34  53  76 111 153 189 232 285 335
#
# _framework density 17.230335
#
# number of rings (size 3 to 8) (size 9 to 14) (size 15 to 20)
#    0.000    0.750    5.000    4.875    5.250    0.000 
#    0.000    0.000    0.000    0.000    0.000    0.000 
#    0.000   20.000    0.000    0.000    0.000    0.000 
#
# Total GULP energy -89073.833528 kJ/mol
# GULP energy per Si atom -5567.114595 kJ/mol
# Density = 1.719112 g / cm^3
# Si number density = 17.230335 Si / 1000 Ang^3
#
#
#
# Elastic Constant Matrix: (Units=GPa)
#
#
# Indices 1 2 3 4 5 6 
#
# 1 83.7521 21.8233 32.9870 12.3015 2.5021 7.8064
# 2 21.8233 89.3932 13.7592 0.2357 10.4062 5.4754
# 3 32.9870 13.7592 69.9535 6.0800 -5.2649 3.9104
# 4 12.3015 0.2357 6.0800 26.9506 -2.0714 3.0152
# 5 2.5021 10.4062 -5.2649 -2.0714 29.5739 3.5385
# 6 7.8064 5.4754 3.9104 3.0152 3.5385 32.9223
#
#
#
# Elastic Compliance Matrix: (Units=1/GPa)
#
#
# Indices 1 2 3 4 5 6 
#
# 1 0.016363 -0.002612 -0.006725 -0.005857 -0.001844 -0.001912
# 2 -0.002612 0.012632 -0.001632 0.001223 -0.004317 -0.000936
# 3 -0.006725 -0.001632 0.018213 -0.000604 0.004429 -0.000718
# 4 -0.005857 0.001223 -0.000604 0.040455 0.003124 -0.002784
# 5 -0.001844 -0.004317 0.004429 0.003124 0.036930 -0.003626
# 6 -0.001912 -0.000936 -0.000718 -0.002784 -0.003626 0.031714
#
#
# Mechanical properties :
#
#
# Convention : Reuss Voigt Hill
#
# Bulk Modulus (GPa) = 39.57214 42.24863 40.91039
# Shear Modulus (GPa) = 26.78543 29.52464 28.15503
#
# Velocity S-wave (km/s) = 3.94706 4.14397 4.04671
# Velocity P-wave (km/s) = 6.61731 6.88983 6.75494
#
# Compressibility (1/GPa) = 0.02527030
#
# Stress axis : x y z
#
# Youngs Moduli (GPa) = 61.11347 79.16399 54.90466
#
# Poissons Ratio (x) = 0.20680 0.36924
# Poissons Ratio (y) = 0.15965 0.08958
# Poissons Ratio (z) = 0.41099 0.12916
#
# Static dielectric constant tensor:
#      x y z
#    x 1.599100 0.041340 0.032060 
#    y 0.041340 1.637660 0.026380 
#    z 0.032060 0.026380 1.667390 
# 
# From -- ./inp_files/533748.got.cif
#   From: 2010.05.17/outbox.cif.g08.bks.cpg/sg2_267_cif.got.tgz:533748.got - 2010.06.03 11:33:40.
