data_PCOD9053904
_publ_section_title
;
Structure prediction by ZEFSAII (Michael W. Deem and Ramdas Pophale) SiO2 
 PCOD9053904
Probable space group: P -1
;
_chemical_formula_sum "Si O2"
_cell_formula_units_Z 16
_cell_length_a 19.224503
_cell_length_b 8.173409
_cell_length_c 14.326949
_cell_angle_alpha 88.099480
_cell_angle_beta 19.616713
_cell_angle_gamma 101.207260
_cell_volume 559.155536
_symmetry_space_group_name_H-M "P -1"
_symmetry_group_IT_number 2
_symmetry_cell_setting 'triclinic'
loop_
_space_group_symop_operation_xyz
x,y,z
-x,-y,-z
loop_
_atom_site_type_symbol
_atom_site_label
_atom_site_fract_x
_atom_site_fract_y
_atom_site_fract_z
Si Si1 0.089487 0.300327 0.719398
Si Si2 0.506168 0.663056 0.924093
Si Si3 0.798265 0.765480 0.893058
Si Si4 0.477508 0.888009 0.807391
Si Si5 0.800410 0.433795 0.006630
Si Si6 0.513788 0.822004 0.412152
Si Si7 0.058223 0.836505 0.909914
Si Si8 0.373691 0.149575 0.055556
O O1 0.221448 0.243818 0.482188
O O2 0.062966 0.470692 0.712495
O O3 0.188655 0.348743 0.701151
O O4 0.763425 0.061135 0.138980
O O5 0.358456 0.678672 0.025966
O O6 0.437740 0.755632 0.092554
O O7 0.500000 0.500000 0.000000
O O8 0.619967 0.685619 0.022870
O O9 0.847379 0.619993 0.884314
O O10 0.662782 0.804095 0.142410
O O11 0.084184 0.991541 0.484689
O O12 0.355284 0.775416 0.863021
O O13 0.814388 0.079657 0.358155
O O14 0.388954 0.005703 0.969134
O O15 0.613451 0.354539 0.338717
O O16 0.265891 0.793493 0.677001
O O17 0.000000 0.000000 0.000000
#
# Coordination Sequence:
#
# PCOD9053904 Si02
#       8
#     2   2   2   2   2   2   2   2
#     4  11  21  40  68  96 129 169 225 269 329 394
#     4  12  27  44  66  95 134 175 226 277 328 395
#     4  11  23  40  68  98 135 172 225 274 325 389
#     4  12  23  43  68  92 133 175 222 269 330 399
#     4  11  23  38  69 104 127 170 223 277 326 387
#     4  11  20  43  68 100 133 169 220 277 330 395
#     4  11  20  38  68  98 123 170 219 266 331 395
#     4  11  25  44  64  94 134 183 219 270 331 395
#
# _framework density 28.614578000000002
#
# number of rings (size 3 to 8) (size 9 to 14) (size 15 to 20)
#    0.000    0.750    6.250    2.250    3.500    0.500 
#    0.000    0.000    0.000    1.500    0.000    0.000 
#    0.000    0.000    0.000    0.000    0.000    0.000 
#
# Total GULP energy -89110.521230 kJ/mol
# GULP energy per Si atom -5569.407577 kJ/mol
# Density = 2.854945 g / cm^3
# Si number density = 28.614578 Si / 1000 Ang^3
#
#
#
# Elastic Constant Matrix: (Units=GPa)
#
#
# Indices 1 2 3 4 5 6 
#
# 1 164.1947 59.0801 50.2710 -5.8239 64.1800 -39.2860
# 2 59.0801 135.6954 45.5445 18.5013 27.3412 -38.9462
# 3 50.2710 45.5445 147.4512 29.4469 58.6283 -2.0314
# 4 -5.8239 18.5013 29.4469 47.5101 2.2366 17.9574
# 5 64.1800 27.3412 58.6283 2.2366 62.5236 -2.7701
# 6 -39.2860 -38.9462 -2.0314 17.9574 -2.7701 58.7679
#
#
#
# Elastic Compliance Matrix: (Units=1/GPa)
#
#
# Indices 1 2 3 4 5 6 
#
# 1 0.013652 -0.000969 0.002128 -0.001718 -0.015153 0.008368
# 2 -0.000969 0.012703 -0.000380 -0.008522 -0.003447 0.010199
# 3 0.002128 -0.000380 0.013699 -0.008784 -0.014388 0.003650
# 4 -0.001718 -0.008522 -0.008784 0.035643 0.011679 -0.017441
# 5 -0.015153 -0.003447 -0.014388 0.011679 0.045495 -0.014336
# 6 0.008368 0.010199 0.003650 -0.017441 -0.014336 0.034149
#
#
# Mechanical properties :
#
#
# Convention : Reuss Voigt Hill
#
# Bulk Modulus (GPa) = 24.03145 84.12582 54.07864
# Shear Modulus (GPa) = 29.82363 53.25670 41.54016
#
# Velocity S-wave (km/s) = 3.23190 4.31881 3.81427
# Velocity P-wave (km/s) = 4.72688 7.37109 6.19179
#
# Compressibility (1/GPa) = 0.04161214
#
# Stress axis : x y z
#
# Youngs Moduli (GPa) = 73.25130 78.72377 72.99706
#
# Poissons Ratio (x) = 0.07628 -0.15537
# Poissons Ratio (y) = 0.07097 0.02775
# Poissons Ratio (z) = -0.15591 0.02993
#
# Static dielectric constant tensor:
#      x y z
#    x 2.540140 0.135280 -0.406990 
#    y 0.135280 2.393370 -0.233340 
#    z -0.406990 -0.233340 2.660020 
# 
# From -- ./inp_files/540232.got.cif
#   From: 2010.05.17/outbox.cif.g08.bks.cpg/sg2_271_cif.got.tgz:540232.got - 2010.06.03 11:33:40.
