data_PCOD9053344
_publ_section_title
;
Structure prediction by ZEFSAII (Michael W. Deem and Ramdas Pophale) SiO2 
 PCOD9053344
Probable space group: P -1
;
_chemical_formula_sum "Si O2"
_cell_formula_units_Z 12
_cell_length_a 8.862490
_cell_length_b 11.956721
_cell_length_c 9.406465
_cell_angle_alpha 100.698435
_cell_angle_beta 52.860920
_cell_angle_gamma 135.972216
_cell_volume 493.605400
_symmetry_space_group_name_H-M "P -1"
_symmetry_group_IT_number 2
_symmetry_cell_setting 'triclinic'
loop_
_space_group_symop_operation_xyz
x,y,z
-x,-y,-z
loop_
_atom_site_type_symbol
_atom_site_label
_atom_site_fract_x
_atom_site_fract_y
_atom_site_fract_z
Si Si1 0.545943 0.140647 0.085199
Si Si2 0.630190 0.979088 0.541099
Si Si3 0.093295 0.129229 0.720244
Si Si4 0.642471 0.405268 0.008308
Si Si5 0.297368 0.317677 0.917588
Si Si6 0.754037 0.661091 0.573280
O O1 0.583215 0.138268 0.229285
O O2 0.771565 0.338546 0.935334
O O3 0.218621 0.041686 0.219295
O O4 0.500000 0.000000 0.000000
O O5 0.709949 0.892051 0.412916
O O6 0.500000 0.000000 0.500000
O O7 0.932486 0.174264 0.484481
O O8 0.064485 0.151400 0.905764
O O9 0.204559 0.290865 0.603731
O O10 0.798214 0.602034 0.950469
O O11 0.478690 0.353048 0.239048
O O12 0.413196 0.301672 0.981581
O O13 0.588291 0.473017 0.685407
#
# Coordination Sequence:
#
# PCOD9053344 Si02
#       6
#     2   2   2   2   2   2
#     4  11  23  39  58  85 117 151 187 237 280 334
#     4  11  22  37  59  86 113 150 192 237 276 333
#     4  11  19  37  63  84 109 152 194 230 282 334
#     4   9  18  37  56  81 120 143 184 230 290 323
#     4   9  19  32  63  86 107 153 187 229 285 340
#     4   9  17  38  58  77 116 147 182 231 285 322
#
# _framework density 24.310917
#
# number of rings (size 3 to 8) (size 9 to 14) (size 15 to 20)
#    1.000    1.000    3.333    1.500    2.333    2.000 
#    0.000    1.667    3.667    0.000    0.000    0.000 
#    0.000    0.000    0.000    0.000    0.000    0.000 
#
# Total GULP energy -66880.915449 kJ/mol
# GULP energy per Si atom -5573.409621 kJ/mol
# Density = 2.425558 g / cm^3
# Si number density = 24.310917 Si / 1000 Ang^3
#
#
#
# Elastic Constant Matrix: (Units=GPa)
#
#
# Indices 1 2 3 4 5 6 
#
# 1 151.6481 42.4511 48.1120 8.7394 33.3294 -24.0167
# 2 42.4511 46.9132 7.0396 5.5663 14.5492 -14.7010
# 3 48.1120 7.0396 49.3500 13.5872 30.6873 -15.1422
# 4 8.7394 5.5663 13.5872 41.1333 1.1805 3.0178
# 5 33.3294 14.5492 30.6873 1.1805 41.1939 1.2991
# 6 -24.0167 -14.7010 -15.1422 3.0178 1.2991 48.6482
#
#
#
# Elastic Compliance Matrix: (Units=1/GPa)
#
#
# Indices 1 2 3 4 5 6 
#
# 1 0.013951 -0.014057 -0.019197 0.005336 0.007947 -0.003879
# 2 -0.014057 0.048615 0.041923 -0.018053 -0.037233 0.022914
# 3 -0.019197 0.041923 0.101580 -0.035856 -0.075150 0.039040
# 4 0.005336 -0.018053 -0.035856 0.037908 0.028222 -0.017087
# 5 0.007947 -0.037233 -0.075150 0.028222 0.087267 -0.034800
# 6 -0.003879 0.022914 0.039040 -0.017087 -0.034800 0.039706
#
#
# Mechanical properties :
#
#
# Convention : Reuss Voigt Hill
#
# Bulk Modulus (GPa) = 5.51014 49.23520 27.37267
# Shear Modulus (GPa) = 13.43423 36.21565 24.82494
#
# Velocity S-wave (km/s) = 2.35330 3.86383 3.19900
# Velocity P-wave (km/s) = 3.10732 6.34049 4.99286
#
# Compressibility (1/GPa) = 0.18148357
#
# Stress axis : x y z
#
# Youngs Moduli (GPa) = 71.67799 20.56993 9.84445
#
# Poissons Ratio (x) = 0.28915 0.18899
# Poissons Ratio (y) = 1.00758 -0.41271
# Poissons Ratio (z) = 1.37603 -0.86236
#
# Static dielectric constant tensor:
#      x y z
#    x 1.926510 -0.026830 -0.050220 
#    y -0.026830 2.086920 -0.062830 
#    z -0.050220 -0.062830 1.952610 
# 
# From -- ./inp_files/146363.got.cif
#   From: 2010.05.17/outbox.cif.g08.bks.cpg/sg2_74_cif.got.tgz:146363.got - 2010.06.03 11:33:40.
