data_PCOD9053849
_publ_section_title
;
Structure prediction by ZEFSAII (Michael W. Deem and Ramdas Pophale) SiO2 
 PCOD9053849
Probable space group: P -1
;
_chemical_formula_sum "Si O2"
_cell_formula_units_Z 16
_cell_length_a 14.607544
_cell_length_b 8.685940
_cell_length_c 8.601211
_cell_angle_alpha 106.289746
_cell_angle_beta 48.930884
_cell_angle_gamma 82.743106
_cell_volume 713.297681
_symmetry_space_group_name_H-M "P -1"
_symmetry_group_IT_number 2
_symmetry_cell_setting 'triclinic'
loop_
_space_group_symop_operation_xyz
x,y,z
-x,-y,-z
loop_
_atom_site_type_symbol
_atom_site_label
_atom_site_fract_x
_atom_site_fract_y
_atom_site_fract_z
Si Si1 0.207389 0.393895 0.207612
Si Si2 0.053708 0.072422 0.651131
Si Si3 0.633644 0.195214 0.192383
Si Si4 0.824677 0.940994 0.165328
Si Si5 0.222056 0.569550 0.916347
Si Si6 0.348337 0.225604 0.528515
Si Si7 0.306452 0.084372 0.214465
Si Si8 0.978748 0.262652 0.354920
O O1 0.319370 0.222514 0.115468
O O2 0.159553 0.564948 0.420838
O O3 0.089955 0.327100 0.306357
O O4 0.228818 0.460035 0.035029
O O5 0.134018 0.000309 0.704116
O O6 0.157007 0.119234 0.449421
O O7 0.024561 0.903074 0.593441
O O8 0.918621 0.253423 0.875455
O O9 0.658607 0.368634 0.194122
O O10 0.490348 0.217089 0.420152
O O11 0.750060 0.077387 0.150141
O O12 0.650020 0.097534 0.980361
O O13 0.721183 0.860688 0.303693
O O14 0.965496 0.802603 0.896975
O O15 0.245810 0.435310 0.707569
O O16 0.367995 0.121062 0.314411
#
# Coordination Sequence:
#
# PCOD9053849 Si02
#       8
#     2   2   2   2   2   2   2   2
#     4  11  23  37  64  91 131 168 198 254 322 379
#     4  11  24  38  66 100 128 157 204 264 329 368
#     4  12  24  45  66  90 127 172 216 252 307 375
#     4  11  23  41  66  92 125 166 205 261 315 372
#     4  12  24  42  65  96 132 161 210 261 314 377
#     4  11  26  43  65  93 125 171 214 259 304 369
#     4  11  24  43  66  94 125 166 211 263 314 372
#     4  11  20  38  60  95 131 159 201 249 322 384
#
# _framework density 22.431025000000002
#
# number of rings (size 3 to 8) (size 9 to 14) (size 15 to 20)
#    0.000    0.750    3.750    3.750    1.750    2.500 
#    0.000    0.625    0.000    0.000    0.000    0.000 
#    0.000    0.000    0.000    0.000    0.000    0.000 
#
# Total GULP energy -89287.851873 kJ/mol
# GULP energy per Si atom -5580.490742 kJ/mol
# Density = 2.237997 g / cm^3
# Si number density = 22.431025 Si / 1000 Ang^3
#
#
#
# Elastic Constant Matrix: (Units=GPa)
#
#
# Indices 1 2 3 4 5 6 
#
# 1 72.1503 38.3722 23.5042 -16.2817 -0.2669 11.3608
# 2 38.3722 109.7572 23.7394 -16.7684 15.8653 20.1933
# 3 23.5042 23.7394 52.9873 -9.8010 -1.7569 9.3470
# 4 -16.2817 -16.7684 -9.8010 35.9211 8.5379 -4.3442
# 5 -0.2669 15.8653 -1.7569 8.5379 29.2946 -3.4424
# 6 11.3608 20.1933 9.3470 -4.3442 -3.4424 12.7048
#
#
#
# Elastic Compliance Matrix: (Units=1/GPa)
#
#
# Indices 1 2 3 4 5 6 
#
# 1 0.019634 -0.003867 -0.004977 0.005052 -0.000212 -0.006079
# 2 -0.003867 0.019370 -0.001135 0.007374 -0.016071 -0.028327
# 3 -0.004977 -0.001135 0.023891 0.002453 0.000057 -0.010468
# 4 0.005052 0.007374 0.002453 0.036789 -0.015663 -0.009707
# 5 -0.000212 -0.016071 0.000057 -0.015663 0.051433 0.034272
# 6 -0.006079 -0.028327 -0.010468 -0.009707 0.034272 0.142838
#
#
# Mechanical properties :
#
#
# Convention : Reuss Voigt Hill
#
# Bulk Modulus (GPa) = 23.28996 45.12517 34.20756
# Shear Modulus (GPa) = 15.23343 25.53603 20.38473
#
# Velocity S-wave (km/s) = 2.60883 3.37771 3.01786
# Velocity P-wave (km/s) = 4.41363 5.94751 5.23703
#
# Compressibility (1/GPa) = 0.04293696
#
# Stress axis : x y z
#
# Youngs Moduli (GPa) = 50.93103 51.62722 41.85691
#
# Poissons Ratio (x) = 0.19964 0.20833
# Poissons Ratio (y) = 0.19695 0.04750
# Poissons Ratio (z) = 0.25350 0.05859
#
# Static dielectric constant tensor:
#      x y z
#    x 1.872420 -0.021740 0.018380 
#    y -0.021740 1.848940 0.038330 
#    z 0.018380 0.038330 1.872730 
# 
# From -- ./inp_files/295734.got.cif
#   From: 2010.05.17/outbox.cif.g08.bks.cpg/sg2_148_cif.got.tgz:295734.got - 2010.06.03 11:33:40.
