data_PCOD9053336
_publ_section_title
;
Structure prediction by ZEFSAII (Michael W. Deem and Ramdas Pophale) SiO2 
 PCOD9053336
Probable space group: P -1
;
_chemical_formula_sum "Si O2"
_cell_formula_units_Z 16
_cell_length_a 11.449320
_cell_length_b 12.971503
_cell_length_c 21.795805
_cell_angle_alpha 27.663676
_cell_angle_beta 140.749343
_cell_angle_gamma 122.041799
_cell_volume 807.091232
_symmetry_space_group_name_H-M "P -1"
_symmetry_group_IT_number 2
_symmetry_cell_setting 'triclinic'
loop_
_space_group_symop_operation_xyz
x,y,z
-x,-y,-z
loop_
_atom_site_type_symbol
_atom_site_label
_atom_site_fract_x
_atom_site_fract_y
_atom_site_fract_z
Si Si1 0.273512 0.537562 0.577879
Si Si2 0.857921 0.047618 0.087334
Si Si3 0.519407 0.395250 0.870314
Si Si4 0.209859 0.001831 0.111337
Si Si5 0.524142 0.033107 0.873820
Si Si6 0.807706 0.610579 0.915177
Si Si7 0.449953 0.813984 0.435427
Si Si8 0.938833 0.468077 0.828200
O O1 0.307592 0.526760 0.670447
O O2 0.452488 0.589344 0.594595
O O3 0.058215 0.788733 0.333727
O O4 0.326654 0.272521 0.705297
O O5 0.732459 0.959809 0.038619
O O6 0.702617 0.202325 0.998603
O O7 0.911033 0.242718 0.969800
O O8 0.614886 0.565196 0.843328
O O9 0.501951 0.213803 0.009093
O O10 0.325640 0.848711 0.302348
O O11 0.406216 0.900695 0.196504
O O12 0.000000 0.000000 0.000000
O O13 0.100256 0.307518 0.923061
O O14 0.682425 0.918681 0.719861
O O15 0.000000 0.500000 0.000000
O O16 0.939123 0.462244 0.108396
O O17 0.704320 0.707017 0.587139
#
# Coordination Sequence:
#
# PCOD9053336 Si02
#       8
#     2   2   2   2   2   2   2   2
#     4  11  19  37  61  88 120 150 193 244 301 349
#     4  11  19  39  57  88 122 146 190 248 295 344
#     4  11  24  38  57  88 123 158 191 235 300 358
#     4  11  21  39  60  87 121 151 197 246 284 348
#     4  11  24  38  57  88 123 158 191 235 300 358
#     4  11  21  39  60  87 121 151 197 246 284 348
#     4  11  21  36  62  91 115 151 197 247 296 330
#     4  11  21  38  58  89 117 149 196 246 291 335
#
# _framework density 19.824278
#
# number of rings (size 3 to 8) (size 9 to 14) (size 15 to 20)
#    0.000    1.000    7.500    1.500    0.000    8.000 
#    0.000    2.500    0.000    1.500    0.000    0.000 
#    0.000    0.000    0.000    0.000    0.000    0.000 
#
# Total GULP energy -89128.561010 kJ/mol
# GULP energy per Si atom -5570.535063 kJ/mol
# Density = 1.977916 g / cm^3
# Si number density = 19.824278 Si / 1000 Ang^3
#
#
#
# Elastic Constant Matrix: (Units=GPa)
#
#
# Indices 1 2 3 4 5 6 
#
# 1 36.3062 26.3376 3.5119 -1.8332 -11.2216 0.6428
# 2 26.3376 84.2999 21.7924 -6.1643 -10.5252 -14.0730
# 3 3.5119 21.7924 104.7634 15.0974 6.1484 -1.7652
# 4 -1.8332 -6.1643 15.0974 19.2288 5.4574 -8.3516
# 5 -11.2216 -10.5252 6.1484 5.4574 24.8576 -2.6865
# 6 0.6428 -14.0730 -1.7652 -8.3516 -2.6865 20.9207
#
#
#
# Elastic Compliance Matrix: (Units=1/GPa)
#
#
# Indices 1 2 3 4 5 6 
#
# 1 0.042502 -0.016034 0.002880 -0.013873 0.013033 -0.015713
# 2 -0.016034 0.025529 -0.007913 0.023602 0.003247 0.026837
# 3 0.002880 -0.007913 0.013526 -0.017029 -0.002893 -0.011439
# 4 -0.013873 0.023602 -0.017029 0.096546 -0.007586 0.052433
# 5 0.013033 0.003247 -0.002893 -0.007586 0.050407 0.004984
# 6 -0.015713 0.026837 -0.011439 0.052433 0.004984 0.086941
#
#
# Mechanical properties :
#
#
# Convention : Reuss Voigt Hill
#
# Bulk Modulus (GPa) = 25.36507 36.51703 30.94105
# Shear Modulus (GPa) = 13.48710 24.58326 19.03518
#
# Velocity S-wave (km/s) = 2.61115 3.52527 3.10206
# Velocity P-wave (km/s) = 4.68119 5.91864 5.33591
#
# Compressibility (1/GPa) = 0.03942429
#
# Stress axis : x y z
#
# Youngs Moduli (GPa) = 23.52822 39.17181 73.93281
#
# Poissons Ratio (x) = 0.62807 -0.21293
# Poissons Ratio (y) = 0.37724 0.58499
# Poissons Ratio (z) = -0.06776 0.30995
#
# Static dielectric constant tensor:
#      x y z
#    x 1.750560 -0.019250 0.014620 
#    y -0.019250 1.808440 0.036540 
#    z 0.014620 0.036540 1.735890 
# 
# From -- ./inp_files/437395.got.cif
#   From: 2010.05.17/outbox.cif.g08.bks.cpg/sg2_219_cif.got.tgz:437395.got - 2010.06.03 11:33:40.
