data_PCOD9053924
_publ_section_title
;
Structure prediction by ZEFSAII (Michael W. Deem and Ramdas Pophale) SiO2 
 PCOD9053924
Probable space group: P -1
;
_chemical_formula_sum "Si O2"
_cell_formula_units_Z 16
_cell_length_a 11.750230
_cell_length_b 7.270771
_cell_length_c 8.491607
_cell_angle_alpha 66.558351
_cell_angle_beta 59.510740
_cell_angle_gamma 75.567196
_cell_volume 572.522900
_symmetry_space_group_name_H-M "P -1"
_symmetry_group_IT_number 2
_symmetry_cell_setting 'triclinic'
loop_
_space_group_symop_operation_xyz
x,y,z
-x,-y,-z
loop_
_atom_site_type_symbol
_atom_site_label
_atom_site_fract_x
_atom_site_fract_y
_atom_site_fract_z
Si Si1 0.587346 0.963851 0.607932
Si Si2 0.345933 0.098402 0.906080
Si Si3 0.170385 0.714933 0.397220
Si Si4 0.178933 0.139335 0.311495
Si Si5 0.471633 0.587349 0.162455
Si Si6 0.670459 0.333097 0.264697
Si Si7 0.888947 0.387659 0.861518
Si Si8 0.165163 0.361746 0.762672
O O1 0.469116 0.950681 0.821943
O O2 0.659030 0.173955 0.465054
O O3 0.500000 0.000000 0.500000
O O4 0.709314 0.829433 0.642251
O O5 0.426899 0.262934 0.887481
O O6 0.265651 0.167206 0.779408
O O7 0.238034 0.066546 0.124340
O O8 0.325973 0.681565 0.255703
O O9 0.089858 0.706596 0.293947
O O10 0.154622 0.504714 0.570724
O O11 0.124437 0.916170 0.459478
O O12 0.122460 0.367795 0.237332
O O13 0.517703 0.400555 0.307673
O O14 0.500000 0.500000 0.000000
O O15 0.763149 0.499744 0.211660
O O16 0.754938 0.298889 0.056627
O O17 0.012741 0.320422 0.909050
#
# Coordination Sequence:
#
# PCOD9053924 Si02
#       8
#     2   2   2   2   2   2   2   2
#     4  12  28  42  69 110 152 178 234 307 365 423
#     4  11  24  44  71 101 142 186 237 291 359 428
#     4  12  25  45  72 103 143 184 240 296 361 409
#     4  12  26  46  68 110 140 188 233 298 355 424
#     4  11  20  38  72 100 135 180 233 287 355 424
#     4  11  23  44  69 101 134 194 226 289 360 415
#     4  12  27  47  75  99 144 194 244 281 354 431
#     4  11  24  49  69 102 140 194 241 291 344 424
#
# _framework density 27.946480999999999
#
# number of rings (size 3 to 8) (size 9 to 14) (size 15 to 20)
#    0.000    0.500    6.250    1.875    7.000    2.500 
#    0.000    0.625    0.000    0.000    0.000    0.000 
#    0.000    0.000    0.000    0.000    0.000    0.000 
#
# Total GULP energy -89243.391313 kJ/mol
# GULP energy per Si atom -5577.711957 kJ/mol
# Density = 2.788287 g / cm^3
# Si number density = 27.946481 Si / 1000 Ang^3
#
#
#
# Elastic Constant Matrix: (Units=GPa)
#
#
# Indices 1 2 3 4 5 6 
#
# 1 185.4251 60.8778 14.4902 5.9125 11.4103 -38.1419
# 2 60.8778 133.2738 9.5365 -12.2581 -5.3545 -19.5063
# 3 14.4902 9.5365 38.8856 -6.6152 12.6956 -5.0265
# 4 5.9125 -12.2581 -6.6152 33.6539 7.8983 2.4920
# 5 11.4103 -5.3545 12.6956 7.8983 37.3845 -0.5056
# 6 -38.1419 -19.5063 -5.0265 2.4920 -0.5056 57.0506
#
#
#
# Elastic Compliance Matrix: (Units=1/GPa)
#
#
# Indices 1 2 3 4 5 6 
#
# 1 0.007504 -0.003053 -0.001454 -0.002627 -0.001626 0.003945
# 2 -0.003053 0.009504 -0.001181 0.003217 0.002028 0.000981
# 3 -0.001454 -0.001181 0.032331 0.009068 -0.012608 0.000965
# 4 -0.002627 0.003217 0.009068 0.035428 -0.009322 -0.001487
# 5 -0.001626 0.002028 -0.012608 -0.009322 0.033776 -0.000798
# 6 0.003945 0.000981 0.000965 -0.001487 -0.000798 0.020645
#
#
# Mechanical properties :
#
#
# Convention : Reuss Voigt Hill
#
# Bulk Modulus (GPa) = 26.34078 58.59927 42.47002
# Shear Modulus (GPa) = 30.63384 43.79648 37.21516
#
# Velocity S-wave (km/s) = 3.31442 3.96303 3.65315
# Velocity P-wave (km/s) = 4.90847 6.47724 5.74664
#
# Compressibility (1/GPa) = 0.03796395
#
# Stress axis : x y z
#
# Youngs Moduli (GPa) = 133.25374 105.22301 30.92969
#
# Poissons Ratio (x) = 0.32129 0.04496
# Poissons Ratio (y) = 0.40688 0.03652
# Poissons Ratio (z) = 0.19371 0.12423
#
# Static dielectric constant tensor:
#      x y z
#    x 2.233820 0.135690 -0.165860 
#    y 0.135690 2.397070 -0.112300 
#    z -0.165860 -0.112300 2.428010 
# 
# From -- ./inp_files/242441.got.cif
#   From: 2010.05.17/outbox.cif.g08.bks.cpg/sg2_122_cif.got.tgz:242441.got - 2010.06.03 11:33:40.
