data_PCOD9053682
_publ_section_title
;
Structure prediction by ZEFSAII (Michael W. Deem and Ramdas Pophale) SiO2 
 PCOD9053682
Probable space group: P -1
;
_chemical_formula_sum "Si O2"
_cell_formula_units_Z 16
_cell_length_a 8.990157
_cell_length_b 15.331408
_cell_length_c 9.062169
_cell_angle_alpha 130.076004
_cell_angle_beta 90.704720
_cell_angle_gamma 126.845140
_cell_volume 580.890140
_symmetry_space_group_name_H-M "P -1"
_symmetry_group_IT_number 2
_symmetry_cell_setting 'triclinic'
loop_
_space_group_symop_operation_xyz
x,y,z
-x,-y,-z
loop_
_atom_site_type_symbol
_atom_site_label
_atom_site_fract_x
_atom_site_fract_y
_atom_site_fract_z
Si Si1 0.124460 0.733217 0.424112
Si Si2 0.838213 0.970893 0.656108
Si Si3 0.464643 0.689647 0.583015
Si Si4 0.282611 0.362669 0.735728
Si Si5 0.603389 0.687322 0.889599
Si Si6 0.478872 0.128208 0.727913
Si Si7 0.758048 0.217414 0.209477
Si Si8 0.012199 0.403276 0.102880
O O1 0.078749 0.728847 0.594615
O O2 0.908516 0.656290 0.241719
O O3 0.111142 0.590433 0.270013
O O4 0.355591 0.950574 0.623103
O O5 0.678272 0.883417 0.706675
O O6 0.838715 0.834546 0.478463
O O7 0.686742 0.941588 0.493139
O O8 0.120462 0.174423 0.904159
O O9 0.296689 0.682117 0.653800
O O10 0.285255 0.521315 0.276784
O O11 0.585298 0.694509 0.722974
O O12 0.500000 0.500000 0.000000
O O13 0.401355 0.474786 0.707354
O O14 0.530569 0.762254 0.054266
O O15 0.757829 0.256956 0.843621
O O16 0.877628 0.282675 0.122792
O O17 0.500000 0.000000 0.000000
#
# Coordination Sequence:
#
# PCOD9053682 Si02
#       8
#     2   2   2   2   2   2   2   2
#     4  11  20  35  64  97 119 163 221 267 306 371
#     4  12  27  43  62  98 141 170 211 275 330 382
#     4  11  25  44  64  99 136 169 211 276 334 379
#     4  12  22  39  67  96 127 174 223 262 318 389
#     4  12  22  44  66  94 132 175 225 262 313 404
#     4  12  22  40  68  96 124 176 222 263 318 383
#     4  11  20  40  69  94 121 164 219 264 311 383
#     4  11  22  42  68  96 130 161 224 269 314 393
#
# _framework density 27.543932999999999
#
# number of rings (size 3 to 8) (size 9 to 14) (size 15 to 20)
#    0.000    0.500    6.250    3.750    0.000    1.000 
#    2.250    2.500    0.000    0.000    0.000    0.000 
#    0.000    0.000    0.000    0.000    0.000    0.000 
#
# Total GULP energy -89537.826051 kJ/mol
# GULP energy per Si atom -5596.114128 kJ/mol
# Density = 2.748124 g / cm^3
# Si number density = 27.543933 Si / 1000 Ang^3
#
#
#
# Elastic Constant Matrix: (Units=GPa)
#
#
# Indices 1 2 3 4 5 6 
#
# 1 121.9370 15.4917 49.3027 18.0012 14.0345 -4.6517
# 2 15.4917 180.6681 37.1638 8.5253 13.0204 -25.4191
# 3 49.3027 37.1638 121.3749 -4.4673 49.0352 -26.2003
# 4 18.0012 8.5253 -4.4673 59.0136 -5.9344 2.6279
# 5 14.0345 13.0204 49.0352 -5.9344 53.7285 9.2433
# 6 -4.6517 -25.4191 -26.2003 2.6279 9.2433 42.3165
#
#
#
# Elastic Compliance Matrix: (Units=1/GPa)
#
#
# Indices 1 2 3 4 5 6 
#
# 1 0.010875 -0.000168 -0.006741 -0.003276 0.003621 -0.003667
# 2 -0.000168 0.006411 -0.000017 -0.001315 -0.002401 0.004428
# 3 -0.006741 -0.000017 0.025510 0.000567 -0.024975 0.020463
# 4 -0.003276 -0.001315 0.000567 0.018614 0.003168 -0.002647
# 5 0.003621 -0.002401 -0.024975 0.003168 0.045993 -0.026750
# 6 -0.003667 0.004428 0.020463 -0.002647 -0.026750 0.044566
#
#
# Mechanical properties :
#
#
# Convention : Reuss Voigt Hill
#
# Bulk Modulus (GPa) = 34.55026 69.76627 52.15826
# Shear Modulus (GPa) = 28.49504 52.47986 40.48745
#
# Velocity S-wave (km/s) = 3.21990 4.36973 3.83812
# Velocity P-wave (km/s) = 5.13757 7.13046 6.21442
#
# Compressibility (1/GPa) = 0.02894335
#
# Stress axis : x y z
#
# Youngs Moduli (GPa) = 91.95577 155.98078 39.19988
#
# Poissons Ratio (x) = 0.02623 0.26424
# Poissons Ratio (y) = 0.01546 0.00068
# Poissons Ratio (z) = 0.61987 0.00270
#
# Static dielectric constant tensor:
#      x y z
#    x 2.225520 0.089290 -0.079840 
#    y 0.089290 2.187030 -0.101750 
#    z -0.079840 -0.101750 2.237790 
# 
# From -- ./inp_files/273867.got.cif
#   From: 2010.05.17/outbox.cif.g08.bks.cpg/sg2_137_cif.got.tgz:273867.got - 2010.06.03 11:33:40.
