data_PCOD9053085
_publ_section_title
;
Structure prediction by ZEFSAII (Michael W. Deem and Ramdas Pophale) SiO2 
 PCOD9053085
Probable space group: P -1
;
_chemical_formula_sum "Si O2"
_cell_formula_units_Z 16
_cell_length_a 9.872452
_cell_length_b 10.360298
_cell_length_c 20.511962
_cell_angle_alpha 53.660436
_cell_angle_beta 25.120744
_cell_angle_gamma 57.152881
_cell_volume 717.334706
_symmetry_space_group_name_H-M "P -1"
_symmetry_group_IT_number 2
_symmetry_cell_setting 'triclinic'
loop_
_space_group_symop_operation_xyz
x,y,z
-x,-y,-z
loop_
_atom_site_type_symbol
_atom_site_label
_atom_site_fract_x
_atom_site_fract_y
_atom_site_fract_z
Si Si1 0.065227 0.542305 0.358222
Si Si2 0.061215 0.917536 0.100575
Si Si3 0.140642 0.238461 0.506261
Si Si4 0.748696 0.641073 0.077715
Si Si5 0.320581 0.399840 0.164928
Si Si6 0.034511 0.755390 0.034678
Si Si7 0.820063 0.912141 0.758934
Si Si8 0.844931 0.099055 0.247945
O O1 0.856718 0.673240 0.450224
O O2 0.413596 0.605668 0.205287
O O3 0.088324 0.502775 0.282881
O O4 0.043585 0.373933 0.456095
O O5 0.976983 0.776803 0.129775
O O6 0.896744 0.930637 0.238269
O O7 0.445285 0.914889 0.941249
O O8 0.948913 0.073830 0.060514
O O9 0.906403 0.088792 0.643465
O O10 0.498607 0.170148 0.362342
O O11 0.756723 0.668050 0.143581
O O12 0.890259 0.792031 0.933981
O O13 0.000000 0.500000 0.000000
O O14 0.156986 0.242938 0.251685
O O15 0.500000 0.500000 0.000000
O O16 0.622323 0.331929 0.096107
O O17 0.061194 0.898405 0.718694
#
# Coordination Sequence:
#
# PCOD9053085 Si02
#       8
#     2   2   2   2   2   2   2   2
#     4  11  23  42  64  94 126 166 214 254 312 374
#     4   9  19  37  61  87 119 157 209 267 301 359
#     4  11  24  41  62  88 129 174 207 250 309 392
#     4  11  18  35  65  87 114 163 212 260 300 357
#     4  11  23  40  64  97 128 158 206 273 315 362
#     4   9  18  33  57  92 117 145 200 257 316 354
#     4  11  24  40  61  92 125 164 207 258 322 372
#     4  11  21  38  62  89 123 164 211 256 312 371
#
# _framework density 22.304790000000001
#
# number of rings (size 3 to 8) (size 9 to 14) (size 15 to 20)
#    0.000    1.500    2.500    3.750    0.000    2.500 
#    0.000    3.125    0.000    0.000    0.000    0.000 
#    0.000    0.000    0.000    0.000    0.000    0.000 
#
# Total GULP energy -89276.226451 kJ/mol
# GULP energy per Si atom -5579.764153 kJ/mol
# Density = 2.225402 g / cm^3
# Si number density = 22.304790 Si / 1000 Ang^3
#
#
#
# Elastic Constant Matrix: (Units=GPa)
#
#
# Indices 1 2 3 4 5 6 
#
# 1 68.4604 25.1504 20.7492 4.8990 8.3278 25.3137
# 2 25.1504 79.4283 36.5902 8.0401 1.4301 39.8918
# 3 20.7492 36.5902 61.2325 -3.7530 7.3756 26.6035
# 4 4.8990 8.0401 -3.7530 32.9735 -5.6885 4.8369
# 5 8.3278 1.4301 7.3756 -5.6885 26.3719 7.2478
# 6 25.3137 39.8918 26.6035 4.8369 7.2478 45.8570
#
#
#
# Elastic Compliance Matrix: (Units=1/GPa)
#
#
# Indices 1 2 3 4 5 6 
#
# 1 0.019062 -0.000821 -0.002372 -0.002437 -0.003754 -0.007582
# 2 -0.000821 0.025811 -0.008354 -0.003635 0.005249 -0.017600
# 3 -0.002372 -0.008354 0.025628 0.005739 -0.002961 -0.006429
# 4 -0.002437 -0.003635 0.005739 0.034094 0.007715 -0.003637
# 5 -0.003754 0.005249 -0.002961 0.007715 0.043645 -0.008488
# 6 -0.007582 -0.017600 -0.006429 -0.003637 -0.008488 0.046758
#
#
# Mechanical properties :
#
#
# Convention : Reuss Voigt Hill
#
# Bulk Modulus (GPa) = 21.09353 41.56675 31.33014
# Shear Modulus (GPa) = 21.37717 29.48257 25.42987
#
# Velocity S-wave (km/s) = 3.09918 3.63961 3.38021
# Velocity P-wave (km/s) = 4.72060 6.02815 5.41399
#
# Compressibility (1/GPa) = 0.04740790
#
# Stress axis : x y z
#
# Youngs Moduli (GPa) = 52.46058 38.74276 39.01915
#
# Poissons Ratio (x) = 0.03181 0.09255
# Poissons Ratio (y) = 0.04307 0.32597
# Poissons Ratio (z) = 0.12443 0.32366
#
# Static dielectric constant tensor:
#      x y z
#    x 1.839610 0.051870 0.076690 
#    y 0.051870 1.950940 -0.023150 
#    z 0.076690 -0.023150 1.882470 
# 
# From -- ./inp_files/594428.got.cif
#   From: 2010.05.17/outbox.cif.g08.bks.cpg/sg2_298_cif.got.tgz:594428.got - 2010.06.03 11:33:40.
