data_PCOD9053056
_publ_section_title
;
Structure prediction by ZEFSAII (Michael W. Deem and Ramdas Pophale) SiO2 
 PCOD9053056
Probable space group: P -1
;
_chemical_formula_sum "Si O2"
_cell_formula_units_Z 14
_cell_length_a 13.015983
_cell_length_b 11.106456
_cell_length_c 10.536444
_cell_angle_alpha 123.567051
_cell_angle_beta 33.619134
_cell_angle_gamma 134.178042
_cell_volume 603.374053
_symmetry_space_group_name_H-M "P -1"
_symmetry_group_IT_number 2
_symmetry_cell_setting 'triclinic'
loop_
_space_group_symop_operation_xyz
x,y,z
-x,-y,-z
loop_
_atom_site_type_symbol
_atom_site_label
_atom_site_fract_x
_atom_site_fract_y
_atom_site_fract_z
Si Si1 0.678433 0.219027 0.846154
Si Si2 0.746468 0.054256 0.435476
Si Si3 0.393211 0.606783 0.208382
Si Si4 0.768717 0.839005 0.671375
Si Si5 0.878003 0.572483 0.373096
Si Si6 0.733592 0.210165 0.276689
Si Si7 0.816533 0.925835 0.958386
O O1 0.716816 0.108237 0.638358
O O2 0.693520 0.359473 0.813344
O O3 0.869230 0.295145 0.795049
O O4 0.445988 0.147844 0.112080
O O5 0.773372 0.181119 0.367167
O O6 0.958166 0.040568 0.201237
O O7 0.521227 0.886054 0.543506
O O8 0.212908 0.502167 0.436563
O O9 0.500000 0.500000 0.000000
O O10 0.587998 0.783264 0.169379
O O11 0.760322 0.677219 0.521322
O O12 0.788548 0.836705 0.800919
O O13 0.000000 0.000000 0.500000
O O14 0.834565 0.404175 0.249102
O O15 0.815488 0.098917 0.054343
#
# Coordination Sequence:
#
# PCOD9053056 Si02
#       7
#     2   2   2   2   2   2   2
#     4  11  21  38  65  88 122 160 203 247 301 363
#     4  11  20  37  60  92 129 169 187 232 309 379
#     4  11  18  33  60  91 124 154 194 245 300 360
#     4  11  25  44  64  87 116 159 219 262 291 348
#     4  12  23  37  62  94 121 157 202 254 303 360
#     4  11  23  35  58  96 133 155 192 238 311 375
#     4  11  22  40  59  90 129 167 193 245 302 363
#
# _framework density 23.202853000000001
#
# number of rings (size 3 to 8) (size 9 to 14) (size 15 to 20)
#    0.000    0.857    8.571    1.714    2.000    1.714 
#    0.000    0.714    0.000    1.714    0.000    0.000 
#    0.000    0.000    0.000    0.000    0.000    0.000 
#
# Total GULP energy -78140.006382 kJ/mol
# GULP energy per Si atom -5581.429027 kJ/mol
# Density = 2.315004 g / cm^3
# Si number density = 23.202853 Si / 1000 Ang^3
#
#
#
# Elastic Constant Matrix: (Units=GPa)
#
#
# Indices 1 2 3 4 5 6 
#
# 1 38.9611 10.0323 26.4645 4.3935 -27.7726 11.1916
# 2 10.0323 129.9691 45.8732 28.6239 -7.2020 12.2422
# 3 26.4645 45.8732 104.1772 -1.4800 -41.4767 5.0026
# 4 4.3935 28.6239 -1.4800 45.4656 -3.6958 -0.9680
# 5 -27.7726 -7.2020 -41.4767 -3.6958 38.8912 -10.1208
# 6 11.1916 12.2422 5.0026 -0.9680 -10.1208 22.2268
#
#
#
# Elastic Compliance Matrix: (Units=1/GPa)
#
#
# Indices 1 2 3 4 5 6 
#
# 1 0.055356 -0.002199 0.003362 -0.000777 0.040262 -0.009119
# 2 -0.002199 0.014573 -0.011514 -0.010825 -0.015233 -0.011736
# 3 0.003362 -0.011514 0.026556 0.010804 0.033346 0.014326
# 4 -0.000777 -0.010825 0.010804 0.030716 0.015031 0.012104
# 5 0.040262 -0.015233 0.033346 0.015031 0.095018 0.024533
# 6 -0.009119 -0.011736 0.014326 0.012104 0.024533 0.064520
#
#
# Mechanical properties :
#
#
# Convention : Reuss Voigt Hill
#
# Bulk Modulus (GPa) = 13.19509 48.64971 30.92240
# Shear Modulus (GPa) = 15.02846 34.03255 24.53051
#
# Velocity S-wave (km/s) = 2.54775 3.83396 3.25502
# Velocity P-wave (km/s) = 3.78866 6.37273 5.24240
#
# Compressibility (1/GPa) = 0.07578577
#
# Stress axis : x y z
#
# Youngs Moduli (GPa) = 18.06496 68.61931 37.65557
#
# Poissons Ratio (x) = 0.15086 -0.12662
# Poissons Ratio (y) = 0.03972 0.43356
# Poissons Ratio (z) = -0.06074 0.79007
#
# Static dielectric constant tensor:
#      x y z
#    x 1.883360 -0.024380 0.020360 
#    y -0.024380 2.028510 -0.136790 
#    z 0.020360 -0.136790 2.152300 
# 
# From -- ./inp_files/273193.got.cif
#   From: 2010.05.17/outbox.cif.g08.bks.cpg/sg2_137_cif.got.tgz:273193.got - 2010.06.03 11:33:40.
