data_PCOD9053058
_publ_section_title
;
Structure prediction by ZEFSAII (Michael W. Deem and Ramdas Pophale) SiO2 
 PCOD9053058
Probable space group: P -1
;
_chemical_formula_sum "Si O2"
_cell_formula_units_Z 12
_cell_length_a 10.205310
_cell_length_b 8.793575
_cell_length_c 12.845998
_cell_angle_alpha 116.273616
_cell_angle_beta 147.320036
_cell_angle_gamma 76.763423
_cell_volume 533.032493
_symmetry_space_group_name_H-M "P -1"
_symmetry_group_IT_number 2
_symmetry_cell_setting 'triclinic'
loop_
_space_group_symop_operation_xyz
x,y,z
-x,-y,-z
loop_
_atom_site_type_symbol
_atom_site_label
_atom_site_fract_x
_atom_site_fract_y
_atom_site_fract_z
Si Si1 0.530147 0.720392 0.194300
Si Si2 0.997466 0.299668 0.905224
Si Si3 0.492142 0.660923 0.616016
Si Si4 0.724161 0.021750 0.794255
Si Si5 0.256654 0.328151 0.879000
Si Si6 0.735140 0.466966 0.369642
O O1 0.389226 0.863299 0.167340
O O2 0.738945 0.767629 0.256345
O O3 0.649756 0.647559 0.352583
O O4 0.318270 0.539055 0.961716
O O5 0.778424 0.142730 0.763958
O O6 0.036130 0.278210 0.801679
O O7 0.000000 0.500000 0.000000
O O8 0.258151 0.290880 0.130006
O O9 0.500000 0.500000 0.500000
O O10 0.272539 0.597778 0.536681
O O11 0.529331 0.827020 0.615543
O O12 0.000000 0.000000 0.000000
O O13 0.515231 0.326974 0.113283
O O14 0.000000 0.500000 0.500000
#
# Coordination Sequence:
#
# PCOD9053058 Si02
#       6
#     2   2   2   2   2   2
#     4   9  17  35  55  80 108 138 183 229 269 322
#     4  10  17  35  59  84 106 143 183 229 271 328
#     4  10  22  36  51  79 113 148 181 228 273 323
#     4  10  20  34  57  84 112 142 187 231 272 323
#     4   8  17  31  59  80 107 134 182 226 280 314
#     4   9  18  34  54  76 106 149 180 215 273 329
#
# _framework density 22.512699000000001
#
# number of rings (size 3 to 8) (size 9 to 14) (size 15 to 20)
#    1.000    1.667    1.667    0.000    0.000    4.000 
#    0.000   13.333    0.000    0.000    0.000    0.000 
#    0.000    0.000    0.000    0.000    0.000    0.000 
#
# Total GULP energy -66846.429916 kJ/mol
# GULP energy per Si atom -5570.535826 kJ/mol
# Density = 2.246146 g / cm^3
# Si number density = 22.512699 Si / 1000 Ang^3
#
#
#
# Elastic Constant Matrix: (Units=GPa)
#
#
# Indices 1 2 3 4 5 6 
#
# 1 224.1005 77.6257 48.1822 30.8471 33.4100 21.0328
# 2 77.6257 127.6956 35.9819 15.7525 9.4252 -1.6581
# 3 48.1822 35.9819 54.9703 1.4573 23.9014 9.1718
# 4 30.8471 15.7525 1.4573 33.6402 8.7901 -0.2805
# 5 33.4100 9.4252 23.9014 8.7901 33.5119 -3.5549
# 6 21.0328 -1.6581 9.1718 -0.2805 -3.5549 44.1021
#
#
#
# Elastic Compliance Matrix: (Units=1/GPa)
#
#
# Indices 1 2 3 4 5 6 
#
# 1 0.007623 -0.003357 -0.001645 -0.004122 -0.004807 -0.003833
# 2 -0.003357 0.012575 -0.009575 -0.004532 0.008327 0.004707
# 3 -0.001645 -0.009575 0.039330 0.011464 -0.027777 -0.009921
# 4 -0.004122 -0.004532 0.011464 0.038529 -0.013046 -0.001395
# 5 -0.004807 0.008327 -0.027777 -0.013046 0.056891 0.012885
# 6 -0.003833 0.004707 -0.009921 -0.001395 0.012885 0.027773
#
#
# Mechanical properties :
#
#
# Convention : Reuss Voigt Hill
#
# Bulk Modulus (GPa) = 32.92225 81.14956 57.03591
# Shear Modulus (GPa) = 22.52254 38.58263 30.55259
#
# Velocity S-wave (km/s) = 3.16640 4.14432 3.68792
# Velocity P-wave (km/s) = 5.29374 7.68276 6.59729
#
# Compressibility (1/GPa) = 0.03037459
#
# Stress axis : x y z
#
# Youngs Moduli (GPa) = 131.18957 79.52098 25.42565
#
# Poissons Ratio (x) = 0.26692 0.04183
# Poissons Ratio (y) = 0.44035 0.24346
# Poissons Ratio (z) = 0.21581 0.76143
#
# Static dielectric constant tensor:
#      x y z
#    x 1.925780 0.094670 -0.106250 
#    y 0.094670 1.893090 -0.103690 
#    z -0.106250 -0.103690 1.976590 
# 
# From -- ./inp_files/199309.got.cif
#   From: 2010.05.17/outbox.cif.g08.bks.cpg/sg2_100_cif.got.tgz:199309.got - 2010.06.03 11:33:40.
