data_PCOD9053495
_publ_section_title
;
Structure prediction by ZEFSAII (Michael W. Deem and Ramdas Pophale) SiO2 
 PCOD9053495
Probable space group: P -1
;
_chemical_formula_sum "Si O2"
_cell_formula_units_Z 16
_cell_length_a 17.038530
_cell_length_b 11.962033
_cell_length_c 8.457432
_cell_angle_alpha 114.094120
_cell_angle_beta 78.271642
_cell_angle_gamma 154.166290
_cell_volume 624.586263
_symmetry_space_group_name_H-M "P -1"
_symmetry_group_IT_number 2
_symmetry_cell_setting 'triclinic'
loop_
_space_group_symop_operation_xyz
x,y,z
-x,-y,-z
loop_
_atom_site_type_symbol
_atom_site_label
_atom_site_fract_x
_atom_site_fract_y
_atom_site_fract_z
Si Si1 0.953901 0.696849 0.167565
Si Si2 0.726096 0.098703 0.282762
Si Si3 0.848948 0.530977 0.477008
Si Si4 0.496415 0.229321 0.408973
Si Si5 0.917682 0.435576 0.829763
Si Si6 0.561210 0.227354 0.052752
Si Si7 0.635243 0.664668 0.778834
Si Si8 0.740118 0.838129 0.196104
O O1 0.918870 0.602036 0.307014
O O2 0.795826 0.585832 0.167795
O O3 0.856283 0.483664 0.941302
O O4 0.181577 0.024168 0.216316
O O5 0.803747 0.335987 0.459599
O O6 0.897454 0.304253 0.208006
O O7 0.692595 0.918713 0.265804
O O8 0.535688 0.876007 0.132969
O O9 0.653379 0.341302 0.451547
O O10 0.034934 0.858660 0.666578
O O11 0.472918 0.185088 0.204848
O O12 0.580299 0.469802 0.585397
O O13 0.270583 0.892634 0.356552
O O14 0.000000 0.500000 0.000000
O O15 0.500000 0.000000 0.000000
O O16 0.429304 0.446659 0.779666
O O17 0.715451 0.757320 0.979651
#
# Coordination Sequence:
#
# PCOD9053495 Si02
#       8
#     2   2   2   2   2   2   2   2
#     4  11  22  43  72 104 134 177 232 291 341 408
#     4  12  21  41  71 105 136 180 223 296 345 405
#     4  11  23  43  73 102 139 176 235 293 344 404
#     4  11  23  43  71 104 141 176 232 286 344 415
#     4  12  19  37  72 108 132 169 231 291 342 400
#     4  11  19  41  71 108 141 164 226 295 351 396
#     4  11  27  50  64  99 143 191 238 272 346 422
#     4  11  27  49  63  96 147 191 229 280 347 417
#
# _framework density 25.616956999999999
#
# number of rings (size 3 to 8) (size 9 to 14) (size 15 to 20)
#    0.000    0.750    7.500    1.125    0.000    3.000 
#   11.250    1.250    0.000    0.000    0.000    0.000 
#    0.000    0.000    0.000    0.000    0.000    0.000 
#
# Total GULP energy -89395.048842 kJ/mol
# GULP energy per Si atom -5587.190553 kJ/mol
# Density = 2.555865 g / cm^3
# Si number density = 25.616957 Si / 1000 Ang^3
#
#
#
# Elastic Constant Matrix: (Units=GPa)
#
#
# Indices 1 2 3 4 5 6 
#
# 1 56.0308 46.0163 8.8313 7.8633 9.7355 -2.7084
# 2 46.0163 128.5201 18.3019 28.0825 13.6477 -2.6678
# 3 8.8313 18.3019 131.9120 26.9238 -16.4192 -5.4141
# 4 7.8633 28.0825 26.9238 37.9900 10.6561 4.6406
# 5 9.7355 13.6477 -16.4192 10.6561 38.5126 10.8187
# 6 -2.7084 -2.6678 -5.4141 4.6406 10.8187 28.9964
#
#
#
# Elastic Compliance Matrix: (Units=1/GPa)
#
#
# Indices 1 2 3 4 5 6 
#
# 1 0.026522 -0.009430 -0.001997 0.004287 -0.006205 0.002866
# 2 -0.009430 0.012919 0.000549 -0.008147 -0.000209 0.001792
# 3 -0.001997 0.000549 0.010521 -0.009565 0.007259 0.000651
# 4 0.004287 -0.008147 -0.009565 0.042339 -0.012831 -0.004124
# 5 -0.006205 -0.000209 0.007259 -0.012831 0.037382 -0.011137
# 6 0.002866 0.001792 0.000651 -0.004124 -0.011137 0.039857
#
#
# Mechanical properties :
#
#
# Convention : Reuss Voigt Hill
#
# Bulk Modulus (GPa) = 35.45341 51.41801 43.43571
# Shear Modulus (GPa) = 24.91334 37.32068 31.11701
#
# Velocity S-wave (km/s) = 3.12193 3.82104 3.48904
# Velocity P-wave (km/s) = 5.18316 6.29147 5.76401
#
# Compressibility (1/GPa) = 0.02820603
#
# Stress axis : x y z
#
# Youngs Moduli (GPa) = 37.70501 77.40719 95.05080
#
# Poissons Ratio (x) = 0.72994 0.18981
# Poissons Ratio (y) = 0.35556 -0.05222
# Poissons Ratio (z) = 0.07530 -0.04253
#
# Static dielectric constant tensor:
#      x y z
#    x 2.163530 -0.053630 -0.029460 
#    y -0.053630 2.024920 0.003440 
#    z -0.029460 0.003440 2.081530 
# 
# From -- ./inp_files/347646.got.cif
#   From: 2010.05.17/outbox.cif.g08.bks.cpg/sg2_174_cif.got.tgz:347646.got - 2010.06.03 11:33:40.
