data_PCOD9053864
_publ_section_title
;
Structure prediction by ZEFSAII (Michael W. Deem and Ramdas Pophale) SiO2 
 PCOD9053864
Probable space group: P -1
;
_chemical_formula_sum "Si O2"
_cell_formula_units_Z 16
_cell_length_a 18.582150
_cell_length_b 26.983565
_cell_length_c 6.601994
_cell_angle_alpha 51.640046
_cell_angle_beta 48.497259
_cell_angle_gamma 16.134696
_cell_volume 686.928026
_symmetry_space_group_name_H-M "P -1"
_symmetry_group_IT_number 2
_symmetry_cell_setting 'triclinic'
loop_
_space_group_symop_operation_xyz
x,y,z
-x,-y,-z
loop_
_atom_site_type_symbol
_atom_site_label
_atom_site_fract_x
_atom_site_fract_y
_atom_site_fract_z
Si Si1 0.774846 0.613698 0.278812
Si Si2 0.034471 0.124033 0.081972
Si Si3 0.006364 0.621146 0.222764
Si Si4 0.851454 0.052220 0.972861
Si Si5 0.143027 0.633307 0.267827
Si Si6 0.631126 0.990136 0.497202
Si Si7 0.282765 0.976603 0.413127
Si Si8 0.383009 0.393139 0.720139
O O1 0.587764 0.787524 0.244045
O O2 0.607362 0.666501 0.320721
O O3 0.904030 0.496769 0.522413
O O4 0.000000 0.500000 0.000000
O O5 0.984583 0.091070 0.133371
O O6 0.315347 0.984076 0.824077
O O7 0.832560 0.306687 0.956579
O O8 0.080276 0.087876 0.325718
O O9 0.150606 0.590126 0.154434
O O10 0.681410 0.829611 0.327096
O O11 0.127986 0.542645 0.970227
O O12 0.707520 0.087137 0.286980
O O13 0.644698 0.222792 0.802912
O O14 0.000000 0.000000 0.000000
O O15 0.341638 0.482611 0.446039
O O16 0.830397 0.815402 0.473166
O O17 0.772417 0.926603 0.603502
#
# Coordination Sequence:
#
# PCOD9053864 Si02
#       8
#     2   2   2   2   2   2   2   2
#     4  11  22  34  58  91 128 164 192 244 299 359
#     4   9  21  41  60  85 120 153 202 245 297 362
#     4  11  21  34  57  87 127 168 201 238 294 353
#     4  11  24  43  67  90 113 152 209 265 311 354
#     4   9  23  38  58  83 130 164 196 246 291 356
#     4   9  21  35  56  88 120 168 204 231 285 364
#     4  11  20  38  63  87 119 162 199 248 306 351
#     4  11  23  40  56  91 125 155 204 252 296 361
#
# _framework density 23.292106
#
# number of rings (size 3 to 8) (size 9 to 14) (size 15 to 20)
#    0.750    1.000    2.500    1.875    3.500    3.000 
#    0.000    0.625    0.000    1.500    0.000    0.000 
#    0.000    0.000    0.000    0.000    0.000    0.000 
#
# Total GULP energy -89316.025351 kJ/mol
# GULP energy per Si atom -5582.251584 kJ/mol
# Density = 2.323909 g / cm^3
# Si number density = 23.292106 Si / 1000 Ang^3
#
#
#
# Elastic Constant Matrix: (Units=GPa)
#
#
# Indices 1 2 3 4 5 6 
#
# 1 97.4584 19.7629 15.8648 -17.2306 21.5553 7.7758
# 2 19.7629 60.0672 28.0154 -26.1662 1.3680 0.5439
# 3 15.8648 28.0154 69.5664 -19.0391 18.3699 0.0656
# 4 -17.2306 -26.1662 -19.0391 42.3035 -0.9621 7.8290
# 5 21.5553 1.3680 18.3699 -0.9621 29.9985 0.7037
# 6 7.7758 0.5439 0.0656 7.8290 0.7037 30.0095
#
#
#
# Elastic Compliance Matrix: (Units=1/GPa)
#
#
# Indices 1 2 3 4 5 6 
#
# 1 0.014432 -0.003148 0.002595 0.005747 -0.011516 -0.004917
# 2 -0.003148 0.026846 -0.008529 0.012191 0.006722 -0.002990
# 3 0.002595 -0.008529 0.022916 0.006080 -0.015272 -0.001796
# 4 0.005747 0.012191 0.006080 0.038234 -0.006912 -0.011536
# 5 -0.011516 0.006722 -0.015272 -0.006912 0.050351 0.003518
# 6 -0.004917 -0.002990 -0.001796 -0.011536 0.003518 0.037582
#
#
# Mechanical properties :
#
#
# Convention : Reuss Voigt Hill
#
# Bulk Modulus (GPa) = 21.72518 39.37536 30.55027
# Shear Modulus (GPa) = 22.33436 31.35890 26.84663
#
# Velocity S-wave (km/s) = 3.09994 3.67322 3.39869
# Velocity P-wave (km/s) = 4.70748 5.91031 5.34285
#
# Compressibility (1/GPa) = 0.04602954
#
# Stress axis : x y z
#
# Youngs Moduli (GPa) = 69.28903 37.24897 43.63734
#
# Poissons Ratio (x) = 0.11728 -0.11324
# Poissons Ratio (y) = 0.21815 0.37220
# Poissons Ratio (z) = -0.17981 0.31771
#
# Static dielectric constant tensor:
#      x y z
#    x 1.915720 -0.005790 -0.007340 
#    y -0.005790 1.919350 0.042330 
#    z -0.007340 0.042330 1.891970 
# 
# From -- ./inp_files/113221.got.cif
#   From: 2010.05.17/outbox.cif.g08.bks.cpg/sg2_57_cif.got.tgz:113221.got - 2010.06.03 11:33:40.
