data_PCOD9053941
_publ_section_title
;
Structure prediction by ZEFSAII (Michael W. Deem and Ramdas Pophale) SiO2 
 PCOD9053941
Probable space group: P -1
;
_chemical_formula_sum "Si O2"
_cell_formula_units_Z 12
_cell_length_a 8.324790
_cell_length_b 8.224079
_cell_length_c 22.239353
_cell_angle_alpha 145.964310
_cell_angle_beta 42.209807
_cell_angle_gamma 132.893152
_cell_volume 563.438091
_symmetry_space_group_name_H-M "P -1"
_symmetry_group_IT_number 2
_symmetry_cell_setting 'triclinic'
loop_
_space_group_symop_operation_xyz
x,y,z
-x,-y,-z
loop_
_atom_site_type_symbol
_atom_site_label
_atom_site_fract_x
_atom_site_fract_y
_atom_site_fract_z
Si Si1 0.317819 0.832694 0.085380
Si Si2 0.797649 0.739631 0.224892
Si Si3 0.470052 0.336897 0.605163
Si Si4 0.870308 0.864910 0.671652
Si Si5 0.043645 0.214297 0.610281
Si Si6 0.626207 0.579352 0.832740
O O1 0.041894 0.646283 0.102220
O O2 0.324470 0.951853 0.188204
O O3 0.339056 0.125647 0.127489
O O4 0.518201 0.660702 0.951326
O O5 0.691155 0.588524 0.270353
O O6 0.578562 0.668216 0.217706
O O7 0.915296 0.069149 0.317333
O O8 0.730579 0.539146 0.601199
O O9 0.321268 0.360459 0.592778
O O10 0.500000 0.000000 0.500000
O O11 0.962852 0.012142 0.629062
O O12 0.873651 0.457395 0.729104
O O13 0.000000 0.000000 0.500000
#
# Coordination Sequence:
#
# PCOD9053941 Si02
#       6
#     2   2   2   2   2   2
#     4   9  21  37  67  90 122 165 203 236 305 372
#     4   9  18  37  62  87 117 157 205 238 295 364
#     4  11  22  41  63  84 123 165 206 246 300 371
#     4   9  22  41  60  89 117 164 205 236 310 359
#     4  11  26  39  60  94 123 155 204 263 301 350
#     4  11  20  39  63  97 125 154 203 256 295 351
#
# _framework density 21.297815
#
# number of rings (size 3 to 8) (size 9 to 14) (size 15 to 20)
#    1.000    1.000    1.667    1.500    0.000    6.667 
#    0.000    0.833    0.000    0.000    0.000    0.000 
#    0.000    0.000    0.000    0.000    0.000    0.000 
#
# Total GULP energy -66837.697710 kJ/mol
# GULP energy per Si atom -5569.808142 kJ/mol
# Density = 2.124934 g / cm^3
# Si number density = 21.297815 Si / 1000 Ang^3
#
#
#
# Elastic Constant Matrix: (Units=GPa)
#
#
# Indices 1 2 3 4 5 6 
#
# 1 73.7343 9.6022 41.7974 9.2874 1.7713 18.7116
# 2 9.6022 70.8386 7.4542 -3.3975 5.8202 17.0849
# 3 41.7974 7.4542 100.2834 -11.2956 -1.3402 -8.7115
# 4 9.2874 -3.3975 -11.2956 34.5846 -4.3524 8.8283
# 5 1.7713 5.8202 -1.3402 -4.3524 37.1238 -6.7554
# 6 18.7116 17.0849 -8.7115 8.8283 -6.7554 29.7245
#
#
#
# Elastic Compliance Matrix: (Units=1/GPa)
#
#
# Indices 1 2 3 4 5 6 
#
# 1 0.029351 0.004017 -0.015626 -0.007205 -0.007996 -0.025042
# 2 0.004017 0.018689 -0.004273 0.002881 -0.005984 -0.016738
# 3 -0.015626 -0.004273 0.019106 0.006337 0.006010 0.017375
# 4 -0.007205 0.002881 0.006337 0.034862 0.003323 -0.004862
# 5 -0.007996 -0.005984 0.006010 0.003323 0.031864 0.016489
# 6 -0.025042 -0.016738 0.017375 -0.004862 0.016489 0.069311
#
#
# Mechanical properties :
#
#
# Convention : Reuss Voigt Hill
#
# Bulk Modulus (GPa) = 28.26296 40.28489 34.27392
# Shear Modulus (GPa) = 20.26431 32.68675 26.47553
#
# Velocity S-wave (km/s) = 3.08794 3.92183 3.52960
# Velocity P-wave (km/s) = 5.10030 6.28202 5.72175
#
# Compressibility (1/GPa) = 0.03538200
#
# Stress axis : x y z
#
# Youngs Moduli (GPa) = 34.06992 53.50872 52.34072
#
# Poissons Ratio (x) = -0.21494 0.81787
# Poissons Ratio (y) = -0.13685 0.22364
# Poissons Ratio (z) = 0.53237 0.22863
#
# Static dielectric constant tensor:
#      x y z
#    x 1.785030 0.041330 0.009740 
#    y 0.041330 1.807380 -0.042070 
#    z 0.009740 -0.042070 1.836100 
# 
# From -- ./inp_files/30728.got.cif
#   From: 2010.05.17/outbox.cif.g08.bks.cpg/sg2_16_cif.got.tgz:30728.got - 2010.06.03 11:33:40.
