data_PCOD9053986
_publ_section_title
;
Structure prediction by ZEFSAII (Michael W. Deem and Ramdas Pophale) SiO2 
 PCOD9053986
Probable space group: P -1
;
_chemical_formula_sum "Si O2"
_cell_formula_units_Z 16
_cell_length_a 11.010261
_cell_length_b 13.345985
_cell_length_c 12.712048
_cell_angle_alpha 143.439926
_cell_angle_beta 49.397364
_cell_angle_gamma 104.892718
_cell_volume 683.562804
_symmetry_space_group_name_H-M "P -1"
_symmetry_group_IT_number 2
_symmetry_cell_setting 'triclinic'
loop_
_space_group_symop_operation_xyz
x,y,z
-x,-y,-z
loop_
_atom_site_type_symbol
_atom_site_label
_atom_site_fract_x
_atom_site_fract_y
_atom_site_fract_z
Si Si1 0.120010 0.156027 0.357386
Si Si2 0.752107 0.214315 0.872733
Si Si3 0.682802 0.495768 0.851354
Si Si4 0.976446 0.693863 0.121337
Si Si5 0.439305 0.932351 0.301724
Si Si6 0.345446 0.917334 0.829672
Si Si7 0.333525 0.602941 0.459559
Si Si8 0.721591 0.576559 0.454191
O O1 0.221176 0.264016 0.430266
O O2 0.886498 0.322862 0.646204
O O3 0.205635 0.944926 0.193442
O O4 0.181595 0.090983 0.146573
O O5 0.662890 0.156946 0.781160
O O6 0.944832 0.212908 0.762588
O O7 0.572524 0.452717 0.197295
O O8 0.723518 0.428636 0.649284
O O9 0.500000 0.500000 0.000000
O O10 0.610404 0.733149 0.102392
O O11 0.748482 0.867647 0.368022
O O12 0.000000 0.500000 0.000000
O O13 0.119775 0.607551 0.867413
O O14 0.539024 0.005308 0.229609
O O15 0.265133 0.832302 0.719681
O O16 0.504596 0.717275 0.643156
O O17 0.274099 0.514768 0.512401
#
# Coordination Sequence:
#
# PCOD9053986 Si02
#       8
#     2   2   2   2   2   2   2   2
#     4  12  24  42  72  98 138 186 227 278 342 409
#     4  11  20  39  68  96 130 177 230 284 338 394
#     4  11  28  50  66  97 141 184 230 275 343 417
#     4  12  22  37  64 104 138 171 223 285 346 394
#     4  11  24  42  67  98 136 181 227 283 336 400
#     4  12  22  43  72 107 139 170 233 291 338 401
#     4  11  24  43  72 100 139 179 222 290 341 401
#     4  12  23  41  69 109 141 170 230 288 339 403
#
# _framework density 23.406775
#
# number of rings (size 3 to 8) (size 9 to 14) (size 15 to 20)
#    0.000    0.500    5.000    4.125    0.000    6.500 
#    0.000    3.750    0.000    0.000    0.000    0.000 
#    0.000    0.000    0.000    0.000    0.000    0.000 
#
# Total GULP energy -89561.307469 kJ/mol
# GULP energy per Si atom -5597.581717 kJ/mol
# Density = 2.335350 g / cm^3
# Si number density = 23.406775 Si / 1000 Ang^3
#
#
#
# Elastic Constant Matrix: (Units=GPa)
#
#
# Indices 1 2 3 4 5 6 
#
# 1 35.8543 8.8927 10.9772 8.9715 3.1080 0.7693
# 2 8.8927 81.1159 -11.0689 1.5773 11.8669 -0.9988
# 3 10.9772 -11.0689 114.1032 -3.5417 -8.0757 -7.2940
# 4 8.9715 1.5773 -3.5417 37.1439 6.2692 8.1016
# 5 3.1080 11.8669 -8.0757 6.2692 30.4092 4.5006
# 6 0.7693 -0.9988 -7.2940 8.1016 4.5006 35.6201
#
#
#
# Elastic Compliance Matrix: (Units=1/GPa)
#
#
# Indices 1 2 3 4 5 6 
#
# 1 0.032002 -0.003676 -0.003744 -0.007796 -0.001279 0.000374
# 2 -0.003676 0.013645 0.001432 0.001031 -0.004951 0.001146
# 3 -0.003744 0.001432 0.009532 0.001086 0.001897 0.001586
# 4 -0.007796 0.001031 0.001086 0.030991 -0.004815 -0.006021
# 5 -0.001279 -0.004951 0.001897 -0.004815 0.036931 -0.003294
# 6 0.000374 0.001146 0.001586 -0.006021 -0.003294 0.030208
#
#
# Mechanical properties :
#
#
# Convention : Reuss Voigt Hill
#
# Bulk Modulus (GPa) = 23.14601 27.63060 25.38830
# Shear Modulus (GPa) = 27.82614 35.45281 31.63947
#
# Velocity S-wave (km/s) = 3.45165 3.89606 3.68057
# Velocity P-wave (km/s) = 5.07890 5.66297 5.37887
#
# Compressibility (1/GPa) = 0.04320399
#
# Stress axis : x y z
#
# Youngs Moduli (GPa) = 31.24786 73.28785 104.90478
#
# Poissons Ratio (x) = 0.26941 0.39275
# Poissons Ratio (y) = 0.11487 -0.15024
# Poissons Ratio (z) = 0.11699 -0.10496
#
# Static dielectric constant tensor:
#      x y z
#    x 1.891750 -0.009410 0.009480 
#    y -0.009410 1.850880 -0.006650 
#    z 0.009480 -0.006650 1.913510 
# 
# From -- ./inp_files/175357.got.cif
#   From: 2010.05.17/outbox.cif.g08.bks.cpg/sg2_88_cif.got.tgz:175357.got - 2010.06.03 11:33:40.
