data_PCOD9053728
_publ_section_title
;
Structure prediction by ZEFSAII (Michael W. Deem and Ramdas Pophale) SiO2 
 PCOD9053728
Probable space group: P -1
;
_chemical_formula_sum "Si O2"
_cell_formula_units_Z 15
_cell_length_a 9.315617
_cell_length_b 11.454839
_cell_length_c 8.606213
_cell_angle_alpha 73.870923
_cell_angle_beta 120.486530
_cell_angle_gamma 127.846396
_cell_volume 624.175160
_symmetry_space_group_name_H-M "P -1"
_symmetry_group_IT_number 2
_symmetry_cell_setting 'triclinic'
loop_
_space_group_symop_operation_xyz
x,y,z
-x,-y,-z
loop_
_atom_site_type_symbol
_atom_site_label
_atom_site_fract_x
_atom_site_fract_y
_atom_site_fract_z
Si Si1 0.682260 0.773937 0.424037
Si Si2 0.955248 0.739927 0.827275
Si Si3 0.089604 0.069404 0.821432
Si Si4 0.500000 0.500000 0.500000
Si Si5 0.247798 0.520359 0.617818
Si Si6 0.149479 0.688138 0.695783
Si Si7 0.272577 0.358845 0.951769
Si Si8 0.698713 0.023734 0.527504
O O1 0.785105 0.704571 0.610751
O O2 0.828601 0.866411 0.330028
O O3 0.484044 0.617227 0.333112
O O4 0.644766 0.879718 0.456676
O O5 0.110992 0.711533 0.843646
O O6 0.841003 0.650504 0.951005
O O7 0.059657 0.912529 0.862012
O O8 0.241080 0.201184 0.971140
O O9 0.872423 0.045443 0.730096
O O10 0.427504 0.553237 0.594730
O O11 0.299126 0.652416 0.713051
O O12 0.170818 0.380228 0.739013
O O13 0.062005 0.461138 0.419319
O O14 0.202996 0.836802 0.585754
O O15 0.500000 0.500000 0.000000
O O16 0.500000 0.000000 0.500000
#
# Coordination Sequence:
#
# PCOD9053728 Si02
#       8
#     2   2   2   1   2   2   2   2
#     4  11  20  36  67  93 124 163 220 269 314 383
#     4  11  21  39  68  90 128 177 211 266 329 386
#     4  11  21  43  65  93 128 169 224 263 315 384
#     4  12  18  36  60  96 122 158 208 274 312 362
#     4  11  24  38  66  92 130 163 215 268 327 379
#     4  11  21  42  63  93 125 170 214 269 322 380
#     4  12  25  41  64  98 134 169 219 263 325 394
#     4  11  20  36  64  98 122 159 216 280 314 371
#
# _framework density 24.031717
#
# number of rings (size 3 to 8) (size 9 to 14) (size 15 to 20)
#    0.000    0.800    6.667    2.800    0.000    1.600 
#    0.000    0.000    2.933    1.600    0.000    0.000 
#    0.000    0.000    0.000    0.000    0.000    0.000 
#
# Total GULP energy -83564.625629 kJ/mol
# GULP energy per Si atom -5570.975042 kJ/mol
# Density = 2.397702 g / cm^3
# Si number density = 24.031717 Si / 1000 Ang^3
#
#
#
# Elastic Constant Matrix: (Units=GPa)
#
#
# Indices 1 2 3 4 5 6 
#
# 1 169.5681 69.6190 47.8142 14.0147 -51.9642 -16.7428
# 2 69.6190 141.5675 21.6387 12.5293 -24.8564 -16.7276
# 3 47.8142 21.6387 50.4953 1.7387 -33.2726 7.7438
# 4 14.0147 12.5293 1.7387 38.2388 5.6804 -15.6649
# 5 -51.9642 -24.8564 -33.2726 5.6804 41.6955 0.6585
# 6 -16.7428 -16.7276 7.7438 -15.6649 0.6585 45.7075
#
#
#
# Elastic Compliance Matrix: (Units=1/GPa)
#
#
# Indices 1 2 3 4 5 6 
#
# 1 0.011896 -0.002785 -0.002610 -0.004157 0.011613 0.002188
# 2 -0.002785 0.009167 -0.000174 -0.001537 0.002035 0.001808
# 3 -0.002610 -0.000174 0.051024 -0.013203 0.039391 -0.014757
# 4 -0.004157 -0.001537 -0.013203 0.037496 -0.021952 0.013319
# 5 0.011613 0.002035 0.039391 -0.021952 0.074257 -0.010268
# 6 0.002188 0.001808 -0.014757 0.013319 -0.010268 0.030554
#
#
# Mechanical properties :
#
#
# Convention : Reuss Voigt Hill
#
# Bulk Modulus (GPa) = 16.40777 71.08609 43.74693
# Shear Modulus (GPa) = 20.33769 39.96561 30.15165
#
# Velocity S-wave (km/s) = 2.91225 4.08246 3.54596
# Velocity P-wave (km/s) = 4.26036 7.20182 5.91680
#
# Compressibility (1/GPa) = 0.06094672
#
# Stress axis : x y z
#
# Youngs Moduli (GPa) = 84.06482 109.08497 19.59870
#
# Poissons Ratio (x) = 0.30384 0.05116
# Poissons Ratio (y) = 0.23415 0.00341
# Poissons Ratio (z) = 0.21945 0.01900
#
# Static dielectric constant tensor:
#      x y z
#    x 1.816730 -0.244630 -0.023620 
#    y -0.244630 1.482910 -0.147290 
#    z -0.023620 -0.147290 1.966730 
# 
# From -- ./inp_files/179267.got.cif
#   From: 2010.05.17/outbox.cif.g08.bks.cpg/sg2_90_cif.got.tgz:179267.got - 2010.06.03 11:33:40.
