data_PCOD9053952
_publ_section_title
;
Structure prediction by ZEFSAII (Michael W. Deem and Ramdas Pophale) SiO2 
 PCOD9053952
Probable space group: P -1
;
_chemical_formula_sum "Si O2"
_cell_formula_units_Z 16
_cell_length_a 14.501937
_cell_length_b 9.471193
_cell_length_c 14.185313
_cell_angle_alpha 135.892644
_cell_angle_beta 150.486844
_cell_angle_gamma 44.054254
_cell_volume 642.538251
_symmetry_space_group_name_H-M "P -1"
_symmetry_group_IT_number 2
_symmetry_cell_setting 'triclinic'
loop_
_space_group_symop_operation_xyz
x,y,z
-x,-y,-z
loop_
_atom_site_type_symbol
_atom_site_label
_atom_site_fract_x
_atom_site_fract_y
_atom_site_fract_z
Si Si1 0.168279 0.149820 0.295313
Si Si2 0.746801 0.751888 0.079625
Si Si3 0.110573 0.801625 0.353637
Si Si4 0.196345 0.702206 0.172464
Si Si5 0.512675 0.077497 0.235802
Si Si6 0.238902 0.513701 0.864153
Si Si7 0.573440 0.715873 0.251546
Si Si8 0.640493 0.653123 0.598716
O O1 0.322245 0.178383 0.526704
O O2 0.259949 0.200121 0.303222
O O3 0.969265 0.326385 0.225624
O O4 0.138847 0.917711 0.165138
O O5 0.729764 0.697775 0.147031
O O6 0.905491 0.876344 0.258011
O O7 0.828485 0.512650 0.995644
O O8 0.559376 0.865174 0.906035
O O9 0.086573 0.753581 0.199277
O O10 0.259896 0.941900 0.557179
O O11 0.228182 0.584169 0.403039
O O12 0.426691 0.665540 0.376525
O O13 0.394824 0.275057 0.290163
O O14 0.469214 0.884258 0.160028
O O15 0.272917 0.457076 0.757099
O O16 0.411319 0.613524 0.098109
#
# Coordination Sequence:
#
# PCOD9053952 Si02
#       8
#     2   2   2   2   2   2   2   2
#     4  12  24  43  69  96 133 171 220 267 321 390
#     4  12  24  40  66  99 136 164 214 269 321 393
#     4  11  21  40  60  98 135 173 205 256 330 395
#     4  11  22  37  65 100 135 171 206 260 339 384
#     4  11  24  41  68  94 134 173 209 265 330 383
#     4  11  28  46  66  97 124 178 227 264 322 374
#     4  11  26  49  69  88 131 175 224 275 312 376
#     4  11  20  39  64  99 133 167 211 259 331 391
#
# _framework density 24.901242
#
# number of rings (size 3 to 8) (size 9 to 14) (size 15 to 20)
#    0.000    0.750    6.250    2.625    3.500    1.000 
#    0.000    0.625    0.000    0.000    0.000    0.000 
#    0.000    0.000    0.000    0.000    0.000    0.000 
#
# Total GULP energy -89695.035726 kJ/mol
# GULP energy per Si atom -5605.939733 kJ/mol
# Density = 2.484457 g / cm^3
# Si number density = 24.901242 Si / 1000 Ang^3
#
#
#
# Elastic Constant Matrix: (Units=GPa)
#
#
# Indices 1 2 3 4 5 6 
#
# 1 109.5180 3.2710 37.2958 6.4523 3.7052 17.1961
# 2 3.2710 70.8412 5.0514 4.6989 -9.0900 18.0403
# 3 37.2958 5.0514 72.0989 7.5883 3.2115 -5.2808
# 4 6.4523 4.6989 7.5883 29.0844 4.2452 1.8367
# 5 3.7052 -9.0900 3.2115 4.2452 42.9979 5.3193
# 6 17.1961 18.0403 -5.2808 1.8367 5.3193 39.3984
#
#
#
# Elastic Compliance Matrix: (Units=1/GPa)
#
#
# Indices 1 2 3 4 5 6 
#
# 1 0.012737 0.002020 -0.007225 -0.000922 0.000892 -0.007530
# 2 0.002020 0.017615 -0.002961 -0.002663 0.005262 -0.009931
# 3 -0.007225 -0.002961 0.018764 -0.002988 -0.002030 0.007437
# 4 -0.000922 -0.002663 -0.002988 0.036357 -0.003856 0.000047
# 5 0.000892 0.005262 -0.002030 -0.003856 0.025610 -0.006349
# 6 -0.007530 -0.009931 0.007437 0.000047 -0.006349 0.035068
#
#
# Mechanical properties :
#
#
# Convention : Reuss Voigt Hill
#
# Bulk Modulus (GPa) = 30.50086 38.18829 34.34458
# Shear Modulus (GPa) = 28.83341 36.08545 32.45943
#
# Velocity S-wave (km/s) = 3.40650 3.81089 3.61436
# Velocity P-wave (km/s) = 5.26760 5.89347 5.58931
#
# Compressibility (1/GPa) = 0.03278596
#
# Stress axis : x y z
#
# Youngs Moduli (GPa) = 78.50869 56.77086 53.29305
#
# Poissons Ratio (x) = -0.11469 0.38503
# Poissons Ratio (y) = -0.15861 0.15778
# Poissons Ratio (z) = 0.56720 0.16808
#
# Static dielectric constant tensor:
#      x y z
#    x 1.999870 -0.036420 -0.032220 
#    y -0.036420 1.949100 0.005930 
#    z -0.032220 0.005930 1.947290 
# 
# From -- ./inp_files/308677.got.cif
#   From: 2010.05.17/outbox.cif.g08.bks.cpg/sg2_155_cif.got.tgz:308677.got - 2010.06.03 11:33:40.
