data_PCOD9053835
_publ_section_title
;
Structure prediction by ZEFSAII (Michael W. Deem and Ramdas Pophale) SiO2 
 PCOD9053835
Probable space group: P -1
;
_chemical_formula_sum "Si O2"
_cell_formula_units_Z 16
_cell_length_a 17.807222
_cell_length_b 18.039565
_cell_length_c 9.281181
_cell_angle_alpha 144.666382
_cell_angle_beta 28.225276
_cell_angle_gamma 149.155684
_cell_volume 700.968045
_symmetry_space_group_name_H-M "P -1"
_symmetry_group_IT_number 2
_symmetry_cell_setting 'triclinic'
loop_
_space_group_symop_operation_xyz
x,y,z
-x,-y,-z
loop_
_atom_site_type_symbol
_atom_site_label
_atom_site_fract_x
_atom_site_fract_y
_atom_site_fract_z
Si Si1 0.235774 0.400729 0.638437
Si Si2 0.976043 0.168510 0.191730
Si Si3 0.550612 0.287566 0.140536
Si Si4 0.863341 0.872338 0.421301
Si Si5 0.850071 0.347197 0.173622
Si Si6 0.295741 0.873400 0.186222
Si Si7 0.283852 0.419335 0.271190
Si Si8 0.821283 0.334541 0.525768
O O1 0.420870 0.558252 0.601604
O O2 0.180255 0.282505 0.672828
O O3 0.249840 0.344626 0.368021
O O4 0.069581 0.434663 0.963475
O O5 0.825691 0.082955 0.437331
O O6 0.879084 0.231820 0.350896
O O7 0.152918 0.300786 0.185190
O O8 0.050170 0.098596 0.838288
O O9 0.341371 0.154327 0.283359
O O10 0.669031 0.239477 0.959167
O O11 0.644833 0.325370 0.885150
O O12 0.000000 0.000000 0.500000
O O13 0.776644 0.455777 0.423141
O O14 0.773363 0.287353 0.366948
O O15 0.806739 0.218313 0.928579
O O16 0.500000 0.000000 0.000000
O O17 0.500000 0.500000 0.000000
O O18 0.000000 0.500000 0.500000
#
# Coordination Sequence:
#
# PCOD9053835 Si02
#       8
#     2   2   2   2   2   2   2   2
#     4  12  23  45  71  99 138 186 234 293 340 406
#     4  11  23  45  67  98 134 183 233 278 342 421
#     4  11  24  43  72 105 136 180 237 285 346 410
#     4  12  29  47  68 100 147 187 226 289 360 415
#     4  12  22  42  70 101 140 176 233 278 351 394
#     4  11  26  45  72 100 140 186 232 286 342 418
#     4  12  25  39  69 109 141 173 229 292 348 407
#     4  11  20  37  71 103 132 173 229 290 336 406
#
# _framework density 22.825579000000001
#
# number of rings (size 3 to 8) (size 9 to 14) (size 15 to 20)
#    0.000    0.500    6.250    2.250    3.500    1.000 
#    0.000    3.750    0.000    0.000    0.000    0.000 
#    0.000    0.000    0.000    0.000    0.000    0.000 
#
# Total GULP energy -89466.736341 kJ/mol
# GULP energy per Si atom -5591.671021 kJ/mol
# Density = 2.277363 g / cm^3
# Si number density = 22.825579 Si / 1000 Ang^3
#
#
#
# Elastic Constant Matrix: (Units=GPa)
#
#
# Indices 1 2 3 4 5 6 
#
# 1 107.4211 14.9391 44.3348 -6.5423 31.2904 5.7482
# 2 14.9391 69.0026 22.6833 -19.6269 15.4987 14.0309
# 3 44.3348 22.6833 117.3006 -26.6804 37.4098 14.1830
# 4 -6.5423 -19.6269 -26.6804 24.1963 -1.3358 -2.9928
# 5 31.2904 15.4987 37.4098 -1.3358 57.1701 4.1079
# 6 5.7482 14.0309 14.1830 -2.9928 4.1079 40.9717
#
#
#
# Elastic Compliance Matrix: (Units=1/GPa)
#
#
# Indices 1 2 3 4 5 6 
#
# 1 0.011935 -0.001018 -0.003372 -0.001526 -0.004096 0.000141
# 2 -0.001018 0.022309 0.003871 0.020882 -0.007061 -0.006604
# 3 -0.003372 0.003871 0.017276 0.020199 -0.009721 -0.004383
# 4 -0.001526 0.020882 0.020199 0.078439 -0.015735 -0.006622
# 5 -0.004096 -0.007061 -0.009721 -0.015735 0.027465 0.002455
# 6 0.000141 -0.006604 -0.004383 -0.006622 0.002455 0.027436
#
#
# Mechanical properties :
#
#
# Convention : Reuss Voigt Hill
#
# Bulk Modulus (GPa) = 19.80940 50.84873 35.32906
# Shear Modulus (GPa) = 24.66402 38.58542 31.62472
#
# Velocity S-wave (km/s) = 3.29073 4.11596 3.72626
# Velocity P-wave (km/s) = 4.80998 6.70177 5.83308
#
# Compressibility (1/GPa) = 0.05048109
#
# Stress axis : x y z
#
# Youngs Moduli (GPa) = 83.78764 44.82577 57.88533
#
# Poissons Ratio (x) = 0.04564 0.19518
# Poissons Ratio (y) = 0.08530 -0.22407
# Poissons Ratio (z) = 0.28252 -0.17352
#
# Static dielectric constant tensor:
#      x y z
#    x 1.883910 -0.038580 0.005190 
#    y -0.038580 1.846130 0.003000 
#    z 0.005190 0.003000 1.923840 
# 
# From -- ./inp_files/184348.got.cif
#   From: 2010.05.17/outbox.cif.g08.bks.cpg/sg2_93_cif.got.tgz:184348.got - 2010.06.03 11:33:40.
