data_PCOD9053420
_publ_section_title
;
Structure prediction by ZEFSAII (Michael W. Deem and Ramdas Pophale) SiO2 
 PCOD9053420
Probable space group: P -1
;
_chemical_formula_sum "Si O2"
_cell_formula_units_Z 12
_cell_length_a 18.782049
_cell_length_b 13.309787
_cell_length_c 16.032781
_cell_angle_alpha 27.250663
_cell_angle_beta 160.695307
_cell_angle_gamma 155.289542
_cell_volume 539.163818
_symmetry_space_group_name_H-M "P -1"
_symmetry_group_IT_number 2
_symmetry_cell_setting 'triclinic'
loop_
_space_group_symop_operation_xyz
x,y,z
-x,-y,-z
loop_
_atom_site_type_symbol
_atom_site_label
_atom_site_fract_x
_atom_site_fract_y
_atom_site_fract_z
Si Si1 0.394327 0.649366 0.330925
Si Si2 0.463926 0.723580 0.653495
Si Si3 0.052825 0.769902 0.748803
Si Si4 0.240850 0.140092 0.282085
Si Si5 0.856765 0.605049 0.209844
Si Si6 0.921716 0.471069 0.211192
O O1 0.500000 0.500000 0.500000
O O2 0.618995 0.847746 0.487159
O O3 0.190426 0.449805 0.315545
O O4 0.263294 0.780756 0.036207
O O5 0.551235 0.719099 0.659548
O O6 0.185478 0.537136 0.488717
O O7 0.500000 0.000000 0.500000
O O8 0.627304 0.646471 0.949683
O O9 0.132287 0.711164 0.789953
O O10 0.000000 0.000000 0.500000
O O11 0.086498 0.288612 0.014769
O O12 0.067056 0.887824 0.229716
O O13 0.777919 0.438285 0.162139
O O14 0.000000 0.500000 0.500000
#
# Coordination Sequence:
#
# PCOD9053420 Si02
#       6
#     2   2   2   2   2   2
#     4  11  24  44  70  95 133 180 218 274 337 390
#     4  11  19  39  67  86 122 171 207 251 315 389
#     4  11  26  45  67 101 130 173 232 274 326 393
#     4  11  21  40  66  92 125 168 215 257 323 398
#     4  11  25  38  60 103 130 161 210 268 329 384
#     4  11  21  42  66  90 128 171 212 262 324 392
#
# _framework density 22.256685000000001
#
# number of rings (size 3 to 8) (size 9 to 14) (size 15 to 20)
#    0.000    1.000    6.667    1.000    0.000    4.000 
#    3.000    0.000    0.000    0.000    0.000    0.000 
#    0.000    0.000    0.000    0.000    0.000    0.000 
#
# Total GULP energy -66833.657050 kJ/mol
# GULP energy per Si atom -5569.471421 kJ/mol
# Density = 2.220603 g / cm^3
# Si number density = 22.256685 Si / 1000 Ang^3
#
#
#
# Elastic Constant Matrix: (Units=GPa)
#
#
# Indices 1 2 3 4 5 6 
#
# 1 70.6586 26.1290 40.0112 -12.1403 -7.4014 -30.4947
# 2 26.1290 41.8071 39.5805 -15.3047 -13.8406 -15.0665
# 3 40.0112 39.5805 216.1525 -17.2271 -21.5615 -8.4010
# 4 -12.1403 -15.3047 -17.2271 42.0811 -1.3083 6.0276
# 5 -7.4014 -13.8406 -21.5615 -1.3083 39.2811 4.6545
# 6 -30.4947 -15.0665 -8.4010 6.0276 4.6545 26.2632
#
#
#
# Elastic Compliance Matrix: (Units=1/GPa)
#
#
# Indices 1 2 3 4 5 6 
#
# 1 0.032999 -0.004479 -0.004008 0.001265 -0.001601 0.034458
# 2 -0.004479 0.043800 -0.004698 0.011044 0.010720 0.013989
# 3 -0.004008 -0.004698 0.006219 0.000564 0.001708 -0.005792
# 4 0.001265 0.011044 0.000564 0.028469 0.005327 0.000507
# 5 -0.001601 0.010720 0.001708 0.005327 0.030255 -0.001747
# 6 0.034458 0.013989 -0.005792 0.000507 -0.001747 0.084452
#
#
# Mechanical properties :
#
#
# Convention : Reuss Voigt Hill
#
# Bulk Modulus (GPa) = 17.65275 60.00662 38.82969
# Shear Modulus (GPa) = 18.41991 36.38491 27.40241
#
# Velocity S-wave (km/s) = 2.87995 4.04763 3.51265
# Velocity P-wave (km/s) = 4.35975 6.99029 5.82544
#
# Compressibility (1/GPa) = 0.05664840
#
# Stress axis : x y z
#
# Youngs Moduli (GPa) = 30.30372 22.83122 160.80471
#
# Poissons Ratio (x) = 0.10225 0.64449
# Poissons Ratio (y) = 0.13572 0.75547
# Poissons Ratio (z) = 0.12145 0.10726
#
# Static dielectric constant tensor:
#      x y z
#    x 1.918980 0.004070 0.033980 
#    y 0.004070 1.790790 0.024080 
#    z 0.033980 0.024080 1.916060 
# 
# From -- ./inp_files/28583.got.cif
#   From: 2010.05.17/outbox.cif.g08.bks.cpg/sg2_15_cif.got.tgz:28583.got - 2010.06.03 11:33:40.
