data_PCOD9053158
_publ_section_title
;
Structure prediction by ZEFSAII (Michael W. Deem and Ramdas Pophale) SiO2 
 PCOD9053158
Probable space group: P -1
;
_chemical_formula_sum "Si O2"
_cell_formula_units_Z 14
_cell_length_a 8.981569
_cell_length_b 13.694398
_cell_length_c 7.434437
_cell_angle_alpha 120.353284
_cell_angle_beta 111.265507
_cell_angle_gamma 93.904625
_cell_volume 698.494984
_symmetry_space_group_name_H-M "P -1"
_symmetry_group_IT_number 2
_symmetry_cell_setting 'triclinic'
loop_
_space_group_symop_operation_xyz
x,y,z
-x,-y,-z
loop_
_atom_site_type_symbol
_atom_site_label
_atom_site_fract_x
_atom_site_fract_y
_atom_site_fract_z
Si Si1 0.284735 0.553875 0.192346
Si Si2 0.363753 0.791221 0.023484
Si Si3 0.151111 0.771319 0.236454
Si Si4 0.867413 0.412346 0.491993
Si Si5 0.876453 0.690030 0.290734
Si Si6 0.518529 0.044105 0.339207
Si Si7 0.595344 0.753987 0.416913
O O1 0.186434 0.643995 0.158370
O O2 0.205470 0.521888 0.324918
O O3 0.479298 0.633476 0.348043
O O4 0.246638 0.437825 0.946251
O O5 0.205059 0.802179 0.082761
O O6 0.491873 0.763955 0.198291
O O7 0.454951 0.919136 0.092340
O O8 0.290334 0.679630 0.760257
O O9 0.289896 0.870119 0.507493
O O10 0.967880 0.759465 0.218058
O O11 0.000000 0.500000 0.500000
O O12 0.972364 0.335281 0.559409
O O13 0.774171 0.751415 0.428082
O O14 0.408551 0.133397 0.360676
O O15 0.500000 0.000000 0.500000
#
# Coordination Sequence:
#
# PCOD9053158 Si02
#       7
#     2   2   2   2   2   2   2
#     4   9  18  32  48  68  98 133 158 184 237 301
#     4   9  17  34  53  71  95 128 159 194 236 284
#     4   8  15  30  50  70  93 128 163 190 228 290
#     4  11  20  32  51  75  96 123 161 200 237 280
#     4  11  19  31  50  73  97 127 161 199 236 277
#     4   7  14  31  52  69  92 127 162 190 229 289
#     4   9  18  34  52  70  94 130 164 191 232 289
#
# _framework density 20.043092999999999
#
# number of rings (size 3 to 8) (size 9 to 14) (size 15 to 20)
#    0.000    3.429    0.000    4.714    0.000    0.000 
#    0.000   17.857    0.000    0.000    0.000    0.000 
#    0.000    0.000    0.000    0.000    0.000    0.000 
#
# Total GULP energy -77957.328673 kJ/mol
# GULP energy per Si atom -5568.380620 kJ/mol
# Density = 1.999747 g / cm^3
# Si number density = 20.043093 Si / 1000 Ang^3
#
#
#
# Elastic Constant Matrix: (Units=GPa)
#
#
# Indices 1 2 3 4 5 6 
#
# 1 79.9790 4.6560 -25.1406 7.2128 -5.4853 9.1760
# 2 4.6560 32.1671 5.3516 14.5515 3.4996 16.5869
# 3 -25.1406 5.3516 52.9682 19.5076 -0.8747 -0.8339
# 4 7.2128 14.5515 19.5076 28.5116 5.2998 8.1412
# 5 -5.4853 3.4996 -0.8747 5.2998 10.4859 0.9795
# 6 9.1760 16.5869 -0.8339 8.1412 0.9795 20.5718
#
#
#
# Elastic Compliance Matrix: (Units=1/GPa)
#
#
# Indices 1 2 3 4 5 6 
#
# 1 0.023182 0.003988 0.020362 -0.025516 0.025751 -0.003858
# 2 0.003988 0.062698 0.002917 -0.021988 -0.003433 -0.043348
# 3 0.020362 0.002917 0.046416 -0.047360 0.036792 0.007438
# 4 -0.025516 -0.021988 -0.047360 0.098711 -0.059004 -0.009065
# 5 0.025751 -0.003433 0.036792 -0.059004 0.142000 0.009363
# 6 -0.003858 -0.043348 0.007438 -0.009065 0.009363 0.088726
#
#
# Mechanical properties :
#
#
# Convention : Reuss Voigt Hill
#
# Bulk Modulus (GPa) = 5.35253 14.98315 10.16784
# Shear Modulus (GPa) = 10.65019 23.93033 17.29026
#
# Velocity S-wave (km/s) = 2.30763 3.45910 2.94028
# Velocity P-wave (km/s) = 3.12675 4.84206 4.07566
#
# Compressibility (1/GPa) = 0.18682764
#
# Stress axis : x y z
#
# Youngs Moduli (GPa) = 43.13783 15.94949 21.54432
#
# Poissons Ratio (x) = -0.06360 -0.43868
# Poissons Ratio (y) = -0.17202 -0.06284
# Poissons Ratio (z) = -0.87836 -0.04652
#
# Static dielectric constant tensor:
#      x y z
#    x 1.745710 0.061420 -0.021500 
#    y 0.061420 1.784470 -0.008800 
#    z -0.021500 -0.008800 1.782190 
# 
# From -- ./inp_files/204084.got.cif
#   From: 2010.05.17/outbox.cif.g08.bks.cpg/sg2_103_cif.got.tgz:204084.got - 2010.06.03 11:33:40.
