data_PCOD9053697
_publ_section_title
;
Structure prediction by ZEFSAII (Michael W. Deem and Ramdas Pophale) SiO2 
 PCOD9053697
Probable space group: P -1
;
_chemical_formula_sum "Si O2"
_cell_formula_units_Z 16
_cell_length_a 8.913619
_cell_length_b 7.866150
_cell_length_c 15.955314
_cell_angle_alpha 58.205339
_cell_angle_beta 66.216068
_cell_angle_gamma 105.713396
_cell_volume 681.704861
_symmetry_space_group_name_H-M "P -1"
_symmetry_group_IT_number 2
_symmetry_cell_setting 'triclinic'
loop_
_space_group_symop_operation_xyz
x,y,z
-x,-y,-z
loop_
_atom_site_type_symbol
_atom_site_label
_atom_site_fract_x
_atom_site_fract_y
_atom_site_fract_z
Si Si1 0.915501 0.224733 0.844528
Si Si2 0.910697 0.225181 0.556346
Si Si3 0.887353 0.773330 0.740444
Si Si4 0.329993 0.006646 0.489080
Si Si5 0.255987 0.571596 0.281110
Si Si6 0.309041 0.476921 0.794340
Si Si7 0.306654 0.008406 0.882574
Si Si8 0.086448 0.252607 0.066490
O O1 0.869985 0.332569 0.749696
O O2 0.133532 0.443122 0.783646
O O3 0.913832 0.990361 0.880529
O O4 0.748395 0.135711 0.979460
O O5 0.113592 0.315557 0.433015
O O6 0.000000 0.500000 0.500000
O O7 0.857461 0.991034 0.684148
O O8 0.738829 0.139327 0.546596
O O9 0.712406 0.531376 0.784809
O O10 0.875925 0.686184 0.860383
O O11 0.120654 0.896769 0.618619
O O12 0.467796 0.298726 0.350642
O O13 0.500000 0.000000 0.500000
O O14 0.445517 0.805275 0.231547
O O15 0.268111 0.212422 0.858278
O O16 0.254415 0.468722 0.906374
O O17 0.139361 0.837140 0.892466
#
# Coordination Sequence:
#
# PCOD9053697 Si02
#       8
#     2   2   2   2   2   2   2   2
#     4   9  18  35  59  85 116 152 193 238 291 347
#     4  11  24  41  59  84 119 157 198 245 292 348
#     4  11  23  40  60  88 121 155 194 244 298 346
#     4  11  23  41  64  89 118 158 198 239 295 353
#     4  11  20  36  57  84 119 154 188 241 298 347
#     4   9  17  37  61  83 115 156 195 236 287 348
#     4   9  18  34  59  85 113 153 196 236 286 347
#     4   9  20  38  61  86 114 153 198 241 284 342
#
# _framework density 23.470568
#
# number of rings (size 3 to 8) (size 9 to 14) (size 15 to 20)
#    0.000    2.000    0.000    7.125    0.000    2.000 
#    0.000   17.500    0.000    0.000    0.000    0.000 
#    0.000    0.000    0.000    0.000    0.000    0.000 
#
# Total GULP energy -89254.925056 kJ/mol
# GULP energy per Si atom -5578.432816 kJ/mol
# Density = 2.341715 g / cm^3
# Si number density = 23.470568 Si / 1000 Ang^3
#
#
#
# Elastic Constant Matrix: (Units=GPa)
#
#
# Indices 1 2 3 4 5 6 
#
# 1 99.9232 14.2463 19.5462 4.9663 18.6750 10.0457
# 2 14.2463 77.7698 -4.7993 11.5422 10.6805 -3.6443
# 3 19.5462 -4.7993 52.1984 6.5353 8.0645 6.3685
# 4 4.9663 11.5422 6.5353 33.0747 8.2305 10.2429
# 5 18.6750 10.6805 8.0645 8.2305 25.6977 -6.1581
# 6 10.0457 -3.6443 6.3685 10.2429 -6.1581 33.9461
#
#
#
# Elastic Compliance Matrix: (Units=1/GPa)
#
#
# Indices 1 2 3 4 5 6 
#
# 1 0.013450 -0.002113 -0.003244 0.004173 -0.010851 -0.006826
# 2 -0.002113 0.014807 0.002992 -0.005513 -0.003133 0.002749
# 3 -0.003244 0.002992 0.022252 -0.002515 -0.005829 -0.003192
# 4 0.004173 -0.005513 -0.002515 0.041641 -0.017380 -0.017072
# 5 -0.010851 -0.003133 -0.005829 -0.017380 0.060327 0.020156
# 6 -0.006826 0.002749 -0.003192 -0.017072 0.020156 0.041180
#
#
# Mechanical properties :
#
#
# Convention : Reuss Voigt Hill
#
# Bulk Modulus (GPa) = 21.84419 31.98643 26.91531
# Shear Modulus (GPa) = 23.40283 31.93694 27.66988
#
# Velocity S-wave (km/s) = 3.16114 3.69280 3.43726
# Velocity P-wave (km/s) = 4.75930 5.64272 5.21973
#
# Compressibility (1/GPa) = 0.04577877
#
# Stress axis : x y z
#
# Youngs Moduli (GPa) = 74.34779 67.53350 44.93911
#
# Poissons Ratio (x) = 0.14271 0.14579
# Poissons Ratio (y) = 0.15711 -0.13444
# Poissons Ratio (z) = 0.24119 -0.20204
#
# Static dielectric constant tensor:
#      x y z
#    x 1.978610 -0.039570 -0.114680 
#    y -0.039570 1.928660 0.034140 
#    z -0.114680 0.034140 2.011630 
# 
# From -- ./inp_files/274415.got.cif
#   From: 2010.05.17/outbox.cif.g08.bks.cpg/sg2_138_cif.got.tgz:274415.got - 2010.06.03 11:33:40.
