data_PCOD9053821
_publ_section_title
;
Structure prediction by ZEFSAII (Michael W. Deem and Ramdas Pophale) SiO2 
 PCOD9053821
Probable space group: P -1
;
_chemical_formula_sum "Si O2"
_cell_formula_units_Z 14
_cell_length_a 7.084385
_cell_length_b 8.505951
_cell_length_c 12.315839
_cell_angle_alpha 48.808195
_cell_angle_beta 103.287585
_cell_angle_gamma 100.159894
_cell_volume 543.202741
_symmetry_space_group_name_H-M "P -1"
_symmetry_group_IT_number 2
_symmetry_cell_setting 'triclinic'
loop_
_space_group_symop_operation_xyz
x,y,z
-x,-y,-z
loop_
_atom_site_type_symbol
_atom_site_label
_atom_site_fract_x
_atom_site_fract_y
_atom_site_fract_z
Si Si1 0.862300 0.511943 0.123589
Si Si2 0.235253 0.922859 0.775287
Si Si3 0.853923 0.508392 0.372232
Si Si4 0.371973 0.783583 0.076628
Si Si5 0.493442 0.288795 0.662462
Si Si6 0.139584 0.963367 0.430012
Si Si7 0.284951 0.365448 0.168193
O O1 0.750533 0.286489 0.198471
O O2 0.903983 0.570044 0.226908
O O3 0.076052 0.454277 0.136163
O O4 0.747756 0.655450 0.956982
O O5 0.415836 0.075497 0.695322
O O6 0.231778 0.850806 0.931906
O O7 0.030728 0.026271 0.685674
O O8 0.688902 0.666479 0.305667
O O9 0.779784 0.265944 0.461471
O O10 0.000000 0.500000 0.500000
O O11 0.330820 0.739697 0.218382
O O12 0.430728 0.555103 0.139790
O O13 0.500000 0.000000 0.000000
O O14 0.500000 0.500000 0.500000
O O15 0.289533 0.152342 0.334725
O O16 0.000000 0.000000 0.500000
#
# Coordination Sequence:
#
# PCOD9053821 Si02
#       7
#     2   2   2   2   2   2   2
#     4   9  19  37  65  90 118 160 217 261 308 371
#     4   9  18  40  62  87 118 171 206 255 320 363
#     4  12  24  39  61  96 133 162 211 269 318 365
#     4   9  20  38  61  87 124 167 209 250 315 379
#     4  11  25  39  60  92 131 173 209 254 322 381
#     4  11  20  37  67  95 126 162 212 267 315 366
#     4   9  18  36  67  92 116 164 216 251 317 377
#
# _framework density 25.773067000000001
#
# number of rings (size 3 to 8) (size 9 to 14) (size 15 to 20)
#    0.000    2.000    4.286    0.857    4.000    0.000 
#    0.000   10.714    0.000    0.000    0.000    0.000 
#    0.000    0.000    0.000    0.000    0.000    0.000 
#
# Total GULP energy -77991.207098 kJ/mol
# GULP energy per Si atom -5570.800507 kJ/mol
# Density = 2.571441 g / cm^3
# Si number density = 25.773067 Si / 1000 Ang^3
#
#
#
# Elastic Constant Matrix: (Units=GPa)
#
#
# Indices 1 2 3 4 5 6 
#
# 1 29.0582 35.2438 6.7278 0.9524 -3.2168 1.0223
# 2 35.2438 121.9371 58.6050 -8.6865 -12.2470 21.6533
# 3 6.7278 58.6050 161.7190 -2.6115 -8.9412 19.2840
# 4 0.9524 -8.6865 -2.6115 64.6998 1.1295 6.5258
# 5 -3.2168 -12.2470 -8.9412 1.1295 31.9360 0.2476
# 6 1.0223 21.6533 19.2840 6.5258 0.2476 34.7090
#
#
#
# Elastic Compliance Matrix: (Units=1/GPa)
#
#
# Indices 1 2 3 4 5 6 
#
# 1 0.058730 -0.021045 0.003848 -0.004538 -0.000996 0.010122
# 2 -0.021045 0.018734 -0.004550 0.003507 0.003738 -0.009225
# 3 0.003848 -0.004550 0.007913 -0.000198 0.000878 -0.001640
# 4 -0.004538 0.003507 -0.000198 0.016490 0.000288 -0.005046
# 5 -0.000996 0.003738 0.000878 0.000288 0.032905 -0.003079
# 6 0.010122 -0.009225 -0.001640 -0.005046 -0.003079 0.036150
#
#
# Mechanical properties :
#
#
# Convention : Reuss Voigt Hill
#
# Bulk Modulus (GPa) = 23.87602 57.09639 40.48621
# Shear Modulus (GPa) = 21.89356 40.41147 31.15251
#
# Velocity S-wave (km/s) = 2.91774 3.96406 3.48044
# Velocity P-wave (km/s) = 4.54257 6.56912 5.64749
#
# Compressibility (1/GPa) = 0.04188302
#
# Stress axis : x y z
#
# Youngs Moduli (GPa) = 17.02706 53.37910 126.36926
#
# Poissons Ratio (x) = 1.12336 -0.48625
# Poissons Ratio (y) = 0.35833 0.57499
# Poissons Ratio (z) = -0.06552 0.24288
#
# Static dielectric constant tensor:
#      x y z
#    x 2.119350 0.115120 -0.054630 
#    y 0.115120 2.168940 0.053660 
#    z -0.054630 0.053660 2.158200 
# 
# From -- ./inp_files/269449.got.cif
#   From: 2010.05.17/outbox.cif.g08.bks.cpg/sg2_135_cif.got.tgz:269449.got - 2010.06.03 11:33:40.
