data_PCOD9053366
_publ_section_title
;
Structure prediction by ZEFSAII (Michael W. Deem and Ramdas Pophale) SiO2 
 PCOD9053366
Probable space group: P -1
;
_chemical_formula_sum "Si O2"
_cell_formula_units_Z 16
_cell_length_a 23.181058
_cell_length_b 8.898206
_cell_length_c 7.780159
_cell_angle_alpha 65.628119
_cell_angle_beta 126.390187
_cell_angle_gamma 146.034930
_cell_volume 710.413331
_symmetry_space_group_name_H-M "P -1"
_symmetry_group_IT_number 2
_symmetry_cell_setting 'triclinic'
loop_
_space_group_symop_operation_xyz
x,y,z
-x,-y,-z
loop_
_atom_site_type_symbol
_atom_site_label
_atom_site_fract_x
_atom_site_fract_y
_atom_site_fract_z
Si Si1 0.433356 0.791073 0.135710
Si Si2 0.864918 0.467599 0.387944
Si Si3 0.327756 0.846489 0.510211
Si Si4 0.816225 0.718835 0.990973
Si Si5 0.418460 0.087244 0.205140
Si Si6 0.695646 0.555473 0.487757
Si Si7 0.939710 0.242139 0.122644
Si Si8 0.239721 0.000815 0.806319
O O1 0.536674 0.859603 0.343760
O O2 0.409615 0.896619 0.178383
O O3 0.307382 0.478500 0.030250
O O4 0.500000 0.000000 0.000000
O O5 0.758263 0.263652 0.436578
O O6 0.859410 0.622079 0.187749
O O7 0.845698 0.278930 0.317707
O O8 0.979084 0.665193 0.617404
O O9 0.311293 0.619761 0.560139
O O10 0.325742 0.907037 0.283879
O O11 0.911444 0.033749 0.051744
O O12 0.772977 0.655677 0.746671
O O13 0.557215 0.348074 0.377926
O O14 0.367089 0.142382 0.976754
O O15 0.749556 0.808102 0.364075
O O16 0.818360 0.075949 0.075353
O O17 0.000000 0.500000 0.000000
#
# Coordination Sequence:
#
# PCOD9053366 Si02
#       8
#     2   2   2   2   2   2   2   2
#     4  11  19  37  69 102 137 172 218 278 329 400
#     4  12  25  46  71  99 130 184 231 277 327 398
#     4  11  20  40  71  98 139 174 226 270 331 399
#     4  12  23  45  70 101 133 175 230 272 338 396
#     4  11  21  40  66 103 142 179 218 267 336 414
#     4  11  23  40  67 107 140 174 212 280 341 407
#     4  12  29  50  69  95 135 180 231 287 333 389
#     4  12  25  46  67  97 139 177 224 279 342 395
#
# _framework density 22.522099999999998
#
# number of rings (size 3 to 8) (size 9 to 14) (size 15 to 20)
#    0.000    0.500    5.000    4.125    1.750    0.000 
#    2.250    3.125    0.000    0.000    0.000    0.000 
#    0.000    0.000    0.000    0.000    0.000    0.000 
#
# Total GULP energy -89369.658767 kJ/mol
# GULP energy per Si atom -5585.603673 kJ/mol
# Density = 2.247084 g / cm^3
# Si number density = 22.522100 Si / 1000 Ang^3
#
#
#
# Elastic Constant Matrix: (Units=GPa)
#
#
# Indices 1 2 3 4 5 6 
#
# 1 42.0668 12.3001 12.6621 -12.7577 -4.3912 5.1778
# 2 12.3001 120.0768 26.8047 -20.1366 -2.3538 -20.7308
# 3 12.6621 26.8047 106.1729 1.4385 5.5896 -13.8542
# 4 -12.7577 -20.1366 1.4385 36.5523 8.4736 -10.9821
# 5 -4.3912 -2.3538 5.5896 8.4736 34.2602 1.1778
# 6 5.1778 -20.7308 -13.8542 -10.9821 1.1778 25.0879
#
#
#
# Elastic Compliance Matrix: (Units=1/GPa)
#
#
# Indices 1 2 3 4 5 6 
#
# 1 0.028719 -0.002290 -0.004077 0.005946 0.002980 -0.007608
# 2 -0.002290 0.013763 -0.001012 0.012575 -0.002875 0.016926
# 3 -0.004077 -0.001012 0.011122 0.000091 -0.002646 0.006311
# 4 0.005946 0.012575 0.000091 0.048276 -0.011391 0.030881
# 5 0.002980 -0.002875 -0.002646 -0.011391 0.032999 -0.010987
# 6 -0.007608 0.016926 0.006311 0.030881 -0.010987 0.072935
#
#
# Mechanical properties :
#
#
# Convention : Reuss Voigt Hill
#
# Bulk Modulus (GPa) = 25.74218 41.31672 33.52945
# Shear Modulus (GPa) = 21.22950 33.61672 27.42311
#
# Velocity S-wave (km/s) = 3.07352 3.86762 3.49321
# Velocity P-wave (km/s) = 4.90407 6.19108 5.58477
#
# Compressibility (1/GPa) = 0.03884675
#
# Stress axis : x y z
#
# Youngs Moduli (GPa) = 34.81995 72.65860 89.91228
#
# Poissons Ratio (x) = 0.16635 0.36658
# Poissons Ratio (y) = 0.07972 0.09099
# Poissons Ratio (z) = 0.14197 0.07353
#
# Static dielectric constant tensor:
#      x y z
#    x 1.812280 0.031350 -0.021200 
#    y 0.031350 1.821620 0.005590 
#    z -0.021200 0.005590 1.966830 
# 
# From -- ./inp_files/352123.got.cif
#   From: 2010.05.17/outbox.cif.g08.bks.cpg/sg2_177_cif.got.tgz:352123.got - 2010.06.03 11:33:40.
