data_PCOD9053143
_publ_section_title
;
Structure prediction by ZEFSAII (Michael W. Deem and Ramdas Pophale) SiO2 
 PCOD9053143
Probable space group: P -1
;
_chemical_formula_sum "Si O2"
_cell_formula_units_Z 16
_cell_length_a 8.004731
_cell_length_b 10.880505
_cell_length_c 14.025336
_cell_angle_alpha 136.452263
_cell_angle_beta 104.734836
_cell_angle_gamma 106.013103
_cell_volume 588.584403
_symmetry_space_group_name_H-M "P -1"
_symmetry_group_IT_number 2
_symmetry_cell_setting 'triclinic'
loop_
_space_group_symop_operation_xyz
x,y,z
-x,-y,-z
loop_
_atom_site_type_symbol
_atom_site_label
_atom_site_fract_x
_atom_site_fract_y
_atom_site_fract_z
Si Si1 0.139172 0.003632 0.894467
Si Si2 0.567029 0.296246 0.246679
Si Si3 0.690644 0.723828 0.582142
Si Si4 0.976185 0.424668 0.267063
Si Si5 0.922714 0.688239 0.275971
Si Si6 0.379371 0.241987 0.615958
Si Si7 0.622338 0.063474 0.275444
Si Si8 0.747568 0.420212 0.923943
O O1 0.996525 0.761548 0.806442
O O2 0.268648 0.998667 0.820490
O O3 0.927853 0.971741 0.802629
O O4 0.347975 0.223801 0.116459
O O5 0.759624 0.581354 0.465114
O O6 0.714653 0.271372 0.187364
O O7 0.490570 0.124360 0.229479
O O8 0.500000 0.500000 0.500000
O O9 0.595512 0.757637 0.494511
O O10 0.950384 0.501889 0.205501
O O11 0.172137 0.681042 0.495763
O O12 0.757632 0.677179 0.320719
O O13 0.798652 0.617821 0.115953
O O14 0.185845 0.956651 0.459486
O O15 0.624551 0.392600 0.792797
O O16 0.448269 0.841681 0.198077
O O17 0.000000 0.500000 0.000000
#
# Coordination Sequence:
#
# PCOD9053143 Si02
#       8
#     2   2   2   2   2   2   2   2
#     4  11  22  39  70 102 133 179 232 284 342 410
#     4  11  21  39  66 102 133 171 230 279 340 403
#     4  12  27  44  65  99 144 185 226 289 352 413
#     4  11  18  41  72 103 131 171 229 291 335 404
#     4  11  23  45  76 101 141 185 238 291 339 427
#     4  11  26  47  70 102 139 193 237 279 355 422
#     4  11  20  40  72  99 134 177 229 287 343 407
#     4  12  28  46  71 108 141 183 236 297 360 416
#
# _framework density 27.183868
#
# number of rings (size 3 to 8) (size 9 to 14) (size 15 to 20)
#    0.000    0.750    5.000    4.125    1.750    5.000 
#    0.000    0.000    0.000    0.000    0.000    0.000 
#    0.000    0.000    0.000    0.000    0.000    0.000 
#
# Total GULP energy -89589.255362 kJ/mol
# GULP energy per Si atom -5599.328460 kJ/mol
# Density = 2.712200 g / cm^3
# Si number density = 27.183868 Si / 1000 Ang^3
#
#
#
# Elastic Constant Matrix: (Units=GPa)
#
#
# Indices 1 2 3 4 5 6 
#
# 1 75.3192 33.6007 14.4877 -5.9768 29.3824 18.0132
# 2 33.6007 150.2429 34.1619 -24.4506 31.4195 5.5784
# 3 14.4877 34.1619 153.9922 -21.1048 45.1520 3.0020
# 4 -5.9768 -24.4506 -21.1048 53.2133 -15.9403 7.9996
# 5 29.3824 31.4195 45.1520 -15.9403 36.0187 5.2336
# 6 18.0132 5.5784 3.0020 7.9996 5.2336 28.3610
#
#
#
# Elastic Compliance Matrix: (Units=1/GPa)
#
#
# Indices 1 2 3 4 5 6 
#
# 1 0.025217 -0.001450 0.005279 -0.001527 -0.024965 -0.011252
# 2 -0.001450 0.008437 0.000131 0.002243 -0.005289 -0.000409
# 3 0.005279 0.000131 0.011444 -0.000258 -0.018727 -0.001062
# 4 -0.001527 0.002243 -0.000258 0.024287 0.011587 -0.008433
# 5 -0.024965 -0.005289 -0.018727 0.011587 0.081256 0.000616
# 6 -0.011252 -0.000409 -0.001062 -0.008433 0.000616 0.044864
#
#
# Mechanical properties :
#
#
# Convention : Reuss Voigt Hill
#
# Bulk Modulus (GPa) = 18.86143 60.45054 39.65599
# Shear Modulus (GPa) = 24.35960 43.33887 33.84923
#
# Velocity S-wave (km/s) = 2.99675 3.99718 3.53256
# Velocity P-wave (km/s) = 4.35058 6.60221 5.59092
#
# Compressibility (1/GPa) = 0.05301825
#
# Stress axis : x y z
#
# Youngs Moduli (GPa) = 39.65575 118.53196 87.37884
#
# Poissons Ratio (x) = 0.17186 -0.46129
# Poissons Ratio (y) = 0.05750 -0.01143
# Poissons Ratio (z) = -0.20935 -0.01551
#
# Static dielectric constant tensor:
#      x y z
#    x 2.212340 0.006990 -0.080470 
#    y 0.006990 2.175120 -0.054360 
#    z -0.080470 -0.054360 2.099570 
# 
# From -- ./inp_files/500869.got.cif
#   From: 2010.05.17/outbox.cif.g08.bks.cpg/sg2_251_cif.got.tgz:500869.got - 2010.06.03 11:33:40.
