data_PCOD9053456
_publ_section_title
;
Structure prediction by ZEFSAII (Michael W. Deem and Ramdas Pophale) SiO2 
 PCOD9053456
Probable space group: P -1
;
_chemical_formula_sum "Si O2"
_cell_formula_units_Z 15
_cell_length_a 17.040862
_cell_length_b 8.570820
_cell_length_c 10.937450
_cell_angle_alpha 90.099331
_cell_angle_beta 45.926549
_cell_angle_gamma 123.954741
_cell_volume 724.246971
_symmetry_space_group_name_H-M "P -1"
_symmetry_group_IT_number 2
_symmetry_cell_setting 'triclinic'
loop_
_space_group_symop_operation_xyz
x,y,z
-x,-y,-z
loop_
_atom_site_type_symbol
_atom_site_label
_atom_site_fract_x
_atom_site_fract_y
_atom_site_fract_z
Si Si1 0.832030 0.248152 0.898594
Si Si2 0.275028 0.614803 0.645257
Si Si3 0.920100 0.178474 0.401347
Si Si4 0.065398 0.905685 0.884282
Si Si5 0.633271 0.961943 0.355212
Si Si6 0.143636 0.390701 0.529469
Si Si7 0.000000 0.000000 0.500000
Si Si8 0.688970 0.138269 0.787661
O O1 0.741872 0.143169 0.865131
O O2 0.953491 0.535190 0.765501
O O3 0.951450 0.227091 0.781950
O O4 0.699791 0.103194 0.153385
O O5 0.322516 0.851529 0.595575
O O6 0.261682 0.529566 0.523213
O O7 0.429315 0.709548 0.557923
O O8 0.087573 0.382155 0.909124
O O9 0.912311 0.074365 0.284961
O O10 0.738134 0.051468 0.643268
O O11 0.996086 0.161801 0.429639
O O12 0.247803 0.052690 0.742127
O O13 0.000000 0.000000 0.000000
O O14 0.198658 0.593598 0.383082
O O15 0.128730 0.219075 0.467035
O O16 0.500000 0.000000 0.000000
#
# Coordination Sequence:
#
# PCOD9053456 Si02
#       8
#     2   2   2   2   2   2   1   2
#     4  11  19  40  66  92 124 173 222 279 324 382
#     4  11  23  42  69 102 128 176 228 283 327 391
#     4  11  23  41  67  93 128 174 225 268 330 399
#     4  12  25  43  67  98 140 185 212 269 343 409
#     4  11  23  41  71 100 133 168 232 282 329 390
#     4  11  21  39  67  93 129 173 221 270 331 399
#     4  12  22  42  66  94 130 172 220 266 334 406
#     4  11  22  39  63  97 128 168 228 282 323 384
#
# _framework density 20.711167
#
# number of rings (size 3 to 8) (size 9 to 14) (size 15 to 20)
#    0.000    0.800    5.333    4.400    0.000    1.600 
#    0.000    0.667    2.933    0.000    0.000    0.000 
#    0.000    0.000    0.000    0.000    0.000    0.000 
#
# Total GULP energy -83519.347309 kJ/mol
# GULP energy per Si atom -5567.956487 kJ/mol
# Density = 2.066403 g / cm^3
# Si number density = 20.711167 Si / 1000 Ang^3
#
#
#
# Elastic Constant Matrix: (Units=GPa)
#
#
# Indices 1 2 3 4 5 6 
#
# 1 95.4124 28.5816 22.5987 10.8642 -13.1398 19.9314
# 2 28.5816 108.4582 13.2848 25.5982 -7.4389 27.3213
# 3 22.5987 13.2848 63.6196 19.2917 -10.7886 16.9018
# 4 10.8642 25.5982 19.2917 26.2513 2.3074 2.0743
# 5 -13.1398 -7.4389 -10.7886 2.3074 38.9807 0.1360
# 6 19.9314 27.3213 16.9018 2.0743 0.1360 30.4229
#
#
#
# Elastic Compliance Matrix: (Units=1/GPa)
#
#
# Indices 1 2 3 4 5 6 
#
# 1 0.013558 0.000350 0.000055 -0.005734 0.005022 -0.008858
# 2 0.000350 0.020984 0.011979 -0.028335 0.009198 -0.023838
# 3 0.000055 0.011979 0.033419 -0.035336 0.013740 -0.027012
# 4 -0.005734 -0.028335 -0.035336 0.092697 -0.022756 0.042615
# 5 0.005022 0.009198 0.013740 -0.022756 0.034314 -0.017786
# 6 -0.008858 -0.023838 -0.027012 0.042615 -0.017786 0.072262
#
#
# Mechanical properties :
#
#
# Convention : Reuss Voigt Hill
#
# Bulk Modulus (GPa) = 10.78428 44.04672 27.41550
# Shear Modulus (GPa) = 18.28979 32.66598 25.47789
#
# Velocity S-wave (km/s) = 2.97490 3.97573 3.51116
# Velocity P-wave (km/s) = 4.12533 6.51065 5.45009
#
# Compressibility (1/GPa) = 0.09272752
#
# Stress axis : x y z
#
# Youngs Moduli (GPa) = 73.75639 47.65512 29.92314
#
# Poissons Ratio (x) = -0.01666 -0.00163
# Poissons Ratio (y) = -0.02578 -0.35845
# Poissons Ratio (z) = -0.00403 -0.57086
#
# Static dielectric constant tensor:
#      x y z
#    x 1.757300 0.000830 -0.007740 
#    y 0.000830 1.771130 0.037920 
#    z -0.007740 0.037920 1.791970 
# 
# From -- ./inp_files/387357.got.cif
#   From: 2010.05.17/outbox.cif.g08.bks.cpg/sg2_194_cif.got.tgz:387357.got - 2010.06.03 11:33:40.
