data_PCOD9053549
_publ_section_title
;
Structure prediction by ZEFSAII (Michael W. Deem and Ramdas Pophale) SiO2 
 PCOD9053549
Probable space group: P -1
;
_chemical_formula_sum "Si O2"
_cell_formula_units_Z 15
_cell_length_a 11.992732
_cell_length_b 8.318534
_cell_length_c 9.263406
_cell_angle_alpha 117.709103
_cell_angle_beta 94.495941
_cell_angle_gamma 117.659359
_cell_volume 671.708052
_symmetry_space_group_name_H-M "P -1"
_symmetry_group_IT_number 2
_symmetry_cell_setting 'triclinic'
loop_
_space_group_symop_operation_xyz
x,y,z
-x,-y,-z
loop_
_atom_site_type_symbol
_atom_site_label
_atom_site_fract_x
_atom_site_fract_y
_atom_site_fract_z
Si Si1 0.552968 0.087749 0.879931
Si Si2 0.596903 0.594401 0.350546
Si Si3 0.000000 0.500000 0.500000
Si Si4 0.305799 0.665692 0.564020
Si Si5 0.995787 0.208227 0.633524
Si Si6 0.246432 0.014208 0.262759
Si Si7 0.731510 0.594767 0.103797
Si Si8 0.279403 0.348769 0.195066
O O1 0.430405 0.919663 0.691310
O O2 0.683943 0.085287 0.855816
O O3 0.605899 0.339942 0.973419
O O4 0.500000 0.000000 0.000000
O O5 0.651234 0.460907 0.377335
O O6 0.634633 0.787802 0.544870
O O7 0.677127 0.694238 0.251605
O O8 0.437219 0.435272 0.245300
O O9 0.166284 0.624550 0.581930
O O10 0.022059 0.684859 0.462434
O O11 0.277756 0.541627 0.355709
O O12 0.138560 0.376190 0.797126
O O13 0.876627 0.137873 0.706433
O O14 0.000000 0.000000 0.500000
O O15 0.203360 0.132168 0.195684
O O16 0.770569 0.694016 0.990538
#
# Coordination Sequence:
#
# PCOD9053549 Si02
#       8
#     2   2   1   2   2   2   2   2
#     4  12  23  44  69 107 147 187 248 321 364 424
#     4  11  19  47  75 103 144 196 254 305 368 452
#     4  12  26  48  78 108 144 200 254 300 380 450
#     4  11  22  45  73 102 148 198 241 309 374 450
#     4  12  26  53  75 106 154 202 253 312 376 459
#     4  11  23  44  80  99 143 205 243 300 380 441
#     4  12  26  43  70 112 152 185 253 311 372 454
#     4  11  23  43  74 109 142 192 253 303 377 448
#
# _framework density 22.331130000000002
#
# number of rings (size 3 to 8) (size 9 to 14) (size 15 to 20)
#    0.000    0.533    6.667    2.000    1.867    2.667 
#    9.600    0.000    0.000    0.000    0.000    0.000 
#    0.000    0.000    0.000    0.000    0.000    0.000 
#
# Total GULP energy -83694.792264 kJ/mol
# GULP energy per Si atom -5579.652818 kJ/mol
# Density = 2.228030 g / cm^3
# Si number density = 22.331130 Si / 1000 Ang^3
#
#
#
# Elastic Constant Matrix: (Units=GPa)
#
#
# Indices 1 2 3 4 5 6 
#
# 1 83.2275 34.7651 14.2512 2.3597 5.0866 16.3335
# 2 34.7651 111.7792 27.2864 -25.7928 -3.6555 6.3346
# 3 14.2512 27.2864 66.5168 -18.1994 -14.8141 -11.6158
# 4 2.3597 -25.7928 -18.1994 29.6394 8.8062 7.1465
# 5 5.0866 -3.6555 -14.8141 8.8062 34.7904 -4.1477
# 6 16.3335 6.3346 -11.6158 7.1465 -4.1477 27.5389
#
#
#
# Elastic Compliance Matrix: (Units=1/GPa)
#
#
# Indices 1 2 3 4 5 6 
#
# 1 0.017997 -0.004546 -0.006825 -0.004774 -0.006262 -0.012212
# 2 -0.004546 0.014417 -0.003000 0.013426 -0.003194 -0.005851
# 3 -0.006825 -0.003000 0.024573 0.005926 0.011469 0.015292
# 4 -0.004774 0.013426 0.005926 0.056169 -0.011258 -0.014029
# 5 -0.006262 -0.003194 0.011469 -0.011258 0.039216 0.018114
# 6 -0.012212 -0.005851 0.015292 -0.014029 0.018114 0.057720
#
#
# Mechanical properties :
#
#
# Convention : Reuss Voigt Hill
#
# Bulk Modulus (GPa) = 35.40232 46.01433 40.70833
# Shear Modulus (GPa) = 20.14110 30.74180 25.44145
#
# Velocity S-wave (km/s) = 3.00647 3.71433 3.37899
# Velocity P-wave (km/s) = 5.28579 6.24861 5.78726
#
# Compressibility (1/GPa) = 0.02824673
#
# Stress axis : x y z
#
# Youngs Moduli (GPa) = 55.56377 69.36037 40.69539
#
# Poissons Ratio (x) = 0.31531 0.27773
# Poissons Ratio (y) = 0.25259 0.12208
# Poissons Ratio (z) = 0.37920 0.20808
#
# Static dielectric constant tensor:
#      x y z
#    x 1.821570 0.005700 -0.037440 
#    y 0.005700 1.828790 -0.007430 
#    z -0.037440 -0.007430 1.850910 
# 
# From -- ./inp_files/240538.got.cif
#   From: 2010.05.17/outbox.cif.g08.bks.cpg/sg2_121_cif.got.tgz:240538.got - 2010.06.03 11:33:40.
