data_PCOD9053175
_publ_section_title
;
Structure prediction by ZEFSAII (Michael W. Deem and Ramdas Pophale) SiO2 
 PCOD9053175
Probable space group: P -1
;
_chemical_formula_sum "Si O2"
_cell_formula_units_Z 12
_cell_length_a 4.962189
_cell_length_b 10.099998
_cell_length_c 14.558349
_cell_angle_alpha 75.148770
_cell_angle_beta 109.386438
_cell_angle_gamma 88.485417
_cell_volume 660.281472
_symmetry_space_group_name_H-M "P -1"
_symmetry_group_IT_number 2
_symmetry_cell_setting 'triclinic'
loop_
_space_group_symop_operation_xyz
x,y,z
-x,-y,-z
loop_
_atom_site_type_symbol
_atom_site_label
_atom_site_fract_x
_atom_site_fract_y
_atom_site_fract_z
Si Si1 0.182594 0.607334 0.881956
Si Si2 0.674016 0.387039 0.703606
Si Si3 0.922846 0.161803 0.449854
Si Si4 0.283794 0.584861 0.095394
Si Si5 0.931301 0.646626 0.414192
Si Si6 0.690880 0.711604 0.674483
O O1 0.461439 0.543757 0.866955
O O2 0.016825 0.475739 0.911054
O O3 0.941063 0.703080 0.781525
O O4 0.270852 0.660590 0.982047
O O5 0.677010 0.338299 0.818425
O O6 0.412158 0.329531 0.633224
O O7 0.627847 0.554512 0.676750
O O8 0.951778 0.359568 0.675606
O O9 0.614684 0.199857 0.359160
O O10 0.921777 0.240820 0.532609
O O11 0.165141 0.226097 0.407875
O O12 0.000000 0.000000 0.500000
O O13 0.000000 0.500000 0.500000
#
# Coordination Sequence:
#
# PCOD9053175 Si02
#       6
#     2   2   2   2   2   2
#     4   9  17  29  49  74 108 138 162 208 268 317
#     4  11  19  32  55  80 104 135 171 216 264 313
#     4  12  25  37  51  75 107 143 182 217 252 308
#     4   9  17  29  46  79 110 130 163 212 267 315
#     4  12  21  35  53  77 103 141 177 213 263 311
#     4  11  19  35  54  76 104 140 175 213 264 310
#
# _framework density 18.174067000000001
#
# number of rings (size 3 to 8) (size 9 to 14) (size 15 to 20)
#    0.000    1.333    3.333    6.000    0.000    0.000 
#    0.000    0.000    0.000    0.000    0.000    7.000 
#    0.000    0.000    0.000    0.000    0.000    0.000 
#
# Total GULP energy -66877.010836 kJ/mol
# GULP energy per Si atom -5573.084236 kJ/mol
# Density = 1.813270 g / cm^3
# Si number density = 18.174067 Si / 1000 Ang^3
#
#
#
# Elastic Constant Matrix: (Units=GPa)
#
#
# Indices 1 2 3 4 5 6 
#
# 1 92.8186 4.5759 10.7275 -0.8252 1.1996 -6.8237
# 2 4.5759 59.0483 37.5249 -0.9454 3.2980 -10.1435
# 3 10.7275 37.5249 89.9351 13.5203 2.8174 4.6951
# 4 -0.8252 -0.9454 13.5203 17.4104 -6.9691 2.8250
# 5 1.1996 3.2980 2.8174 -6.9691 35.6209 4.0403
# 6 -6.8237 -10.1435 4.6951 2.8250 4.0403 6.7293
#
#
#
# Elastic Compliance Matrix: (Units=1/GPa)
#
#
# Indices 1 2 3 4 5 6 
#
# 1 0.014395 0.012027 -0.008577 -0.001399 -0.006064 0.042938
# 2 0.012027 0.065164 -0.035640 -0.000368 -0.020446 0.147719
# 3 -0.008577 -0.035640 0.032789 -0.010307 0.008759 -0.086228
# 4 -0.001399 -0.000368 -0.010307 0.080641 0.021377 -0.041469
# 5 -0.006064 -0.020446 0.008759 0.021377 0.042456 -0.077545
# 6 0.042938 0.147719 -0.086228 -0.041469 -0.077545 0.538941
#
#
# Mechanical properties :
#
#
# Convention : Reuss Voigt Hill
#
# Bulk Modulus (GPa) = 20.84655 38.60651 29.72653
# Shear Modulus (GPa) = 5.84964 24.55038 15.20001
#
# Velocity S-wave (km/s) = 1.79601 3.67937 2.89512
# Velocity P-wave (km/s) = 3.97445 6.27209 5.25050
#
# Compressibility (1/GPa) = 0.04796957
#
# Stress axis : x y z
#
# Youngs Moduli (GPa) = 69.47046 15.34596 30.49775
#
# Poissons Ratio (x) = -0.18457 0.26157
# Poissons Ratio (y) = -0.83554 1.08693
# Poissons Ratio (z) = 0.59583 0.54692
#
# Static dielectric constant tensor:
#      x y z
#    x 1.619290 -0.018770 0.000170 
#    y -0.018770 1.587030 0.036890 
#    z 0.000170 0.036890 1.741580 
# 
# From -- ./inp_files/479811.got.cif
#   From: 2010.05.17/outbox.cif.g08.bks.cpg/sg2_240_cif.got.tgz:479811.got - 2010.06.03 11:33:40.
