data_PCOD9053615
_publ_section_title
;
Structure prediction by ZEFSAII (Michael W. Deem and Ramdas Pophale) SiO2 
 PCOD9053615
Probable space group: P -1
;
_chemical_formula_sum "Si O2"
_cell_formula_units_Z 16
_cell_length_a 8.397136
_cell_length_b 14.594962
_cell_length_c 12.013365
_cell_angle_alpha 52.121726
_cell_angle_beta 126.475240
_cell_angle_gamma 90.954510
_cell_volume 781.161388
_symmetry_space_group_name_H-M "P -1"
_symmetry_group_IT_number 2
_symmetry_cell_setting 'triclinic'
loop_
_space_group_symop_operation_xyz
x,y,z
-x,-y,-z
loop_
_atom_site_type_symbol
_atom_site_label
_atom_site_fract_x
_atom_site_fract_y
_atom_site_fract_z
Si Si1 0.609957 0.311653 0.730196
Si Si2 0.071378 0.970934 0.421659
Si Si3 0.645126 0.064889 0.045594
Si Si4 0.586752 0.849297 0.697429
Si Si5 0.064123 0.721755 0.918257
Si Si6 0.529753 0.540475 0.104336
Si Si7 0.759226 0.409254 0.522189
Si Si8 0.711072 0.736985 0.065590
O O1 0.647569 0.339967 0.599126
O O2 0.363555 0.436221 0.588452
O O3 0.652769 0.162252 0.882134
O O4 0.800059 0.323657 0.873635
O O5 0.898629 0.951067 0.287919
O O6 0.016722 0.119243 0.248133
O O7 0.345707 0.853371 0.604085
O O8 0.000000 0.000000 0.500000
O O9 0.500722 0.169941 0.007403
O O10 0.500000 0.000000 0.000000
O O11 0.816369 0.732172 0.811612
O O12 0.500000 0.000000 0.500000
O O13 0.681054 0.829760 0.877410
O O14 0.263895 0.633493 0.976049
O O15 0.681590 0.427605 0.348082
O O16 0.661636 0.622289 0.090356
O O17 0.500000 0.500000 0.000000
O O18 0.038487 0.327116 0.722036
#
# Coordination Sequence:
#
# PCOD9053615 Si02
#       8
#     2   2   2   2   2   2   2   2
#     4   9  18  38  67  91 127 167 213 267 329 387
#     4  10  17  35  61  86 122 168 212 254 315 382
#     4  11  23  40  62  95 131 170 214 270 323 390
#     4  10  20  34  65  92 122 177 214 258 324 390
#     4   9  17  36  60  89 124 163 214 261 323 384
#     4  11  23  41  64  96 130 166 216 277 330 388
#     4  10  20  38  70  93 124 173 215 267 331 382
#     4  12  21  41  63  93 129 170 223 269 324 394
#
# _framework density 20.482323999999998
#
# number of rings (size 3 to 8) (size 9 to 14) (size 15 to 20)
#    0.000    1.750    6.250    0.375    0.000    0.000 
#    4.500    2.500    0.000    0.000    0.000    0.000 
#    0.000    0.000    0.000    0.000    0.000    0.000 
#
# Total GULP energy -89212.244784 kJ/mol
# GULP energy per Si atom -5575.765299 kJ/mol
# Density = 2.043570 g / cm^3
# Si number density = 20.482324 Si / 1000 Ang^3
#
#
#
# Elastic Constant Matrix: (Units=GPa)
#
#
# Indices 1 2 3 4 5 6 
#
# 1 94.5219 21.7625 61.3795 12.1644 9.3858 -2.6034
# 2 21.7625 54.6275 29.9684 24.4952 -5.0909 7.2986
# 3 61.3795 29.9684 149.5291 17.2801 8.3037 -4.3867
# 4 12.1644 24.4952 17.2801 22.6442 -1.3328 1.4915
# 5 9.3858 -5.0909 8.3037 -1.3328 63.1204 0.3016
# 6 -2.6034 7.2986 -4.3867 1.4915 0.3016 18.1038
#
#
#
# Elastic Compliance Matrix: (Units=1/GPa)
#
#
# Indices 1 2 3 4 5 6 
#
# 1 0.015110 -0.003201 -0.005291 -0.000876 -0.001838 0.002284
# 2 -0.003201 0.041125 -0.003003 -0.039312 0.003428 -0.014586
# 3 -0.005291 -0.003003 0.009779 -0.001613 -0.000790 0.002966
# 4 -0.000876 -0.039312 -0.001613 0.087794 -0.001013 0.008116
# 5 -0.001838 0.003428 -0.000790 -0.001013 0.016485 -0.002029
# 6 0.002284 -0.014586 0.002966 0.008116 -0.002029 0.061530
#
#
# Mechanical properties :
#
#
# Convention : Reuss Voigt Hill
#
# Bulk Modulus (GPa) = 23.24314 58.32215 40.78264
# Shear Modulus (GPa) = 18.57675 33.14488 25.86082
#
# Velocity S-wave (km/s) = 3.01485 4.02707 3.55715
# Velocity P-wave (km/s) = 4.84682 7.08232 6.06840
#
# Compressibility (1/GPa) = 0.04302345
#
# Stress axis : x y z
#
# Youngs Moduli (GPa) = 66.17978 24.31634 102.26363
#
# Poissons Ratio (x) = 0.07784 0.54105
# Poissons Ratio (y) = 0.21184 0.30713
# Poissons Ratio (z) = 0.35014 0.07303
#
# Static dielectric constant tensor:
#      x y z
#    x 1.878840 0.144140 0.050840 
#    y 0.144140 1.922190 0.083090 
#    z 0.050840 0.083090 1.852620 
# 
# From -- ./inp_files/397233.got.cif
#   From: 2010.05.17/outbox.cif.g08.bks.cpg/sg2_199_cif.got.tgz:397233.got - 2010.06.03 11:33:40.
