data_PCOD9053857
_publ_section_title
;
Structure prediction by ZEFSAII (Michael W. Deem and Ramdas Pophale) SiO2 
 PCOD9053857
Probable space group: P -1
;
_chemical_formula_sum "Si O2"
_cell_formula_units_Z 16
_cell_length_a 16.661474
_cell_length_b 9.759643
_cell_length_c 12.977758
_cell_angle_alpha 100.701401
_cell_angle_beta 156.721494
_cell_angle_gamma 81.443658
_cell_volume 818.201814
_symmetry_space_group_name_H-M "P -1"
_symmetry_group_IT_number 2
_symmetry_cell_setting 'triclinic'
loop_
_space_group_symop_operation_xyz
x,y,z
-x,-y,-z
loop_
_atom_site_type_symbol
_atom_site_label
_atom_site_fract_x
_atom_site_fract_y
_atom_site_fract_z
Si Si1 0.028609 0.051771 0.657024
Si Si2 0.981423 0.673549 0.846665
Si Si3 0.111957 0.041109 0.315474
Si Si4 0.656688 0.210946 0.223572
Si Si5 0.349880 0.556361 0.606491
Si Si6 0.340355 0.474758 0.214654
Si Si7 0.539147 0.013377 0.876772
Si Si8 0.008400 0.279774 0.895742
O O1 0.897262 0.188369 0.523097
O O2 0.000000 0.000000 0.500000
O O3 0.922365 0.947194 0.600144
O O4 0.267284 0.049312 0.957504
O O5 0.983103 0.833153 0.836674
O O6 0.785201 0.586706 0.557135
O O7 0.958930 0.666208 0.942259
O O8 0.185052 0.599067 0.045811
O O9 0.354393 0.040967 0.587271
O O10 0.016368 0.887449 0.155852
O O11 0.603687 0.362821 0.220527
O O12 0.540734 0.103108 0.150912
O O13 0.601957 0.152236 0.037352
O O14 0.539617 0.538706 0.752548
O O15 0.197654 0.656046 0.379626
O O16 0.500000 0.500000 0.500000
O O17 0.195744 0.339901 0.056299
#
# Coordination Sequence:
#
# PCOD9053857 Si02
#       8
#     2   2   2   2   2   2   2   2
#     4   9  18  35  59  86 115 148 194 246 285 339
#     4  11  24  39  56  84 129 156 187 248 291 352
#     4  11  23  38  56  91 124 155 188 237 313 341
#     4   9  18  33  58  89 107 147 199 244 282 334
#     4  11  20  38  62  84 115 154 202 239 291 342
#     4  11  21  39  63  83 113 159 205 239 287 342
#     4   9  18  34  57  83 118 145 189 243 291 343
#     4  11  21  39  60  86 115 156 199 247 277 354
#
# _framework density 19.555077000000001
#
# number of rings (size 3 to 8) (size 9 to 14) (size 15 to 20)
#    0.000    1.750    5.000    1.875    1.750    1.000 
#    0.000    1.250    0.000    3.750    0.000    0.000 
#    0.000    0.000    0.000    0.000    0.000    0.000 
#
# Total GULP energy -89244.525393 kJ/mol
# GULP energy per Si atom -5577.782837 kJ/mol
# Density = 1.951057 g / cm^3
# Si number density = 19.555077 Si / 1000 Ang^3
#
#
#
# Elastic Constant Matrix: (Units=GPa)
#
#
# Indices 1 2 3 4 5 6 
#
# 1 41.0137 4.0502 17.9828 -5.2728 22.9906 -15.9688
# 2 4.0502 105.3163 37.5749 3.9343 11.3920 -6.2700
# 3 17.9828 37.5749 103.9479 -0.3773 32.0282 -10.5566
# 4 -5.2728 3.9343 -0.3773 22.9973 -10.5109 -4.9565
# 5 22.9906 11.3920 32.0282 -10.5109 35.4459 -3.7655
# 6 -15.9688 -6.2700 -10.5566 -4.9565 -3.7655 25.2571
#
#
#
# Elastic Compliance Matrix: (Units=1/GPa)
#
#
# Indices 1 2 3 4 5 6 
#
# 1 0.055785 0.002158 0.004044 0.003004 -0.036166 0.032694
# 2 0.002158 0.011096 -0.003524 -0.002046 -0.002185 0.001919
# 3 0.004044 -0.003524 0.015810 -0.004785 -0.016678 0.004865
# 4 0.003004 -0.002046 -0.004785 0.057238 0.021474 0.013825
# 5 -0.036166 -0.002185 -0.016678 0.021474 0.072173 -0.015405
# 6 0.032694 0.001919 0.004865 0.013825 -0.015405 0.063189
#
#
# Mechanical properties :
#
#
# Convention : Reuss Voigt Hill
#
# Bulk Modulus (GPa) = 11.35748 41.05486 26.20617
# Shear Modulus (GPa) = 16.70651 29.45140 23.07896
#
# Velocity S-wave (km/s) = 2.92607 3.88503 3.43913
# Velocity P-wave (km/s) = 4.15167 6.41597 5.40375
#
# Compressibility (1/GPa) = 0.08804767
#
# Stress axis : x y z
#
# Youngs Moduli (GPa) = 17.92599 90.11864 63.25189
#
# Poissons Ratio (x) = -0.19449 -0.25578
# Poissons Ratio (y) = -0.03869 0.22289
# Poissons Ratio (z) = -0.07249 0.31756
#
# Static dielectric constant tensor:
#      x y z
#    x 1.704540 -0.041410 -0.011000 
#    y -0.041410 1.704010 0.018160 
#    z -0.011000 0.018160 1.732810 
# 
# From -- ./inp_files/314972.got.cif
#   From: 2010.05.17/outbox.cif.g08.bks.cpg/sg2_158_cif.got.tgz:314972.got - 2010.06.03 11:33:40.
