data_PCOD9053259
_publ_section_title
;
Structure prediction by ZEFSAII (Michael W. Deem and Ramdas Pophale) SiO2 
 PCOD9053259
Probable space group: P -1
;
_chemical_formula_sum "Si O2"
_cell_formula_units_Z 14
_cell_length_a 32.767539
_cell_length_b 33.115305
_cell_length_c 12.447475
_cell_angle_alpha 19.035091
_cell_angle_beta 160.754013
_cell_angle_gamma 171.354843
_cell_volume 649.527332
_symmetry_space_group_name_H-M "P -1"
_symmetry_group_IT_number 2
_symmetry_cell_setting 'triclinic'
loop_
_space_group_symop_operation_xyz
x,y,z
-x,-y,-z
loop_
_atom_site_type_symbol
_atom_site_label
_atom_site_fract_x
_atom_site_fract_y
_atom_site_fract_z
Si Si1 0.152157 0.342697 0.701585
Si Si2 0.587556 0.372327 0.986996
Si Si3 0.048329 0.962892 0.343274
Si Si4 0.963011 0.048471 0.415986
Si Si5 0.296338 0.703632 0.731740
Si Si6 0.657491 0.848049 0.845663
Si Si7 0.627502 0.412350 0.588995
O O1 0.415526 0.584644 0.827209
O O2 0.232901 0.488030 0.429040
O O3 0.092388 0.148019 0.003768
O O4 0.872962 0.127269 0.614215
O O5 0.865301 0.701302 0.857463
O O6 0.634404 0.313588 0.158984
O O7 0.487804 0.232610 0.204890
O O8 0.341211 0.240295 0.661357
O O9 0.298533 0.134546 0.462584
O O10 0.071312 0.928339 0.607461
O O11 0.759570 0.658752 0.342954
O O12 0.147970 0.092330 0.781889
O O13 0.000000 0.500000 0.500000
O O14 0.500000 0.000000 0.500000
O O15 0.313627 0.634353 0.055052
#
# Coordination Sequence:
#
# PCOD9053259 Si02
#       7
#     2   2   2   2   2   2   2
#     4  11  23  37  58  94 131 166 203 234 297 390
#     4  12  22  40  63  85 127 165 201 262 308 353
#     4  11  19  35  58  94 125 163 201 239 305 381
#     4  11  19  35  58  94 125 163 201 239 305 381
#     4  12  26  44  66  92 114 156 220 272 314 344
#     4  11  23  37  58  94 131 166 203 234 297 390
#     4  12  22  40  63  85 127 165 201 262 308 353
#
# _framework density 21.554134999999999
#
# number of rings (size 3 to 8) (size 9 to 14) (size 15 to 20)
#    0.000    0.571    2.857    8.571    0.000    0.000 
#    0.000    0.000    0.000    5.143    0.000    0.000 
#    0.000    0.000    0.000    0.000    0.000    0.000 
#
# Total GULP energy -78310.126791 kJ/mol
# GULP energy per Si atom -5593.580485 kJ/mol
# Density = 2.150508 g / cm^3
# Si number density = 21.554135 Si / 1000 Ang^3
#
#
#
# Elastic Constant Matrix: (Units=GPa)
#
#
# Indices 1 2 3 4 5 6 
#
# 1 173.3501 29.5800 53.4994 -9.6141 -25.4732 34.2401
# 2 29.5800 120.8814 27.1021 -1.6558 -0.3101 11.3360
# 3 53.4994 27.1021 61.8271 -0.8325 -3.6570 5.7361
# 4 -9.6141 -1.6558 -0.8325 19.0127 0.7834 -7.2922
# 5 -25.4732 -0.3101 -3.6570 0.7834 16.8605 -7.2201
# 6 34.2401 11.3360 5.7361 -7.2922 -7.2201 46.7880
#
#
#
# Elastic Compliance Matrix: (Units=1/GPa)
#
#
# Indices 1 2 3 4 5 6 
#
# 1 0.011557 -0.000387 -0.008554 0.003054 0.013414 -0.004769
# 2 -0.000387 0.009369 -0.003720 -0.000176 -0.002011 -0.001869
# 3 -0.008554 -0.003720 0.024539 -0.002230 -0.006356 0.002824
# 4 0.003054 -0.000176 -0.002230 0.056771 0.004772 0.007666
# 5 0.013414 -0.002011 -0.006356 0.004772 0.079874 0.004519
# 6 -0.004769 -0.001869 0.002824 0.007666 0.004519 0.026862
#
#
# Mechanical properties :
#
#
# Convention : Reuss Voigt Hill
#
# Bulk Modulus (GPa) = 49.64505 64.04681 56.84593
# Shear Modulus (GPa) = 20.74618 32.92404 26.83511
#
# Velocity S-wave (km/s) = 3.10581 3.91257 3.53230
# Velocity P-wave (km/s) = 5.99534 7.08448 6.56254
#
# Compressibility (1/GPa) = 0.02014300
#
# Stress axis : x y z
#
# Youngs Moduli (GPa) = 86.52665 106.73547 40.75214
#
# Poissons Ratio (x) = 0.04128 0.34859
# Poissons Ratio (y) = 0.03346 0.15161
# Poissons Ratio (z) = 0.74014 0.39708
#
# Static dielectric constant tensor:
#      x y z
#    x 1.864090 0.026170 -0.032190 
#    y 0.026170 1.759630 -0.006130 
#    z -0.032190 -0.006130 1.742780 
# 
# From -- ./inp_files/477839.got.cif
#   From: 2010.05.17/outbox.cif.g08.bks.cpg/sg2_239_cif.got.tgz:477839.got - 2010.06.03 11:33:40.
