data_PCOD9053538
_publ_section_title
;
Structure prediction by ZEFSAII (Michael W. Deem and Ramdas Pophale) SiO2 
 PCOD9053538
Probable space group: P -1
;
_chemical_formula_sum "Si O2"
_cell_formula_units_Z 14
_cell_length_a 14.297921
_cell_length_b 9.679010
_cell_length_c 20.789115
_cell_angle_alpha 29.700432
_cell_angle_beta 150.898408
_cell_angle_gamma 143.811732
_cell_volume 679.325543
_symmetry_space_group_name_H-M "P -1"
_symmetry_group_IT_number 2
_symmetry_cell_setting 'triclinic'
loop_
_space_group_symop_operation_xyz
x,y,z
-x,-y,-z
loop_
_atom_site_type_symbol
_atom_site_label
_atom_site_fract_x
_atom_site_fract_y
_atom_site_fract_z
Si Si1 0.695373 0.088168 0.123358
Si Si2 0.913042 0.209428 0.758389
Si Si3 0.709637 0.408131 0.675040
Si Si4 0.992597 0.410727 0.956932
Si Si5 0.920716 0.577810 0.489493
Si Si6 0.670509 0.357898 0.134765
Si Si7 0.164411 0.012905 0.539736
O O1 0.860005 0.318254 0.093712
O O2 0.650256 0.256983 0.090784
O O3 0.775800 0.800758 0.304767
O O4 0.500000 0.000000 0.000000
O O5 0.765158 0.210816 0.730059
O O6 0.850596 0.344545 0.598546
O O7 0.121873 0.417336 0.819835
O O8 0.937513 0.889009 0.889109
O O9 0.500000 0.500000 0.500000
O O10 0.787858 0.357345 0.813848
O O11 0.843447 0.707531 0.615141
O O12 0.000000 0.500000 0.000000
O O13 0.000000 0.500000 0.500000
O O14 0.116898 0.759728 0.564320
O O15 0.653447 0.057630 0.284506
O O16 0.500000 0.500000 0.000000
O O17 0.000000 0.000000 0.500000
#
# Coordination Sequence:
#
# PCOD9053538 Si02
#       7
#     2   2   2   2   2   2   2
#     4  12  26  45  68 102 144 179 228 290 348 415
#     4  11  24  47  71 100 140 184 230 295 340 418
#     4  12  25  44  74  99 137 188 236 282 352 417
#     4  12  27  47  68 104 150 183 225 295 357 410
#     4  11  22  43  70  96 132 180 227 275 349 405
#     4  11  24  40  73 104 132 175 242 283 339 413
#     4  11  19  44  69  92 131 178 225 291 326 395
#
# _framework density 20.608677
#
# number of rings (size 3 to 8) (size 9 to 14) (size 15 to 20)
#    0.000    0.571    7.143    1.286    8.000    1.143 
#    0.000    1.429    0.000    0.000    0.000    0.000 
#    0.000    0.000    0.000    0.000    0.000    0.000 
#
# Total GULP energy -77942.174041 kJ/mol
# GULP energy per Si atom -5567.298146 kJ/mol
# Density = 2.056177 g / cm^3
# Si number density = 20.608677 Si / 1000 Ang^3
#
#
#
# Elastic Constant Matrix: (Units=GPa)
#
#
# Indices 1 2 3 4 5 6 
#
# 1 126.7839 53.4293 74.2356 19.6773 10.0519 -56.1873
# 2 53.4293 94.8339 52.2250 9.8749 -0.0900 -27.8924
# 3 74.2356 52.2250 164.6263 3.2831 3.3019 -15.1853
# 4 19.6773 9.8749 3.2831 35.8450 -3.4294 0.2634
# 5 10.0519 -0.0900 3.3019 -3.4294 39.0209 -1.9704
# 6 -56.1873 -27.8924 -15.1853 0.2634 -1.9704 41.8697
#
#
#
# Elastic Compliance Matrix: (Units=1/GPa)
#
#
# Indices 1 2 3 4 5 6 
#
# 1 0.047084 0.002123 -0.015773 -0.026389 -0.010151 0.058566
# 2 0.002123 0.016037 -0.004852 -0.005222 0.000038 0.011807
# 3 -0.015773 -0.004852 0.012666 0.009248 0.002797 -0.019732
# 4 -0.026389 -0.005222 0.009248 0.044009 0.008082 -0.035434
# 5 -0.010151 0.000038 0.002797 0.008082 0.028145 -0.011309
# 6 0.058566 0.011807 -0.019732 -0.035434 -0.011309 0.102877
#
#
# Mechanical properties :
#
#
# Convention : Reuss Voigt Hill
#
# Bulk Modulus (GPa) = 25.78532 82.89155 54.33844
# Shear Modulus (GPa) = 16.62507 37.10406 26.86457
#
# Velocity S-wave (km/s) = 2.84333 4.24773 3.61440
# Velocity P-wave (km/s) = 4.82891 8.02288 6.62137
#
# Compressibility (1/GPa) = 0.03878176
#
# Stress axis : x y z
#
# Youngs Moduli (GPa) = 21.23866 62.35390 78.95352
#
# Poissons Ratio (x) = -0.13236 1.24534
# Poissons Ratio (y) = -0.04509 0.38311
# Poissons Ratio (z) = 0.33500 0.30257
#
# Static dielectric constant tensor:
#      x y z
#    x 2.538580 0.388830 -0.252240 
#    y 0.388830 1.935850 -0.119610 
#    z -0.252240 -0.119610 1.842770 
# 
# From -- ./inp_files/157518.got.cif
#   From: 2010.05.17/outbox.cif.g08.bks.cpg/sg2_79_cif.got.tgz:157518.got - 2010.06.03 11:33:40.
