data_PCOD9053445
_publ_section_title
;
Structure prediction by ZEFSAII (Michael W. Deem and Ramdas Pophale) SiO2 
 PCOD9053445
Probable space group: P -1
;
_chemical_formula_sum "Si O2"
_cell_formula_units_Z 11
_cell_length_a 9.064227
_cell_length_b 6.590062
_cell_length_c 14.289962
_cell_angle_alpha 67.251636
_cell_angle_beta 39.188169
_cell_angle_gamma 59.717920
_cell_volume 465.752458
_symmetry_space_group_name_H-M "P -1"
_symmetry_group_IT_number 2
_symmetry_cell_setting 'triclinic'
loop_
_space_group_symop_operation_xyz
x,y,z
-x,-y,-z
loop_
_atom_site_type_symbol
_atom_site_label
_atom_site_fract_x
_atom_site_fract_y
_atom_site_fract_z
Si Si1 0.484818 0.249398 0.348558
Si Si2 0.963086 0.353702 0.131573
Si Si3 0.176458 0.461428 0.638447
Si Si4 0.822271 0.038197 0.491697
Si Si5 0.233212 0.645388 0.247318
Si Si6 0.500000 0.000000 0.000000
O O1 0.768645 0.225546 0.223034
O O2 0.367344 0.282190 0.505110
O O3 0.411824 0.046299 0.369989
O O4 0.351035 0.479083 0.308434
O O5 0.844767 0.542274 0.239227
O O6 0.218535 0.159079 0.074528
O O7 0.000000 0.500000 0.000000
O O8 0.900716 0.488982 0.729572
O O9 0.241897 0.694824 0.549714
O O10 0.004843 0.865443 0.358840
O O11 0.000000 0.000000 0.500000
O O12 0.418438 0.760103 0.091109
#
# Coordination Sequence:
#
# PCOD9053445 Si02
#       6
#     2   2   2   2   2   1
#     4  11  23  43  75 111 143 184 250 300 355 437
#     4  12  27  49  71 105 150 194 244 300 357 442
#     4  11  23  44  76 103 145 192 236 306 367 414
#     4  11  19  39  75 110 141 185 234 301 367 420
#     4  11  22  43  72 108 142 192 241 291 365 441
#     4  12  26  48  72  98 154 194 234 294 376 420
#
# _framework density 23.617697
#
# number of rings (size 3 to 8) (size 9 to 14) (size 15 to 20)
#    0.000    0.727    7.273    1.636    0.000    1.455 
#    6.545    0.909    0.000    0.000    0.000    0.000 
#    0.000    0.000    0.000    0.000    0.000    0.000 
#
# Total GULP energy -61259.258673 kJ/mol
# GULP energy per Si atom -5569.023516 kJ/mol
# Density = 2.356394 g / cm^3
# Si number density = 23.617697 Si / 1000 Ang^3
#
#
#
# Elastic Constant Matrix: (Units=GPa)
#
#
# Indices 1 2 3 4 5 6 
#
# 1 165.8596 60.6547 94.2884 -21.3272 -38.7436 22.6493
# 2 60.6547 120.2590 49.4185 -13.5170 -11.4874 -1.2431
# 3 94.2884 49.4185 122.8516 -33.1682 -29.1083 1.4542
# 4 -21.3272 -13.5170 -33.1682 34.0771 4.4786 -14.2435
# 5 -38.7436 -11.4874 -29.1083 4.4786 69.4941 -11.7982
# 6 22.6493 -1.2431 1.4542 -14.2435 -11.7982 43.5081
#
#
#
# Elastic Compliance Matrix: (Units=1/GPa)
#
#
# Indices 1 2 3 4 5 6 
#
# 1 0.014201 -0.003395 -0.010934 -0.007078 0.001708 -0.008978
# 2 -0.003395 0.010785 -0.001277 0.002087 -0.000318 0.002715
# 3 -0.010934 -0.001277 0.023338 0.020073 0.004317 0.012617
# 4 -0.007078 0.002087 0.020073 0.053840 0.005085 0.022078
# 5 0.001708 -0.000318 0.004317 0.005085 0.017690 0.005419
# 6 -0.008978 0.002715 0.012617 0.022078 0.005419 0.036011
#
#
# Mechanical properties :
#
#
# Convention : Reuss Voigt Hill
#
# Bulk Modulus (GPa) = 58.43496 90.85483 74.64490
# Shear Modulus (GPa) = 25.93616 43.05644 34.49630
#
# Velocity S-wave (km/s) = 3.31745 4.27436 3.82594
# Velocity P-wave (km/s) = 6.28250 7.93175 7.15480
#
# Compressibility (1/GPa) = 0.01711304
#
# Stress axis : x y z
#
# Youngs Moduli (GPa) = 70.41589 92.72538 42.84853
#
# Poissons Ratio (x) = 0.31479 0.46850
# Poissons Ratio (y) = 0.23905 0.05471
# Poissons Ratio (z) = 0.76992 0.11839
#
# Static dielectric constant tensor:
#      x y z
#    x 2.006700 0.022200 0.009990 
#    y 0.022200 1.917210 0.015710 
#    z 0.009990 0.015710 1.914280 
# 
# From -- ./inp_files/21906.got.cif
#   From: 2010.05.17/outbox.cif.g08.bks.cpg/sg2_11_cif.got.tgz:21906.got - 2010.06.03 11:33:40.
