data_PCOD9053067
_publ_section_title
;
Structure prediction by ZEFSAII (Michael W. Deem and Ramdas Pophale) SiO2 
 PCOD9053067
Probable space group: P -1
;
_chemical_formula_sum "Si O2"
_cell_formula_units_Z 14
_cell_length_a 11.651556
_cell_length_b 6.580395
_cell_length_c 14.815281
_cell_angle_alpha 87.119226
_cell_angle_beta 45.478915
_cell_angle_gamma 59.041948
_cell_volume 598.347238
_symmetry_space_group_name_H-M "P -1"
_symmetry_group_IT_number 2
_symmetry_cell_setting 'triclinic'
loop_
_space_group_symop_operation_xyz
x,y,z
-x,-y,-z
loop_
_atom_site_type_symbol
_atom_site_label
_atom_site_fract_x
_atom_site_fract_y
_atom_site_fract_z
Si Si1 0.709483 0.499192 0.196161
Si Si2 0.490575 0.678828 0.137949
Si Si3 0.900664 0.705078 0.633079
Si Si4 0.258557 0.539357 0.169497
Si Si5 0.609691 0.976797 0.346997
Si Si6 0.914184 0.074929 0.234613
Si Si7 0.299381 0.584315 0.480135
O O1 0.695785 0.492081 0.096302
O O2 0.905845 0.218583 0.145908
O O3 0.474005 0.601693 0.352384
O O4 0.698798 0.732224 0.236925
O O5 0.370380 0.563428 0.191109
O O6 0.329814 0.987606 0.257770
O O7 0.563725 0.677381 0.997244
O O8 0.873524 0.548588 0.726212
O O9 0.000000 0.500000 0.500000
O O10 0.064856 0.751234 0.562438
O O11 0.119226 0.829084 0.185674
O O12 0.799445 0.966012 0.271049
O O13 0.421519 0.270545 0.399429
O O14 0.500000 0.000000 0.500000
O O15 0.755475 0.328766 0.386661
#
# Coordination Sequence:
#
# PCOD9053067 Si02
#       7
#     2   2   2   2   2   2   2
#     4  11  23  39  65 100 135 166 220 271 330 391
#     4  11  26  47  67  95 134 181 218 274 326 393
#     4  12  25  41  70 102 130 169 225 276 330 391
#     4  11  26  47  69  92 136 179 223 267 331 395
#     4  11  18  34  59  95 135 169 204 270 333 376
#     4  11  22  38  64  97 128 175 215 265 327 390
#     4  11  21  35  62  99 130 167 212 272 327 383
#
# _framework density 23.397784999999999
#
# number of rings (size 3 to 8) (size 9 to 14) (size 15 to 20)
#    0.000    0.857    4.286    3.857    2.000    2.857 
#    0.000    0.714    0.000    0.000    0.000    0.000 
#    0.000    0.000    0.000    0.000    0.000    0.000 
#
# Total GULP energy -78212.660453 kJ/mol
# GULP energy per Si atom -5586.618604 kJ/mol
# Density = 2.334453 g / cm^3
# Si number density = 23.397785 Si / 1000 Ang^3
#
#
#
# Elastic Constant Matrix: (Units=GPa)
#
#
# Indices 1 2 3 4 5 6 
#
# 1 63.4046 11.2156 -12.0238 5.8361 17.9140 -1.9210
# 2 11.2156 80.2031 5.4013 16.3169 8.3071 -9.1554
# 3 -12.0238 5.4013 47.4024 5.5426 7.1875 0.2416
# 4 5.8361 16.3169 5.5426 25.8440 1.5101 0.1063
# 5 17.9140 8.3071 7.1875 1.5101 33.7687 6.0296
# 6 -1.9210 -9.1554 0.2416 0.1063 6.0296 35.7976
#
#
#
# Elastic Compliance Matrix: (Units=1/GPa)
#
#
# Indices 1 2 3 4 5 6 
#
# 1 0.021909 -0.000736 0.008320 -0.005489 -0.013544 0.003229
# 2 -0.000736 0.015386 -0.000313 -0.009282 -0.003726 0.004553
# 3 0.008320 -0.000313 0.025488 -0.006583 -0.009801 0.001865
# 4 -0.005489 -0.009282 -0.006583 0.046919 0.005147 -0.003630
# 5 -0.013544 -0.003726 -0.009801 0.005147 0.041097 -0.008551
# 6 0.003229 0.004553 0.001865 -0.003630 -0.008551 0.030711
#
#
# Mechanical properties :
#
#
# Convention : Reuss Voigt Hill
#
# Bulk Modulus (GPa) = 12.93213 22.24402 17.58807
# Shear Modulus (GPa) = 25.94106 31.50987 28.72547
#
# Velocity S-wave (km/s) = 3.33332 3.67373 3.50766
# Velocity P-wave (km/s) = 4.51152 5.24619 4.89267
#
# Compressibility (1/GPa) = 0.07732678
#
# Stress axis : x y z
#
# Youngs Moduli (GPa) = 45.64259 64.99262 39.23367
#
# Poissons Ratio (x) = 0.04784 -0.32643
# Poissons Ratio (y) = 0.03359 0.01227
# Poissons Ratio (z) = -0.37976 0.02033
#
# Static dielectric constant tensor:
#      x y z
#    x 2.229130 -0.086380 -0.002710 
#    y -0.086380 1.925940 -0.021580 
#    z -0.002710 -0.021580 1.908310 
# 
# From -- ./inp_files/67497.got.cif
#   From: 2010.05.17/outbox.cif.g08.bks.cpg/sg2_34_cif.got.tgz:67497.got - 2010.06.03 11:33:40.
