data_PCOD9053454
_publ_section_title
;
Structure prediction by ZEFSAII (Michael W. Deem and Ramdas Pophale) SiO2 
 PCOD9053454
Probable space group: P -1
;
_chemical_formula_sum "Si O2"
_cell_formula_units_Z 14
_cell_length_a 6.351665
_cell_length_b 8.707066
_cell_length_c 14.004093
_cell_angle_alpha 134.258985
_cell_angle_beta 99.350849
_cell_angle_gamma 73.230504
_cell_volume 530.238931
_symmetry_space_group_name_H-M "P -1"
_symmetry_group_IT_number 2
_symmetry_cell_setting 'triclinic'
loop_
_space_group_symop_operation_xyz
x,y,z
-x,-y,-z
loop_
_atom_site_type_symbol
_atom_site_label
_atom_site_fract_x
_atom_site_fract_y
_atom_site_fract_z
Si Si1 0.911781 0.723820 0.812015
Si Si2 0.172037 0.631537 0.604408
Si Si3 0.731365 0.330573 0.704525
Si Si4 0.465232 0.945339 0.169311
Si Si5 0.317033 0.579410 0.900924
Si Si6 0.561551 0.206976 0.461045
Si Si7 0.907098 0.726049 0.147876
O O1 0.855850 0.485072 0.719355
O O2 0.054106 0.746178 0.739005
O O3 0.085861 0.731537 0.911149
O O4 0.678151 0.892235 0.848891
O O5 0.395953 0.448348 0.565909
O O6 0.239977 0.770129 0.584015
O O7 0.000000 0.500000 0.500000
O O8 0.521824 0.502667 0.811262
O O9 0.659555 0.157988 0.552938
O O10 0.897852 0.221209 0.753825
O O11 0.726442 0.889208 0.141189
O O12 0.438983 0.063841 0.322721
O O13 0.386331 0.720888 0.052400
O O14 0.255499 0.350919 0.822404
O O15 0.000000 0.500000 0.000000
#
# Coordination Sequence:
#
# PCOD9053454 Si02
#       7
#     2   2   2   2   2   2   2
#     4  11  23  41  71 103 129 173 223 278 322 393
#     4  11  19  40  65  96 142 178 203 261 354 389
#     4  11  23  45  70  96 135 177 218 265 342 395
#     4  12  25  43  67 104 131 172 229 273 325 390
#     4  11  25  46  70  93 136 177 220 273 338 391
#     4  11  23  38  67 102 133 171 221 272 321 400
#     4  11  26  49  70  90 132 188 220 265 336 402
#
# _framework density 26.403192000000001
#
# number of rings (size 3 to 8) (size 9 to 14) (size 15 to 20)
#    0.000    0.857    5.714    1.714    0.000    2.286 
#    0.000    0.714    0.000    0.000    0.000    0.000 
#    0.000    0.000    0.000    0.000    0.000    0.000 
#
# Total GULP energy -78266.686817 kJ/mol
# GULP energy per Si atom -5590.477630 kJ/mol
# Density = 2.634310 g / cm^3
# Si number density = 26.403192 Si / 1000 Ang^3
#
#
#
# Elastic Constant Matrix: (Units=GPa)
#
#
# Indices 1 2 3 4 5 6 
#
# 1 142.5531 54.2805 50.8147 -17.9968 11.1126 -13.4893
# 2 54.2805 93.8492 23.3137 -1.3118 -1.3592 -48.2769
# 3 50.8147 23.3137 122.0512 -24.6820 25.6167 -19.1250
# 4 -17.9968 -1.3118 -24.6820 35.1486 -13.4599 4.1128
# 5 11.1126 -1.3592 25.6167 -13.4599 59.9368 -0.6289
# 6 -13.4893 -48.2769 -19.1250 4.1128 -0.6289 67.2629
#
#
#
# Elastic Compliance Matrix: (Units=1/GPa)
#
#
# Indices 1 2 3 4 5 6 
#
# 1 0.011232 -0.008075 -0.003065 0.003782 -0.000155 -0.004647
# 2 -0.008075 0.023099 0.000211 -0.004502 0.001081 0.015305
# 3 -0.003065 0.000211 0.011497 0.005001 -0.003192 0.002470
# 4 0.003782 -0.004502 0.005001 0.036069 0.005126 -0.003208
# 5 -0.000155 0.001081 -0.003192 0.005126 0.019250 -0.000297
# 6 -0.004647 0.015305 0.002470 -0.003208 -0.000297 0.025816
#
#
# Mechanical properties :
#
#
# Convention : Reuss Voigt Hill
#
# Bulk Modulus (GPa) = 41.71792 68.36346 55.04069
# Shear Modulus (GPa) = 31.88560 47.80596 39.84578
#
# Velocity S-wave (km/s) = 3.47888 4.25975 3.88896
# Velocity P-wave (km/s) = 5.65433 7.08112 6.40756
#
# Compressibility (1/GPa) = 0.02397051
#
# Stress axis : x y z
#
# Youngs Moduli (GPa) = 89.03218 43.29164 86.97707
#
# Poissons Ratio (x) = 0.34958 0.26656
# Poissons Ratio (y) = 0.71893 -0.01833
# Poissons Ratio (z) = 0.27285 -0.00912
#
# Static dielectric constant tensor:
#      x y z
#    x 2.065660 -0.039420 0.008380 
#    y -0.039420 2.198900 0.025980 
#    z 0.008380 0.025980 2.097730 
# 
# From -- ./inp_files/483108.got.cif
#   From: 2010.05.17/outbox.cif.g08.bks.cpg/sg2_242_cif.got.tgz:483108.got - 2010.06.03 11:33:40.
