data_PCOD9053361
_publ_section_title
;
Structure prediction by ZEFSAII (Michael W. Deem and Ramdas Pophale) SiO2 
 PCOD9053361
Probable space group: P -1
;
_chemical_formula_sum "Si O2"
_cell_formula_units_Z 14
_cell_length_a 7.767564
_cell_length_b 11.254421
_cell_length_c 9.290084
_cell_angle_alpha 86.617200
_cell_angle_beta 129.716739
_cell_angle_gamma 111.097647
_cell_volume 566.040982
_symmetry_space_group_name_H-M "P -1"
_symmetry_group_IT_number 2
_symmetry_cell_setting 'triclinic'
loop_
_space_group_symop_operation_xyz
x,y,z
-x,-y,-z
loop_
_atom_site_type_symbol
_atom_site_label
_atom_site_fract_x
_atom_site_fract_y
_atom_site_fract_z
Si Si1 0.134567 0.258579 0.309761
Si Si2 0.158623 0.650317 0.615490
Si Si3 0.494295 0.663770 0.044148
Si Si4 0.629768 0.102584 0.935213
Si Si5 0.935377 0.218305 0.703685
Si Si6 0.154539 0.418159 0.049095
Si Si7 0.767797 0.956600 0.493263
O O1 0.249014 0.373879 0.246352
O O2 0.287452 0.187643 0.468478
O O3 0.000663 0.304336 0.361243
O O4 0.916732 0.143780 0.111884
O O5 0.000000 0.500000 0.500000
O O6 0.210860 0.734623 0.492758
O O7 0.399774 0.665076 0.831196
O O8 0.406802 0.764419 0.069067
O O9 0.784267 0.721705 0.209052
O O10 0.364655 0.520200 0.052973
O O11 0.469616 0.042363 0.713359
O O12 0.500000 0.000000 0.000000
O O13 0.975087 0.291698 0.870928
O O14 0.841814 0.063599 0.651248
O O15 0.000000 0.500000 0.000000
O O16 0.000000 0.000000 0.500000
#
# Coordination Sequence:
#
# PCOD9053361 Si02
#       7
#     2   2   2   2   2   2   2
#     4  11  23  41  63  94 135 171 209 271 333 380
#     4  11  20  36  65  93 125 165 222 261 311 382
#     4  11  22  40  68  94 130 172 218 261 327 386
#     4  11  19  37  67  95 124 168 216 262 321 381
#     4  12  24  42  69  98 127 170 227 266 314 396
#     4  12  24  44  65  94 138 177 204 272 342 382
#     4  12  21  39  67  98 126 167 222 272 315 383
#
# _framework density 24.73319
#
# number of rings (size 3 to 8) (size 9 to 14) (size 15 to 20)
#    0.000    0.571    8.571    1.286    0.000    0.571 
#    0.000    6.429    0.000    0.000    0.000    0.000 
#    0.000    0.000    0.000    0.000    0.000    0.000 
#
# Total GULP energy -78406.848147 kJ/mol
# GULP energy per Si atom -5600.489153 kJ/mol
# Density = 2.467690 g / cm^3
# Si number density = 24.733190 Si / 1000 Ang^3
#
#
#
# Elastic Constant Matrix: (Units=GPa)
#
#
# Indices 1 2 3 4 5 6 
#
# 1 61.6374 14.5700 18.9669 -5.1853 -16.0057 -5.9896
# 2 14.5700 124.0765 36.9707 -22.6118 -16.9404 -19.9735
# 3 18.9669 36.9707 126.6070 -10.0214 -7.2464 -4.7487
# 4 -5.1853 -22.6118 -10.0214 62.5590 -0.7261 -11.2126
# 5 -16.0057 -16.9404 -7.2464 -0.7261 38.0069 8.6196
# 6 -5.9896 -19.9735 -4.7487 -11.2126 8.6196 36.8869
#
#
#
# Elastic Compliance Matrix: (Units=1/GPa)
#
#
# Indices 1 2 3 4 5 6 
#
# 1 0.019099 -0.000040 -0.002250 0.001574 0.007270 0.001569
# 2 -0.000040 0.011133 -0.002444 0.004821 0.003110 0.006446
# 3 -0.002250 -0.002444 0.008944 0.000290 -0.000237 -0.000394
# 4 0.001574 0.004821 0.000290 0.019444 0.001309 0.008508
# 5 0.007270 0.003110 -0.000237 0.001309 0.031685 -0.004172
# 6 0.001569 0.006446 -0.000394 0.008508 -0.004172 0.034365
#
#
# Mechanical properties :
#
#
# Convention : Reuss Voigt Hill
#
# Bulk Modulus (GPa) = 33.66128 50.37068 42.01598
# Shear Modulus (GPa) = 34.71256 43.61144 39.16200
#
# Velocity S-wave (km/s) = 3.75037 4.20369 3.98349
# Velocity P-wave (km/s) = 5.69149 6.63108 6.17917
#
# Compressibility (1/GPa) = 0.02970773
#
# Stress axis : x y z
#
# Youngs Moduli (GPa) = 52.36008 89.82198 111.81064
#
# Poissons Ratio (x) = 0.00362 0.25156
# Poissons Ratio (y) = 0.00211 0.27323
# Poissons Ratio (z) = 0.11780 0.21949
#
# Static dielectric constant tensor:
#      x y z
#    x 2.136010 0.137770 -0.238230 
#    y 0.137770 2.054450 -0.223140 
#    z -0.238230 -0.223140 2.350900 
# 
# From -- ./inp_files/187128.got.cif
#   From: 2010.05.17/outbox.cif.g08.bks.cpg/sg2_94_cif.got.tgz:187128.got - 2010.06.03 11:33:40.
