data_PCOD9053044
_publ_section_title
;
Structure prediction by ZEFSAII (Michael W. Deem and Ramdas Pophale) SiO2 
 PCOD9053044
Probable space group: P -1
;
_chemical_formula_sum "Si O2"
_cell_formula_units_Z 14
_cell_length_a 15.344853
_cell_length_b 11.428579
_cell_length_c 10.356764
_cell_angle_alpha 49.514425
_cell_angle_beta 46.539259
_cell_angle_gamma 26.039300
_cell_volume 575.944666
_symmetry_space_group_name_H-M "P -1"
_symmetry_group_IT_number 2
_symmetry_cell_setting 'triclinic'
loop_
_space_group_symop_operation_xyz
x,y,z
-x,-y,-z
loop_
_atom_site_type_symbol
_atom_site_label
_atom_site_fract_x
_atom_site_fract_y
_atom_site_fract_z
Si Si1 0.657261 0.327150 0.082554
Si Si2 0.737062 0.194794 0.514015
Si Si3 0.484706 0.764522 0.111501
Si Si4 0.100275 0.185317 0.863712
Si Si5 0.248383 0.037803 0.566922
Si Si6 0.176691 0.559314 0.795837
Si Si7 0.390890 0.105299 0.752711
O O1 0.643942 0.499037 0.050619
O O2 0.618811 0.233885 0.295579
O O3 0.865056 0.036016 0.017161
O O4 0.500000 0.500000 0.000000
O O5 0.500000 0.500000 0.500000
O O6 0.706858 0.144233 0.718808
O O7 0.812314 0.987671 0.483313
O O8 0.861162 0.223645 0.356862
O O9 0.598363 0.684339 0.185844
O O10 0.417566 0.980483 0.945610
O O11 0.312173 0.060769 0.763731
O O12 0.059614 0.268663 0.695377
O O13 0.967425 0.354116 0.005150
O O14 0.397656 0.025719 0.400732
O O15 0.208365 0.421521 0.737480
#
# Coordination Sequence:
#
# PCOD9053044 Si02
#       7
#     2   2   2   2   2   2   2
#     4  10  19  37  60  82 112 147 197 233 274 339
#     4  10  17  35  59  83 107 149 199 233 270 337
#     4  11  20  36  63  87 109 150 206 233 267 344
#     4  10  23  36  58  87 119 147 188 237 299 327
#     4  10  20  36  61  83 112 154 196 228 281 345
#     4  11  21  37  59  87 116 150 188 240 292 328
#     4  12  21  37  61  85 119 155 190 228 285 351
#
# _framework density 24.307891999999999
#
# number of rings (size 3 to 8) (size 9 to 14) (size 15 to 20)
#    0.857    0.571    7.143    1.286    0.000    2.286 
#    0.000    1.429    6.286    0.000    0.000    0.000 
#    0.000    0.000    0.000    0.000    0.000    0.000 
#
# Total GULP energy -78040.996465 kJ/mol
# GULP energy per Si atom -5574.356890 kJ/mol
# Density = 2.425257 g / cm^3
# Si number density = 24.307892 Si / 1000 Ang^3
#
#
#
# Elastic Constant Matrix: (Units=GPa)
#
#
# Indices 1 2 3 4 5 6 
#
# 1 51.9434 25.9022 1.2410 -7.3503 -13.8811 19.9350
# 2 25.9022 36.7283 27.1155 8.9508 -9.7899 21.4437
# 3 1.2410 27.1155 141.3367 -6.6304 -9.1515 1.9097
# 4 -7.3503 8.9508 -6.6304 35.3744 4.1557 5.5297
# 5 -13.8811 -9.7899 -9.1515 4.1557 31.9041 -3.8416
# 6 19.9350 21.4437 1.9097 5.5297 -3.8416 37.7422
#
#
#
# Elastic Compliance Matrix: (Units=1/GPa)
#
#
# Indices 1 2 3 4 5 6 
#
# 1 0.044459 -0.037924 0.008347 0.020312 0.006897 -0.004632
# 2 -0.037924 0.092079 -0.017963 -0.031367 0.007556 -0.026011
# 3 0.008347 -0.017963 0.010794 0.007556 0.000740 0.004219
# 4 0.020312 -0.031367 0.007556 0.042312 -0.004120 0.000092
# 5 0.006897 0.007556 0.000740 -0.004120 0.036978 -0.003606
# 6 -0.004632 -0.026011 0.004219 0.000092 -0.003606 0.043126
#
#
# Mechanical properties :
#
#
# Convention : Reuss Voigt Hill
#
# Bulk Modulus (GPa) = 19.13818 37.61397 28.37608
# Shear Modulus (GPa) = 13.08062 32.72080 22.90071
#
# Velocity S-wave (km/s) = 2.32226 3.67290 3.07271
# Velocity P-wave (km/s) = 3.88341 5.78744 4.92825
#
# Compressibility (1/GPa) = 0.05225157
#
# Stress axis : x y z
#
# Youngs Moduli (GPa) = 22.49277 10.86027 92.64728
#
# Poissons Ratio (x) = 0.41187 -0.77337
# Poissons Ratio (y) = 0.85302 1.66424
# Poissons Ratio (z) = -0.18776 0.19509
#
# Static dielectric constant tensor:
#      x y z
#    x 1.957170 -0.018960 -0.030010 
#    y -0.018960 2.020040 0.056680 
#    z -0.030010 0.056680 1.962940 
# 
# From -- ./inp_files/462788.got.cif
#   From: 2010.05.17/outbox.cif.g08.bks.cpg/sg2_232_cif.got.tgz:462788.got - 2010.06.03 11:33:40.
