data_PCOD9053192
_publ_section_title
;
Structure prediction by ZEFSAII (Michael W. Deem and Ramdas Pophale) SiO2 
 PCOD9053192
Probable space group: P -1
;
_chemical_formula_sum "Si O2"
_cell_formula_units_Z 14
_cell_length_a 14.817310
_cell_length_b 24.407589
_cell_length_c 24.072109
_cell_angle_alpha 167.988768
_cell_angle_beta 157.089273
_cell_angle_gamma 22.474667
_cell_volume 676.006141
_symmetry_space_group_name_H-M "P -1"
_symmetry_group_IT_number 2
_symmetry_cell_setting 'triclinic'
loop_
_space_group_symop_operation_xyz
x,y,z
-x,-y,-z
loop_
_atom_site_type_symbol
_atom_site_label
_atom_site_fract_x
_atom_site_fract_y
_atom_site_fract_z
Si Si1 0.247067 0.616201 0.506527
Si Si2 0.585123 0.438222 0.329399
Si Si3 0.167490 0.697632 0.784641
Si Si4 0.883597 0.912921 0.402780
Si Si5 0.338743 0.028864 0.815443
Si Si6 0.329704 0.545186 0.129072
Si Si7 0.071175 0.190010 0.926271
O O1 0.500000 0.500000 0.500000
O O2 0.285184 0.672152 0.648334
O O3 0.078808 0.894076 0.660072
O O4 0.115238 0.380588 0.189590
O O5 0.722440 0.346796 0.259399
O O6 0.520010 0.765605 0.628288
O O7 0.362236 0.298123 0.063542
O O8 0.391801 0.625802 0.884027
O O9 0.000000 0.500000 0.500000
O O10 0.000000 0.000000 0.000000
O O11 0.100661 0.920701 0.574304
O O12 0.671530 0.179258 0.564551
O O13 0.805773 0.639948 0.095982
O O14 0.000000 0.000000 0.500000
O O15 0.313811 0.125093 0.960389
O O16 0.164502 0.644260 0.078954
#
# Coordination Sequence:
#
# PCOD9053192 Si02
#       7
#     2   2   2   2   2   2   2
#     4  12  21  36  60  94 140 170 200 236 297 395
#     4  12  23  37  63  91 127 169 211 250 314 362
#     4  12  27  48  68  87 115 162 227 284 320 352
#     4  11  20  33  55  88 128 160 198 240 305 387
#     4  11  19  33  55  91 132 162 196 233 295 393
#     4  11  23  40  62  87 122 166 209 260 319 372
#     4  11  21  36  58  95 134 173 191 240 310 387
#
# _framework density 20.709871
#
# number of rings (size 3 to 8) (size 9 to 14) (size 15 to 20)
#    0.000    0.571    2.857    8.571    0.000    0.000 
#    0.000    0.000    0.000    5.143    0.000    0.000 
#    0.000    0.000    0.000    0.000    0.000    0.000 
#
# Total GULP energy -78002.545691 kJ/mol
# GULP energy per Si atom -5571.610407 kJ/mol
# Density = 2.066273 g / cm^3
# Si number density = 20.709871 Si / 1000 Ang^3
#
#
#
# Elastic Constant Matrix: (Units=GPa)
#
#
# Indices 1 2 3 4 5 6 
#
# 1 60.7247 28.1800 21.9871 -2.0336 -8.5564 7.0429
# 2 28.1800 121.5554 38.3070 12.8164 -6.9547 9.6680
# 3 21.9871 38.3070 116.1293 13.6635 7.2544 0.3090
# 4 -2.0336 12.8164 13.6635 30.4734 -6.1635 -1.6004
# 5 -8.5564 -6.9547 7.2544 -6.1635 29.0078 -0.3761
# 6 7.0429 9.6680 0.3090 -1.6004 -0.3761 31.5895
#
#
#
# Elastic Compliance Matrix: (Units=1/GPa)
#
#
# Indices 1 2 3 4 5 6 
#
# 1 0.021258 -0.003613 -0.004025 0.006127 0.007671 -0.003193
# 2 -0.003613 0.010470 -0.002441 -0.003421 0.001295 -0.002533
# 3 -0.004025 -0.002441 0.011157 -0.005330 -0.005680 0.001198
# 4 0.006127 -0.003421 -0.005330 0.039314 0.010697 0.001852
# 5 0.007671 0.001295 -0.005680 0.010697 0.040727 -0.001024
# 6 -0.003193 -0.002533 0.001198 0.001852 -0.001024 0.033213
#
#
# Mechanical properties :
#
#
# Convention : Reuss Voigt Hill
#
# Bulk Modulus (GPa) = 44.00000 52.81750 48.40875
# Shear Modulus (GPa) = 27.19280 32.20982 29.70131
#
# Velocity S-wave (km/s) = 3.62751 3.94799 3.79114
# Velocity P-wave (km/s) = 6.23195 6.80743 6.52604
#
# Compressibility (1/GPa) = 0.02272727
#
# Stress axis : x y z
#
# Youngs Moduli (GPa) = 47.04124 95.51199 89.62895
#
# Poissons Ratio (x) = 0.34509 0.36071
# Poissons Ratio (y) = 0.16996 0.21881
# Poissons Ratio (z) = 0.18932 0.23317
#
# Static dielectric constant tensor:
#      x y z
#    x 1.904810 0.148260 -0.118960 
#    y 0.148260 1.895880 -0.059190 
#    z -0.118960 -0.059190 1.835090 
# 
# From -- ./inp_files/521207.got.cif
#   From: 2010.05.17/outbox.cif.g08.bks.cpg/sg2_261_cif.got.tgz:521207.got - 2010.06.03 11:33:40.
