data_PCOD9053304
_publ_section_title
;
Structure prediction by ZEFSAII (Michael W. Deem and Ramdas Pophale) SiO2 
 PCOD9053304
Probable space group: P -1
;
_chemical_formula_sum "Si O2"
_cell_formula_units_Z 14
_cell_length_a 22.933049
_cell_length_b 23.365623
_cell_length_c 9.110413
_cell_angle_alpha 152.578401
_cell_angle_beta 151.624908
_cell_angle_gamma 19.148328
_cell_volume 709.320591
_symmetry_space_group_name_H-M "P -1"
_symmetry_group_IT_number 2
_symmetry_cell_setting 'triclinic'
loop_
_space_group_symop_operation_xyz
x,y,z
-x,-y,-z
loop_
_atom_site_type_symbol
_atom_site_label
_atom_site_fract_x
_atom_site_fract_y
_atom_site_fract_z
Si Si1 0.730818 0.555483 0.705587
Si Si2 0.060550 0.647864 0.585405
Si Si3 0.176418 0.774981 0.353094
Si Si4 0.573511 0.576710 0.680381
Si Si5 0.656666 0.892678 0.224389
Si Si6 0.446626 0.137871 0.573383
Si Si7 0.056592 0.416999 0.271606
O O1 0.786026 0.473589 0.478276
O O2 0.597398 0.574524 0.553314
O O3 0.668523 0.746157 0.987733
O O4 0.915835 0.423968 0.913894
O O5 0.061461 0.528982 0.425564
O O6 0.858319 0.785802 0.377242
O O7 0.099402 0.734262 0.972230
O O8 0.363560 0.696011 0.523719
O O9 0.269166 0.631445 0.371845
O O10 0.000000 0.000000 0.500000
O O11 0.597475 0.694908 0.075941
O O12 0.597836 0.030663 0.537579
O O13 0.500000 0.000000 0.000000
O O14 0.265121 0.215529 0.277921
O O15 0.500000 0.000000 0.500000
O O16 0.000000 0.500000 0.500000
#
# Coordination Sequence:
#
# PCOD9053304 Si02
#       7
#     2   2   2   2   2   2   2
#     4  11  22  40  60  95 132 168 208 262 335 391
#     4  11  22  41  63  87 131 173 210 270 325 379
#     4  11  25  47  70  91 124 175 231 272 316 386
#     4  11  24  44  68  96 129 171 222 274 317 389
#     4  11  22  36  60  99 132 164 205 261 331 396
#     4  12  20  36  62  99 127 160 211 266 325 385
#     4  11  19  36  62  92 130 169 205 257 326 390
#
# _framework density 19.737196999999998
#
# number of rings (size 3 to 8) (size 9 to 14) (size 15 to 20)
#    0.000    0.857    4.286    5.143    0.000    1.714 
#    2.571    0.714    0.000    0.000    0.000    0.000 
#    0.000    0.000    0.000    0.000    0.000    0.000 
#
# Total GULP energy -78101.503108 kJ/mol
# GULP energy per Si atom -5578.678793 kJ/mol
# Density = 1.969227 g / cm^3
# Si number density = 19.737197 Si / 1000 Ang^3
#
#
#
# Elastic Constant Matrix: (Units=GPa)
#
#
# Indices 1 2 3 4 5 6 
#
# 1 144.6055 38.5530 27.4166 10.4210 -1.6280 -13.2617
# 2 38.5530 125.1960 32.1140 -5.5365 9.6218 2.1541
# 3 27.4166 32.1140 54.3158 -5.2055 2.7062 2.1681
# 4 10.4210 -5.5365 -5.2055 32.0880 -6.5247 -8.1104
# 5 -1.6280 9.6218 2.7062 -6.5247 31.4890 1.1723
# 6 -13.2617 2.1541 2.1681 -8.1104 1.1723 24.8685
#
#
#
# Elastic Compliance Matrix: (Units=1/GPa)
#
#
# Indices 1 2 3 4 5 6 
#
# 1 0.008726 -0.001982 -0.003683 -0.002552 0.000685 0.004282
# 2 -0.001982 0.010054 -0.004694 0.000810 -0.002561 -0.001134
# 3 -0.003683 -0.004694 0.023483 0.003592 0.000061 -0.002436
# 4 -0.002552 0.000810 0.003592 0.036533 0.006515 0.009863
# 5 0.000685 -0.002561 0.000061 0.006515 0.033878 0.001110
# 6 0.004282 -0.001134 -0.002436 0.009863 0.001110 0.045970
#
#
# Mechanical properties :
#
#
# Convention : Reuss Voigt Hill
#
# Bulk Modulus (GPa) = 46.40894 57.80939 52.10916
# Shear Modulus (GPa) = 26.80350 32.75802 29.78076
#
# Velocity S-wave (km/s) = 3.68913 4.07837 3.88862
# Velocity P-wave (km/s) = 6.45838 7.17849 6.82793
#
# Compressibility (1/GPa) = 0.02154757
#
# Stress axis : x y z
#
# Youngs Moduli (GPa) = 114.59780 99.46481 42.58354
#
# Poissons Ratio (x) = 0.19711 0.15682
# Poissons Ratio (y) = 0.22710 0.19987
# Poissons Ratio (z) = 0.42202 0.46684
#
# Static dielectric constant tensor:
#      x y z
#    x 1.711300 -0.033820 -0.019030 
#    y -0.033820 1.767010 -0.019990 
#    z -0.019030 -0.019990 1.687160 
# 
# From -- ./inp_files/255954.got.cif
#   From: 2010.05.17/outbox.cif.g08.bks.cpg/sg2_128_cif.got.tgz:255954.got - 2010.06.03 11:33:40.
