data_PCOD9053685
_publ_section_title
;
Structure prediction by ZEFSAII (Michael W. Deem and Ramdas Pophale) SiO2 
 PCOD9053685
Probable space group: P -1
;
_chemical_formula_sum "Si O2"
_cell_formula_units_Z 16
_cell_length_a 17.885841
_cell_length_b 7.993188
_cell_length_c 8.752690
_cell_angle_alpha 107.992729
_cell_angle_beta 105.043213
_cell_angle_gamma 38.274009
_cell_volume 736.886508
_symmetry_space_group_name_H-M "P -1"
_symmetry_group_IT_number 2
_symmetry_cell_setting 'triclinic'
loop_
_space_group_symop_operation_xyz
x,y,z
-x,-y,-z
loop_
_atom_site_type_symbol
_atom_site_label
_atom_site_fract_x
_atom_site_fract_y
_atom_site_fract_z
Si Si1 0.237748 0.241534 0.577526
Si Si2 0.557798 0.692932 0.846175
Si Si3 0.610171 0.715339 0.192867
Si Si4 0.936924 0.275581 0.625608
Si Si5 0.376268 0.809093 0.969737
Si Si6 0.818223 0.982282 0.292745
Si Si7 0.401203 0.972089 0.327276
Si Si8 0.719360 0.448740 0.601107
O O1 0.286777 0.332004 0.713864
O O2 0.136005 0.482286 0.470665
O O3 0.350978 0.976426 0.458216
O O4 0.190473 0.176334 0.649857
O O5 0.433825 0.812788 0.857096
O O6 0.643547 0.478708 0.697109
O O7 0.506587 0.967804 0.836779
O O8 0.636237 0.570442 0.007958
O O9 0.543239 0.718373 0.289251
O O10 0.836305 0.354094 0.698493
O O11 0.000000 0.000000 0.500000
O O12 0.044615 0.205043 0.728872
O O13 0.263908 0.902896 0.867347
O O14 0.500000 0.500000 0.000000
O O15 0.341642 0.985558 0.149620
O O16 0.765220 0.235486 0.437172
O O17 0.361794 0.243635 0.407689
#
# Coordination Sequence:
#
# PCOD9053685 Si02
#       8
#     2   2   2   2   2   2   2   2
#     4  11  20  35  65  92 114 155 203 252 289 347
#     4   9  18  34  55  86 121 156 190 238 290 358
#     4   9  17  33  58  85 120 156 194 232 295 354
#     4   9  21  41  61  86 117 158 203 244 295 355
#     4  11  24  38  58  91 129 156 187 249 306 350
#     4  11  23  39  63  88 121 154 200 253 300 340
#     4   9  21  38  57  87 125 159 197 233 298 364
#     4   9  20  38  63  83 116 159 206 237 288 360
#
# _framework density 21.712976999999999
#
# number of rings (size 3 to 8) (size 9 to 14) (size 15 to 20)
#    0.000    2.250    1.250    1.500    1.750    8.500 
#    0.000    2.500    2.750    2.250    0.000    0.000 
#    0.000    0.000    0.000    0.000    0.000    0.000 
#
# Total GULP energy -89089.990904 kJ/mol
# GULP energy per Si atom -5568.124432 kJ/mol
# Density = 2.166356 g / cm^3
# Si number density = 21.712977 Si / 1000 Ang^3
#
#
#
# Elastic Constant Matrix: (Units=GPa)
#
#
# Indices 1 2 3 4 5 6 
#
# 1 72.3260 0.0933 20.3116 -17.5539 25.9398 -12.5393
# 2 0.0933 50.1763 10.2239 -16.1586 13.4752 2.3883
# 3 20.3116 10.2239 90.0532 -11.0519 35.2240 -16.3874
# 4 -17.5539 -16.1586 -11.0519 28.3750 -8.1824 8.4237
# 5 25.9398 13.4752 35.2240 -8.1824 42.3470 -9.0352
# 6 -12.5393 2.3883 -16.3874 8.4237 -9.0352 31.4375
#
#
#
# Elastic Compliance Matrix: (Units=1/GPa)
#
#
# Indices 1 2 3 4 5 6 
#
# 1 0.022325 0.008204 0.001774 0.014617 -0.014711 0.001062
# 2 0.008204 0.030533 0.000988 0.021451 -0.013138 -0.008055
# 3 0.001774 0.000988 0.017420 0.002888 -0.014303 0.004829
# 4 0.014617 0.021451 0.002888 0.058654 -0.009571 -0.012761
# 5 -0.014711 -0.013138 -0.014303 -0.009571 0.047696 0.003947
# 6 0.001062 -0.008055 0.004829 -0.012761 0.003947 0.039915
#
#
# Mechanical properties :
#
#
# Convention : Reuss Voigt Hill
#
# Bulk Modulus (GPa) = 10.84455 30.42367 20.63411
# Shear Modulus (GPa) = 22.18814 32.56035 27.37424
#
# Velocity S-wave (km/s) = 3.20016 3.87664 3.55453
# Velocity P-wave (km/s) = 4.31973 5.83781 5.13517
#
# Compressibility (1/GPa) = 0.09221223
#
# Stress axis : x y z
#
# Youngs Moduli (GPa) = 44.79216 32.75193 57.40627
#
# Poissons Ratio (x) = -0.26871 -0.10186
# Poissons Ratio (y) = -0.36749 -0.05674
# Poissons Ratio (z) = -0.07948 -0.03237
#
# Static dielectric constant tensor:
#      x y z
#    x 1.978830 0.060280 -0.076980 
#    y 0.060280 1.829050 -0.030020 
#    z -0.076980 -0.030020 1.923280 
# 
# From -- ./inp_files/294447.got.cif
#   From: 2010.05.17/outbox.cif.g08.bks.cpg/sg2_148_cif.got.tgz:294447.got - 2010.06.03 11:33:40.
