data_PCOD9053752
_publ_section_title
;
Structure prediction by ZEFSAII (Michael W. Deem and Ramdas Pophale) SiO2 
 PCOD9053752
Probable space group: P -1
;
_chemical_formula_sum "Si O2"
_cell_formula_units_Z 14
_cell_length_a 9.765636
_cell_length_b 9.759842
_cell_length_c 20.006181
_cell_angle_alpha 137.824549
_cell_angle_beta 148.860960
_cell_angle_gamma 43.326585
_cell_volume 637.764571
_symmetry_space_group_name_H-M "P -1"
_symmetry_group_IT_number 2
_symmetry_cell_setting 'triclinic'
loop_
_space_group_symop_operation_xyz
x,y,z
-x,-y,-z
loop_
_atom_site_type_symbol
_atom_site_label
_atom_site_fract_x
_atom_site_fract_y
_atom_site_fract_z
Si Si1 0.685351 0.733993 0.425113
Si Si2 0.841961 0.246704 0.842221
Si Si3 0.590434 0.327897 0.202389
Si Si4 0.170334 0.859027 0.344158
Si Si5 0.716806 0.872699 0.901907
Si Si6 0.608472 0.320757 0.056563
Si Si7 0.039995 0.500348 0.818178
O O1 0.779484 0.483746 0.357596
O O2 0.493477 0.763797 0.422865
O O3 0.444387 0.821601 0.300066
O O4 0.862353 0.900175 0.561816
O O5 0.032416 0.176986 0.958644
O O6 0.972623 0.156274 0.793009
O O7 0.289802 0.502111 0.133179
O O8 0.538049 0.174151 0.181690
O O9 0.649412 0.243679 0.121974
O O10 0.075891 0.703913 0.298799
O O11 0.810329 0.707543 0.821691
O O12 0.655388 0.121558 0.953847
O O13 0.300068 0.457440 0.962420
O O14 0.824982 0.451783 0.176604
#
# Coordination Sequence:
#
# PCOD9053752 Si02
#       7
#     2   2   2   2   2   2   2
#     4   7  14  27  54  77  89 127 174 196 245 286
#     4   8  15  26  54  70  98 119 163 202 240 278
#     4   9  17  32  49  74 102 122 163 211 235 285
#     4   8  14  29  54  75  89 136 166 198 247 289
#     4  12  18  33  54  72 100 137 163 199 252 293
#     4  11  24  30  49  79 103 130 163 204 249 298
#     4  11  20  37  48  71 108 131 163 202 248 300
#
# _framework density 21.951673
#
# number of rings (size 3 to 8) (size 9 to 14) (size 15 to 20)
#    1.714    0.571    4.286    2.143    0.000    0.000 
#    0.000    0.714    0.000    6.000    0.000    0.000 
#    0.000    0.000    0.000    0.000    0.000    0.000 
#
# Total GULP energy -77952.089377 kJ/mol
# GULP energy per Si atom -5568.006384 kJ/mol
# Density = 2.190171 g / cm^3
# Si number density = 21.951673 Si / 1000 Ang^3
#
#
#
# Elastic Constant Matrix: (Units=GPa)
#
#
# Indices 1 2 3 4 5 6 
#
# 1 47.1872 7.4589 25.4789 6.6131 27.6068 -1.8016
# 2 7.4589 59.4986 17.3535 18.7409 7.4792 -10.9937
# 3 25.4789 17.3535 88.2733 24.6717 26.2834 -1.4681
# 4 6.6131 18.7409 24.6717 32.9138 5.1126 -1.0375
# 5 27.6068 7.4792 26.2834 5.1126 29.8919 4.9098
# 6 -1.8016 -10.9937 -1.4681 -1.0375 4.9098 16.9764
#
#
#
# Elastic Compliance Matrix: (Units=1/GPa)
#
#
# Indices 1 2 3 4 5 6 
#
# 1 0.054066 0.006664 0.002319 -0.006745 -0.056800 0.026269
# 2 0.006664 0.025777 0.001959 -0.014438 -0.015326 0.021120
# 3 0.002319 0.001959 0.019767 -0.013188 -0.019059 0.007930
# 4 -0.006745 -0.014438 -0.013188 0.047033 0.015498 -0.012814
# 5 -0.056800 -0.015326 -0.019059 0.015498 0.111905 -0.049019
# 6 0.026269 0.021120 0.007930 -0.012814 -0.049019 0.089450
#
#
# Mechanical properties :
#
#
# Convention : Reuss Voigt Hill
#
# Bulk Modulus (GPa) = 8.23090 32.83798 20.53444
# Shear Modulus (GPa) = 13.63844 25.60095 19.61969
#
# Velocity S-wave (km/s) = 2.49528 3.41873 2.99284
# Velocity P-wave (km/s) = 3.47269 5.52950 4.61708
#
# Compressibility (1/GPa) = 0.12149335
#
# Stress axis : x y z
#
# Youngs Moduli (GPa) = 18.49606 38.79424 50.59023
#
# Poissons Ratio (x) = -0.25853 -0.11731
# Poissons Ratio (y) = -0.12326 -0.09911
# Poissons Ratio (z) = -0.04289 -0.07600
#
# Static dielectric constant tensor:
#      x y z
#    x 1.812990 -0.031010 0.012380 
#    y -0.031010 1.859270 -0.001800 
#    z 0.012380 -0.001800 1.892920 
# 
# From -- ./inp_files/618338.got.cif
#   From: 2010.05.17/outbox.cif.g08.bks.cpg/sg2_310_cif.got.tgz:618338.got - 2010.06.03 11:33:40.
