data_PCOD9053872
_publ_section_title
;
Structure prediction by ZEFSAII (Michael W. Deem and Ramdas Pophale) SiO2 
 PCOD9053872
Probable space group: P -1
;
_chemical_formula_sum "Si O2"
_cell_formula_units_Z 12
_cell_length_a 13.975597
_cell_length_b 10.500144
_cell_length_c 17.947560
_cell_angle_alpha 33.078227
_cell_angle_beta 158.893278
_cell_angle_gamma 148.147356
_cell_volume 485.957359
_symmetry_space_group_name_H-M "P -1"
_symmetry_group_IT_number 2
_symmetry_cell_setting 'triclinic'
loop_
_space_group_symop_operation_xyz
x,y,z
-x,-y,-z
loop_
_atom_site_type_symbol
_atom_site_label
_atom_site_fract_x
_atom_site_fract_y
_atom_site_fract_z
Si Si1 0.339912 0.711625 0.213915
Si Si2 0.831756 0.494269 0.658757
Si Si3 0.643610 0.478154 0.192734
Si Si4 0.479993 0.996389 0.399149
Si Si5 0.125225 0.832409 0.578296
Si Si6 0.091400 0.006592 0.785186
O O1 0.543031 0.559861 0.414543
O O2 0.129323 0.562032 0.199251
O O3 0.561905 0.962028 0.290710
O O4 0.194982 0.796854 0.998224
O O5 0.777567 0.239000 0.700484
O O6 0.047583 0.714837 0.660430
O O7 0.728389 0.735020 0.171276
O O8 0.894177 0.388889 0.385899
O O9 0.472419 0.251669 0.232885
O O10 0.500000 0.500000 0.000000
O O11 0.500000 0.000000 0.500000
O O12 0.769634 0.962564 0.597811
O O13 0.918745 0.960455 0.327580
#
# Coordination Sequence:
#
# PCOD9053872 Si02
#       6
#     2   2   2   2   2   2
#     4  11  24  44  63  94 129 163 213 254 308 378
#     4  11  23  43  65  92 129 166 206 261 310 368
#     4  11  20  38  64  88 126 160 206 258 306 365
#     4  11  22  40  63  95 126 161 210 258 310 369
#     4  11  22  43  63  92 128 165 208 258 312 366
#     4  11  22  41  65  91 129 167 203 263 311 367
#
# _framework density 24.693525999999999
#
# number of rings (size 3 to 8) (size 9 to 14) (size 15 to 20)
#    0.000    1.000    5.000    4.500    0.000    2.667 
#    3.000    3.333    0.000    0.000    0.000    0.000 
#    0.000    0.000    0.000    0.000    0.000    0.000 
#
# Total GULP energy -67149.557628 kJ/mol
# GULP energy per Si atom -5595.796469 kJ/mol
# Density = 2.463732 g / cm^3
# Si number density = 24.693526 Si / 1000 Ang^3
#
#
#
# Elastic Constant Matrix: (Units=GPa)
#
#
# Indices 1 2 3 4 5 6 
#
# 1 96.5959 45.1164 13.2197 -12.7451 -31.2754 22.6792
# 2 45.1164 126.0181 32.5930 -28.7036 -25.3555 8.1508
# 3 13.2197 32.5930 130.6619 -25.2746 -45.1542 14.9676
# 4 -12.7451 -28.7036 -25.2746 34.8293 7.2147 -9.1014
# 5 -31.2754 -25.3555 -45.1542 7.2147 38.6255 -15.2171
# 6 22.6792 8.1508 14.9676 -9.1014 -15.2171 40.3525
#
#
#
# Elastic Compliance Matrix: (Units=1/GPa)
#
#
# Indices 1 2 3 4 5 6 
#
# 1 0.018305 -0.003600 0.006207 0.003465 0.017267 -0.004570
# 2 -0.003600 0.011884 0.000454 0.008615 0.005119 0.003328
# 3 0.006207 0.000454 0.016990 0.010421 0.023809 0.001447
# 4 0.003465 0.008615 0.010421 0.043523 0.015745 0.008201
# 5 0.017267 0.005119 0.023809 0.015745 0.072599 0.011359
# 6 -0.004570 0.003328 0.001447 0.008201 0.011359 0.032274
#
#
# Mechanical properties :
#
#
# Convention : Reuss Voigt Hill
#
# Bulk Modulus (GPa) = 18.76122 59.45935 39.11029
# Shear Modulus (GPa) = 24.12891 40.25125 32.19008
#
# Velocity S-wave (km/s) = 3.12931 4.04175 3.61443
# Velocity P-wave (km/s) = 4.54652 6.77585 5.76988
#
# Compressibility (1/GPa) = 0.05330143
#
# Stress axis : x y z
#
# Youngs Moduli (GPa) = 54.62948 84.14870 58.85751
#
# Poissons Ratio (x) = 0.30292 -0.36532
# Poissons Ratio (y) = 0.19666 -0.02673
# Poissons Ratio (z) = -0.33908 -0.03822
#
# Static dielectric constant tensor:
#      x y z
#    x 1.962970 0.011910 0.017560 
#    y 0.011910 2.003770 -0.015560 
#    z 0.017560 -0.015560 2.046210 
# 
# From -- ./inp_files/200045.got.cif
#   From: 2010.05.17/outbox.cif.g08.bks.cpg/sg2_101_cif.got.tgz:200045.got - 2010.06.03 11:33:40.
