data_PCOD9053230
_publ_section_title
;
Structure prediction by ZEFSAII (Michael W. Deem and Ramdas Pophale) SiO2 
 PCOD9053230
Probable space group: P -1
;
_chemical_formula_sum "Si O2"
_cell_formula_units_Z 12
_cell_length_a 10.444951
_cell_length_b 8.404213
_cell_length_c 13.893455
_cell_angle_alpha 47.949339
_cell_angle_beta 133.153016
_cell_angle_gamma 138.854376
_cell_volume 554.162759
_symmetry_space_group_name_H-M "P -1"
_symmetry_group_IT_number 2
_symmetry_cell_setting 'triclinic'
loop_
_space_group_symop_operation_xyz
x,y,z
-x,-y,-z
loop_
_atom_site_type_symbol
_atom_site_label
_atom_site_fract_x
_atom_site_fract_y
_atom_site_fract_z
Si Si1 0.535388 0.532026 0.663767
Si Si2 0.241732 0.098680 0.074343
Si Si3 0.266759 0.922566 0.438951
Si Si4 0.598231 0.599533 0.141375
Si Si5 0.277570 0.633264 0.329424
Si Si6 0.912608 0.426044 0.341838
O O1 0.403187 0.385909 0.749972
O O2 0.399965 0.581120 0.496927
O O3 0.633397 0.401121 0.709720
O O4 0.720477 0.816753 0.676909
O O5 0.371009 0.371816 0.082810
O O6 0.296167 0.903871 0.226528
O O7 0.317064 0.150785 0.980670
O O8 0.000000 0.000000 0.000000
O O9 0.197091 0.833803 0.548841
O O10 0.100708 0.668947 0.398887
O O11 0.500000 0.000000 0.500000
O O12 0.742165 0.497508 0.221827
O O13 0.030697 0.429632 0.305661
#
# Coordination Sequence:
#
# PCOD9053230 Si02
#       6
#     2   2   2   2   2   2
#     4  11  23  40  65  98 132 165 208 268 325 371
#     4  11  24  44  70  92 126 170 219 264 314 386
#     4  11  19  34  62  92 124 164 210 260 307 371
#     4  11  23  41  70  97 118 171 224 259 314 382
#     4  11  23  41  63  97 135 166 206 267 324 374
#     4  11  20  35  65  92 120 167 217 253 310 376
#
# _framework density 21.654287
#
# number of rings (size 3 to 8) (size 9 to 14) (size 15 to 20)
#    0.000    1.000    5.000    3.000    0.000    1.333 
#    0.000    2.500    0.000    0.000    0.000    0.000 
#    0.000    0.000    0.000    0.000    0.000    0.000 
#
# Total GULP energy -66962.962048 kJ/mol
# GULP energy per Si atom -5580.246837 kJ/mol
# Density = 2.160500 g / cm^3
# Si number density = 21.654287 Si / 1000 Ang^3
#
#
#
# Elastic Constant Matrix: (Units=GPa)
#
#
# Indices 1 2 3 4 5 6 
#
# 1 142.4630 28.8573 61.8966 -8.1179 -12.9730 21.7867
# 2 28.8573 74.0001 23.3643 3.9863 -0.5522 33.0333
# 3 61.8966 23.3643 94.6841 -17.9126 -26.7224 24.6370
# 4 -8.1179 3.9863 -17.9126 38.7453 19.4232 -3.5387
# 5 -12.9730 -0.5522 -26.7224 19.4232 39.7832 -6.3465
# 6 21.7867 33.0333 24.6370 -3.5387 -6.3465 33.8263
#
#
#
# Elastic Compliance Matrix: (Units=1/GPa)
#
#
# Indices 1 2 3 4 5 6 
#
# 1 0.010108 -0.001775 -0.006401 -0.000195 -0.000984 -0.000320
# 2 -0.001775 0.025317 -0.000169 -0.004184 -0.002175 -0.024303
# 3 -0.006401 -0.000169 0.019903 0.002819 0.008578 -0.008304
# 4 -0.000195 -0.004184 0.002819 0.035285 -0.014970 0.003041
# 5 -0.000984 -0.002175 0.008578 -0.014970 0.038192 0.002110
# 6 -0.000320 -0.024303 -0.008304 0.003041 0.002110 0.060264
#
#
# Mechanical properties :
#
#
# Convention : Reuss Voigt Hill
#
# Bulk Modulus (GPa) = 25.88104 59.93154 42.90629
# Shear Modulus (GPa) = 22.86886 35.60621 29.23754
#
# Velocity S-wave (km/s) = 3.25328 4.05940 3.67849
# Velocity P-wave (km/s) = 5.10780 7.05041 6.15621
#
# Compressibility (1/GPa) = 0.03863833
#
# Stress axis : x y z
#
# Youngs Moduli (GPa) = 98.92840 39.49946 50.24459
#
# Poissons Ratio (x) = 0.07010 0.32163
# Poissons Ratio (y) = 0.17557 0.00847
# Poissons Ratio (z) = 0.63328 0.00666
#
# Static dielectric constant tensor:
#      x y z
#    x 1.870080 -0.005290 -0.068060 
#    y -0.005290 1.826760 0.020270 
#    z -0.068060 0.020270 1.877060 
# 
# From -- ./inp_files/268140.got.cif
#   From: 2010.05.17/outbox.cif.g08.bks.cpg/sg2_135_cif.got.tgz:268140.got - 2010.06.03 11:33:40.
