data_PCOD9053966
_publ_section_title
;
Structure prediction by ZEFSAII (Michael W. Deem and Ramdas Pophale) SiO2 
 PCOD9053966
Probable space group: P -1
;
_chemical_formula_sum "Si O2"
_cell_formula_units_Z 16
_cell_length_a 8.867649
_cell_length_b 24.674744
_cell_length_c 11.609875
_cell_angle_alpha 150.370288
_cell_angle_beta 41.121177
_cell_angle_gamma 149.109537
_cell_volume 644.512686
_symmetry_space_group_name_H-M "P -1"
_symmetry_group_IT_number 2
_symmetry_cell_setting 'triclinic'
loop_
_space_group_symop_operation_xyz
x,y,z
-x,-y,-z
loop_
_atom_site_type_symbol
_atom_site_label
_atom_site_fract_x
_atom_site_fract_y
_atom_site_fract_z
Si Si1 0.878704 0.711705 0.202217
Si Si2 0.764643 0.855130 0.067834
Si Si3 0.757296 0.331760 0.817437
Si Si4 0.189435 0.523777 0.548214
Si Si5 0.347404 0.118932 0.291226
Si Si6 0.098078 0.736282 0.609062
Si Si7 0.475151 0.841817 0.004587
Si Si8 0.474816 0.537334 0.908078
O O1 0.699822 0.765280 0.445130
O O2 0.826178 0.608487 0.144219
O O3 0.719391 0.602468 0.986470
O O4 0.205893 0.833460 0.193916
O O5 0.443704 0.763916 0.139059
O O6 0.741506 0.922611 0.091082
O O7 0.021709 0.973628 0.222125
O O8 0.863303 0.760945 0.810661
O O9 0.863698 0.267358 0.555320
O O10 0.530138 0.335970 0.878988
O O11 0.000000 0.500000 0.000000
O O12 0.350352 0.680269 0.785705
O O13 0.417442 0.499924 0.330640
O O14 0.000000 0.500000 0.500000
O O15 0.005162 0.408887 0.541350
O O16 0.594727 0.148028 0.288950
O O17 0.446279 0.121727 0.107603
#
# Coordination Sequence:
#
# PCOD9053966 Si02
#       8
#     2   2   2   2   2   2   2   2
#     4  11  22  40  72 102 135 175 237 289 340 405
#     4  12  30  47  66 103 148 188 229 285 353 420
#     4  12  27  45  69 104 143 178 226 286 365 413
#     4  12  20  39  73 104 133 170 230 290 345 402
#     4  12  26  48  72 100 137 191 245 280 336 419
#     4  12  25  46  74 103 140 188 230 290 348 414
#     4  12  26  44  71 104 138 183 233 292 350 409
#     4  11  20  39  66 103 135 170 222 293 342 402
#
# _framework density 24.824957000000001
#
# number of rings (size 3 to 8) (size 9 to 14) (size 15 to 20)
#    0.000    0.250    6.250    3.000    1.750    4.000 
#    0.000    0.000    0.000    0.000    0.000    0.000 
#    0.000    0.000    0.000    0.000    0.000    0.000 
#
# Total GULP energy -89539.200165 kJ/mol
# GULP energy per Si atom -5596.200010 kJ/mol
# Density = 2.476845 g / cm^3
# Si number density = 24.824957 Si / 1000 Ang^3
#
#
#
# Elastic Constant Matrix: (Units=GPa)
#
#
# Indices 1 2 3 4 5 6 
#
# 1 53.6065 25.0117 8.0312 -8.2590 15.1808 5.0941
# 2 25.0117 125.0090 19.4780 -19.2447 16.2164 5.8896
# 3 8.0312 19.4780 57.6591 -23.2568 1.6661 -17.2268
# 4 -8.2590 -19.2447 -23.2568 35.2021 -0.2004 6.8940
# 5 15.1808 16.2164 1.6661 -0.2004 37.6052 1.2521
# 6 5.0941 5.8896 -17.2268 6.8940 1.2521 32.5382
#
#
#
# Elastic Compliance Matrix: (Units=1/GPa)
#
#
# Indices 1 2 3 4 5 6 
#
# 1 0.023464 -0.002526 -0.002173 0.003585 -0.008107 -0.004815
# 2 -0.002526 0.010045 -0.002360 0.003988 -0.003073 -0.003399
# 3 -0.002173 -0.002360 0.027893 0.014178 0.000318 0.012518
# 4 0.003585 0.003988 0.014178 0.041242 -0.003496 -0.002380
# 5 -0.008107 -0.003073 0.000318 -0.003496 0.031106 0.001538
# 6 -0.004815 -0.003399 0.012518 -0.002380 0.001538 0.039175
#
#
# Mechanical properties :
#
#
# Convention : Reuss Voigt Hill
#
# Bulk Modulus (GPa) = 21.14804 37.92405 29.53605
# Shear Modulus (GPa) = 24.65432 33.31935 28.98684
#
# Velocity S-wave (km/s) = 3.15481 3.66754 3.42079
# Velocity P-wave (km/s) = 4.66988 5.76578 5.24652
#
# Compressibility (1/GPa) = 0.04728571
#
# Stress axis : x y z
#
# Youngs Moduli (GPa) = 42.61799 99.55025 35.85152
#
# Poissons Ratio (x) = 0.25143 0.07791
# Poissons Ratio (y) = 0.10764 0.08459
# Poissons Ratio (z) = 0.09261 0.23490
#
# Static dielectric constant tensor:
#      x y z
#    x 2.056150 -0.008240 0.002230 
#    y -0.008240 1.994810 -0.009590 
#    z 0.002230 -0.009590 1.923220 
# 
# From -- ./inp_files/407357.got.cif
#   From: 2010.05.17/outbox.cif.g08.bks.cpg/sg2_204_cif.got.tgz:407357.got - 2010.06.03 11:33:40.
