data_PCOD9053189
_publ_section_title
;
Structure prediction by ZEFSAII (Michael W. Deem and Ramdas Pophale) SiO2 
 PCOD9053189
Probable space group: P -1
;
_chemical_formula_sum "Si O2"
_cell_formula_units_Z 14
_cell_length_a 12.522701
_cell_length_b 13.536787
_cell_length_c 15.384675
_cell_angle_alpha 18.920106
_cell_angle_beta 68.856546
_cell_angle_gamma 68.907213
_cell_volume 787.200382
_symmetry_space_group_name_H-M "P -1"
_symmetry_group_IT_number 2
_symmetry_cell_setting 'triclinic'
loop_
_space_group_symop_operation_xyz
x,y,z
-x,-y,-z
loop_
_atom_site_type_symbol
_atom_site_label
_atom_site_fract_x
_atom_site_fract_y
_atom_site_fract_z
Si Si1 0.515697 0.597035 0.190488
Si Si2 0.767652 0.338138 0.915462
Si Si3 0.543089 0.649686 0.775730
Si Si4 0.165629 0.641013 0.452403
Si Si5 0.279114 0.333336 0.517581
Si Si6 0.016566 0.146401 0.970398
Si Si7 0.590147 0.283907 0.596328
O O1 0.508156 0.481211 0.190007
O O2 0.392498 0.520811 0.329690
O O3 0.597123 0.413364 0.388322
O O4 0.541740 0.949293 0.890311
O O5 0.681371 0.579370 0.789536
O O6 0.784968 0.509463 0.676305
O O7 0.895895 0.204310 0.008372
O O8 0.697169 0.029585 0.194088
O O9 0.500000 0.000000 0.500000
O O10 0.500000 0.500000 0.000000
O O11 0.207848 0.390794 0.576834
O O12 0.075291 0.466979 0.679871
O O13 0.282004 0.727535 0.392595
O O14 0.101735 0.916649 0.190055
O O15 0.000000 0.000000 0.000000
O O16 0.500000 0.500000 0.500000
#
# Coordination Sequence:
#
# PCOD9053189 Si02
#       7
#     2   2   2   2   2   2   2
#     4  11  23  38  58  85 120 159 190 243 302 344
#     4  11  22  35  58  83 120 152 187 240 306 342
#     4  11  23  41  64  92 113 145 200 260 304 350
#     4  12  23  33  53  81 121 160 205 221 265 354
#     4  11  19  33  54  83 114 160 192 225 275 353
#     4  12  22  36  53  83 118 165 196 233 284 350
#     4  12  24  36  56  85 123 168 198 228 284 358
#
# _framework density 17.784544
#
# number of rings (size 3 to 8) (size 9 to 14) (size 15 to 20)
#    0.000    0.571    4.286    6.857    2.000    0.000 
#    0.000    0.000    0.000    0.000    0.000   20.000 
#    0.000    0.000    0.000    0.000    0.000    0.000 
#
# Total GULP energy -78081.074472 kJ/mol
# GULP energy per Si atom -5577.219605 kJ/mol
# Density = 1.774407 g / cm^3
# Si number density = 17.784544 Si / 1000 Ang^3
#
#
#
# Elastic Constant Matrix: (Units=GPa)
#
#
# Indices 1 2 3 4 5 6 
#
# 1 128.1323 46.2767 41.4509 -1.4746 10.2756 -1.6321
# 2 46.2767 78.1834 32.2233 5.4010 2.4627 -3.0666
# 3 41.4509 32.2233 141.2883 5.1653 -0.3433 7.7322
# 4 -1.4746 5.4010 5.1653 24.1366 -1.7729 8.8940
# 5 10.2756 2.4627 -0.3433 -1.7729 36.9712 7.4401
# 6 -1.6321 -3.0666 7.7322 8.8940 7.4401 25.1862
#
#
#
# Elastic Compliance Matrix: (Units=1/GPa)
#
#
# Indices 1 2 3 4 5 6 
#
# 1 0.010688 -0.005515 -0.001994 0.001828 -0.002692 0.000783
# 2 -0.005515 0.017678 -0.002474 -0.005597 -0.000901 0.004797
# 3 -0.001994 -0.002474 0.008419 0.000015 0.001495 -0.003462
# 4 0.001828 -0.005597 0.000015 0.050775 0.006403 -0.020389
# 5 -0.002692 -0.000901 0.001495 0.006403 0.030601 -0.012044
# 6 0.000783 0.004797 -0.003462 -0.020389 -0.012044 0.052160
#
#
# Mechanical properties :
#
#
# Convention : Reuss Voigt Hill
#
# Bulk Modulus (GPa) = 59.45565 65.27841 62.36703
# Shear Modulus (GPa) = 25.52399 32.43567 28.97983
#
# Velocity S-wave (km/s) = 3.79248 4.27524 4.04108
# Velocity P-wave (km/s) = 7.25816 7.82017 7.54440
#
# Compressibility (1/GPa) = 0.01681926
#
# Stress axis : x y z
#
# Youngs Moduli (GPa) = 93.56007 56.56836 118.77241
#
# Poissons Ratio (x) = 0.31199 0.23684
# Poissons Ratio (y) = 0.51601 0.29381
# Poissons Ratio (z) = 0.18656 0.13994
#
# Static dielectric constant tensor:
#      x y z
#    x 1.673340 0.009180 0.014510 
#    y 0.009180 1.606270 0.003660 
#    z 0.014510 0.003660 1.614260 
# 
# From -- ./inp_files/65968.got.cif
#   From: 2010.05.17/outbox.cif.g08.bks.cpg/sg2_33_cif.got.tgz:65968.got - 2010.06.03 11:33:40.
