data_PCOD9053659
_publ_section_title
;
Structure prediction by ZEFSAII (Michael W. Deem and Ramdas Pophale) SiO2 
 PCOD9053659
Probable space group: P -1
;
_chemical_formula_sum "Si O2"
_cell_formula_units_Z 16
_cell_length_a 15.153152
_cell_length_b 9.449428
_cell_length_c 11.458892
_cell_angle_alpha 96.355361
_cell_angle_beta 64.668869
_cell_angle_gamma 140.884585
_cell_volume 862.307879
_symmetry_space_group_name_H-M "P -1"
_symmetry_group_IT_number 2
_symmetry_cell_setting 'triclinic'
loop_
_space_group_symop_operation_xyz
x,y,z
-x,-y,-z
loop_
_atom_site_type_symbol
_atom_site_label
_atom_site_fract_x
_atom_site_fract_y
_atom_site_fract_z
Si Si1 0.398246 0.294172 0.138516
Si Si2 0.205031 0.530734 0.847925
Si Si3 0.448590 0.790557 0.066081
Si Si4 0.315667 0.984990 0.841876
Si Si5 0.279958 0.117153 0.643170
Si Si6 0.474949 0.612037 0.676339
Si Si7 0.894534 0.043326 0.879629
Si Si8 0.903013 0.719747 0.869019
O O1 0.461639 0.390911 0.241903
O O2 0.204512 0.082940 0.198212
O O3 0.500000 0.500000 0.000000
O O4 0.449001 0.194658 0.072544
O O5 0.229775 0.728967 0.853560
O O6 0.375327 0.640636 0.757754
O O7 0.079172 0.326584 0.800636
O O8 0.117000 0.380155 0.004465
O O9 0.255367 0.520439 0.137764
O O10 0.517424 0.848477 0.162695
O O11 0.500000 0.000000 0.000000
O O12 0.333711 0.075323 0.713243
O O13 0.211239 0.975472 0.978336
O O14 0.347165 0.352436 0.663123
O O15 0.370192 0.182108 0.478657
O O16 0.080408 0.889151 0.730156
O O17 0.895066 0.880892 0.908803
#
# Coordination Sequence:
#
# PCOD9053659 Si02
#       8
#     2   2   2   2   2   2   2   2
#     4  11  20  35  61  88 117 154 198 253 298 353
#     4  12  21  38  64  90 124 151 210 254 298 354
#     4  11  21  36  59  95 125 152 198 255 308 348
#     4  11  23  37  61  95 122 158 198 258 303 357
#     4  11  25  39  61  86 127 164 203 243 302 370
#     4  11  23  43  59  88 124 166 199 245 306 366
#     4  11  22  34  61  94 119 151 203 258 299 347
#     4  12  21  38  62  93 120 163 197 259 295 356
#
# _framework density 18.554856999999998
#
# number of rings (size 3 to 8) (size 9 to 14) (size 15 to 20)
#    0.000    0.750    6.250    3.000    0.000    0.500 
#    0.000    1.875    0.000    3.750    0.000    0.000 
#    0.000    0.000    0.000    0.000    0.000    0.000 
#
# Total GULP energy -89304.694944 kJ/mol
# GULP energy per Si atom -5581.543434 kJ/mol
# Density = 1.851263 g / cm^3
# Si number density = 18.554857 Si / 1000 Ang^3
#
#
#
# Elastic Constant Matrix: (Units=GPa)
#
#
# Indices 1 2 3 4 5 6 
#
# 1 100.2733 46.8830 38.3194 -12.6893 0.8927 4.5817
# 2 46.8830 109.5179 18.9034 -12.3197 -6.7583 4.1211
# 3 38.3194 18.9034 80.6709 -14.3745 -0.5095 3.4768
# 4 -12.6893 -12.3197 -14.3745 15.6823 7.2030 -1.1968
# 5 0.8927 -6.7583 -0.5095 7.2030 13.5893 2.4556
# 6 4.5817 4.1211 3.4768 -1.1968 2.4556 54.3587
#
#
#
# Elastic Compliance Matrix: (Units=1/GPa)
#
#
# Indices 1 2 3 4 5 6 
#
# 1 0.015305 -0.005381 -0.004743 0.007365 -0.007751 -0.000066
# 2 -0.005381 0.012051 0.000360 0.003200 0.004777 -0.000628
# 3 -0.004743 0.000360 0.017293 0.015546 -0.007089 -0.000071
# 4 0.007365 0.003200 0.015546 0.113997 -0.059336 0.003333
# 5 -0.007751 0.004777 -0.007089 -0.059336 0.108646 -0.005470
# 6 -0.000066 -0.000628 -0.000071 0.003333 -0.005470 0.018775
#
#
# Mechanical properties :
#
#
# Convention : Reuss Voigt Hill
#
# Bulk Modulus (GPa) = 39.80758 55.40819 47.60788
# Shear Modulus (GPa) = 15.92519 29.14981 22.53750
#
# Velocity S-wave (km/s) = 2.93281 3.96789 3.48895
# Velocity P-wave (km/s) = 5.74187 7.13575 6.47642
#
# Compressibility (1/GPa) = 0.02512085
#
# Stress axis : x y z
#
# Youngs Moduli (GPa) = 65.33834 82.98307 57.82615
#
# Poissons Ratio (x) = 0.44649 0.27427
# Poissons Ratio (y) = 0.35155 -0.02079
# Poissons Ratio (z) = 0.30990 -0.02983
#
# Static dielectric constant tensor:
#      x y z
#    x 1.672230 0.057180 0.000660 
#    y 0.057180 1.655690 0.020690 
#    z 0.000660 0.020690 1.612920 
# 
# From -- ./inp_files/175327.got.cif
#   From: 2010.05.17/outbox.cif.g08.bks.cpg/sg2_88_cif.got.tgz:175327.got - 2010.06.03 11:33:40.
