data_PCOD9053126
_publ_section_title
;
Structure prediction by ZEFSAII (Michael W. Deem and Ramdas Pophale) SiO2 
 PCOD9053126
Probable space group: P -1
;
_chemical_formula_sum "Si O2"
_cell_formula_units_Z 14
_cell_length_a 13.910260
_cell_length_b 10.111706
_cell_length_c 19.325939
_cell_angle_alpha 45.036556
_cell_angle_beta 150.924595
_cell_angle_gamma 146.288710
_cell_volume 731.070908
_symmetry_space_group_name_H-M "P -1"
_symmetry_group_IT_number 2
_symmetry_cell_setting 'triclinic'
loop_
_space_group_symop_operation_xyz
x,y,z
-x,-y,-z
loop_
_atom_site_type_symbol
_atom_site_label
_atom_site_fract_x
_atom_site_fract_y
_atom_site_fract_z
Si Si1 0.243405 0.377796 0.841533
Si Si2 0.387239 0.391929 0.653666
Si Si3 0.969030 0.568596 0.669644
Si Si4 0.278144 0.573938 0.649390
Si Si5 0.728437 0.044443 0.169321
Si Si6 0.898811 0.886981 0.740142
Si Si7 0.508460 0.953472 0.439877
O O1 0.313150 0.454115 0.777770
O O2 0.112848 0.497786 0.738710
O O3 0.500000 0.500000 0.000000
O O4 0.057244 0.085927 0.827968
O O5 0.159176 0.318342 0.485295
O O6 0.333013 0.505677 0.638128
O O7 0.668963 0.612901 0.720696
O O8 0.359648 0.174808 0.753149
O O9 0.723324 0.307254 0.631956
O O10 0.141908 0.729267 0.782327
O O11 0.000000 0.500000 0.500000
O O12 0.472307 0.858461 0.666391
O O13 0.922721 0.094399 0.213044
O O14 0.500000 0.000000 0.000000
O O15 0.757476 0.976646 0.581715
O O16 0.500000 0.000000 0.500000
#
# Coordination Sequence:
#
# PCOD9053126 Si02
#       7
#     2   2   2   2   2   2   2
#     4  12  23  39  64  98 135 171 214 267 331 390
#     4  11  22  42  71  92 122 174 224 264 321 384
#     4  11  23  42  64  96 128 168 224 265 314 393
#     4  12  18  37  68  98 128 169 211 271 329 378
#     4  12  27  46  63  92 139 175 211 268 329 388
#     4  11  22  43  70  91 132 171 215 267 325 380
#     4  11  18  38  68  99 124 157 218 279 314 371
#
# _framework density 19.149989999999999
#
# number of rings (size 3 to 8) (size 9 to 14) (size 15 to 20)
#    0.000    0.571    8.571    1.286    0.000    2.857 
#    5.143    1.429    0.000    0.000    0.000    0.000 
#    0.000    0.000    0.000    0.000    0.000    0.000 
#
# Total GULP energy -78007.623232 kJ/mol
# GULP energy per Si atom -5571.973088 kJ/mol
# Density = 1.910640 g / cm^3
# Si number density = 19.149990 Si / 1000 Ang^3
#
#
#
# Elastic Constant Matrix: (Units=GPa)
#
#
# Indices 1 2 3 4 5 6 
#
# 1 85.3302 26.9692 21.2741 10.6276 9.3046 0.3869
# 2 26.9692 107.0587 30.4777 12.7973 -10.7764 -1.2412
# 3 21.2741 30.4777 86.8778 19.8296 -13.2622 7.1411
# 4 10.6276 12.7973 19.8296 27.3998 -5.2847 -6.1902
# 5 9.3046 -10.7764 -13.2622 -5.2847 30.0372 0.2037
# 6 0.3869 -1.2412 7.1411 -6.1902 0.2037 28.4892
#
#
#
# Elastic Compliance Matrix: (Units=1/GPa)
#
#
# Indices 1 2 3 4 5 6 
#
# 1 0.014728 -0.003251 -0.002727 -0.003781 -0.007595 -0.000425
# 2 -0.003251 0.011395 -0.002357 -0.001444 0.003795 0.000790
# 3 -0.002727 -0.002357 0.016772 -0.010378 0.005623 -0.006565
# 4 -0.003781 -0.001444 -0.010378 0.050111 0.004796 0.013444
# 5 -0.007595 0.003795 0.005623 0.004796 0.040335 -0.000387
# 6 -0.000425 0.000790 -0.006565 0.013444 -0.000387 0.039711
#
#
# Mechanical properties :
#
#
# Convention : Reuss Voigt Hill
#
# Bulk Modulus (GPa) = 38.13468 48.52319 43.32893
# Shear Modulus (GPa) = 25.19362 30.55497 27.87430
#
# Velocity S-wave (km/s) = 3.63105 3.99878 3.81934
# Velocity P-wave (km/s) = 6.12668 6.83475 6.49038
#
# Compressibility (1/GPa) = 0.02622285
#
# Stress axis : x y z
#
# Youngs Moduli (GPa) = 67.89914 87.76149 59.62358
#
# Poissons Ratio (x) = 0.28532 0.16261
# Poissons Ratio (y) = 0.22075 0.14054
# Poissons Ratio (z) = 0.18518 0.20687
#
# Static dielectric constant tensor:
#      x y z
#    x 1.274270 0.130470 0.199800 
#    y 0.130470 1.682790 -0.052340 
#    z 0.199800 -0.052340 1.593480 
# 
# From -- ./inp_files/204779.got.cif
#   From: 2010.05.17/outbox.cif.g08.bks.cpg/sg2_103_cif.got.tgz:204779.got - 2010.06.03 11:33:40.
