data_PCOD9053203
_publ_section_title
;
Structure prediction by ZEFSAII (Michael W. Deem and Ramdas Pophale) SiO2 
 PCOD9053203
Probable space group: P -1
;
_chemical_formula_sum "Si O2"
_cell_formula_units_Z 16
_cell_length_a 17.350616
_cell_length_b 8.523485
_cell_length_c 11.199986
_cell_angle_alpha 140.783816
_cell_angle_beta 39.981504
_cell_angle_gamma 114.626282
_cell_volume 605.680077
_symmetry_space_group_name_H-M "P -1"
_symmetry_group_IT_number 2
_symmetry_cell_setting 'triclinic'
loop_
_space_group_symop_operation_xyz
x,y,z
-x,-y,-z
loop_
_atom_site_type_symbol
_atom_site_label
_atom_site_fract_x
_atom_site_fract_y
_atom_site_fract_z
Si Si1 0.014087 0.191865 0.297047
Si Si2 0.328784 0.865304 0.742354
Si Si3 0.784429 0.873839 0.564630
Si Si4 0.953891 0.352456 0.724983
Si Si5 0.578862 0.713388 0.807607
Si Si6 0.314392 0.625345 0.871824
Si Si7 0.465478 0.970411 0.343982
Si Si8 0.179298 0.042745 0.705726
O O1 0.000000 0.500000 0.500000
O O2 0.974627 0.185398 0.479448
O O3 0.905287 0.135230 0.315271
O O4 0.171509 0.993872 0.973595
O O5 0.416992 0.573272 0.404924
O O6 0.334671 0.783498 0.827801
O O7 0.404724 0.061725 0.750706
O O8 0.724758 0.674065 0.570345
O O9 0.805375 0.869240 0.396555
O O10 0.917255 0.773836 0.423083
O O11 0.689431 0.190979 0.900819
O O12 0.832804 0.349716 0.940496
O O13 0.910701 0.678575 0.952001
O O14 0.500000 0.000000 0.000000
O O15 0.532623 0.783860 0.039306
O O16 0.403887 0.298578 0.578309
O O17 0.331873 0.928554 0.507283
#
# Coordination Sequence:
#
# PCOD9053203 Si02
#       8
#     2   2   2   2   2   2   2   2
#     4  12  27  47  67  87 117 172 230 269 305 355
#     4  12  23  39  62  94 135 171 201 252 313 375
#     4  12  19  34  60  96 136 168 197 248 322 389
#     4  11  22  39  62  91 130 164 206 266 319 370
#     4  12  20  33  57  95 138 166 196 235 308 398
#     4  11  19  33  62  94 134 163 190 242 328 386
#     4  11  23  36  59  99 134 166 193 245 324 391
#     4  11  24  39  64  95 125 164 208 258 318 384
#
# _framework density 26.416585999999999
#
# number of rings (size 3 to 8) (size 9 to 14) (size 15 to 20)
#    0.000    0.500    6.250    4.125    0.000    0.500 
#    0.000    0.625    0.000    5.250    0.000    0.000 
#    0.000    0.000    0.000    0.000    0.000    0.000 
#
# Total GULP energy -89493.605655 kJ/mol
# GULP energy per Si atom -5593.350353 kJ/mol
# Density = 2.635646 g / cm^3
# Si number density = 26.416586 Si / 1000 Ang^3
#
#
#
# Elastic Constant Matrix: (Units=GPa)
#
#
# Indices 1 2 3 4 5 6 
#
# 1 94.9671 43.4719 45.9820 -3.4622 -3.0406 38.9044
# 2 43.4719 123.9469 53.1123 -17.5450 -12.3481 46.1825
# 3 45.9820 53.1123 144.1848 3.2290 6.6594 20.9408
# 4 -3.4622 -17.5450 3.2290 47.4475 19.3554 -3.1575
# 5 -3.0406 -12.3481 6.6594 19.3554 51.7794 -4.7053
# 6 38.9044 46.1825 20.9408 -3.1575 -4.7053 57.8358
#
#
#
# Elastic Compliance Matrix: (Units=1/GPa)
#
#
# Indices 1 2 3 4 5 6 
#
# 1 0.016370 -0.000690 -0.003670 0.000476 0.000265 -0.009084
# 2 -0.000690 0.014039 -0.003800 0.004230 0.001395 -0.009026
# 3 -0.003670 -0.003800 0.009335 -0.001539 -0.001573 0.001911
# 4 0.000476 0.004230 -0.001539 0.026200 -0.008779 -0.002425
# 5 0.000265 0.001395 -0.001573 -0.008779 0.023207 0.000686
# 6 -0.009084 -0.009026 0.001911 -0.002425 0.000686 0.029840
#
#
# Mechanical properties :
#
#
# Convention : Reuss Voigt Hill
#
# Bulk Modulus (GPa) = 42.68998 72.02570 57.35784
# Shear Modulus (GPa) = 34.93604 46.11472 40.52538
#
# Velocity S-wave (km/s) = 3.64057 4.18266 3.92099
# Velocity P-wave (km/s) = 5.81954 7.11693 6.50068
#
# Compressibility (1/GPa) = 0.02342470
#
# Stress axis : x y z
#
# Youngs Moduli (GPa) = 61.08672 71.23050 107.12184
#
# Poissons Ratio (x) = 0.04917 0.39312
# Poissons Ratio (y) = 0.04217 0.40701
# Poissons Ratio (z) = 0.22418 0.27064
#
# Static dielectric constant tensor:
#      x y z
#    x 2.135170 0.042060 -0.052190 
#    y 0.042060 2.346010 -0.112860 
#    z -0.052190 -0.112860 2.075620 
# 
# From -- ./inp_files/541163.got.cif
#   From: 2010.05.17/outbox.cif.g08.bks.cpg/sg2_271_cif.got.tgz:541163.got - 2010.06.03 11:33:40.
