data_PCOD9053852
_publ_section_title
;
Structure prediction by ZEFSAII (Michael W. Deem and Ramdas Pophale) SiO2 
 PCOD9053852
Probable space group: P -1
;
_chemical_formula_sum "Si O2"
_cell_formula_units_Z 14
_cell_length_a 17.909974
_cell_length_b 11.359035
_cell_length_c 15.830061
_cell_angle_alpha 25.669142
_cell_angle_beta 149.828633
_cell_angle_gamma 152.283736
_cell_volume 612.304157
_symmetry_space_group_name_H-M "P -1"
_symmetry_group_IT_number 2
_symmetry_cell_setting 'triclinic'
loop_
_space_group_symop_operation_xyz
x,y,z
-x,-y,-z
loop_
_atom_site_type_symbol
_atom_site_label
_atom_site_fract_x
_atom_site_fract_y
_atom_site_fract_z
Si Si1 0.683347 0.485607 0.855639
Si Si2 0.197930 0.445974 0.254030
Si Si3 0.618706 0.961262 0.708376
Si Si4 0.501844 0.711720 0.034983
Si Si5 0.968741 0.149890 0.955050
Si Si6 0.876925 0.018224 0.133188
Si Si7 0.519640 0.848309 0.394372
O O1 0.718610 0.390889 0.859896
O O2 0.526996 0.295135 0.888513
O O3 0.660781 0.784089 0.614782
O O4 0.850485 0.576771 0.015016
O O5 0.359542 0.514586 0.425248
O O6 0.042164 0.111363 0.293098
O O7 0.122058 0.650323 0.089162
O O8 0.607558 0.634929 0.885482
O O9 0.500000 0.000000 0.500000
O O10 0.816630 0.216336 0.737623
O O11 0.544709 0.985962 0.709375
O O12 0.694668 0.805371 0.134935
O O13 0.437081 0.930387 0.786740
O O14 0.900916 0.939684 0.111216
O O15 0.000000 0.000000 0.000000
#
# Coordination Sequence:
#
# PCOD9053852 Si02
#       7
#     2   2   2   2   2   2   2
#     4  11  23  39  64  93 127 165 209 258 307 368
#     4   9  19  39  63  88 128 167 205 253 312 367
#     4  12  22  40  65  92 124 164 206 256 315 373
#     4  11  22  39  65  93 127 161 213 255 312 368
#     4  11  20  38  61  90 125 163 203 255 313 364
#     4   9  20  36  62  91 123 167 206 253 314 366
#     4  11  22  40  65  93 124 168 208 252 316 371
#
# _framework density 22.864453000000001
#
# number of rings (size 3 to 8) (size 9 to 14) (size 15 to 20)
#    0.000    1.429    5.714    0.857    0.000    2.286 
#    0.000    4.286    0.000    0.000    0.000    0.000 
#    0.000    0.000    0.000    0.000    0.000    0.000 
#
# Total GULP energy -78042.624554 kJ/mol
# GULP energy per Si atom -5574.473182 kJ/mol
# Density = 2.281241 g / cm^3
# Si number density = 22.864453 Si / 1000 Ang^3
#
#
#
# Elastic Constant Matrix: (Units=GPa)
#
#
# Indices 1 2 3 4 5 6 
#
# 1 145.9500 19.4917 4.4773 0.2685 -11.7524 1.0908
# 2 19.4917 74.8104 20.4926 27.5386 -6.5053 6.7598
# 3 4.4773 20.4926 80.7951 12.7463 -0.0835 4.4358
# 4 0.2685 27.5386 12.7463 33.1086 -1.8669 -1.6026
# 5 -11.7524 -6.5053 -0.0835 -1.8669 31.5390 5.0319
# 6 1.0908 6.7598 4.4358 -1.6026 5.0319 44.7436
#
#
#
# Elastic Compliance Matrix: (Units=1/GPa)
#
#
# Indices 1 2 3 4 5 6 
#
# 1 0.007374 -0.002493 -0.000121 0.002194 0.002360 0.000022
# 2 -0.002493 0.021564 -0.002432 -0.016993 0.003132 -0.003917
# 3 -0.000121 -0.002432 0.013575 -0.003282 -0.000541 -0.001032
# 4 0.002194 -0.016993 -0.003282 0.045764 -0.000714 0.004559
# 5 0.002360 0.003132 -0.000541 -0.000714 0.033876 -0.004312
# 6 0.000022 -0.003917 -0.001032 0.004559 -0.004312 0.023691
#
#
# Mechanical properties :
#
#
# Convention : Reuss Voigt Hill
#
# Bulk Modulus (GPa) = 30.84469 43.38652 37.11560
# Shear Modulus (GPa) = 29.98608 39.01783 34.50195
#
# Velocity S-wave (km/s) = 3.62535 4.13544 3.88877
# Velocity P-wave (km/s) = 5.57169 6.46678 6.03585
#
# Compressibility (1/GPa) = 0.03242049
#
# Stress axis : x y z
#
# Youngs Moduli (GPa) = 135.61008 46.37280 73.66720
#
# Poissons Ratio (x) = 0.11559 0.00894
# Poissons Ratio (y) = 0.33802 0.17918
# Poissons Ratio (z) = 0.01646 0.11279
#
# Static dielectric constant tensor:
#      x y z
#    x 1.890150 0.002300 0.001150 
#    y 0.002300 1.940510 0.028280 
#    z 0.001150 0.028280 1.863520 
# 
# From -- ./inp_files/332278.got.cif
#   From: 2010.05.17/outbox.cif.g08.bks.cpg/sg2_167_cif.got.tgz:332278.got - 2010.06.03 11:33:40.
