data_PCOD9053425
_publ_section_title
;
Structure prediction by ZEFSAII (Michael W. Deem and Ramdas Pophale) SiO2 
 PCOD9053425
Probable space group: P -1
;
_chemical_formula_sum "Si O2"
_cell_formula_units_Z 14
_cell_length_a 11.268630
_cell_length_b 9.224526
_cell_length_c 11.388025
_cell_angle_alpha 88.863016
_cell_angle_beta 141.228712
_cell_angle_gamma 73.520044
_cell_volume 651.065320
_symmetry_space_group_name_H-M "P -1"
_symmetry_group_IT_number 2
_symmetry_cell_setting 'triclinic'
loop_
_space_group_symop_operation_xyz
x,y,z
-x,-y,-z
loop_
_atom_site_type_symbol
_atom_site_label
_atom_site_fract_x
_atom_site_fract_y
_atom_site_fract_z
Si Si1 0.320471 0.726529 0.616384
Si Si2 0.520137 0.668949 0.010508
Si Si3 0.602408 0.757909 0.315156
Si Si4 0.603540 0.402038 0.700550
Si Si5 0.007463 0.590215 0.343531
Si Si6 0.036750 0.337789 0.963865
Si Si7 0.476349 0.936355 0.611931
O O1 0.512373 0.544325 0.728293
O O2 0.328929 0.846866 0.520547
O O3 0.108308 0.704168 0.466837
O O4 0.380953 0.767397 0.789367
O O5 0.471512 0.761799 0.096755
O O6 0.764249 0.632969 0.177838
O O7 0.500000 0.500000 0.000000
O O8 0.489424 0.718208 0.336906
O O9 0.836013 0.596164 0.490464
O O10 0.607853 0.919813 0.357656
O O11 0.500000 0.500000 0.500000
O O12 0.858625 0.299994 0.885077
O O13 0.025970 0.608316 0.218705
O O14 0.280423 0.198028 0.164590
O O15 0.000000 0.500000 0.000000
O O16 0.500000 0.000000 0.500000
#
# Coordination Sequence:
#
# PCOD9053425 Si02
#       7
#     2   2   2   2   2   2   2
#     4  11  23  43  68  98 139 182 227 282 338 408
#     4  12  23  45  74 102 134 178 245 278 332 416
#     4  11  25  41  69 102 142 175 229 294 337 399
#     4  11  19  39  67  98 130 177 230 281 332 405
#     4  11  23  44  72 100 129 185 240 276 336 415
#     4  12  22  39  71  96 135 184 230 275 346 415
#     4  12  26  45  64 105 147 178 224 291 354 403
#
# _framework density 21.503219000000001
#
# number of rings (size 3 to 8) (size 9 to 14) (size 15 to 20)
#    0.000    0.571    8.571    2.143    0.000    1.143 
#    0.000    0.714    0.000    0.000    0.000    0.000 
#    0.000    0.000    0.000    0.000    0.000    0.000 
#
# Total GULP energy -78176.385969 kJ/mol
# GULP energy per Si atom -5584.027569 kJ/mol
# Density = 2.145428 g / cm^3
# Si number density = 21.503219 Si / 1000 Ang^3
#
#
#
# Elastic Constant Matrix: (Units=GPa)
#
#
# Indices 1 2 3 4 5 6 
#
# 1 83.4475 21.8040 21.5935 18.3566 7.7669 23.0545
# 2 21.8040 100.0554 23.4063 14.8038 0.3157 13.2658
# 3 21.5935 23.4063 91.9512 23.8627 -7.1428 1.0330
# 4 18.3566 14.8038 23.8627 21.3151 3.4014 -4.3504
# 5 7.7669 0.3157 -7.1428 3.4014 51.1191 16.7504
# 6 23.0545 13.2658 1.0330 -4.3504 16.7504 31.0409
#
#
#
# Elastic Compliance Matrix: (Units=1/GPa)
#
#
# Indices 1 2 3 4 5 6 
#
# 1 0.025645 0.002805 0.003494 -0.035488 0.008792 -0.030081
# 2 0.002805 0.013173 0.000475 -0.015365 0.004640 -0.012386
# 3 0.003494 0.000475 0.017431 -0.026247 0.007241 -0.010964
# 4 -0.035488 -0.015365 -0.026247 0.136391 -0.029877 0.069035
# 5 0.008792 0.004640 0.007241 -0.029877 0.030902 -0.029617
# 6 -0.030081 -0.012386 -0.010964 0.069035 -0.029617 0.085872
#
#
# Mechanical properties :
#
#
# Convention : Reuss Voigt Hill
#
# Bulk Modulus (GPa) = 14.32707 45.45130 29.88918
# Shear Modulus (GPa) = 15.66753 34.60503 25.13628
#
# Velocity S-wave (km/s) = 2.70221 4.01595 3.42271
# Velocity P-wave (km/s) = 4.05132 6.53351 5.43599
#
# Compressibility (1/GPa) = 0.06979794
#
# Stress axis : x y z
#
# Youngs Moduli (GPa) = 38.99364 75.91311 57.36944
#
# Poissons Ratio (x) = -0.21295 -0.20046
# Poissons Ratio (y) = -0.10939 -0.02725
# Poissons Ratio (z) = -0.13625 -0.03606
#
# Static dielectric constant tensor:
#      x y z
#    x 1.857890 -0.013930 0.017660 
#    y -0.013930 1.797060 0.030730 
#    z 0.017660 0.030730 1.815300 
# 
# From -- ./inp_files/417445.got.cif
#   From: 2010.05.17/outbox.cif.g08.bks.cpg/sg2_209_cif.got.tgz:417445.got - 2010.06.03 11:33:40.
