data_PCOD9053617
_publ_section_title
;
Structure prediction by ZEFSAII (Michael W. Deem and Ramdas Pophale) SiO2 
 PCOD9053617
Probable space group: P -1
;
_chemical_formula_sum "Si O2"
_cell_formula_units_Z 14
_cell_length_a 10.254465
_cell_length_b 14.759312
_cell_length_c 14.481383
_cell_angle_alpha 19.288158
_cell_angle_beta 50.476042
_cell_angle_gamma 59.058468
_cell_volume 525.265060
_symmetry_space_group_name_H-M "P -1"
_symmetry_group_IT_number 2
_symmetry_cell_setting 'triclinic'
loop_
_space_group_symop_operation_xyz
x,y,z
-x,-y,-z
loop_
_atom_site_type_symbol
_atom_site_label
_atom_site_fract_x
_atom_site_fract_y
_atom_site_fract_z
Si Si1 0.827979 0.582471 0.735088
Si Si2 0.794802 0.436186 0.087576
Si Si3 0.745730 0.986434 0.685252
Si Si4 0.611568 0.917045 0.437610
Si Si5 0.947993 0.200972 0.755663
Si Si6 0.595602 0.783295 0.371970
Si Si7 0.449128 0.241729 0.845972
O O1 0.697292 0.773614 0.615230
O O2 0.971260 0.728065 0.451154
O O3 0.902297 0.552196 0.832418
O O4 0.704524 0.262584 0.063778
O O5 0.603803 0.214443 0.344208
O O6 0.863173 0.241302 0.316416
O O7 0.744632 0.695834 0.910602
O O8 0.578529 0.113762 0.645863
O O9 0.744444 0.898157 0.879602
O O10 0.664823 0.810930 0.418519
O O11 0.000000 0.500000 0.500000
O O12 0.738986 0.011610 0.023535
O O13 0.000000 0.000000 0.000000
O O14 0.557460 0.452897 0.677382
O O15 0.500000 0.500000 0.500000
O O16 0.500000 0.000000 0.000000
#
# Coordination Sequence:
#
# PCOD9053617 Si02
#       7
#     2   2   2   2   2   2   2
#     4  12  22  37  50  86 114 167 211 220 265 349
#     4  11  22  33  57  80 120 159 193 241 284 337
#     4  11  21  38  60  86 119 148 181 250 315 335
#     4  11  20  34  55  78 120 154 196 240 280 330
#     4  12  25  37  58  81 123 172 204 229 272 341
#     4  11  23  38  61  85 127 154 195 241 300 344
#     4  12  23  39  64  92 115 143 191 253 319 368
#
# _framework density 26.653209
#
# number of rings (size 3 to 8) (size 9 to 14) (size 15 to 20)
#    0.000    0.571    7.143    3.429    2.000    0.000 
#    0.000    0.000    0.000    0.000    0.000    6.000 
#    0.000    0.000    0.000    0.000    0.000    0.000 
#
# Total GULP energy -78155.923581 kJ/mol
# GULP energy per Si atom -5582.565970 kJ/mol
# Density = 2.659255 g / cm^3
# Si number density = 26.653209 Si / 1000 Ang^3
#
#
#
# Elastic Constant Matrix: (Units=GPa)
#
#
# Indices 1 2 3 4 5 6 
#
# 1 59.4034 28.6504 25.9211 -1.7304 17.1342 15.7541
# 2 28.6504 201.2188 100.6440 8.3103 5.0937 30.2534
# 3 25.9211 100.6440 233.4615 -11.0703 21.1830 3.5297
# 4 -1.7304 8.3103 -11.0703 87.8644 0.4052 16.1607
# 5 17.1342 5.0937 21.1830 0.4052 44.5261 10.9170
# 6 15.7541 30.2534 3.5297 16.1607 10.9170 27.6934
#
#
#
# Elastic Compliance Matrix: (Units=1/GPa)
#
#
# Indices 1 2 3 4 5 6 
#
# 1 0.022295 -0.000796 -0.001385 0.002386 -0.005155 -0.010997
# 2 -0.000796 0.008249 -0.003610 0.000532 0.003472 -0.009777
# 3 -0.001385 -0.003610 0.006221 0.000170 -0.003273 0.005129
# 4 0.002386 0.000532 0.000170 0.013275 0.001328 -0.010230
# 5 -0.005155 0.003472 -0.003273 0.001328 0.028659 -0.012516
# 6 -0.010997 -0.009777 0.005129 -0.010230 -0.012516 0.063297
#
#
# Mechanical properties :
#
#
# Convention : Reuss Voigt Hill
#
# Bulk Modulus (GPa) = 39.70959 89.39051 64.55005
# Shear Modulus (GPa) = 30.86971 54.60800 42.73885
#
# Velocity S-wave (km/s) = 3.40692 4.53132 4.00874
# Velocity P-wave (km/s) = 5.51427 7.80950 6.76001
#
# Compressibility (1/GPa) = 0.02518283
#
# Stress axis : x y z
#
# Youngs Moduli (GPa) = 44.85225 121.23196 160.75536
#
# Poissons Ratio (x) = 0.09655 0.22264
# Poissons Ratio (y) = 0.03572 0.58026
# Poissons Ratio (z) = 0.06212 0.43759
#
# Static dielectric constant tensor:
#      x y z
#    x 2.276670 -0.035530 0.004350 
#    y -0.035530 2.117800 0.129660 
#    z 0.004350 0.129660 2.178930 
# 
# From -- ./inp_files/533110.got.cif
#   From: 2010.05.17/outbox.cif.g08.bks.cpg/sg2_267_cif.got.tgz:533110.got - 2010.06.03 11:33:40.
