data_PCOD9053773
_publ_section_title
;
Structure prediction by ZEFSAII (Michael W. Deem and Ramdas Pophale) SiO2 
 PCOD9053773
Probable space group: P -1
;
_chemical_formula_sum "Si O2"
_cell_formula_units_Z 14
_cell_length_a 9.706012
_cell_length_b 10.826985
_cell_length_c 10.661366
_cell_angle_alpha 70.987939
_cell_angle_beta 61.200816
_cell_angle_gamma 119.904646
_cell_volume 567.705824
_symmetry_space_group_name_H-M "P -1"
_symmetry_group_IT_number 2
_symmetry_cell_setting 'triclinic'
loop_
_space_group_symop_operation_xyz
x,y,z
-x,-y,-z
loop_
_atom_site_type_symbol
_atom_site_label
_atom_site_fract_x
_atom_site_fract_y
_atom_site_fract_z
Si Si1 0.296786 0.174281 0.788129
Si Si2 0.603724 0.147465 0.755495
Si Si3 0.862043 0.453930 0.740074
Si Si4 0.722135 0.884288 0.476184
Si Si5 0.401386 0.460826 0.286723
Si Si6 0.372741 0.848384 0.732568
Si Si7 0.109681 0.360895 0.099244
O O1 0.379990 0.106103 0.857546
O O2 0.329575 0.161693 0.633457
O O3 0.467774 0.406394 0.684986
O O4 0.000000 0.000000 0.000000
O O5 0.711940 0.229319 0.823550
O O6 0.848551 0.365719 0.497167
O O7 0.512219 0.973566 0.760618
O O8 0.732845 0.499901 0.722972
O O9 0.863019 0.494933 0.870550
O O10 0.790977 0.785882 0.526706
O O11 0.453300 0.753474 0.698547
O O12 0.936495 0.135052 0.320883
O O13 0.637901 0.556625 0.071913
O O14 0.084295 0.715069 0.899482
O O15 0.500000 0.000000 0.500000
#
# Coordination Sequence:
#
# PCOD9053773 Si02
#       7
#     2   2   2   2   2   2   2
#     4  11  19  37  62  88 115 150 192 241 288 337
#     4  10  18  35  60  87 110 156 197 228 288 343
#     4  10  21  35  58  85 118 155 193 231 284 351
#     4  11  21  36  60  88 117 148 188 245 287 336
#     4  11  24  35  57  91 117 151 192 233 292 342
#     4  10  17  35  62  84 111 152 193 237 285 334
#     4  11  20  40  60  86 114 154 194 237 283 339
#
# _framework density 24.66066
#
# number of rings (size 3 to 8) (size 9 to 14) (size 15 to 20)
#    0.000    1.429    7.143    0.857    0.000    1.143 
#    0.000    0.000    0.000    1.714    0.000    0.000 
#    0.000    0.000    0.000    0.000    0.000    0.000 
#
# Total GULP energy -78162.514312 kJ/mol
# GULP energy per Si atom -5583.036737 kJ/mol
# Density = 2.460453 g / cm^3
# Si number density = 24.660660 Si / 1000 Ang^3
#
#
#
# Elastic Constant Matrix: (Units=GPa)
#
#
# Indices 1 2 3 4 5 6 
#
# 1 62.4528 1.5396 7.5064 -7.5396 -14.2685 -6.8669
# 2 1.5396 170.6997 32.5060 9.2882 2.8435 11.8462
# 3 7.5064 32.5060 53.5903 8.8390 -19.7164 7.9364
# 4 -7.5396 9.2882 8.8390 43.8553 -0.3986 8.3592
# 5 -14.2685 2.8435 -19.7164 -0.3986 36.4308 3.2028
# 6 -6.8669 11.8462 7.9364 8.3592 3.2028 43.2188
#
#
#
# Elastic Compliance Matrix: (Units=1/GPa)
#
#
# Indices 1 2 3 4 5 6 
#
# 1 0.018217 -0.000467 -0.000608 0.003023 0.006695 0.002053
# 2 -0.000467 0.007004 -0.005327 -0.000394 -0.003557 -0.000676
# 3 -0.000608 -0.005327 0.029311 -0.003880 0.016393 -0.004483
# 4 0.003023 -0.000394 -0.003880 0.024848 -0.000307 -0.003483
# 5 0.006695 -0.003557 0.016393 -0.000307 0.039555 -0.003843
# 6 0.002053 -0.000676 -0.004483 -0.003483 -0.003843 0.025431
#
#
# Mechanical properties :
#
#
# Convention : Reuss Voigt Hill
#
# Bulk Modulus (GPa) = 23.96422 41.09410 32.52916
# Shear Modulus (GPa) = 29.22582 41.04702 35.13642
#
# Velocity S-wave (km/s) = 3.44629 4.08422 3.77874
# Velocity P-wave (km/s) = 5.05713 6.24029 5.67960
#
# Compressibility (1/GPa) = 0.04172887
#
# Stress axis : x y z
#
# Youngs Moduli (GPa) = 54.89397 142.76603 34.11635
#
# Poissons Ratio (x) = 0.06668 0.02074
# Poissons Ratio (y) = 0.02564 0.18174
# Poissons Ratio (z) = 0.03337 0.76052
#
# Static dielectric constant tensor:
#      x y z
#    x 1.976620 -0.022740 0.102610 
#    y -0.022740 2.029620 -0.055800 
#    z 0.102610 -0.055800 2.017220 
# 
# From -- ./inp_files/389139.got.cif
#   From: 2010.05.17/outbox.cif.g08.bks.cpg/sg2_195_cif.got.tgz:389139.got - 2010.06.03 11:33:40.
