data_PCOD9053838
_publ_section_title
;
Structure prediction by ZEFSAII (Michael W. Deem and Ramdas Pophale) SiO2 
 PCOD9053838
Probable space group: P -1
;
_chemical_formula_sum "Si O2"
_cell_formula_units_Z 14
_cell_length_a 19.923222
_cell_length_b 13.438055
_cell_length_c 9.083727
_cell_angle_alpha 125.149541
_cell_angle_beta 146.659644
_cell_angle_gamma 33.352682
_cell_volume 672.191802
_symmetry_space_group_name_H-M "P -1"
_symmetry_group_IT_number 2
_symmetry_cell_setting 'triclinic'
loop_
_space_group_symop_operation_xyz
x,y,z
-x,-y,-z
loop_
_atom_site_type_symbol
_atom_site_label
_atom_site_fract_x
_atom_site_fract_y
_atom_site_fract_z
Si Si1 0.639645 0.476067 0.132312
Si Si2 0.932245 0.045001 0.241064
Si Si3 0.918361 0.511007 0.208168
Si Si4 0.185175 0.134031 0.199915
Si Si5 0.048362 0.286064 0.768898
Si Si6 0.294078 0.893387 0.693230
Si Si7 0.477280 0.894963 0.774433
O O1 0.823907 0.408424 0.482865
O O2 0.766925 0.277246 0.104204
O O3 0.500000 0.500000 0.000000
O O4 0.492587 0.682766 0.952968
O O5 0.131289 0.915219 0.405419
O O6 0.845477 0.982199 0.994974
O O7 0.000000 0.000000 0.500000
O O8 0.955200 0.589217 0.225377
O O9 0.000000 0.500000 0.500000
O O10 0.027800 0.306467 0.176672
O O11 0.688474 0.668672 0.945291
O O12 0.390198 0.993362 0.539182
O O13 0.148978 0.229757 0.062060
O O14 0.184721 0.081213 0.754848
O O15 0.341856 0.914236 0.641725
O O16 0.500000 0.000000 0.000000
#
# Coordination Sequence:
#
# PCOD9053838 Si02
#       7
#     2   2   2   2   2   2   2
#     4  11  20  37  71  99 136 173 218 275 349 395
#     4  11  22  45  67 104 140 170 222 292 342 399
#     4  12  25  46  68  96 143 185 227 277 345 408
#     4  12  25  44  70 101 137 177 234 286 339 405
#     4  11  23  41  68 106 133 178 227 289 339 401
#     4  11  22  43  73  97 141 181 223 277 351 402
#     4  12  26  46  67  96 141 187 226 280 337 411
#
# _framework density 20.827387999999999
#
# number of rings (size 3 to 8) (size 9 to 14) (size 15 to 20)
#    0.000    0.571    7.143    1.286    0.000    5.714 
#    0.000    1.429    0.000    0.000    0.000    0.000 
#    0.000    0.000    0.000    0.000    0.000    0.000 
#
# Total GULP energy -78223.132141 kJ/mol
# GULP energy per Si atom -5587.366581 kJ/mol
# Density = 2.077998 g / cm^3
# Si number density = 20.827388 Si / 1000 Ang^3
#
#
#
# Elastic Constant Matrix: (Units=GPa)
#
#
# Indices 1 2 3 4 5 6 
#
# 1 100.2623 -19.6288 36.6000 -5.6829 0.7242 4.4478
# 2 -19.6288 84.1791 19.5601 -12.8561 -8.8580 -0.8076
# 3 36.6000 19.5601 94.2441 -10.5321 -19.5272 -3.4487
# 4 -5.6829 -12.8561 -10.5321 44.4278 -2.0191 4.6109
# 5 0.7242 -8.8580 -19.5272 -2.0191 32.1240 -3.9859
# 6 4.4478 -0.8076 -3.4487 4.6109 -3.9859 31.5071
#
#
#
# Elastic Compliance Matrix: (Units=1/GPa)
#
#
# Indices 1 2 3 4 5 6 
#
# 1 0.013685 0.004650 -0.006954 0.001624 -0.003556 -0.003262
# 2 0.004650 0.014694 -0.004120 0.004058 0.001557 -0.001128
# 3 -0.006954 -0.004120 0.016504 0.001892 0.009622 0.003623
# 4 0.001624 0.004058 0.001892 0.024817 0.003405 -0.003119
# 5 -0.003556 0.001557 0.009622 0.003405 0.038441 0.005960
# 6 -0.003262 -0.001128 0.003623 -0.003119 0.005960 0.033777
#
#
# Mechanical properties :
#
#
# Convention : Reuss Voigt Hill
#
# Bulk Modulus (GPa) = 31.21808 39.08312 35.15060
# Shear Modulus (GPa) = 30.22106 37.75539 33.98822
#
# Velocity S-wave (km/s) = 3.81336 4.26229 4.04406
# Velocity P-wave (km/s) = 5.86605 6.55963 6.22251
#
# Compressibility (1/GPa) = 0.03203272
#
# Stress axis : x y z
#
# Youngs Moduli (GPa) = 73.07159 68.05571 60.59038
#
# Poissons Ratio (x) = -0.31643 0.42137
# Poissons Ratio (y) = -0.33975 0.24966
# Poissons Ratio (z) = 0.50817 0.28042
#
# Static dielectric constant tensor:
#      x y z
#    x 1.747340 0.032000 -0.010040 
#    y 0.032000 1.732180 0.019090 
#    z -0.010040 0.019090 1.710500 
# 
# From -- ./inp_files/305959.got.cif
#   From: 2010.05.17/outbox.cif.g08.bks.cpg/sg2_153_cif.got.tgz:305959.got - 2010.06.03 11:33:40.
