data_PCOD9053216
_publ_section_title
;
Structure prediction by ZEFSAII (Michael W. Deem and Ramdas Pophale) SiO2 
 PCOD9053216
Probable space group: P -1
;
_chemical_formula_sum "Si O2"
_cell_formula_units_Z 16
_cell_length_a 25.973207
_cell_length_b 25.376014
_cell_length_c 11.262409
_cell_angle_alpha 27.487596
_cell_angle_beta 28.965526
_cell_angle_gamma 11.080220
_cell_volume 657.659161
_symmetry_space_group_name_H-M "P -1"
_symmetry_group_IT_number 2
_symmetry_cell_setting 'triclinic'
loop_
_space_group_symop_operation_xyz
x,y,z
-x,-y,-z
loop_
_atom_site_type_symbol
_atom_site_label
_atom_site_fract_x
_atom_site_fract_y
_atom_site_fract_z
Si Si1 0.117465 0.113734 0.524610
Si Si2 0.611323 0.658632 0.582257
Si Si3 0.247818 0.362682 0.045404
Si Si4 0.941297 0.201113 0.471767
Si Si5 0.219939 0.248473 0.923615
Si Si6 0.544687 0.349098 0.626492
Si Si7 0.175512 0.433942 0.316864
Si Si8 0.354413 0.930275 0.807877
O O1 0.903633 0.317568 0.655492
O O2 0.038126 0.094464 0.626317
O O3 0.421341 0.798048 0.583935
O O4 0.123383 0.248002 0.214195
O O5 0.654487 0.753505 0.290506
O O6 0.457235 0.786950 0.759809
O O7 0.271952 0.367994 0.122803
O O8 0.032006 0.482287 0.195912
O O9 0.536738 0.056205 0.022804
O O10 0.108232 0.615066 0.779652
O O11 0.678524 0.424813 0.479993
O O12 0.180693 0.931982 0.438950
O O13 0.500000 0.500000 0.500000
O O14 0.563186 0.232677 0.924097
O O15 0.446435 0.156286 0.401081
O O16 0.000000 0.500000 0.500000
O O17 0.958645 0.732156 0.218871
#
# Coordination Sequence:
#
# PCOD9053216 Si02
#       8
#     2   2   2   2   2   2   2   2
#     4  11  23  38  63  84 125 173 212 261 295 365
#     4  12  23  39  56  89 128 172 217 249 309 359
#     4  11  19  34  56  84 125 156 205 253 305 358
#     4  11  22  42  65  93 121 155 213 257 328 375
#     4  11  21  34  56  88 119 172 217 255 290 352
#     4  12  24  44  71  97 122 157 206 276 337 382
#     4  12  22  36  57  89 130 176 200 244 314 382
#     4  12  24  41  61  92 133 164 210 263 312 393
#
# _framework density 24.328713
#
# number of rings (size 3 to 8) (size 9 to 14) (size 15 to 20)
#    0.000    0.500    2.500    9.000    0.000    0.000 
#    0.000    0.000    0.000    4.500    0.000    0.000 
#    0.000    0.000    0.000    0.000    0.000    0.000 
#
# Total GULP energy -89199.461416 kJ/mol
# GULP energy per Si atom -5574.966338 kJ/mol
# Density = 2.427334 g / cm^3
# Si number density = 24.328713 Si / 1000 Ang^3
#
#
#
# Elastic Constant Matrix: (Units=GPa)
#
#
# Indices 1 2 3 4 5 6 
#
# 1 -39.3850 32.3204 -60.0881 -10.8813 16.7463 2.1145
# 2 32.3204 172.2816 9.0847 22.7576 17.1340 19.2099
# 3 -60.0881 9.0847 -22.5170 -1.6023 12.0085 5.1220
# 4 -10.8813 22.7576 -1.6023 20.8699 14.6433 0.6576
# 5 16.7463 17.1340 12.0085 14.6433 27.3363 -0.2801
# 6 2.1145 19.2099 5.1220 0.6576 -0.2801 68.2818
#
#
#
# Elastic Compliance Matrix: (Units=1/GPa)
#
#
# Indices 1 2 3 4 5 6 
#
# 1 0.009152 -0.001356 -0.022370 0.001453 0.004310 0.001780
# 2 -0.001356 0.007124 0.005060 -0.006230 -0.002543 -0.002292
# 3 -0.022370 0.005060 0.025025 -0.023786 0.012257 -0.002329
# 4 0.001453 -0.006230 -0.023786 0.070639 -0.024348 0.002712
# 5 0.004310 -0.002543 0.012257 -0.024348 0.043194 0.000074
# 6 0.001780 -0.002292 -0.002329 0.002712 0.000074 0.015384
#
#
# Mechanical properties :
#
#
# Convention : Reuss Voigt Hill
#
# Bulk Modulus (GPa) = 252.03637 8.11263 130.07450
# Shear Modulus (GPa) = 23.90369 31.90178 27.90273
#
# Velocity S-wave (km/s) = 3.13793 3.62509 3.39027
# Velocity P-wave (km/s) = 10.81434 4.56766 8.30101
#
# Compressibility (1/GPa) = 0.00396768
#
# Stress axis : x y z
#
# Youngs Moduli (GPa) = 109.26576 140.37927 39.95983
#
# Poissons Ratio (x) = 0.19041 0.89389
# Poissons Ratio (y) = 0.14821 -0.20218
# Poissons Ratio (z) = 2.44425 -0.71027
#
# Static dielectric constant tensor:
#      x y z
#    x 2.221030 -0.115660 0.222850 
#    y -0.115660 1.899200 0.018420 
#    z 0.222850 0.018420 2.001260 
# 
# From -- ./inp_files/477199.got.cif
#   From: 2010.05.17/outbox.cif.g08.bks.cpg/sg2_239_cif.got.tgz:477199.got - 2010.06.03 11:33:40.
