data_PCOD9053077
_publ_section_title
;
Structure prediction by ZEFSAII (Michael W. Deem and Ramdas Pophale) SiO2 
 PCOD9053077
Probable space group: P -1
;
_chemical_formula_sum "Si O2"
_cell_formula_units_Z 14
_cell_length_a 20.716216
_cell_length_b 12.311306
_cell_length_c 16.316468
_cell_angle_alpha 140.842700
_cell_angle_beta 165.828594
_cell_angle_gamma 35.549175
_cell_volume 589.691706
_symmetry_space_group_name_H-M "P -1"
_symmetry_group_IT_number 2
_symmetry_cell_setting 'triclinic'
loop_
_space_group_symop_operation_xyz
x,y,z
-x,-y,-z
loop_
_atom_site_type_symbol
_atom_site_label
_atom_site_fract_x
_atom_site_fract_y
_atom_site_fract_z
Si Si1 0.234227 0.936545 0.631253
Si Si2 0.039897 0.565048 0.801154
Si Si3 0.541242 0.111899 0.709964
Si Si4 0.692214 0.163109 0.690305
Si Si5 0.835267 0.992909 0.597542
Si Si6 0.658911 0.678165 0.250011
Si Si7 0.815839 0.292135 0.420243
O O1 0.185569 0.917220 0.464229
O O2 0.269630 0.757778 0.625847
O O3 0.968266 0.101947 0.444593
O O4 0.500000 0.000000 0.000000
O O5 0.767044 0.734644 0.606615
O O6 0.935471 0.551829 0.570997
O O7 0.043379 0.387477 0.750708
O O8 0.290482 0.639946 0.154163
O O9 0.529879 0.908280 0.581737
O O10 0.537968 0.188344 0.842855
O O11 0.830767 0.098551 0.018211
O O12 0.668651 0.134396 0.547136
O O13 0.000000 0.000000 0.000000
O O14 0.735545 0.820690 0.371075
O O15 0.475890 0.589792 0.921405
#
# Coordination Sequence:
#
# PCOD9053077 Si02
#       7
#     2   2   2   2   2   2   2
#     4  11  23  37  57  79 102 147 189 220 261 321
#     4   9  19  37  52  83 114 143 169 218 280 317
#     4   8  18  32  55  81 110 141 171 215 272 309
#     4   9  18  34  54  80 114 141 176 215 265 326
#     4  11  18  35  58  82 106 142 186 217 260 320
#     4   9  18  33  55  82 112 135 172 223 272 319
#     4  11  21  38  56  76 116 142 175 226 271 315
#
# _framework density 23.741219000000001
#
# number of rings (size 3 to 8) (size 9 to 14) (size 15 to 20)
#    0.857    1.429    4.286    0.429    0.000    2.286 
#    2.571    2.143    0.000    1.714    0.000    0.000 
#    0.000    0.000    0.000    0.000    0.000    0.000 
#
# Total GULP energy -78081.984369 kJ/mol
# GULP energy per Si atom -5577.284598 kJ/mol
# Density = 2.368718 g / cm^3
# Si number density = 23.741219 Si / 1000 Ang^3
#
#
#
# Elastic Constant Matrix: (Units=GPa)
#
#
# Indices 1 2 3 4 5 6 
#
# 1 105.3530 27.2769 -11.3603 1.9040 -13.8052 11.9283
# 2 27.2769 52.8662 14.7345 23.2753 1.3758 8.7009
# 3 -11.3603 14.7345 45.2263 16.8483 4.6856 1.5371
# 4 1.9040 23.2753 16.8483 33.4052 3.3550 15.7787
# 5 -13.8052 1.3758 4.6856 3.3550 25.2673 2.5327
# 6 11.9283 8.7009 1.5371 15.7787 2.5327 27.8277
#
#
#
# Elastic Compliance Matrix: (Units=1/GPa)
#
#
# Indices 1 2 3 4 5 6 
#
# 1 0.014490 -0.010879 0.003686 0.008035 0.007587 -0.008259
# 2 -0.010879 0.035796 -0.004691 -0.025589 -0.004492 0.008648
# 3 0.003686 -0.004691 0.030252 -0.015353 -0.002014 0.007105
# 4 0.008035 -0.025589 -0.015353 0.071490 0.002684 -0.035375
# 5 0.007587 -0.004492 -0.002014 0.002684 0.044718 -0.007328
# 6 -0.008259 0.008648 0.007105 -0.035375 -0.007328 0.057105
#
#
# Mechanical properties :
#
#
# Convention : Reuss Voigt Hill
#
# Bulk Modulus (GPa) = 17.61505 29.41641 23.51573
# Shear Modulus (GPa) = 16.86106 28.81967 22.84037
#
# Velocity S-wave (km/s) = 2.66785 3.48790 3.10507
# Velocity P-wave (km/s) = 4.11408 5.35144 4.77303
#
# Compressibility (1/GPa) = 0.05676964
#
# Stress axis : x y z
#
# Youngs Moduli (GPa) = 69.01253 27.93640 33.05592
#
# Poissons Ratio (x) = 0.30392 -0.12183
# Poissons Ratio (y) = 0.75079 0.15505
# Poissons Ratio (z) = -0.25436 0.13104
#
# Static dielectric constant tensor:
#      x y z
#    x 1.924240 0.011130 -0.037210 
#    y 0.011130 1.954890 -0.027720 
#    z -0.037210 -0.027720 1.953840 
# 
# From -- ./inp_files/538320.got.cif
#   From: 2010.05.17/outbox.cif.g08.bks.cpg/sg2_270_cif.got.tgz:538320.got - 2010.06.03 11:33:40.
