data_PCOD9053794
_publ_section_title
;
Structure prediction by ZEFSAII (Michael W. Deem and Ramdas Pophale) SiO2 
 PCOD9053794
Probable space group: P -1
;
_chemical_formula_sum "Si O2"
_cell_formula_units_Z 16
_cell_length_a 14.380137
_cell_length_b 13.657576
_cell_length_c 8.939373
_cell_angle_alpha 95.857297
_cell_angle_beta 59.494584
_cell_angle_gamma 47.481583
_cell_volume 795.196648
_symmetry_space_group_name_H-M "P -1"
_symmetry_group_IT_number 2
_symmetry_cell_setting 'triclinic'
loop_
_space_group_symop_operation_xyz
x,y,z
-x,-y,-z
loop_
_atom_site_type_symbol
_atom_site_label
_atom_site_fract_x
_atom_site_fract_y
_atom_site_fract_z
Si Si1 0.960861 0.155573 0.739657
Si Si2 0.326960 0.359715 0.096723
Si Si3 0.697420 0.395724 0.744314
Si Si4 0.611030 0.178280 0.579301
Si Si5 0.946555 0.684915 0.265248
Si Si6 0.541552 0.493546 0.297697
Si Si7 0.663868 0.949163 0.292035
Si Si8 0.425713 0.123587 0.217270
O O1 0.893152 0.194930 0.629724
O O2 0.017006 0.227901 0.719635
O O3 0.760845 0.289319 0.023165
O O4 0.166550 0.947099 0.594191
O O5 0.529727 0.194562 0.803250
O O6 0.303393 0.489642 0.193470
O O7 0.340152 0.284229 0.222755
O O8 0.145047 0.479023 0.143883
O O9 0.645202 0.414075 0.621459
O O10 0.500000 0.500000 0.000000
O O11 0.464758 0.383494 0.698409
O O12 0.624300 0.085467 0.425737
O O13 0.755979 0.788487 0.529138
O O14 0.877895 0.740821 0.154045
O O15 0.500000 0.500000 0.500000
O O16 0.608976 0.999266 0.168781
O O17 0.500000 0.000000 0.500000
O O18 0.500000 0.000000 0.000000
#
# Coordination Sequence:
#
# PCOD9053794 Si02
#       8
#     2   2   2   2   2   2   2   2
#     4   9  19  39  62  85 119 152 202 243 291 367
#     4  11  20  37  64  87 120 162 200 246 298 349
#     4   9  18  39  58  86 119 151 200 248 287 361
#     4  11  21  39  66  82 119 167 191 243 311 348
#     4   9  18  39  60  84 123 156 196 241 297 363
#     4  11  23  39  60  88 121 155 199 249 296 351
#     4   9  20  38  58  86 122 156 198 246 296 364
#     4  11  22  37  59  92 122 154 202 251 293 354
#
# _framework density 20.120808
#
# number of rings (size 3 to 8) (size 9 to 14) (size 15 to 20)
#    0.000    2.000    3.750    2.625    1.750    1.000 
#    0.000   14.375    0.000    0.000    0.000    0.000 
#    0.000    0.000    0.000    0.000    0.000    0.000 
#
# Total GULP energy -89083.343923 kJ/mol
# GULP energy per Si atom -5567.708995 kJ/mol
# Density = 2.007501 g / cm^3
# Si number density = 20.120808 Si / 1000 Ang^3
#
#
#
# Elastic Constant Matrix: (Units=GPa)
#
#
# Indices 1 2 3 4 5 6 
#
# 1 92.6298 41.4334 19.3747 -1.1342 6.4902 -34.2628
# 2 41.4334 114.0362 30.8061 -8.6673 5.0244 -34.4992
# 3 19.3747 30.8061 62.3251 -2.9999 -0.4556 -19.4829
# 4 -1.1342 -8.6673 -2.9999 31.2074 -6.1856 3.0634
# 5 6.4902 5.0244 -0.4556 -6.1856 28.1755 -4.3660
# 6 -34.2628 -34.4992 -19.4829 3.0634 -4.3660 48.7558
#
#
#
# Elastic Compliance Matrix: (Units=1/GPa)
#
#
# Indices 1 2 3 4 5 6 
#
# 1 0.015509 -0.002880 -0.000853 -0.001564 -0.002110 0.008429
# 2 -0.002880 0.012570 -0.003553 0.002473 -0.000276 0.005270
# 3 -0.000853 -0.003553 0.019643 0.000804 0.002079 0.004871
# 4 -0.001564 0.002473 0.000804 0.034264 0.007374 -0.000520
# 5 -0.002110 -0.000276 0.002079 0.007374 0.038004 0.002093
# 6 0.008429 0.005270 0.004871 -0.000520 0.002093 0.032330
#
#
# Mechanical properties :
#
#
# Convention : Reuss Voigt Hill
#
# Bulk Modulus (GPa) = 30.16723 50.24661 40.20692
# Shear Modulus (GPa) = 28.09895 33.45287 30.77591
#
# Velocity S-wave (km/s) = 3.74105 4.08192 3.91520
# Velocity P-wave (km/s) = 5.80398 6.87334 6.36117
#
# Compressibility (1/GPa) = 0.03314855
#
# Stress axis : x y z
#
# Youngs Moduli (GPa) = 64.47851 79.55381 50.90846
#
# Poissons Ratio (x) = 0.22914 0.04344
# Poissons Ratio (y) = 0.18572 0.18089
# Poissons Ratio (z) = 0.05502 0.28267
#
# Static dielectric constant tensor:
#      x y z
#    x 1.613340 0.030600 -0.024850 
#    y 0.030600 1.773220 0.060670 
#    z -0.024850 0.060670 1.749900 
# 
# From -- ./inp_files/315410.got.cif
#   From: 2010.05.17/outbox.cif.g08.bks.cpg/sg2_158_cif.got.tgz:315410.got - 2010.06.03 11:33:40.
