data_PCOD9053580
_publ_section_title
;
Structure prediction by ZEFSAII (Michael W. Deem and Ramdas Pophale) SiO2 
 PCOD9053580
Probable space group: P -1
;
_chemical_formula_sum "Si O2"
_cell_formula_units_Z 16
_cell_length_a 15.218230
_cell_length_b 5.242229
_cell_length_c 15.666151
_cell_angle_alpha 83.420301
_cell_angle_beta 38.991962
_cell_angle_gamma 75.566922
_cell_volume 755.122624
_symmetry_space_group_name_H-M "P -1"
_symmetry_group_IT_number 2
_symmetry_cell_setting 'triclinic'
loop_
_space_group_symop_operation_xyz
x,y,z
-x,-y,-z
loop_
_atom_site_type_symbol
_atom_site_label
_atom_site_fract_x
_atom_site_fract_y
_atom_site_fract_z
Si Si1 0.642515 0.608586 0.233024
Si Si2 0.945666 0.245798 0.970918
Si Si3 0.212662 0.419279 0.704525
Si Si4 0.293381 0.111370 0.992446
Si Si5 0.212806 0.194651 0.530563
Si Si6 0.545022 0.493194 0.063949
Si Si7 0.645394 0.358363 0.637916
Si Si8 0.989198 0.064165 0.236176
O O1 0.659397 0.646473 0.320185
O O2 0.496183 0.533558 0.319476
O O3 0.784274 0.380295 0.113078
O O4 0.668350 0.830882 0.137505
O O5 0.069975 0.401832 0.866693
O O6 0.947646 0.135801 0.879293
O O7 0.000000 0.000000 0.000000
O O8 0.153468 0.712045 0.696112
O O9 0.243582 0.218338 0.608551
O O10 0.362549 0.300176 0.990614
O O11 0.123447 0.189987 0.142301
O O12 0.366088 0.804587 0.968383
O O13 0.309264 0.949317 0.413555
O O14 0.060120 0.115957 0.648571
O O15 0.236576 0.472988 0.469989
O O16 0.500000 0.500000 0.000000
O O17 0.409609 0.588458 0.226386
#
# Coordination Sequence:
#
# PCOD9053580 Si02
#       8
#     2   2   2   2   2   2   2   2
#     4  11  22  38  59  96 133 171 227 268 319 362
#     4  11  20  32  58  87 127 170 221 279 321 342
#     4  11  22  37  57  90 132 186 220 265 294 360
#     4  11  23  40  71 102 128 163 208 276 327 379
#     4  11  25  42  59  89 130 189 216 250 307 362
#     4  11  25  47  75 103 125 153 200 270 352 401
#     4  11  24  43  64  89 127 171 214 265 316 391
#     4  11  21  39  61  90 131 177 224 258 305 370
#
# _framework density 21.188613
#
# number of rings (size 3 to 8) (size 9 to 14) (size 15 to 20)
#    0.000    1.000    3.750    4.500    1.750    2.000 
#    0.000    0.000    0.000    4.500    0.000    0.000 
#    0.000    0.000    0.000    0.000    0.000    0.000 
#
# Total GULP energy -89243.387749 kJ/mol
# GULP energy per Si atom -5577.711734 kJ/mol
# Density = 2.114039 g / cm^3
# Si number density = 21.188613 Si / 1000 Ang^3
#
#
#
# Elastic Constant Matrix: (Units=GPa)
#
#
# Indices 1 2 3 4 5 6 
#
# 1 58.8475 21.3445 26.3074 -2.2644 22.0717 10.2189
# 2 21.3445 91.8108 14.1343 12.4634 6.2020 14.1951
# 3 26.3074 14.1343 56.6868 -4.4497 17.2290 9.5933
# 4 -2.2644 12.4634 -4.4497 40.0642 14.7169 -8.8762
# 5 22.0717 6.2020 17.2290 14.7169 28.1425 0.6296
# 6 10.2189 14.1951 9.5933 -8.8762 0.6296 30.3791
#
#
#
# Elastic Compliance Matrix: (Units=1/GPa)
#
#
# Indices 1 2 3 4 5 6 
#
# 1 0.032872 -0.006721 -0.003074 0.014023 -0.029702 -0.002234
# 2 -0.006721 0.014750 -0.003075 -0.010300 0.009443 -0.006865
# 3 -0.003074 -0.003075 0.026630 0.009878 -0.018321 -0.002673
# 4 0.014023 -0.010300 0.009878 0.047215 -0.039726 0.011595
# 5 -0.029702 0.009443 -0.018321 -0.039726 0.088784 -0.002083
# 6 -0.002234 -0.006865 -0.002673 0.011595 -0.002083 0.041151
#
#
# Mechanical properties :
#
#
# Convention : Reuss Voigt Hill
#
# Bulk Modulus (GPa) = 20.61342 36.76860 28.69101
# Shear Modulus (GPa) = 17.04661 29.42108 23.23384
#
# Velocity S-wave (km/s) = 2.83948 3.73034 3.31497
# Velocity P-wave (km/s) = 4.52768 5.99538 5.31246
#
# Compressibility (1/GPa) = 0.04851207
#
# Stress axis : x y z
#
# Youngs Moduli (GPa) = 30.42063 67.79833 37.55172
#
# Poissons Ratio (x) = 0.45567 0.11542
# Poissons Ratio (y) = 0.20446 0.11548
# Poissons Ratio (z) = 0.09350 0.20850
#
# Static dielectric constant tensor:
#      x y z
#    x 1.777850 0.047410 -0.046810 
#    y 0.047410 1.801670 -0.030780 
#    z -0.046810 -0.030780 1.799630 
# 
# From -- ./inp_files/525767.got.cif
#   From: 2010.05.17/outbox.cif.g08.bks.cpg/sg2_263_cif.got.tgz:525767.got - 2010.06.03 11:33:40.
