data_PCOD9053138
_publ_section_title
;
Structure prediction by ZEFSAII (Michael W. Deem and Ramdas Pophale) SiO2 
 PCOD9053138
Probable space group: P -1
;
_chemical_formula_sum "Si O2"
_cell_formula_units_Z 16
_cell_length_a 8.097162
_cell_length_b 6.586239
_cell_length_c 21.081464
_cell_angle_alpha 109.137809
_cell_angle_beta 51.769993
_cell_angle_gamma 128.401217
_cell_volume 689.182746
_symmetry_space_group_name_H-M "P -1"
_symmetry_group_IT_number 2
_symmetry_cell_setting 'triclinic'
loop_
_space_group_symop_operation_xyz
x,y,z
-x,-y,-z
loop_
_atom_site_type_symbol
_atom_site_label
_atom_site_fract_x
_atom_site_fract_y
_atom_site_fract_z
Si Si1 0.814366 0.173134 0.250764
Si Si2 0.777736 0.270187 0.466668
Si Si3 0.791582 0.830636 0.685773
Si Si4 0.667444 0.815632 0.987820
Si Si5 0.639435 0.703273 0.850352
Si Si6 0.508936 0.679802 0.365223
Si Si7 0.276465 0.090670 0.879304
Si Si8 0.156072 0.386831 0.629004
O O1 0.824701 0.409162 0.304733
O O2 0.110644 0.284127 0.186291
O O3 0.677656 0.931589 0.307497
O O4 0.682984 0.055856 0.201971
O O5 0.744519 0.340222 0.553646
O O6 0.791603 0.479202 0.437193
O O7 0.984222 0.217067 0.386826
O O8 0.500000 0.000000 0.500000
O O9 0.724982 0.836586 0.775238
O O10 0.559032 0.571227 0.683728
O O11 0.889769 0.107363 0.660705
O O12 0.604843 0.844790 0.932833
O O13 0.500000 0.500000 0.000000
O O14 0.624563 0.917217 0.074872
O O15 0.971431 0.950514 0.935778
O O16 0.412558 0.399096 0.865064
O O17 0.650460 0.672403 0.392989
#
# Coordination Sequence:
#
# PCOD9053138 Si02
#       8
#     2   2   2   2   2   2   2   2
#     4  11  21  38  63  86 125 165 204 253 309 362
#     4  12  23  45  65  83 125 164 206 264 317 362
#     4  12  25  40  62  92 122 163 209 260 309 366
#     4   8  16  29  55  97 121 154 203 244 296 363
#     4  10  17  35  59  86 124 161 202 249 305 361
#     4  12  25  41  63  91 120 164 212 259 312 368
#     4   9  17  31  59  91 124 158 201 248 297 365
#     4  12  24  41  62  89 121 165 209 258 313 363
#
# _framework density 23.215903000000001
#
# number of rings (size 3 to 8) (size 9 to 14) (size 15 to 20)
#    0.000    1.250    6.250    0.750    0.000    2.500 
#    0.000    0.000    0.000    0.750    0.000   13.125 
#    0.000    0.000    0.000    0.000    0.000    0.000 
#
# Total GULP energy -89195.370873 kJ/mol
# GULP energy per Si atom -5574.710680 kJ/mol
# Density = 2.316306 g / cm^3
# Si number density = 23.215903 Si / 1000 Ang^3
#
#
#
# Elastic Constant Matrix: (Units=GPa)
#
#
# Indices 1 2 3 4 5 6 
#
# 1 46.8344 26.8928 22.4910 -8.9390 1.0448 6.4948
# 2 26.8928 154.0783 65.1371 -0.1803 6.7922 12.0360
# 3 22.4910 65.1371 141.7579 3.7238 18.3329 3.2117
# 4 -8.9390 -0.1803 3.7238 50.6540 14.0035 4.0643
# 5 1.0448 6.7922 18.3329 14.0035 37.5398 -0.7669
# 6 6.4948 12.0360 3.2117 4.0643 -0.7669 26.8887
#
#
#
# Elastic Compliance Matrix: (Units=1/GPa)
#
#
# Indices 1 2 3 4 5 6 
#
# 1 0.026186 -0.002950 -0.002681 0.005549 -0.001069 -0.005554
# 2 -0.002950 0.008683 -0.003481 -0.000063 0.000178 -0.002744
# 3 -0.002681 -0.003481 0.009563 -0.000197 -0.003872 0.000983
# 4 0.005549 -0.000063 -0.000197 0.023624 -0.008964 -0.005115
# 5 -0.001069 0.000178 -0.003872 -0.008964 0.031930 0.002906
# 6 -0.005554 -0.002744 0.000983 -0.005115 0.002906 0.040499
#
#
# Mechanical properties :
#
#
# Convention : Reuss Voigt Hill
#
# Bulk Modulus (GPa) = 38.15541 63.52360 50.83950
# Shear Modulus (GPa) = 29.86072 38.22649 34.04360
#
# Velocity S-wave (km/s) = 3.59028 4.06219 3.83350
# Velocity P-wave (km/s) = 5.80151 7.03018 6.44519
#
# Compressibility (1/GPa) = 0.02620860
#
# Stress axis : x y z
#
# Youngs Moduli (GPa) = 38.18818 115.16630 104.57135
#
# Poissons Ratio (x) = 0.33971 0.28035
# Poissons Ratio (y) = 0.11264 0.36402
# Poissons Ratio (z) = 0.10238 0.40091
#
# Static dielectric constant tensor:
#      x y z
#    x 1.942460 0.087700 0.008340 
#    y 0.087700 1.958680 0.072940 
#    z 0.008340 0.072940 1.961060 
# 
# From -- ./inp_files/550966.got.cif
#   From: 2010.05.17/outbox.cif.g08.bks.cpg/sg2_276_cif.got.tgz:550966.got - 2010.06.03 11:33:40.
