data_PCOD9053749
_publ_section_title
;
Structure prediction by ZEFSAII (Michael W. Deem and Ramdas Pophale) SiO2 
 PCOD9053749
Probable space group: P -1
;
_chemical_formula_sum "Si O2"
_cell_formula_units_Z 16
_cell_length_a 12.876501
_cell_length_b 14.783070
_cell_length_c 8.466105
_cell_angle_alpha 140.877332
_cell_angle_beta 51.591911
_cell_angle_gamma 127.328295
_cell_volume 771.185311
_symmetry_space_group_name_H-M "P -1"
_symmetry_group_IT_number 2
_symmetry_cell_setting 'triclinic'
loop_
_space_group_symop_operation_xyz
x,y,z
-x,-y,-z
loop_
_atom_site_type_symbol
_atom_site_label
_atom_site_fract_x
_atom_site_fract_y
_atom_site_fract_z
Si Si1 0.520469 0.456965 0.104157
Si Si2 0.421816 0.747438 0.969266
Si Si3 0.057283 0.369325 0.336307
Si Si4 0.739525 0.827243 0.663591
Si Si5 0.747833 0.538035 0.437137
Si Si6 0.721542 0.743306 0.239762
Si Si7 0.124000 0.947947 0.892388
Si Si8 0.618218 0.976777 0.474940
O O1 0.565430 0.319865 0.957277
O O2 0.381097 0.451926 0.319102
O O3 0.638773 0.602515 0.226906
O O4 0.500000 0.500000 0.000000
O O5 0.574476 0.790914 0.806088
O O6 0.312176 0.617624 0.806105
O O7 0.376375 0.898846 0.229723
O O8 0.126622 0.434167 0.523465
O O9 0.000000 0.500000 0.500000
O O10 0.931048 0.226473 0.272658
O O11 0.170327 0.311798 0.046619
O O12 0.781194 0.681075 0.487739
O O13 0.778395 0.855103 0.480745
O O14 0.818644 0.962462 0.882286
O O15 0.620538 0.818653 0.335338
O O16 0.246395 0.986047 0.705575
O O17 0.000000 0.000000 0.000000
O O18 0.500000 0.000000 0.500000
#
# Coordination Sequence:
#
# PCOD9053749 Si02
#       8
#     2   2   2   2   2   2   2   2
#     4  11  20  36  70  99 134 176 226 288 348 402
#     4  11  23  42  68 112 138 179 233 293 358 406
#     4  12  29  47  70 101 137 190 244 283 349 431
#     4  11  22  44  75 101 142 184 230 292 354 415
#     4  11  21  43  69  99 143 181 226 295 353 403
#     4  12  24  44  69 104 136 183 237 292 347 414
#     4  12  25  50  71  95 147 197 225 283 361 422
#     4  12  26  45  73 104 143 186 237 287 352 421
#
# _framework density 20.747282999999999
#
# number of rings (size 3 to 8) (size 9 to 14) (size 15 to 20)
#    0.000    0.500    7.500    1.500    1.750    3.000 
#    2.250    1.250    0.000    0.000    0.000    0.000 
#    0.000    0.000    0.000    0.000    0.000    0.000 
#
# Total GULP energy -89226.422623 kJ/mol
# GULP energy per Si atom -5576.651414 kJ/mol
# Density = 2.070006 g / cm^3
# Si number density = 20.747283 Si / 1000 Ang^3
#
#
#
# Elastic Constant Matrix: (Units=GPa)
#
#
# Indices 1 2 3 4 5 6 
#
# 1 121.6023 27.8496 50.4022 6.3622 14.3719 -2.6730
# 2 27.8496 77.5732 8.9557 23.6968 -7.0775 -5.7608
# 3 50.4022 8.9557 86.2535 17.5318 3.3372 -9.0910
# 4 6.3622 23.6968 17.5318 37.9171 0.7062 2.8260
# 5 14.3719 -7.0775 3.3372 0.7062 43.6973 10.7888
# 6 -2.6730 -5.7608 -9.0910 2.8260 10.7888 36.6873
#
#
#
# Elastic Compliance Matrix: (Units=1/GPa)
#
#
# Indices 1 2 3 4 5 6 
#
# 1 0.013175 -0.005938 -0.008124 0.005421 -0.004495 -0.001081
# 2 -0.005938 0.019243 0.004410 -0.013406 0.004082 0.003514
# 3 -0.008124 0.004410 0.018507 -0.010356 0.000848 0.005235
# 4 0.005421 -0.013406 -0.010356 0.039167 -0.002152 -0.006660
# 5 -0.004495 0.004082 0.000848 -0.002152 0.026768 -0.007182
# 6 -0.001081 0.003514 0.005235 -0.006660 -0.007182 0.031653
#
#
# Mechanical properties :
#
#
# Convention : Reuss Voigt Hill
#
# Bulk Modulus (GPa) = 31.62719 51.09377 41.36048
# Shear Modulus (GPa) = 28.03369 36.87511 32.45440
#
# Velocity S-wave (km/s) = 3.67985 4.22043 3.95938
# Velocity P-wave (km/s) = 5.77340 6.95914 6.39382
#
# Compressibility (1/GPa) = 0.03161836
#
# Stress axis : x y z
#
# Youngs Moduli (GPa) = 75.90300 51.96796 54.03361
#
# Poissons Ratio (x) = 0.30861 0.43897
# Poissons Ratio (y) = 0.45075 -0.23826
# Poissons Ratio (z) = 0.61664 -0.22915
#
# Static dielectric constant tensor:
#      x y z
#    x 1.822560 0.083750 0.124400 
#    y 0.083750 1.517700 -0.145730 
#    z 0.124400 -0.145730 1.623340 
# 
# From -- ./inp_files/274564.got.cif
#   From: 2010.05.17/outbox.cif.g08.bks.cpg/sg2_138_cif.got.tgz:274564.got - 2010.06.03 11:33:40.
