data_PCOD9053385
_publ_section_title
;
Structure prediction by ZEFSAII (Michael W. Deem and Ramdas Pophale) SiO2 
 PCOD9053385
Probable space group: P -1
;
_chemical_formula_sum "Si O2"
_cell_formula_units_Z 16
_cell_length_a 11.374828
_cell_length_b 8.995454
_cell_length_c 11.046896
_cell_angle_alpha 55.545953
_cell_angle_beta 56.568970
_cell_angle_gamma 80.029614
_cell_volume 761.917182
_symmetry_space_group_name_H-M "P -1"
_symmetry_group_IT_number 2
_symmetry_cell_setting 'triclinic'
loop_
_space_group_symop_operation_xyz
x,y,z
-x,-y,-z
loop_
_atom_site_type_symbol
_atom_site_label
_atom_site_fract_x
_atom_site_fract_y
_atom_site_fract_z
Si Si1 0.475820 0.817139 0.753301
Si Si2 0.712136 0.193086 0.893486
Si Si3 0.706290 0.791284 0.035719
Si Si4 0.026113 0.718105 0.888828
Si Si5 0.302346 0.418051 0.622478
Si Si6 0.437711 0.507303 0.253015
Si Si7 0.985663 0.205193 0.877028
Si Si8 0.323434 0.797286 0.585224
O O1 0.567650 0.656452 0.763709
O O2 0.386424 0.786702 0.690958
O O3 0.578972 0.017309 0.605946
O O4 0.376449 0.804312 0.932887
O O5 0.674655 0.360101 0.762925
O O6 0.878279 0.213377 0.825914
O O7 0.675425 0.993719 0.942609
O O8 0.673519 0.731146 0.222308
O O9 0.595216 0.639176 0.095972
O O10 0.873523 0.779401 0.928294
O O11 0.156299 0.810744 0.687532
O O12 0.079502 0.745760 0.983174
O O13 0.000000 0.500000 0.000000
O O14 0.403002 0.427852 0.444525
O O15 0.319640 0.614096 0.590970
O O16 0.138504 0.339661 0.710834
O O17 0.000000 0.000000 0.000000
#
# Coordination Sequence:
#
# PCOD9053385 Si02
#       8
#     2   2   2   2   2   2   2   2
#     4  11  25  38  64  93 130 163 211 266 310 371
#     4  12  25  43  63  94 132 167 205 256 325 382
#     4  11  23  40  67  93 126 170 209 257 308 382
#     4  11  19  38  64  97 122 156 211 264 309 356
#     4  11  23  41  66  93 126 162 215 257 309 368
#     4  12  26  42  63  92 132 169 207 260 318 374
#     4  11  22  38  67  96 123 162 209 261 309 375
#     4  11  22  38  66  99 121 161 217 269 304 361
#
# _framework density 20.999656999999999
#
# number of rings (size 3 to 8) (size 9 to 14) (size 15 to 20)
#    0.000    0.750    7.500    1.875    5.250    0.500 
#    0.000    0.000    0.000    2.250    0.000    0.000 
#    0.000    0.000    0.000    0.000    0.000    0.000 
#
# Total GULP energy -89349.500576 kJ/mol
# GULP energy per Si atom -5584.343786 kJ/mol
# Density = 2.095186 g / cm^3
# Si number density = 20.999657 Si / 1000 Ang^3
#
#
#
# Elastic Constant Matrix: (Units=GPa)
#
#
# Indices 1 2 3 4 5 6 
#
# 1 78.9050 4.7456 28.3461 -13.6168 -20.7556 -16.2231
# 2 4.7456 99.9239 30.5651 -17.7451 -14.4434 -5.4152
# 3 28.3461 30.5651 60.6474 -4.8874 -22.9632 -2.6403
# 4 -13.6168 -17.7451 -4.8874 36.3092 -3.7022 -0.6058
# 5 -20.7556 -14.4434 -22.9632 -3.7022 32.5974 -7.0228
# 6 -16.2231 -5.4152 -2.6403 -0.6058 -7.0228 33.5652
#
#
#
# Elastic Compliance Matrix: (Units=1/GPa)
#
#
# Indices 1 2 3 4 5 6 
#
# 1 0.026402 0.007350 -0.005833 0.015219 0.021627 0.018287
# 2 0.007350 0.015285 -0.006166 0.010545 0.009990 0.007814
# 3 -0.005833 -0.006166 0.027258 -0.000193 0.012958 0.001038
# 4 0.015219 0.010545 -0.000193 0.040856 0.021963 0.014374
# 5 0.021627 0.009990 0.012958 0.021963 0.066393 0.027372
# 6 0.018287 0.007814 0.001038 0.014374 0.027372 0.045960
#
#
# Mechanical properties :
#
#
# Convention : Reuss Voigt Hill
#
# Bulk Modulus (GPa) = 16.76533 40.75443 28.75988
# Shear Modulus (GPa) = 19.89377 32.21568 26.05472
#
# Velocity S-wave (km/s) = 3.08122 3.92101 3.52621
# Velocity P-wave (km/s) = 4.54528 6.32048 5.50491
#
# Compressibility (1/GPa) = 0.05964690
#
# Stress axis : x y z
#
# Youngs Moduli (GPa) = 37.87597 65.42433 36.68582
#
# Poissons Ratio (x) = -0.48087 0.21399
# Poissons Ratio (y) = -0.27839 0.22621
# Poissons Ratio (z) = 0.22094 0.40341
#
# Static dielectric constant tensor:
#      x y z
#    x 1.788700 -0.027940 -0.007330 
#    y -0.027940 1.745100 -0.000030 
#    z -0.007330 -0.000030 1.738500 
# 
# From -- ./inp_files/260395.got.cif
#   From: 2010.05.17/outbox.cif.g08.bks.cpg/sg2_131_cif.got.tgz:260395.got - 2010.06.03 11:33:40.
