data_PCOD9053091
_publ_section_title
;
Structure prediction by ZEFSAII (Michael W. Deem and Ramdas Pophale) SiO2 
 PCOD9053091
Probable space group: P -1
;
_chemical_formula_sum "Si O2"
_cell_formula_units_Z 14
_cell_length_a 16.555958
_cell_length_b 9.735130
_cell_length_c 12.662177
_cell_angle_alpha 47.896027
_cell_angle_beta 154.975530
_cell_angle_gamma 121.383206
_cell_volume 615.519134
_symmetry_space_group_name_H-M "P -1"
_symmetry_group_IT_number 2
_symmetry_cell_setting 'triclinic'
loop_
_space_group_symop_operation_xyz
x,y,z
-x,-y,-z
loop_
_atom_site_type_symbol
_atom_site_label
_atom_site_fract_x
_atom_site_fract_y
_atom_site_fract_z
Si Si1 0.870621 0.732066 0.684837
Si Si2 0.781492 0.062199 0.257510
Si Si3 0.421587 0.693325 0.922367
Si Si4 0.943095 0.357560 0.587793
Si Si5 0.185107 0.915561 0.062799
Si Si6 0.819913 0.424381 0.629825
Si Si7 0.507322 0.918523 0.280763
O O1 0.894311 0.525937 0.765689
O O2 0.726764 0.780228 0.591377
O O3 0.751021 0.873753 0.376681
O O4 0.055282 0.818693 0.880693
O O5 0.736568 0.216292 0.218317
O O6 0.629802 0.131382 0.947423
O O7 0.000000 0.000000 0.500000
O O8 0.290129 0.615603 0.724063
O O9 0.484501 0.865359 0.848391
O O10 0.605103 0.551993 0.271816
O O11 0.962437 0.409754 0.705748
O O12 0.000000 0.500000 0.500000
O O13 0.066094 0.136639 0.827591
O O14 0.198109 0.784215 0.249277
O O15 0.396245 0.904715 0.265060
#
# Coordination Sequence:
#
# PCOD9053091 Si02
#       7
#     2   2   2   2   2   2   2
#     4  11  22  42  70 103 137 180 226 283 336 410
#     4  11  18  35  72 100 135 174 236 283 329 393
#     4  11  22  44  69 100 130 184 236 285 328 410
#     4  12  27  48  71  98 135 187 237 280 338 413
#     4  12  26  46  70 102 145 183 220 286 352 405
#     4  12  26  44  67 106 144 175 227 289 346 405
#     4  11  20  41  74  97 137 177 237 277 338 401
#
# _framework density 22.745028000000001
#
# number of rings (size 3 to 8) (size 9 to 14) (size 15 to 20)
#    0.000    0.571    7.143    3.000    2.000    0.571 
#    2.571    1.429    0.000    0.000    0.000    0.000 
#    0.000    0.000    0.000    0.000    0.000    0.000 
#
# Total GULP energy -78278.495437 kJ/mol
# GULP energy per Si atom -5591.321103 kJ/mol
# Density = 2.269326 g / cm^3
# Si number density = 22.745028 Si / 1000 Ang^3
#
#
#
# Elastic Constant Matrix: (Units=GPa)
#
#
# Indices 1 2 3 4 5 6 
#
# 1 151.1286 44.7691 36.1869 -12.2111 16.2337 21.6366
# 2 44.7691 97.3058 43.3883 -19.0099 5.5203 3.7418
# 3 36.1869 43.3883 75.6517 -19.5199 16.5906 12.2964
# 4 -12.2111 -19.0099 -19.5199 41.4258 6.0395 -7.4699
# 5 16.2337 5.5203 16.5906 6.0395 32.5322 4.8590
# 6 21.6366 3.7418 12.2964 -7.4699 4.8590 27.1916
#
#
#
# Elastic Compliance Matrix: (Units=1/GPa)
#
#
# Indices 1 2 3 4 5 6 
#
# 1 0.008920 -0.003362 -0.000816 0.000038 -0.002607 -0.005790
# 2 -0.003362 0.015561 -0.007606 0.003143 0.001654 0.004542
# 3 -0.000816 -0.007606 0.023163 0.007932 -0.010892 -0.004653
# 4 0.000038 0.003143 0.007932 0.032267 -0.011617 0.006890
# 5 -0.002607 0.001654 -0.010892 -0.011617 0.040003 -0.003567
# 6 -0.005790 0.004542 -0.004653 0.006890 -0.003567 0.045393
#
#
# Mechanical properties :
#
#
# Convention : Reuss Voigt Hill
#
# Bulk Modulus (GPa) = 41.53653 63.64165 52.58909
# Shear Modulus (GPa) = 25.39343 33.54606 29.46975
#
# Velocity S-wave (km/s) = 3.34494 3.84458 3.60343
# Velocity P-wave (km/s) = 5.76365 6.91006 6.36272
#
# Compressibility (1/GPa) = 0.02407520
#
# Stress axis : x y z
#
# Youngs Moduli (GPa) = 112.10382 64.26291 43.17237
#
# Poissons Ratio (x) = 0.21607 0.03522
# Poissons Ratio (y) = 0.37693 0.32838
# Poissons Ratio (z) = 0.09146 0.48881
#
# Static dielectric constant tensor:
#      x y z
#    x 1.882560 -0.029240 0.007230 
#    y -0.029240 1.862770 -0.031920 
#    z 0.007230 -0.031920 1.901130 
# 
# From -- ./inp_files/316055.got.cif
#   From: 2010.05.17/outbox.cif.g08.bks.cpg/sg2_159_cif.got.tgz:316055.got - 2010.06.03 11:33:40.
