data_PCOD9053708
_publ_section_title
;
Structure prediction by ZEFSAII (Michael W. Deem and Ramdas Pophale) SiO2 
 PCOD9053708
Probable space group: P -1
;
_chemical_formula_sum "Si O2"
_cell_formula_units_Z 16
_cell_length_a 8.465726
_cell_length_b 11.248549
_cell_length_c 15.145031
_cell_angle_alpha 135.786231
_cell_angle_beta 81.945753
_cell_angle_gamma 117.474480
_cell_volume 848.905018
_symmetry_space_group_name_H-M "P -1"
_symmetry_group_IT_number 2
_symmetry_cell_setting 'triclinic'
loop_
_space_group_symop_operation_xyz
x,y,z
-x,-y,-z
loop_
_atom_site_type_symbol
_atom_site_label
_atom_site_fract_x
_atom_site_fract_y
_atom_site_fract_z
Si Si1 0.251908 0.686341 0.248499
Si Si2 0.445138 0.000232 0.107193
Si Si3 0.616600 0.637856 0.649078
Si Si4 0.151469 0.000624 0.428028
Si Si5 0.430019 0.719779 0.436765
Si Si6 0.011040 0.045627 0.284382
Si Si7 0.973292 0.328826 0.980453
Si Si8 0.613506 0.002097 0.278872
O O1 0.309621 0.707518 0.356675
O O2 0.129370 0.788540 0.298478
O O3 0.436244 0.809711 0.237859
O O4 0.124483 0.457051 0.111131
O O5 0.239083 0.805907 0.039376
O O6 0.439259 0.200048 0.235304
O O7 0.575047 0.996245 0.173774
O O8 0.500000 0.000000 0.000000
O O9 0.500000 0.500000 0.500000
O O10 0.583116 0.484354 0.647077
O O11 0.841419 0.771291 0.689643
O O12 0.354703 0.125704 0.520829
O O13 0.133441 0.094313 0.389446
O O14 0.000000 0.000000 0.500000
O O15 0.386502 0.812445 0.574902
O O16 0.810965 0.023385 0.294884
O O17 0.981437 0.833530 0.145588
O O18 0.000000 0.500000 0.000000
#
# Coordination Sequence:
#
# PCOD9053708 Si02
#       8
#     2   2   2   2   2   2   2   2
#     4  11  22  39  65  93 128 168 215 272 322 381
#     4  11  25  44  68  94 136 173 213 272 324 387
#     4  11  21  45  65  87 128 178 211 254 330 387
#     4  11  20  36  60  92 127 158 211 270 322 374
#     4  11  22  39  65  93 128 168 215 272 322 381
#     4  11  23  38  67  90 124 170 207 266 325 384
#     4  11  21  45  65  87 128 178 211 254 330 387
#     4  11  22  42  63  96 134 159 218 282 318 371
#
# _framework density 18.847809000000002
#
# number of rings (size 3 to 8) (size 9 to 14) (size 15 to 20)
#    0.000    1.000    5.000    4.500    0.000    4.000 
#    4.500    2.500    0.000    0.000    0.000    0.000 
#    0.000    0.000    0.000    0.000    0.000    0.000 
#
# Total GULP energy -89234.469777 kJ/mol
# GULP energy per Si atom -5577.154361 kJ/mol
# Density = 1.880491 g / cm^3
# Si number density = 18.847809 Si / 1000 Ang^3
#
#
#
# Elastic Constant Matrix: (Units=GPa)
#
#
# Indices 1 2 3 4 5 6 
#
# 1 93.1465 12.8912 33.6620 -1.0059 0.7006 7.1378
# 2 12.8912 74.2862 44.4946 4.2767 -4.4076 -8.9950
# 3 33.6620 44.4946 97.1930 6.7500 12.1867 10.7964
# 4 -1.0059 4.2767 6.7500 37.0104 -6.6277 3.4225
# 5 0.7006 -4.4076 12.1867 -6.6277 25.7946 -11.1129
# 6 7.1378 -8.9950 10.7964 3.4225 -11.1129 26.6833
#
#
#
# Elastic Compliance Matrix: (Units=1/GPa)
#
#
# Indices 1 2 3 4 5 6 
#
# 1 0.012493 0.001134 -0.005348 0.001685 0.002898 0.000195
# 2 0.001134 0.032915 -0.023303 0.003087 0.031609 0.032989
# 3 -0.005348 -0.023303 0.031121 -0.006239 -0.034112 -0.032423
# 4 0.001685 0.003087 -0.006239 0.029757 0.013128 0.004765
# 5 0.002898 0.031609 -0.034112 0.013128 0.089032 0.059078
# 6 0.000195 0.032989 -0.032423 0.004765 0.059078 0.085657
#
#
# Mechanical properties :
#
#
# Convention : Reuss Voigt Hill
#
# Bulk Modulus (GPa) = 46.52399 49.63571 48.07985
# Shear Modulus (GPa) = 14.56987 29.46952 22.01969
#
# Velocity S-wave (km/s) = 2.78335 3.95847 3.42173
# Velocity P-wave (km/s) = 5.92174 6.87639 6.41685
#
# Compressibility (1/GPa) = 0.02149429
#
# Stress axis : x y z
#
# Youngs Moduli (GPa) = 80.04484 30.38153 32.13239
#
# Poissons Ratio (x) = -0.03445 0.17184
# Poissons Ratio (y) = -0.09076 0.74879
# Poissons Ratio (z) = 0.42808 0.70799
#
# Static dielectric constant tensor:
#      x y z
#    x 1.615200 0.048260 0.006030 
#    y 0.048260 1.705780 -0.066150 
#    z 0.006030 -0.066150 1.696510 
# 
# From -- ./inp_files/347475.got.cif
#   From: 2010.05.17/outbox.cif.g08.bks.cpg/sg2_174_cif.got.tgz:347475.got - 2010.06.03 11:33:40.
