data_PCOD9053417
_publ_section_title
;
Structure prediction by ZEFSAII (Michael W. Deem and Ramdas Pophale) SiO2 
 PCOD9053417
Probable space group: P -1
;
_chemical_formula_sum "Si O2"
_cell_formula_units_Z 12
_cell_length_a 8.940581
_cell_length_b 8.779128
_cell_length_c 11.999990
_cell_angle_alpha 136.392765
_cell_angle_beta 72.156587
_cell_angle_gamma 98.026181
_cell_volume 613.508444
_symmetry_space_group_name_H-M "P -1"
_symmetry_group_IT_number 2
_symmetry_cell_setting 'triclinic'
loop_
_space_group_symop_operation_xyz
x,y,z
-x,-y,-z
loop_
_atom_site_type_symbol
_atom_site_label
_atom_site_fract_x
_atom_site_fract_y
_atom_site_fract_z
Si Si1 0.370848 0.204779 0.110295
Si Si2 0.781528 0.996756 0.337480
Si Si3 0.931297 0.763979 0.649738
Si Si4 0.262371 0.098229 0.455552
Si Si5 0.488833 0.594606 0.427267
Si Si6 0.439427 0.260869 0.874013
O O1 0.205556 0.193597 0.204147
O O2 0.442882 0.415749 0.256307
O O3 0.362810 0.213139 0.984448
O O4 0.500000 0.000000 0.000000
O O5 0.646889 0.199114 0.445814
O O6 0.935708 0.069659 0.281315
O O7 0.808539 0.985732 0.458714
O O8 0.699457 0.782503 0.203578
O O9 0.851697 0.825378 0.580173
O O10 0.000000 0.500000 0.500000
O O11 0.347804 0.311154 0.582144
O O12 0.403832 0.911397 0.281873
O O13 0.500000 0.500000 0.500000
O O14 0.500000 0.500000 0.000000
#
# Coordination Sequence:
#
# PCOD9053417 Si02
#       6
#     2   2   2   2   2   2
#     4  12  22  40  66  96 131 163 217 270 321 379
#     4  11  23  41  64  96 130 172 219 260 321 390
#     4  12  24  42  67  96 129 172 216 269 323 380
#     4  11  22  42  67  93 129 174 221 260 314 401
#     4  11  19  39  66  95 122 171 223 257 309 395
#     4  11  23  41  67  95 130 169 214 268 325 379
#
# _framework density 19.559633999999999
#
# number of rings (size 3 to 8) (size 9 to 14) (size 15 to 20)
#    0.000    0.667    5.000    5.500    0.000    0.667 
#    0.000    0.833    0.000    0.000    0.000    0.000 
#    0.000    0.000    0.000    0.000    0.000    0.000 
#
# Total GULP energy -66979.901771 kJ/mol
# GULP energy per Si atom -5581.658481 kJ/mol
# Density = 1.951512 g / cm^3
# Si number density = 19.559634 Si / 1000 Ang^3
#
#
#
# Elastic Constant Matrix: (Units=GPa)
#
#
# Indices 1 2 3 4 5 6 
#
# 1 101.1098 38.8124 35.6444 4.7019 4.2649 12.4411
# 2 38.8124 118.6853 41.7467 -19.2152 -7.0725 1.3761
# 3 35.6444 41.7467 90.3781 -7.9805 3.5341 9.7959
# 4 4.7019 -19.2152 -7.9805 40.3366 3.7596 13.4968
# 5 4.2649 -7.0725 3.5341 3.7596 33.4376 -2.0068
# 6 12.4411 1.3761 9.7959 13.4968 -2.0068 40.7234
#
#
#
# Elastic Compliance Matrix: (Units=1/GPa)
#
#
# Indices 1 2 3 4 5 6 
#
# 1 0.012957 -0.003614 -0.003408 -0.003031 -0.001842 -0.002102
# 2 -0.003614 0.011913 -0.003746 0.005074 0.002810 0.000060
# 3 -0.003408 -0.003746 0.014878 0.002963 -0.002474 -0.003515
# 4 -0.003031 0.005074 0.002963 0.032025 -0.003098 -0.010725
# 5 -0.001842 0.002810 -0.002474 -0.003098 0.031564 0.003645
# 6 -0.002102 0.000060 -0.003515 -0.010725 0.003645 0.029776
#
#
# Mechanical properties :
#
#
# Convention : Reuss Voigt Hill
#
# Bulk Modulus (GPa) = 54.90986 60.28667 57.59827
# Shear Modulus (GPa) = 31.10984 35.83085 33.47034
#
# Velocity S-wave (km/s) = 3.99245 4.28469 4.14115
# Velocity P-wave (km/s) = 7.02758 7.44090 7.23719
#
# Compressibility (1/GPa) = 0.01821166
#
# Stress axis : x y z
#
# Youngs Moduli (GPa) = 77.18126 83.93977 67.21144
#
# Poissons Ratio (x) = 0.30339 0.22907
# Poissons Ratio (y) = 0.27896 0.25176
# Poissons Ratio (z) = 0.26305 0.31442
#
# Static dielectric constant tensor:
#      x y z
#    x 1.809190 -0.099040 -0.055030 
#    y -0.099040 1.821790 0.085540 
#    z -0.055030 0.085540 1.743180 
# 
# From -- ./inp_files/144999.got.cif
#   From: 2010.05.17/outbox.cif.g08.bks.cpg/sg2_73_cif.got.tgz:144999.got - 2010.06.03 11:33:40.
