data_PCOD9053458
_publ_section_title
;
Structure prediction by ZEFSAII (Michael W. Deem and Ramdas Pophale) SiO2 
 PCOD9053458
Probable space group: P -1
;
_chemical_formula_sum "Si O2"
_cell_formula_units_Z 16
_cell_length_a 8.719934
_cell_length_b 17.692313
_cell_length_c 12.449143
_cell_angle_alpha 39.612583
_cell_angle_beta 37.497306
_cell_angle_gamma 39.061168
_cell_volume 674.458131
_symmetry_space_group_name_H-M "P -1"
_symmetry_group_IT_number 2
_symmetry_cell_setting 'triclinic'
loop_
_space_group_symop_operation_xyz
x,y,z
-x,-y,-z
loop_
_atom_site_type_symbol
_atom_site_label
_atom_site_fract_x
_atom_site_fract_y
_atom_site_fract_z
Si Si1 0.563387 0.353531 0.586109
Si Si2 0.979270 0.189739 0.816480
Si Si3 0.561235 0.806228 0.825494
Si Si4 0.708934 0.547443 0.892583
Si Si5 0.175396 0.085987 0.052912
Si Si6 0.122218 0.107814 0.595647
Si Si7 0.152284 0.525230 0.486503
Si Si8 0.880861 0.709928 0.967281
O O1 0.500000 0.500000 0.500000
O O2 0.874170 0.247035 0.540159
O O3 0.429269 0.393476 0.499641
O O4 0.379208 0.301668 0.816095
O O5 0.157234 0.131625 0.675260
O O6 0.817543 0.344180 0.706651
O O7 0.740088 0.138503 0.013405
O O8 0.137739 0.155852 0.879959
O O9 0.575061 0.686107 0.874464
O O10 0.625356 0.901940 0.608131
O O11 0.782238 0.761750 0.847401
O O12 0.940932 0.548255 0.678705
O O13 0.872990 0.434338 0.010920
O O14 0.500000 0.500000 0.000000
O O15 0.005316 0.997068 0.237168
O O16 0.050278 0.194392 0.097286
O O17 0.500000 0.000000 0.000000
O O18 0.000000 0.500000 0.500000
#
# Coordination Sequence:
#
# PCOD9053458 Si02
#       8
#     2   2   2   2   2   2   2   2
#     4  11  19  40  66  98 140 172 227 283 346 416
#     4  12  24  48  71 101 147 181 239 301 347 424
#     4  12  24  44  73 105 143 186 234 291 359 424
#     4  11  23  41  66 109 149 179 237 287 356 431
#     4  12  26  48  73 100 141 193 243 293 353 422
#     4  12  25  45  73 106 137 193 241 284 360 422
#     4  11  22  37  67 101 141 182 218 287 358 406
#     4  11  23  43  67 101 147 188 230 293 349 414
#
# _framework density 23.722747999999999
#
# number of rings (size 3 to 8) (size 9 to 14) (size 15 to 20)
#    0.000    0.500    5.000    4.500    0.000    3.000 
#    0.000    0.000    0.000    0.000    0.000    0.000 
#    0.000    0.000    0.000    0.000    0.000    0.000 
#
# Total GULP energy -89573.710420 kJ/mol
# GULP energy per Si atom -5598.356901 kJ/mol
# Density = 2.366875 g / cm^3
# Si number density = 23.722748 Si / 1000 Ang^3
#
#
#
# Elastic Constant Matrix: (Units=GPa)
#
#
# Indices 1 2 3 4 5 6 
#
# 1 134.5037 10.8049 44.0874 -14.7286 33.4642 4.9706
# 2 10.8049 79.0562 27.6385 -12.9933 14.1198 1.9685
# 3 44.0874 27.6385 151.2054 -13.2589 21.2268 0.2989
# 4 -14.7286 -12.9933 -13.2589 40.5969 -3.6377 -2.2240
# 5 33.4642 14.1198 21.2268 -3.6377 48.8983 -13.4123
# 6 4.9706 1.9685 0.2989 -2.2240 -13.4123 39.0473
#
#
#
# Elastic Compliance Matrix: (Units=1/GPa)
#
#
# Indices 1 2 3 4 5 6 
#
# 1 0.010209 0.001093 -0.001920 0.002570 -0.007292 -0.003698
# 2 0.001093 0.014698 -0.002038 0.003922 -0.004406 -0.002155
# 3 -0.001920 -0.002038 0.007846 0.001074 -0.001466 -0.000155
# 4 0.002570 0.003922 0.001074 0.027099 -0.001175 0.000607
# 5 -0.007292 -0.004406 -0.001466 -0.001175 0.030429 0.011547
# 6 -0.003698 -0.002155 -0.000155 0.000607 0.011547 0.030191
#
#
# Mechanical properties :
#
#
# Convention : Reuss Voigt Hill
#
# Bulk Modulus (GPa) = 37.00775 58.86965 47.93870
# Shear Modulus (GPa) = 36.97951 44.52414 40.75182
#
# Velocity S-wave (km/s) = 3.95247 4.33697 4.14918
# Velocity P-wave (km/s) = 6.03849 7.06743 6.57313
#
# Compressibility (1/GPa) = 0.02702137
#
# Stress axis : x y z
#
# Youngs Moduli (GPa) = 97.95721 68.03755 127.44973
#
# Poissons Ratio (x) = -0.07436 0.24470
# Poissons Ratio (y) = -0.10705 0.25980
# Poissons Ratio (z) = 0.18807 0.13869
#
# Static dielectric constant tensor:
#      x y z
#    x 1.742220 0.441090 -0.000090 
#    y 0.441090 0.921210 -0.024930 
#    z -0.000090 -0.024930 1.908240 
# 
# From -- ./inp_files/332688.got.cif
#   From: 2010.05.17/outbox.cif.g08.bks.cpg/sg2_167_cif.got.tgz:332688.got - 2010.06.03 11:33:40.
