data_PCOD9053935
_publ_section_title
;
Structure prediction by ZEFSAII (Michael W. Deem and Ramdas Pophale) SiO2 
 PCOD9053935
Probable space group: P -1
;
_chemical_formula_sum "Si O2"
_cell_formula_units_Z 16
_cell_length_a 14.189000
_cell_length_b 8.926908
_cell_length_c 12.928184
_cell_angle_alpha 125.066266
_cell_angle_beta 35.007539
_cell_angle_gamma 138.832733
_cell_volume 614.537698
_symmetry_space_group_name_H-M "P -1"
_symmetry_group_IT_number 2
_symmetry_cell_setting 'triclinic'
loop_
_space_group_symop_operation_xyz
x,y,z
-x,-y,-z
loop_
_atom_site_type_symbol
_atom_site_label
_atom_site_fract_x
_atom_site_fract_y
_atom_site_fract_z
Si Si1 0.225870 0.856289 0.412743
Si Si2 0.223238 0.357524 0.295509
Si Si3 0.726021 0.351885 0.900499
Si Si4 0.905468 0.316585 0.906051
Si Si5 0.872483 0.853153 0.915113
Si Si6 0.558577 0.887698 0.190673
Si Si7 0.384676 0.296179 0.328091
Si Si8 0.793911 0.644771 0.210964
O O1 0.423079 0.609441 0.191435
O O2 0.376311 0.909182 0.393571
O O3 0.983876 0.668154 0.549889
O O4 0.258404 0.080106 0.430207
O O5 0.199042 0.191586 0.160351
O O6 0.249248 0.313502 0.372990
O O7 0.852969 0.282874 0.819822
O O8 0.838577 0.622563 0.888727
O O9 0.673174 0.217958 0.788580
O O10 0.524352 0.265836 0.112359
O O11 0.119313 0.357767 0.755041
O O12 0.895284 0.530561 0.019822
O O13 0.717547 0.110960 0.062773
O O14 0.727721 0.905675 0.121506
O O15 0.094532 0.091754 0.812453
O O16 0.560675 0.500007 0.325080
#
# Coordination Sequence:
#
# PCOD9053935 Si02
#       8
#     2   2   2   2   2   2   2   2
#     4  12  24  38  62  90 127 161 202 249 304 360
#     4  12  25  40  60  93 128 158 201 252 307 356
#     4  11  21  38  64  92 121 155 207 250 303 349
#     4   9  20  37  65  92 117 153 210 254 295 357
#     4  11  23  38  65  93 124 157 201 254 304 356
#     4  11  20  39  63  89 120 160 200 252 299 353
#     4  11  23  42  64  90 121 160 206 251 299 363
#     4   9  20  40  61  91 120 156 206 248 303 356
#
# _framework density 26.035829
#
# number of rings (size 3 to 8) (size 9 to 14) (size 15 to 20)
#    0.000    1.250    5.000    2.250    3.500    2.000 
#    2.250    0.625    0.000    0.750    0.000    0.000 
#    0.000    0.000    0.000    0.000    0.000    0.000 
#
# Total GULP energy -89150.394413 kJ/mol
# GULP energy per Si atom -5571.899651 kJ/mol
# Density = 2.597657 g / cm^3
# Si number density = 26.035829 Si / 1000 Ang^3
#
#
#
# Elastic Constant Matrix: (Units=GPa)
#
#
# Indices 1 2 3 4 5 6 
#
# 1 134.6840 30.1040 16.6237 -10.3965 -30.6594 -15.8205
# 2 30.1040 148.2819 22.0676 -23.5379 -9.9067 -7.1231
# 3 16.6237 22.0676 72.9565 -9.7062 -27.6418 2.7093
# 4 -10.3965 -23.5379 -9.7062 24.4360 6.9836 -10.5636
# 5 -30.6594 -9.9067 -27.6418 6.9836 31.8195 0.8299
# 6 -15.8205 -7.1231 2.7093 -10.5636 0.8299 26.6181
#
#
#
# Elastic Compliance Matrix: (Units=1/GPa)
#
#
# Indices 1 2 3 4 5 6 
#
# 1 0.011183 -0.000635 0.002296 0.005318 0.011196 0.008004
# 2 -0.000635 0.009182 -0.002296 0.011328 -0.002413 0.006884
# 3 0.002296 -0.002296 0.021719 0.000856 0.020223 -0.001751
# 4 0.005318 0.011328 0.000856 0.071499 -0.007202 0.034705
# 5 0.011196 -0.002413 0.020223 -0.007202 0.060633 -0.000798
# 6 0.008004 0.006884 -0.001751 0.034705 -0.000798 0.058144
#
#
# Mechanical properties :
#
#
# Convention : Reuss Voigt Hill
#
# Bulk Modulus (GPa) = 24.50074 54.83478 39.66776
# Shear Modulus (GPa) = 20.22372 35.71653 27.97013
#
# Velocity S-wave (km/s) = 2.79007 3.70783 3.28120
# Velocity P-wave (km/s) = 4.45086 6.27994 5.44279
#
# Compressibility (1/GPa) = 0.04081510
#
# Stress axis : x y z
#
# Youngs Moduli (GPa) = 89.42308 108.90608 46.04267
#
# Poissons Ratio (x) = 0.06919 -0.10573
# Poissons Ratio (y) = 0.05681 0.10569
# Poissons Ratio (z) = -0.20535 0.25000
#
# Static dielectric constant tensor:
#      x y z
#    x 2.370460 0.049490 -0.037460 
#    y 0.049490 2.049670 0.092920 
#    z -0.037460 0.092920 2.168760 
# 
# From -- ./inp_files/528937.got.cif
#   From: 2010.05.17/outbox.cif.g08.bks.cpg/sg2_265_cif.got.tgz:528937.got - 2010.06.03 11:33:40.
