data_PCOD9053923
_publ_section_title
;
Structure prediction by ZEFSAII (Michael W. Deem and Ramdas Pophale) SiO2 
 PCOD9053923
Probable space group: P -1
;
_chemical_formula_sum "Si O2"
_cell_formula_units_Z 12
_cell_length_a 13.869778
_cell_length_b 5.636034
_cell_length_c 10.460876
_cell_angle_alpha 84.802400
_cell_angle_beta 57.566490
_cell_angle_gamma 56.604856
_cell_volume 551.400616
_symmetry_space_group_name_H-M "P -1"
_symmetry_group_IT_number 2
_symmetry_cell_setting 'triclinic'
loop_
_space_group_symop_operation_xyz
x,y,z
-x,-y,-z
loop_
_atom_site_type_symbol
_atom_site_label
_atom_site_fract_x
_atom_site_fract_y
_atom_site_fract_z
Si Si1 0.122146 0.246339 0.658789
Si Si2 0.639430 0.292260 0.322903
Si Si3 0.806686 0.702894 0.835748
Si Si4 0.399368 0.145030 0.797263
Si Si5 0.280661 0.359044 0.379704
Si Si6 0.148266 0.957111 0.392789
O O1 0.196104 0.409258 0.570421
O O2 0.958196 0.450318 0.803705
O O3 0.220912 0.950807 0.683084
O O4 0.125101 0.173393 0.510936
O O5 0.500000 0.500000 0.500000
O O6 0.655269 0.531056 0.232093
O O7 0.620779 0.072145 0.262217
O O8 0.781301 0.606345 0.722046
O O9 0.823946 0.954833 0.766006
O O10 0.680026 0.808363 0.015913
O O11 0.568968 0.955571 0.703279
O O12 0.284329 0.639231 0.356894
O O13 0.000000 0.000000 0.500000
#
# Coordination Sequence:
#
# PCOD9053923 Si02
#       6
#     2   2   2   2   2   2
#     4  11  23  41  70  98 134 179 232 275 330 408
#     4  12  27  49  72  97 135 187 234 273 329 417
#     4  11  25  42  64 108 136 170 225 289 347 395
#     4  12  29  45  71 102 139 180 225 283 344 395
#     4  11  22  43  69  98 135 180 223 279 338 407
#     4  11  20  38  72 100 133 176 225 278 339 400
#
# _framework density 21.762761000000001
#
# number of rings (size 3 to 8) (size 9 to 14) (size 15 to 20)
#    0.000    0.667    5.000    3.000    7.000    2.000 
#    0.000    0.000    0.000    0.000    0.000    0.000 
#    0.000    0.000    0.000    0.000    0.000    0.000 
#
# Total GULP energy -66865.762056 kJ/mol
# GULP energy per Si atom -5572.146838 kJ/mol
# Density = 2.171323 g / cm^3
# Si number density = 21.762761 Si / 1000 Ang^3
#
#
#
# Elastic Constant Matrix: (Units=GPa)
#
#
# Indices 1 2 3 4 5 6 
#
# 1 41.2707 20.4909 4.2368 -6.2656 3.5170 -4.6742
# 2 20.4909 116.4339 -4.9353 -19.4370 8.3361 -1.0574
# 3 4.2368 -4.9353 43.0371 -12.7120 -1.4118 15.7073
# 4 -6.2656 -19.4370 -12.7120 31.5778 4.1013 -8.3695
# 5 3.5170 8.3361 -1.4118 4.1013 21.4683 2.3932
# 6 -4.6742 -1.0574 15.7073 -8.3695 2.3932 41.2555
#
#
#
# Elastic Compliance Matrix: (Units=1/GPa)
#
#
# Indices 1 2 3 4 5 6 
#
# 1 0.028354 -0.004254 -0.004563 0.003294 -0.004566 0.005774
# 2 -0.004254 0.011273 0.003914 0.008413 -0.005065 0.000317
# 3 -0.004563 0.003914 0.031141 0.011367 0.000216 -0.009980
# 4 0.003294 0.008413 0.011367 0.045323 -0.012406 0.006175
# 5 -0.004566 -0.005065 0.000216 -0.012406 0.052380 -0.006285
# 6 0.005774 0.000317 -0.009980 0.006175 -0.006285 0.030318
#
#
# Mechanical properties :
#
#
# Convention : Reuss Voigt Hill
#
# Bulk Modulus (GPa) = 16.40378 26.70293 21.55336
# Shear Modulus (GPa) = 21.84204 30.92362 26.38283
#
# Velocity S-wave (km/s) = 3.17147 3.77363 3.48558
# Velocity P-wave (km/s) = 4.57874 5.59318 5.11119
#
# Compressibility (1/GPa) = 0.06096156
#
# Stress axis : x y z
#
# Youngs Moduli (GPa) = 35.26830 88.70708 32.11232
#
# Poissons Ratio (x) = 0.37738 0.14654
# Poissons Ratio (y) = 0.15004 -0.12570
# Poissons Ratio (z) = 0.16094 -0.34724
#
# Static dielectric constant tensor:
#      x y z
#    x 3.442440 0.526620 -0.773350 
#    y 0.526620 2.031200 -0.223750 
#    z -0.773350 -0.223750 2.126030 
# 
# From -- ./inp_files/21407.got.cif
#   From: 2010.05.17/outbox.cif.g08.bks.cpg/sg2_11_cif.got.tgz:21407.got - 2010.06.03 11:33:40.
