data_PCOD9053811
_publ_section_title
;
Structure prediction by ZEFSAII (Michael W. Deem and Ramdas Pophale) SiO2 
 PCOD9053811
Probable space group: P -1
;
_chemical_formula_sum "Si O2"
_cell_formula_units_Z 16
_cell_length_a 13.971789
_cell_length_b 8.007819
_cell_length_c 11.426437
_cell_angle_alpha 40.725031
_cell_angle_beta 113.249231
_cell_angle_gamma 94.316619
_cell_volume 710.902100
_symmetry_space_group_name_H-M "P -1"
_symmetry_group_IT_number 2
_symmetry_cell_setting 'triclinic'
loop_
_space_group_symop_operation_xyz
x,y,z
-x,-y,-z
loop_
_atom_site_type_symbol
_atom_site_label
_atom_site_fract_x
_atom_site_fract_y
_atom_site_fract_z
Si Si1 0.414281 0.519082 0.840640
Si Si2 0.781126 0.195530 0.116689
Si Si3 0.298033 0.545092 0.289398
Si Si4 0.024998 0.180096 0.211931
Si Si5 0.527853 0.217434 0.482365
Si Si6 0.120036 0.980088 0.121330
Si Si7 0.282032 0.253605 0.046998
Si Si8 0.782017 0.923924 0.484266
O O1 0.465675 0.543949 0.727133
O O2 0.312186 0.811673 0.646375
O O3 0.500000 0.500000 0.000000
O O4 0.357272 0.297995 0.954677
O O5 0.766044 0.967622 0.314707
O O6 0.910969 0.128428 0.189288
O O7 0.719211 0.244466 0.937668
O O8 0.739291 0.482634 0.018539
O O9 0.428970 0.355374 0.455840
O O10 0.221230 0.707621 0.272104
O O11 0.237686 0.336421 0.335724
O O12 0.102429 0.005927 0.237410
O O13 0.095144 0.099922 0.407060
O O14 0.000000 0.500000 0.000000
O O15 0.500000 0.000000 0.500000
O O16 0.641158 0.025217 0.702065
O O17 0.164688 0.222837 0.977289
O O18 0.000000 0.000000 0.000000
#
# Coordination Sequence:
#
# PCOD9053811 Si02
#       8
#     2   2   2   2   2   2   2   2
#     4  11  20  37  66 102 128 160 220 281 326 381
#     4  11  21  39  67  96 127 168 224 277 325 381
#     4  12  23  41  64  98 137 174 212 270 339 398
#     4  12  21  41  68  90 124 174 227 274 322 384
#     4  12  20  38  68  99 129 167 218 273 331 391
#     4  12  25  43  67  91 138 186 215 267 339 396
#     4  11  23  40  67 100 129 172 224 273 326 390
#     4  11  22  38  66  99 126 166 226 279 324 387
#
# _framework density 22.506613000000002
#
# number of rings (size 3 to 8) (size 9 to 14) (size 15 to 20)
#    0.000    0.500    7.500    1.875    0.000    0.500 
#    0.000    5.000    0.000    0.000    0.000    0.000 
#    0.000    0.000    0.000    0.000    0.000    0.000 
#
# Total GULP energy -89383.927348 kJ/mol
# GULP energy per Si atom -5586.495459 kJ/mol
# Density = 2.245539 g / cm^3
# Si number density = 22.506613 Si / 1000 Ang^3
#
#
#
# Elastic Constant Matrix: (Units=GPa)
#
#
# Indices 1 2 3 4 5 6 
#
# 1 133.9488 23.4414 23.0854 -0.6849 -2.5340 -9.9674
# 2 23.4414 42.4072 19.4892 -5.0757 12.9680 -10.1440
# 3 23.0854 19.4892 75.5361 8.4748 -0.7174 -9.1121
# 4 -0.6849 -5.0757 8.4748 11.7137 -7.4922 9.0295
# 5 -2.5340 12.9680 -0.7174 -7.4922 40.2237 -4.1730
# 6 -9.9674 -10.1440 -9.1121 9.0295 -4.1730 47.3636
#
#
#
# Elastic Compliance Matrix: (Units=1/GPa)
#
#
# Indices 1 2 3 4 5 6 
#
# 1 0.008595 -0.004554 -0.001390 0.000367 0.002124 0.000683
# 2 -0.004554 0.035186 -0.009349 0.015244 -0.008845 0.001093
# 3 -0.001390 -0.009349 0.019317 -0.022763 -0.000375 0.005728
# 4 0.000367 0.015244 -0.022763 0.140224 0.018106 -0.026175
# 5 0.002124 -0.008845 -0.000375 0.018106 0.030979 -0.002242
# 6 0.000683 0.001093 0.005728 -0.026175 -0.002242 0.027386
#
#
# Mechanical properties :
#
#
# Convention : Reuss Voigt Hill
#
# Bulk Modulus (GPa) = 30.75909 42.65823 36.70866
# Shear Modulus (GPa) = 16.49564 32.25194 24.37379
#
# Velocity S-wave (km/s) = 2.71019 3.78960 3.29441
# Velocity P-wave (km/s) = 4.84664 6.17600 5.55125
#
# Compressibility (1/GPa) = 0.03251072
#
# Stress axis : x y z
#
# Youngs Moduli (GPa) = 116.34559 28.42069 51.76755
#
# Poissons Ratio (x) = 0.12944 0.07198
# Poissons Ratio (y) = 0.52988 0.48396
# Poissons Ratio (z) = 0.16176 0.26570
#
# Static dielectric constant tensor:
#      x y z
#    x 1.878730 -0.002770 -0.007980 
#    y -0.002770 1.899850 0.019280 
#    z -0.007980 0.019280 1.814820 
# 
# From -- ./inp_files/446664.got.cif
#   From: 2010.05.17/outbox.cif.g08.bks.cpg/sg2_224_cif.got.tgz:446664.got - 2010.06.03 11:33:40.
