data_PCOD9053896
_publ_section_title
;
Structure prediction by ZEFSAII (Michael W. Deem and Ramdas Pophale) SiO2 
 PCOD9053896
Probable space group: P -1
;
_chemical_formula_sum "Si O2"
_cell_formula_units_Z 12
_cell_length_a 14.895607
_cell_length_b 14.862789
_cell_length_c 9.052104
_cell_angle_alpha 148.919912
_cell_angle_beta 145.484474
_cell_angle_gamma 29.752489
_cell_volume 487.449731
_symmetry_space_group_name_H-M "P -1"
_symmetry_group_IT_number 2
_symmetry_cell_setting 'triclinic'
loop_
_space_group_symop_operation_xyz
x,y,z
-x,-y,-z
loop_
_atom_site_type_symbol
_atom_site_label
_atom_site_fract_x
_atom_site_fract_y
_atom_site_fract_z
Si Si1 0.798179 0.710772 0.466949
Si Si2 0.023677 0.161124 0.664518
Si Si3 0.950830 0.251065 0.354887
Si Si4 0.665542 0.472313 0.789990
Si Si5 0.637082 0.285694 0.789813
Si Si6 0.690131 0.764109 0.716633
O O1 0.708444 0.823155 0.657137
O O2 0.000000 0.500000 0.500000
O O3 0.867159 0.804340 0.571710
O O4 0.655275 0.661948 0.127631
O O5 0.987400 0.165095 0.448487
O O6 0.853820 0.377572 0.812236
O O7 0.221550 0.139470 0.927985
O O8 0.000000 0.000000 0.500000
O O9 0.824339 0.509023 0.559355
O O10 0.173347 0.807552 0.990212
O O11 0.500000 0.500000 0.500000
O O12 0.680529 0.331063 0.749325
O O13 0.520876 0.178850 0.465869
O O14 0.500000 0.500000 0.000000
#
# Coordination Sequence:
#
# PCOD9053896 Si02
#       6
#     2   2   2   2   2   2
#     4  10  17  35  62  92 115 150 210 258 291 344
#     4  12  26  41  57  90 132 165 195 246 311 365
#     4  10  19  36  62  86 116 158 209 245 295 356
#     4  12  22  36  64  95 123 153 206 256 295 353
#     4  10  18  34  61  96 117 144 203 266 296 338
#     4  10  19  37  64  90 120 153 209 253 293 359
#
# _framework density 24.617923000000001
#
# number of rings (size 3 to 8) (size 9 to 14) (size 15 to 20)
#    0.000    1.333    8.333    2.500    2.333    0.000 
#    0.000    5.000    0.000    0.000    0.000    0.000 
#    0.000    0.000    0.000    0.000    0.000    0.000 
#
# Total GULP energy -67160.228667 kJ/mol
# GULP energy per Si atom -5596.685722 kJ/mol
# Density = 2.456189 g / cm^3
# Si number density = 24.617923 Si / 1000 Ang^3
#
#
#
# Elastic Constant Matrix: (Units=GPa)
#
#
# Indices 1 2 3 4 5 6 
#
# 1 209.7872 45.7086 82.8146 -36.7141 -6.9516 30.6850
# 2 45.7086 77.2490 60.9186 -21.7577 1.1972 20.1923
# 3 82.8146 60.9186 199.3292 -63.6590 8.6745 19.6565
# 4 -36.7141 -21.7577 -63.6590 46.9654 -0.6855 -4.5378
# 5 -6.9516 1.1972 8.6745 -0.6855 62.9074 -7.9011
# 6 30.6850 20.1923 19.6565 -4.5378 -7.9011 41.0420
#
#
#
# Elastic Compliance Matrix: (Units=1/GPa)
#
#
# Indices 1 2 3 4 5 6 
#
# 1 0.006453 -0.001353 -0.001161 0.002540 0.000522 -0.003221
# 2 -0.001353 0.019118 -0.004106 0.001606 -0.000732 -0.006391
# 3 -0.001161 -0.004106 0.010578 0.011388 -0.001537 -0.001215
# 4 0.002540 0.001606 0.011388 0.039040 -0.001409 -0.004098
# 5 0.000522 -0.000732 -0.001537 -0.001409 0.016636 0.003753
# 6 -0.003221 -0.006391 -0.001215 -0.004098 0.003753 0.030769
#
#
# Mechanical properties :
#
#
# Convention : Reuss Voigt Hill
#
# Bulk Modulus (GPa) = 43.65260 96.13878 69.89569
# Shear Modulus (GPa) = 34.85045 49.97787 42.41416
#
# Velocity S-wave (km/s) = 3.76660 4.51060 4.15528
# Velocity P-wave (km/s) = 6.05697 8.14030 7.17465
#
# Compressibility (1/GPa) = 0.02290814
#
# Stress axis : x y z
#
# Youngs Moduli (GPa) = 154.96765 52.30758 94.53955
#
# Poissons Ratio (x) = 0.07078 0.10980
# Poissons Ratio (y) = 0.20969 0.38814
# Poissons Ratio (z) = 0.17998 0.21475
#
# Static dielectric constant tensor:
#      x y z
#    x 1.866680 -0.020400 0.009560 
#    y -0.020400 2.121800 0.091990 
#    z 0.009560 0.091990 1.930160 
# 
# From -- ./inp_files/316104.got.cif
#   From: 2010.05.17/outbox.cif.g08.bks.cpg/sg2_159_cif.got.tgz:316104.got - 2010.06.03 11:33:40.
