data_PCOD9053555
_publ_section_title
;
Structure prediction by ZEFSAII (Michael W. Deem and Ramdas Pophale) SiO2 
 PCOD9053555
Probable space group: P -1
;
_chemical_formula_sum "Si O2"
_cell_formula_units_Z 16
_cell_length_a 17.681306
_cell_length_b 12.773660
_cell_length_c 8.103202
_cell_angle_alpha 117.897828
_cell_angle_beta 128.932111
_cell_angle_gamma 36.051092
_cell_volume 834.600881
_symmetry_space_group_name_H-M "P -1"
_symmetry_group_IT_number 2
_symmetry_cell_setting 'triclinic'
loop_
_space_group_symop_operation_xyz
x,y,z
-x,-y,-z
loop_
_atom_site_type_symbol
_atom_site_label
_atom_site_fract_x
_atom_site_fract_y
_atom_site_fract_z
Si Si1 0.852572 0.849694 0.975757
Si Si2 0.672447 0.023961 0.191431
Si Si3 0.484992 0.374115 0.398430
Si Si4 0.810899 0.480849 0.869972
Si Si5 0.821695 0.604588 0.652469
Si Si6 0.415944 0.885437 0.393256
Si Si7 0.561456 0.877507 0.271786
Si Si8 0.105069 0.366365 0.695520
O O1 0.829907 0.728088 0.833155
O O2 0.753222 0.985722 0.787687
O O3 0.775234 0.956878 0.121733
O O4 0.024116 0.719235 0.082429
O O5 0.771436 0.846022 0.308195
O O6 0.605572 0.198524 0.319261
O O7 0.526581 0.086193 0.979232
O O8 0.500000 0.500000 0.500000
O O9 0.317592 0.485778 0.215462
O O10 0.519685 0.289047 0.563852
O O11 0.763721 0.573884 0.694020
O O12 0.828541 0.577263 0.086862
O O13 0.726846 0.696673 0.422508
O O14 0.986738 0.420419 0.701122
O O15 0.479511 0.878182 0.304165
O O16 0.449683 0.970916 0.613621
O O17 0.000000 0.500000 0.500000
#
# Coordination Sequence:
#
# PCOD9053555 Si02
#       8
#     2   2   2   2   2   2   2   2
#     4   9  18  37  62  92 116 156 194 247 316 380
#     4  11  22  38  59  88 129 153 205 261 306 362
#     4  12  28  43  56  83 127 176 217 254 294 345
#     4  11  20  40  63  87 129 169 192 247 313 378
#     4  10  17  35  60  95 133 150 187 238 322 401
#     4   9  18  35  61  86 123 148 198 249 309 371
#     4   9  18  33  62  99 113 152 193 251 324 376
#     4  11  23  34  60 104 134 149 188 254 333 384
#
# _framework density 19.170840999999999
#
# number of rings (size 3 to 8) (size 9 to 14) (size 15 to 20)
#    0.000    1.750    3.750    2.250    7.000    1.000 
#    0.000    3.750    0.000    0.000    0.000    0.000 
#    0.000    0.000    0.000    0.000    0.000    0.000 
#
# Total GULP energy -89159.796689 kJ/mol
# GULP energy per Si atom -5572.487293 kJ/mol
# Density = 1.912721 g / cm^3
# Si number density = 19.170841 Si / 1000 Ang^3
#
#
#
# Elastic Constant Matrix: (Units=GPa)
#
#
# Indices 1 2 3 4 5 6 
#
# 1 90.4991 71.1764 34.7411 8.1208 12.0916 -9.5365
# 2 71.1764 129.4926 71.1298 -10.1117 17.6347 -7.8671
# 3 34.7411 71.1298 77.0359 -11.8361 3.7433 4.0949
# 4 8.1208 -10.1117 -11.8361 30.0358 -4.6786 0.0505
# 5 12.0916 17.6347 3.7433 -4.6786 28.7280 -4.7360
# 6 -9.5365 -7.8671 4.0949 0.0505 -4.7360 40.9239
#
#
#
# Elastic Compliance Matrix: (Units=1/GPa)
#
#
# Indices 1 2 3 4 5 6 
#
# 1 0.022782 -0.012648 -0.000271 -0.011022 -0.003164 0.002552
# 2 -0.012648 0.025419 -0.016931 0.004223 -0.006920 0.002827
# 3 -0.000271 -0.016931 0.029801 0.007199 0.006888 -0.005512
# 4 -0.011022 0.004223 0.007199 0.041724 0.007633 -0.001645
# 5 -0.003164 -0.006920 0.006888 0.007633 0.041061 0.001986
# 6 0.002552 0.002827 -0.005512 -0.001645 0.001986 0.026357
#
#
# Mechanical properties :
#
#
# Convention : Reuss Voigt Hill
#
# Bulk Modulus (GPa) = 54.64251 72.34688 63.49470
# Shear Modulus (GPa) = 19.76715 27.93624 23.85170
#
# Velocity S-wave (km/s) = 3.21457 3.82150 3.53110
# Velocity P-wave (km/s) = 6.50713 7.56913 7.05813
#
# Compressibility (1/GPa) = 0.01830077
#
# Stress axis : x y z
#
# Youngs Moduli (GPa) = 43.89382 39.34094 33.55639
#
# Poissons Ratio (x) = 0.49760 0.00909
# Poissons Ratio (y) = 0.55519 0.56815
# Poissons Ratio (z) = 0.01189 0.66609
#
# Static dielectric constant tensor:
#      x y z
#    x 1.761360 -0.075930 -0.051580 
#    y -0.075930 1.697050 -0.053130 
#    z -0.051580 -0.053130 1.697440 
# 
# From -- ./inp_files/332400.got.cif
#   From: 2010.05.17/outbox.cif.g08.bks.cpg/sg2_167_cif.got.tgz:332400.got - 2010.06.03 11:33:40.
