data_PCOD9053980
_publ_section_title
;
Structure prediction by ZEFSAII (Michael W. Deem and Ramdas Pophale) SiO2 
 PCOD9053980
Probable space group: P -1
;
_chemical_formula_sum "Si O2"
_cell_formula_units_Z 14
_cell_length_a 9.915998
_cell_length_b 15.187293
_cell_length_c 17.388192
_cell_angle_alpha 160.846839
_cell_angle_beta 43.707421
_cell_angle_gamma 134.290352
_cell_volume 592.276722
_symmetry_space_group_name_H-M "P -1"
_symmetry_group_IT_number 2
_symmetry_cell_setting 'triclinic'
loop_
_space_group_symop_operation_xyz
x,y,z
-x,-y,-z
loop_
_atom_site_type_symbol
_atom_site_label
_atom_site_fract_x
_atom_site_fract_y
_atom_site_fract_z
Si Si1 0.354233 0.461091 0.456206
Si Si2 0.301848 0.270086 0.972133
Si Si3 0.675073 0.303686 0.086475
Si Si4 0.339186 0.044438 0.929843
Si Si5 0.354609 0.863096 0.384020
Si Si6 0.894778 0.763114 0.294765
Si Si7 0.074643 0.019648 0.173545
O O1 0.500000 0.500000 0.500000
O O2 0.489442 0.294212 0.210078
O O3 0.147863 0.295460 0.413938
O O4 0.321400 0.738091 0.657203
O O5 0.282227 0.238363 0.045471
O O6 0.516255 0.200711 0.797149
O O7 0.270723 0.573127 0.208959
O O8 0.146995 0.061398 0.822032
O O9 0.729026 0.600731 0.279365
O O10 0.572681 0.113772 0.906683
O O11 0.846541 0.200013 0.981800
O O12 0.189906 0.031168 0.053252
O O13 0.500000 0.000000 0.500000
O O14 0.196309 0.071447 0.599710
O O15 0.000000 0.000000 0.500000
O O16 0.000000 0.500000 0.000000
#
# Coordination Sequence:
#
# PCOD9053980 Si02
#       7
#     2   2   2   2   2   2   2
#     4  11  20  39  67  98 143 190 239 303 373 439
#     4  11  26  45  73 102 152 195 246 304 382 454
#     4  11  23  41  70 100 142 190 244 310 377 436
#     4  11  22  42  69 100 145 189 240 303 375 449
#     4  11  27  51  74 103 150 203 248 311 393 449
#     4  12  30  49  81 116 148 195 268 323 378 452
#     4  11  23  40  66 108 140 186 248 297 368 454
#
# _framework density 23.637601
#
# number of rings (size 3 to 8) (size 9 to 14) (size 15 to 20)
#    0.000    0.857    2.857    3.857   10.000    2.857 
#    0.000    0.000    0.000    0.000    0.000    0.000 
#    0.000    0.000    0.000    0.000    0.000    0.000 
#
# Total GULP energy -78150.526616 kJ/mol
# GULP energy per Si atom -5582.180473 kJ/mol
# Density = 2.358380 g / cm^3
# Si number density = 23.637601 Si / 1000 Ang^3
#
#
#
# Elastic Constant Matrix: (Units=GPa)
#
#
# Indices 1 2 3 4 5 6 
#
# 1 108.7571 31.8509 37.5799 15.7494 -7.1375 -5.7226
# 2 31.8509 84.2343 35.7508 22.5202 -8.6958 -4.7157
# 3 37.5799 35.7508 110.5654 23.9429 -9.6951 -1.6489
# 4 15.7494 22.5202 23.9429 43.2917 2.6637 -2.8163
# 5 -7.1375 -8.6958 -9.6951 2.6637 40.0796 13.0777
# 6 -5.7226 -4.7157 -1.6489 -2.8163 13.0777 30.9864
#
#
#
# Elastic Compliance Matrix: (Units=1/GPa)
#
#
# Indices 1 2 3 4 5 6 
#
# 1 0.011144 -0.002679 -0.002611 -0.001165 0.000453 0.001214
# 2 -0.002679 0.015910 -0.002706 -0.005963 0.002681 0.000109
# 3 -0.002611 -0.002706 0.012012 -0.004575 0.002756 -0.001834
# 4 -0.001165 -0.005963 -0.004575 0.029760 -0.005825 0.003797
# 5 0.000453 0.002681 0.002756 -0.005825 0.030884 -0.012926
# 6 0.001214 0.000109 -0.001834 0.003797 -0.012926 0.038216
#
#
# Mechanical properties :
#
#
# Convention : Reuss Voigt Hill
#
# Bulk Modulus (GPa) = 43.34006 57.10222 50.22114
# Shear Modulus (GPa) = 30.93861 36.09656 33.51759
#
# Velocity S-wave (km/s) = 3.62176 3.91203 3.76969
# Velocity P-wave (km/s) = 5.98870 6.67945 6.34349
#
# Compressibility (1/GPa) = 0.02307334
#
# Stress axis : x y z
#
# Youngs Moduli (GPa) = 89.73347 62.85232 83.25144
#
# Poissons Ratio (x) = 0.16840 0.21739
# Poissons Ratio (y) = 0.24043 0.22526
# Poissons Ratio (z) = 0.23432 0.17007
#
# Static dielectric constant tensor:
#      x y z
#    x 2.257200 0.040430 0.180270 
#    y 0.040430 1.951930 -0.041980 
#    z 0.180270 -0.041980 2.019750 
# 
# From -- ./inp_files/68133.got.cif
#   From: 2010.05.17/outbox.cif.g08.bks.cpg/sg2_35_cif.got.tgz:68133.got - 2010.06.03 11:33:40.
