data_PCOD9053919
_publ_section_title
;
Structure prediction by ZEFSAII (Michael W. Deem and Ramdas Pophale) SiO2 
 PCOD9053919
Probable space group: P -1
;
_chemical_formula_sum "Si O2"
_cell_formula_units_Z 16
_cell_length_a 18.064624
_cell_length_b 30.322577
_cell_length_c 24.732867
_cell_angle_alpha 169.664374
_cell_angle_beta 19.295464
_cell_angle_gamma 160.680715
_cell_volume 776.423322
_symmetry_space_group_name_H-M "P -1"
_symmetry_group_IT_number 2
_symmetry_cell_setting 'triclinic'
loop_
_space_group_symop_operation_xyz
x,y,z
-x,-y,-z
loop_
_atom_site_type_symbol
_atom_site_label
_atom_site_fract_x
_atom_site_fract_y
_atom_site_fract_z
Si Si1 0.196819 0.406983 0.719929
Si Si2 0.761729 0.787980 0.917099
Si Si3 0.288668 0.812261 0.765911
Si Si4 0.494269 0.078556 0.849239
Si Si5 0.803136 0.001814 0.683340
Si Si6 0.433895 0.831434 0.289596
Si Si7 0.837594 0.724700 0.160394
Si Si8 0.969743 0.013809 0.311477
O O1 0.252223 0.215545 0.494676
O O2 0.403098 0.655943 0.870161
O O3 0.102911 0.255706 0.547814
O O4 0.000000 0.500000 0.000000
O O5 0.767759 0.491809 0.553805
O O6 0.590680 0.839680 0.050604
O O7 0.652667 0.831161 0.101501
O O8 0.000000 0.000000 0.000000
O O9 0.287889 0.892525 0.800479
O O10 0.556039 0.950079 0.763067
O O11 0.127636 0.932805 0.059733
O O12 0.696857 0.933531 0.525644
O O13 0.932396 0.239514 0.917975
O O14 0.000000 0.000000 0.500000
O O15 0.500000 0.000000 0.500000
O O16 0.249613 0.925161 0.492593
O O17 0.321775 0.547445 0.044702
O O18 0.899591 0.787154 0.130656
#
# Coordination Sequence:
#
# PCOD9053919 Si02
#       8
#     2   2   2   2   2   2   2   2
#     4  11  20  39  71 103 141 183 226 278 351 424
#     4  12  28  49  74 102 141 186 241 295 342 419
#     4  12  27  45  70 109 144 182 234 292 352 414
#     4  12  23  44  73 104 139 187 230 283 352 423
#     4  11  20  38  71 103 138 182 228 274 347 425
#     4  12  28  49  73 103 137 188 243 287 347 420
#     4  11  24  43  74 102 138 188 230 280 354 420
#     4  11  28  46  68 108 147 179 232 296 349 411
#
# _framework density 20.607315
#
# number of rings (size 3 to 8) (size 9 to 14) (size 15 to 20)
#    0.000    0.500    7.500    0.000    7.000    4.500 
#    0.000    0.000    0.000    0.000    0.000    0.000 
#    0.000    0.000    0.000    0.000    0.000    0.000 
#
# Total GULP energy -89374.348630 kJ/mol
# GULP energy per Si atom -5585.896789 kJ/mol
# Density = 2.056041 g / cm^3
# Si number density = 20.607315 Si / 1000 Ang^3
#
#
#
# Elastic Constant Matrix: (Units=GPa)
#
#
# Indices 1 2 3 4 5 6 
#
# 1 75.0110 12.7785 23.3822 20.1928 10.0909 -7.4195
# 2 12.7785 121.3359 48.3051 23.7785 8.9768 -10.1291
# 3 23.3822 48.3051 88.3780 12.2384 17.3633 -1.9946
# 4 20.1928 23.7785 12.2384 45.9898 -9.3997 2.7181
# 5 10.0909 8.9768 17.3633 -9.3997 20.7438 -1.8296
# 6 -7.4195 -10.1291 -1.9946 2.7181 -1.8296 33.5510
#
#
#
# Elastic Compliance Matrix: (Units=1/GPa)
#
#
# Indices 1 2 3 4 5 6 
#
# 1 0.019262 0.002672 -0.001931 -0.012519 -0.014125 0.005196
# 2 0.002672 0.012250 -0.005260 -0.007420 -0.005182 0.004295
# 3 -0.001931 -0.005260 0.017892 -0.003902 -0.013651 -0.001380
# 4 -0.012519 -0.007420 -0.003902 0.038531 0.029431 -0.006757
# 5 -0.014125 -0.005182 -0.013651 0.029431 0.081781 -0.003424
# 6 0.005196 0.004295 -0.001380 -0.006757 -0.003424 0.032530
#
#
# Mechanical properties :
#
#
# Convention : Reuss Voigt Hill
#
# Bulk Modulus (GPa) = 24.77243 50.40627 37.58935
# Shear Modulus (GPa) = 22.24797 33.40754 27.82776
#
# Velocity S-wave (km/s) = 3.28931 4.03072 3.67874
# Velocity P-wave (km/s) = 5.14523 6.79527 6.02699
#
# Compressibility (1/GPa) = 0.04036745
#
# Stress axis : x y z
#
# Youngs Moduli (GPa) = 51.91482 81.62973 55.89068
#
# Poissons Ratio (x) = -0.21814 0.10791
# Poissons Ratio (y) = -0.13873 0.29400
# Poissons Ratio (z) = 0.10024 0.42939
#
# Static dielectric constant tensor:
#      x y z
#    x 1.821400 -0.019850 -0.007680 
#    y -0.019850 1.776130 0.009620 
#    z -0.007680 0.009620 1.698200 
# 
# From -- ./inp_files/226194.got.cif
#   From: 2010.05.17/outbox.cif.g08.bks.cpg/sg2_114_cif.got.tgz:226194.got - 2010.06.03 11:33:40.
