data_PCOD9053614
_publ_section_title
;
Structure prediction by ZEFSAII (Michael W. Deem and Ramdas Pophale) SiO2 
 PCOD9053614
Probable space group: P -1
;
_chemical_formula_sum "Si O2"
_cell_formula_units_Z 16
_cell_length_a 24.007569
_cell_length_b 13.659443
_cell_length_c 5.368360
_cell_angle_alpha 88.539949
_cell_angle_beta 76.509110
_cell_angle_gamma 31.830072
_cell_volume 850.096002
_symmetry_space_group_name_H-M "P -1"
_symmetry_group_IT_number 2
_symmetry_cell_setting 'triclinic'
loop_
_space_group_symop_operation_xyz
x,y,z
-x,-y,-z
loop_
_atom_site_type_symbol
_atom_site_label
_atom_site_fract_x
_atom_site_fract_y
_atom_site_fract_z
Si Si1 0.356399 0.260509 0.404369
Si Si2 0.995297 0.125450 0.031609
Si Si3 0.692688 0.516420 0.160725
Si Si4 0.741411 0.237146 0.240010
Si Si5 0.577557 0.059248 0.600074
Si Si6 0.461898 0.831559 0.877470
Si Si7 0.853940 0.366568 0.671415
Si Si8 0.602357 0.423981 0.851947
O O1 0.455742 0.192045 0.227800
O O2 0.252491 0.403887 0.305041
O O3 0.408655 0.077588 0.415920
O O4 0.298762 0.396292 0.697262
O O5 0.123082 0.981027 0.915681
O O6 0.931234 0.264286 0.844402
O O7 0.000000 0.000000 0.000000
O O8 0.930807 0.238347 0.354962
O O9 0.773328 0.394790 0.842447
O O10 0.731120 0.369057 0.294814
O O11 0.557397 0.711653 0.242363
O O12 0.679820 0.280499 0.540029
O O13 0.675218 0.321502 0.040183
O O14 0.609523 0.061704 0.310383
O O15 0.624623 0.028569 0.811176
O O16 0.539248 0.620334 0.837256
O O17 0.500000 0.500000 0.000000
#
# Coordination Sequence:
#
# PCOD9053614 Si02
#       8
#     2   2   2   2   2   2   2   2
#     4  11  21  34  53  79 120 163 183 222 282 339
#     4  12  25  34  55  79 113 157 201 226 274 339
#     4  11  20  34  52  78 116 160 182 230 271 339
#     4  12  23  40  58  81 117 153 192 238 290 328
#     4  11  22  31  54  79 115 161 185 217 284 355
#     4  11  20  35  50  80 113 148 186 229 275 342
#     4  12  22  34  48  79 112 153 200 225 254 337
#     4  12  24  41  63  83 111 153 197 244 291 335
#
# _framework density 18.821404999999999
#
# number of rings (size 3 to 8) (size 9 to 14) (size 15 to 20)
#    0.000    0.500    7.500    3.375    3.500    0.000 
#    0.000    0.000    0.000    0.000    0.000    0.000 
#    0.000   20.000    0.000    0.000    0.000    0.000 
#
# Total GULP energy -89132.419195 kJ/mol
# GULP energy per Si atom -5570.776200 kJ/mol
# Density = 1.877857 g / cm^3
# Si number density = 18.821405 Si / 1000 Ang^3
#
#
#
# Elastic Constant Matrix: (Units=GPa)
#
#
# Indices 1 2 3 4 5 6 
#
# 1 30.0596 17.1310 23.5970 -6.7302 -2.4760 -10.1081
# 2 17.1310 71.5620 22.3503 -14.1461 1.6702 -11.1691
# 3 23.5970 22.3503 135.5877 -25.9004 9.8118 -13.6097
# 4 -6.7302 -14.1461 -25.9004 28.8464 -12.0545 6.1950
# 5 -2.4760 1.6702 9.8118 -12.0545 26.1916 -2.8477
# 6 -10.1081 -11.1691 -13.6097 6.1950 -2.8477 15.0445
#
#
#
# Elastic Compliance Matrix: (Units=1/GPa)
#
#
# Indices 1 2 3 4 5 6 
#
# 1 0.051571 -0.006183 -0.005570 0.003335 0.011703 0.025862
# 2 -0.006183 0.017780 -0.000067 0.006668 0.002097 0.006636
# 3 -0.005570 -0.000067 0.009932 0.006724 -0.000903 0.002253
# 4 0.003335 0.006668 0.006724 0.055146 0.022182 -0.005235
# 5 0.011703 0.002097 -0.000903 0.022182 0.050686 0.009063
# 6 0.025862 0.006636 0.002253 -0.005235 0.009063 0.094682
#
#
# Mechanical properties :
#
#
# Convention : Reuss Voigt Hill
#
# Bulk Modulus (GPa) = 17.97171 40.37397 29.17284
# Shear Modulus (GPa) = 15.52881 25.62523 20.57702
#
# Velocity S-wave (km/s) = 2.87550 3.69385 3.31006
# Velocity P-wave (km/s) = 4.53806 6.30003 5.49019
#
# Compressibility (1/GPa) = 0.05564302
#
# Stress axis : x y z
#
# Youngs Moduli (GPa) = 19.39080 56.24361 100.68953
#
# Poissons Ratio (x) = 0.34777 0.56081
# Poissons Ratio (y) = 0.11990 0.00671
# Poissons Ratio (z) = 0.10800 0.00375
#
# Static dielectric constant tensor:
#      x y z
#    x 1.692130 -0.058070 0.067710 
#    y -0.058070 1.720110 -0.074290 
#    z 0.067710 -0.074290 1.783430 
# 
# From -- ./inp_files/128535.got.cif
#   From: 2010.05.17/outbox.cif.g08.bks.cpg/sg2_65_cif.got.tgz:128535.got - 2010.06.03 11:33:40.
