data_PCOD9053225
_publ_section_title
;
Structure prediction by ZEFSAII (Michael W. Deem and Ramdas Pophale) SiO2 
 PCOD9053225
Probable space group: P -1
;
_chemical_formula_sum "Si O2"
_cell_formula_units_Z 16
_cell_length_a 8.984761
_cell_length_b 14.233865
_cell_length_c 11.833081
_cell_angle_alpha 119.064256
_cell_angle_beta 135.358772
_cell_angle_gamma 49.715063
_cell_volume 810.228118
_symmetry_space_group_name_H-M "P -1"
_symmetry_group_IT_number 2
_symmetry_cell_setting 'triclinic'
loop_
_space_group_symop_operation_xyz
x,y,z
-x,-y,-z
loop_
_atom_site_type_symbol
_atom_site_label
_atom_site_fract_x
_atom_site_fract_y
_atom_site_fract_z
Si Si1 0.945217 0.803420 0.081841
Si Si2 0.596285 0.989440 0.404163
Si Si3 0.475557 0.650118 0.188651
Si Si4 0.755358 0.010760 0.919888
Si Si5 0.708390 0.358331 0.164727
Si Si6 0.805115 0.011627 0.311328
Si Si7 0.246452 0.218371 0.477379
Si Si8 0.493285 0.782376 0.898514
O O1 0.914427 0.906930 0.215935
O O2 0.227712 0.709083 0.162613
O O3 0.835822 0.881049 0.952672
O O4 0.768347 0.752154 0.001489
O O5 0.637138 0.988219 0.292440
O O6 0.790545 0.876597 0.515222
O O7 0.375085 0.962916 0.257589
O O8 0.477988 0.124794 0.470840
O O9 0.618028 0.503061 0.195620
O O10 0.659427 0.700486 0.355386
O O11 0.372833 0.674881 0.018453
O O12 0.619331 0.119341 0.001692
O O13 0.000000 0.000000 0.000000
O O14 0.562502 0.325382 0.160444
O O15 0.996505 0.288878 0.312116
O O16 0.661412 0.141548 0.249008
O O17 0.000000 0.000000 0.500000
#
# Coordination Sequence:
#
# PCOD9053225 Si02
#       8
#     2   2   2   2   2   2   2   2
#     4  11  21  38  60  91 129 162 204 257 312 379
#     4  11  20  35  59  99 120 158 190 237 338 364
#     4  11  25  44  66  88 119 173 220 261 307 354
#     4  11  19  34  60  92 127 159 198 248 311 379
#     4  11  25  44  66  88 119 173 220 261 307 354
#     4  11  21  34  56  91 131 157 190 243 321 388
#     4  11  23  40  66  96 127 153 212 268 302 383
#     4  11  21  38  60  91 129 162 204 257 312 379
#
# _framework density 19.747523999999999
#
# number of rings (size 3 to 8) (size 9 to 14) (size 15 to 20)
#    0.000    1.000    2.500    6.375    0.000    4.500 
#    0.000    1.875    0.000    2.250    0.000    0.000 
#    0.000    0.000    0.000    0.000    0.000    0.000 
#
# Total GULP energy -89112.415666 kJ/mol
# GULP energy per Si atom -5569.525979 kJ/mol
# Density = 1.970258 g / cm^3
# Si number density = 19.747524 Si / 1000 Ang^3
#
#
#
# Elastic Constant Matrix: (Units=GPa)
#
#
# Indices 1 2 3 4 5 6 
#
# 1 89.4154 35.0001 21.4131 -8.3821 -3.1557 6.8699
# 2 35.0001 98.0295 45.9099 -19.5550 -3.8863 9.7626
# 3 21.4131 45.9099 122.8330 -21.9941 2.5369 7.6273
# 4 -8.3821 -19.5550 -21.9941 24.4547 -1.9345 4.3779
# 5 -3.1557 -3.8863 2.5369 -1.9345 34.6614 -0.5261
# 6 6.8699 9.7626 7.6273 4.3779 -0.5261 25.9989
#
#
#
# Elastic Compliance Matrix: (Units=1/GPa)
#
#
# Indices 1 2 3 4 5 6 
#
# 1 0.013165 -0.003979 -0.000454 0.001358 0.000830 -0.002063
# 2 -0.003979 0.015598 -0.003159 0.009401 0.002060 -0.005420
# 3 -0.000454 -0.003159 0.011003 0.007730 -0.000819 -0.003240
# 4 0.001358 0.009401 0.007730 0.058984 0.003661 -0.016015
# 5 0.000830 0.002060 -0.000819 0.003661 0.029410 -0.000774
# 6 -0.002063 -0.005420 -0.003240 -0.016015 -0.000774 0.044675
#
#
# Mechanical properties :
#
#
# Convention : Reuss Voigt Hill
#
# Bulk Modulus (GPa) = 40.67810 57.21379 48.94595
# Shear Modulus (GPa) = 25.48275 30.88664 28.18470
#
# Velocity S-wave (km/s) = 3.59615 3.95913 3.78200
# Velocity P-wave (km/s) = 6.15523 7.06648 6.62654
#
# Compressibility (1/GPa) = 0.02458325
#
# Stress axis : x y z
#
# Youngs Moduli (GPa) = 75.95955 64.11196 90.88376
#
# Poissons Ratio (x) = 0.25507 0.04125
# Poissons Ratio (y) = 0.30221 0.28709
# Poissons Ratio (z) = 0.03448 0.20252
#
# Static dielectric constant tensor:
#      x y z
#    x 1.398460 0.056340 -0.285970 
#    y 0.056340 1.709900 -0.007320 
#    z -0.285970 -0.007320 1.550050 
# 
# From -- ./inp_files/397681.got.cif
#   From: 2010.05.17/outbox.cif.g08.bks.cpg/sg2_199_cif.got.tgz:397681.got - 2010.06.03 11:33:40.
