data_PCOD9053551
_publ_section_title
;
Structure prediction by ZEFSAII (Michael W. Deem and Ramdas Pophale) SiO2 
 PCOD9053551
Probable space group: P -1
;
_chemical_formula_sum "Si O2"
_cell_formula_units_Z 16
_cell_length_a 10.529053
_cell_length_b 16.615810
_cell_length_c 16.233137
_cell_angle_alpha 31.214391
_cell_angle_beta 32.729075
_cell_angle_gamma 33.272492
_cell_volume 723.554108
_symmetry_space_group_name_H-M "P -1"
_symmetry_group_IT_number 2
_symmetry_cell_setting 'triclinic'
loop_
_space_group_symop_operation_xyz
x,y,z
-x,-y,-z
loop_
_atom_site_type_symbol
_atom_site_label
_atom_site_fract_x
_atom_site_fract_y
_atom_site_fract_z
Si Si1 0.311214 0.603042 0.389488
Si Si2 0.185398 0.123804 0.842439
Si Si3 0.556231 0.037832 0.316087
Si Si4 0.275740 0.288622 0.378530
Si Si5 0.221327 0.554970 0.296112
Si Si6 0.085991 0.935964 0.631722
Si Si7 0.744410 0.020771 0.887379
Si Si8 0.645125 0.241708 0.510551
O O1 0.336518 0.590121 0.286624
O O2 0.310764 0.780372 0.261905
O O3 0.544996 0.427395 0.442965
O O4 0.029859 0.609796 0.561852
O O5 0.283955 0.991040 0.829215
O O6 0.390857 0.209875 0.658951
O O7 0.918569 0.276092 0.828918
O O8 0.199767 0.037771 0.997492
O O9 0.710972 0.877748 0.431984
O O10 0.456539 0.212763 0.267672
O O11 0.297739 0.012130 0.458664
O O12 0.372696 0.398860 0.288815
O O13 0.000000 0.500000 0.500000
O O14 0.992400 0.907753 0.796137
O O15 0.834062 0.085003 0.598779
O O16 0.201498 0.781966 0.638728
O O17 0.500000 0.000000 0.000000
#
# Coordination Sequence:
#
# PCOD9053551 Si02
#       8
#     2   2   2   2   2   2   2   2
#     4  11  21  40  64  96 119 165 207 260 310 370
#     4  11  20  37  64  90 126 165 197 256 316 364
#     4  10  19  35  61  96 121 158 206 255 303 368
#     4  10  18  34  65  96 120 149 208 265 300 353
#     4  10  17  35  60  95 117 152 206 260 299 362
#     4  10  21  39  62  93 121 164 210 256 305 363
#     4  12  26  42  57  89 136 169 204 250 321 372
#     4  10  20  39  70  88 116 162 223 256 294 364
#
# _framework density 22.113067000000001
#
# number of rings (size 3 to 8) (size 9 to 14) (size 15 to 20)
#    0.000    1.500    7.500    0.750    0.000    1.000 
#    2.250    1.875    0.000    2.250    0.000    0.000 
#    0.000    0.000    0.000    0.000    0.000    0.000 
#
# Total GULP energy -89425.073722 kJ/mol
# GULP energy per Si atom -5589.067108 kJ/mol
# Density = 2.206274 g / cm^3
# Si number density = 22.113067 Si / 1000 Ang^3
#
#
#
# Elastic Constant Matrix: (Units=GPa)
#
#
# Indices 1 2 3 4 5 6 
#
# 1 55.6486 29.1865 12.4231 5.5862 13.4132 16.7689
# 2 29.1865 145.0592 31.0268 10.8247 17.3225 25.7197
# 3 12.4231 31.0268 58.8757 4.2779 15.8842 15.6217
# 4 5.5862 10.8247 4.2779 20.8110 13.8263 10.2644
# 5 13.4132 17.3225 15.8842 13.8263 42.6645 5.5615
# 6 16.7689 25.7197 15.6217 10.2644 5.5615 53.8887
#
#
#
# Elastic Compliance Matrix: (Units=1/GPa)
#
#
# Indices 1 2 3 4 5 6 
#
# 1 0.022342 -0.002959 -0.000395 0.001929 -0.005621 -0.005213
# 2 -0.002959 0.008710 -0.003162 -0.001724 -0.000619 -0.001927
# 3 -0.000395 -0.003162 0.021701 0.004665 -0.007561 -0.004767
# 4 0.001929 -0.001724 0.004665 0.068001 -0.022142 -0.011797
# 5 -0.005621 -0.000619 -0.007561 -0.022142 0.034814 0.004861
# 6 -0.005213 -0.001927 -0.004767 -0.011797 0.004861 0.024226
#
#
# Mechanical properties :
#
#
# Convention : Reuss Voigt Hill
#
# Bulk Modulus (GPa) = 25.17669 44.98404 35.08037
# Shear Modulus (GPa) = 24.26403 35.93597 30.10000
#
# Velocity S-wave (km/s) = 3.31610 4.03563 3.69343
# Velocity P-wave (km/s) = 5.10609 6.48860 5.83841
#
# Compressibility (1/GPa) = 0.03971928
#
# Stress axis : x y z
#
# Youngs Moduli (GPa) = 44.75830 114.81430 46.08187
#
# Poissons Ratio (x) = 0.33976 0.01822
# Poissons Ratio (y) = 0.13245 0.14571
# Poissons Ratio (z) = 0.01770 0.36304
#
# Static dielectric constant tensor:
#      x y z
#    x 1.872020 0.008100 0.019270 
#    y 0.008100 1.841260 0.005280 
#    z 0.019270 0.005280 1.819990 
# 
# From -- ./inp_files/245103.got.cif
#   From: 2010.05.17/outbox.cif.g08.bks.cpg/sg2_123_cif.got.tgz:245103.got - 2010.06.03 11:33:40.
