data_PCOD9053602
_publ_section_title
;
Structure prediction by ZEFSAII (Michael W. Deem and Ramdas Pophale) SiO2 
 PCOD9053602
Probable space group: P -1
;
_chemical_formula_sum "Si O2"
_cell_formula_units_Z 16
_cell_length_a 20.446592
_cell_length_b 19.648114
_cell_length_c 11.455287
_cell_angle_alpha 41.194054
_cell_angle_beta 148.705410
_cell_angle_gamma 160.578074
_cell_volume 755.940642
_symmetry_space_group_name_H-M "P -1"
_symmetry_group_IT_number 2
_symmetry_cell_setting 'triclinic'
loop_
_space_group_symop_operation_xyz
x,y,z
-x,-y,-z
loop_
_atom_site_type_symbol
_atom_site_label
_atom_site_fract_x
_atom_site_fract_y
_atom_site_fract_z
Si Si1 0.894928 0.512120 0.235921
Si Si2 0.676052 0.024890 0.236652
Si Si3 0.217473 0.392499 0.618239
Si Si4 0.744178 0.388988 0.732286
Si Si5 0.646500 0.191969 0.616007
Si Si6 0.337852 0.020837 0.991267
Si Si7 0.811921 0.854826 0.016067
Si Si8 0.147330 0.904143 0.095639
O O1 0.589599 0.274834 0.059523
O O2 0.000000 0.500000 0.500000
O O3 0.065537 0.614578 0.247662
O O4 0.960764 0.678852 0.150947
O O5 0.936344 0.233514 0.441323
O O6 0.486849 0.802757 0.285660
O O7 0.500000 0.000000 0.000000
O O8 0.744377 0.041243 0.188139
O O9 0.225928 0.466797 0.416825
O O10 0.502119 0.620196 0.813327
O O11 0.155585 0.226314 0.752646
O O12 0.648344 0.281959 0.597889
O O13 0.000000 0.500000 0.000000
O O14 0.575462 0.034444 0.774959
O O15 0.438561 0.070484 0.356374
O O16 0.136516 0.903815 0.939065
O O17 0.872714 0.000757 0.995092
O O18 0.000000 0.000000 0.000000
#
# Coordination Sequence:
#
# PCOD9053602 Si02
#       8
#     2   2   2   2   2   2   2   2
#     4  11  20  33  59  92 133 175 209 261 336 400
#     4  12  24  41  68 101 140 179 217 271 341 414
#     4  11  25  44  69 102 135 177 227 284 339 395
#     4  12  22  38  63 100 138 177 215 268 335 399
#     4  11  20  34  57  93 135 165 213 272 323 400
#     4  11  22  39  58  96 137 172 215 268 335 403
#     4  11  26  47  71  97 134 178 234 288 330 400
#     4  11  23  40  61  93 129 169 225 280 329 393
#
# _framework density 21.165682
#
# number of rings (size 3 to 8) (size 9 to 14) (size 15 to 20)
#    0.000    0.750    6.250    2.250    0.000    4.000 
#    0.000    0.625    0.000    2.250    0.000    0.000 
#    0.000    0.000    0.000    0.000    0.000    0.000 
#
# Total GULP energy -89182.983406 kJ/mol
# GULP energy per Si atom -5573.936463 kJ/mol
# Density = 2.111751 g / cm^3
# Si number density = 21.165682 Si / 1000 Ang^3
#
#
#
# Elastic Constant Matrix: (Units=GPa)
#
#
# Indices 1 2 3 4 5 6 
#
# 1 99.9409 53.4247 20.4837 -19.8274 0.1239 -4.7452
# 2 53.4247 180.0420 54.7232 -25.7391 1.2875 -5.7795
# 3 20.4837 54.7232 81.7975 -13.8599 6.3307 2.4325
# 4 -19.8274 -25.7391 -13.8599 48.5818 -6.1458 1.7540
# 5 0.1239 1.2875 6.3307 -6.1458 25.5846 -8.9216
# 6 -4.7452 -5.7795 2.4325 1.7540 -8.9216 29.6290
#
#
#
# Elastic Compliance Matrix: (Units=1/GPa)
#
#
# Indices 1 2 3 4 5 6 
#
# 1 0.012507 -0.002934 -0.000768 0.003487 0.001747 0.001813
# 2 -0.002934 0.008152 -0.004588 0.001982 0.001895 0.001950
# 3 -0.000768 -0.004588 0.016212 0.001416 -0.004788 -0.003874
# 4 0.003487 0.001982 0.001416 0.024144 0.005725 0.001123
# 5 0.001747 0.001895 -0.004788 0.005725 0.046690 0.014763
# 6 0.001813 0.001950 -0.003874 0.001123 0.014763 0.039118
#
#
# Mechanical properties :
#
#
# Convention : Reuss Voigt Hill
#
# Bulk Modulus (GPa) = 49.27823 68.78260 59.03041
# Shear Modulus (GPa) = 29.38297 36.30233 32.84265
#
# Velocity S-wave (km/s) = 3.72995 4.14593 3.94343
# Velocity P-wave (km/s) = 6.47168 7.44890 6.97742
#
# Compressibility (1/GPa) = 0.02029294
#
# Stress axis : x y z
#
# Youngs Moduli (GPa) = 79.95385 122.67479 61.68124
#
# Poissons Ratio (x) = 0.35991 0.04735
# Poissons Ratio (y) = 0.23457 0.28297
# Poissons Ratio (z) = 0.06138 0.56279
#
# Static dielectric constant tensor:
#      x y z
#    x 1.773240 -0.019710 -0.020920 
#    y -0.019710 1.829570 0.013680 
#    z -0.020920 0.013680 1.822200 
# 
# From -- ./inp_files/472744.got.cif
#   From: 2010.05.17/outbox.cif.g08.bks.cpg/sg2_237_cif.got.tgz:472744.got - 2010.06.03 11:33:40.
