data_PCOD9053812
_publ_section_title
;
Structure prediction by ZEFSAII (Michael W. Deem and Ramdas Pophale) SiO2 
 PCOD9053812
Probable space group: P -1
;
_chemical_formula_sum "Si O2"
_cell_formula_units_Z 15
_cell_length_a 8.093768
_cell_length_b 13.642433
_cell_length_c 14.505550
_cell_angle_alpha 150.403963
_cell_angle_beta 60.307997
_cell_angle_gamma 103.058079
_cell_volume 603.857984
_symmetry_space_group_name_H-M "P -1"
_symmetry_group_IT_number 2
_symmetry_cell_setting 'triclinic'
loop_
_space_group_symop_operation_xyz
x,y,z
-x,-y,-z
loop_
_atom_site_type_symbol
_atom_site_label
_atom_site_fract_x
_atom_site_fract_y
_atom_site_fract_z
Si Si1 0.893631 0.723016 0.480781
Si Si2 0.550181 0.474004 0.251515
Si Si3 0.006922 0.641540 0.701796
Si Si4 0.304100 0.731099 0.359472
Si Si5 0.500000 0.500000 0.500000
Si Si6 0.429230 0.226584 0.836598
Si Si7 0.974144 0.423957 0.044837
Si Si8 0.552932 0.917266 0.083260
O O1 0.021513 0.492685 0.314040
O O2 0.883702 0.641970 0.314873
O O3 0.046927 0.838810 0.529669
O O4 0.664736 0.866682 0.712937
O O5 0.412205 0.681821 0.390622
O O6 0.569573 0.517150 0.388127
O O7 0.788720 0.353433 0.042998
O O8 0.456490 0.299342 0.131447
O O9 0.239781 0.622891 0.637409
O O10 0.000000 0.500000 0.500000
O O11 0.787458 0.883190 0.962095
O O12 0.393985 0.839241 0.347145
O O13 0.376982 0.478332 0.091213
O O14 0.482620 0.084242 0.798633
O O15 0.208919 0.248841 0.873606
O O16 0.000000 0.500000 0.000000
#
# Coordination Sequence:
#
# PCOD9053812 Si02
#       8
#     2   2   2   2   1   2   2   2
#     4  11  23  41  65  94 125 169 215 262 331 388
#     4  11  20  38  64  93 126 168 216 267 323 381
#     4  12  23  45  69  91 129 172 215 272 332 387
#     4   9  17  34  59  88 121 169 209 252 314 387
#     4  12  22  40  72  94 122 178 216 266 334 386
#     4   9  17  34  59  86 125 164 209 257 316 384
#     4  11  20  37  66  91 128 176 210 263 333 384
#     4  11  23  41  66  94 126 166 217 270 322 392
#
# _framework density 24.840278000000001
#
# number of rings (size 3 to 8) (size 9 to 14) (size 15 to 20)
#    0.000    1.333    8.000    0.000    1.867    1.067 
#    0.000    4.000    0.000    0.000    0.000    0.000 
#    0.000    0.000    0.000    0.000    0.000    0.000 
#
# Total GULP energy -83623.034115 kJ/mol
# GULP energy per Si atom -5574.868941 kJ/mol
# Density = 2.478374 g / cm^3
# Si number density = 24.840278 Si / 1000 Ang^3
#
#
#
# Elastic Constant Matrix: (Units=GPa)
#
#
# Indices 1 2 3 4 5 6 
#
# 1 116.3551 13.3727 42.1861 -6.8856 -24.9810 -3.0172
# 2 13.3727 67.2155 19.7052 -26.7071 21.3717 -15.8157
# 3 42.1861 19.7052 108.8656 -17.1214 -21.5527 4.1595
# 4 -6.8856 -26.7071 -17.1214 28.8317 -1.8534 0.5377
# 5 -24.9810 21.3717 -21.5527 -1.8534 34.0062 -16.1119
# 6 -3.0172 -15.8157 4.1595 0.5377 -16.1119 40.8317
#
#
#
# Elastic Compliance Matrix: (Units=1/GPa)
#
#
# Indices 1 2 3 4 5 6 
#
# 1 0.013175 -0.007591 -0.001463 -0.003847 0.015343 0.004287
# 2 -0.007591 0.041488 -0.006300 0.030727 -0.032603 0.002881
# 3 -0.001463 -0.006300 0.013677 0.002698 0.012073 0.000787
# 4 -0.003847 0.030727 0.002698 0.062792 -0.014787 0.004681
# 5 0.015343 -0.032603 0.012073 -0.014787 0.076351 0.017598
# 6 0.004287 0.002881 0.000787 0.004681 0.017598 0.032726
#
#
# Mechanical properties :
#
#
# Convention : Reuss Voigt Hill
#
# Bulk Modulus (GPa) = 26.57252 49.21826 37.89539
# Shear Modulus (GPa) = 17.63910 35.21207 26.42558
#
# Velocity S-wave (km/s) = 2.66766 3.76911 3.26516
# Velocity P-wave (km/s) = 4.49546 6.22884 5.43174
#
# Compressibility (1/GPa) = 0.03763287
#
# Stress axis : x y z
#
# Youngs Moduli (GPa) = 75.90280 24.10333 73.11373
#
# Poissons Ratio (x) = 0.18296 0.10694
# Poissons Ratio (y) = 0.57615 0.46064
# Poissons Ratio (z) = 0.11101 0.15186
#
# Static dielectric constant tensor:
#      x y z
#    x 1.958610 0.026510 -0.022250 
#    y 0.026510 1.942050 0.039930 
#    z -0.022250 0.039930 1.985900 
# 
# From -- ./inp_files/504372.got.cif
#   From: 2010.05.17/outbox.cif.g08.bks.cpg/sg2_253_cif.got.tgz:504372.got - 2010.06.03 11:33:40.
