data_PCOD9053146
_publ_section_title
;
Structure prediction by ZEFSAII (Michael W. Deem and Ramdas Pophale) SiO2 
 PCOD9053146
Probable space group: P -1
;
_chemical_formula_sum "Si O2"
_cell_formula_units_Z 16
_cell_length_a 14.788057
_cell_length_b 6.725027
_cell_length_c 12.336339
_cell_angle_alpha 94.814760
_cell_angle_beta 124.452044
_cell_angle_gamma 65.994350
_cell_volume 906.580628
_symmetry_space_group_name_H-M "P -1"
_symmetry_group_IT_number 2
_symmetry_cell_setting 'triclinic'
loop_
_space_group_symop_operation_xyz
x,y,z
-x,-y,-z
loop_
_atom_site_type_symbol
_atom_site_label
_atom_site_fract_x
_atom_site_fract_y
_atom_site_fract_z
Si Si1 0.670509 0.136870 0.406758
Si Si2 0.996098 0.677154 0.915368
Si Si3 0.016307 0.490597 0.341842
Si Si4 0.908752 0.880729 0.439747
Si Si5 0.828088 0.175052 0.851691
Si Si6 0.400977 0.176083 0.518026
Si Si7 0.799559 0.387655 0.631952
Si Si8 0.463063 0.553549 0.348541
O O1 0.733162 0.248018 0.533561
O O2 0.531430 0.327704 0.315962
O O3 0.767208 0.050893 0.371144
O O4 0.660547 0.934846 0.451360
O O5 0.000808 0.579515 0.794087
O O6 0.106941 0.747038 0.008271
O O7 0.876546 0.910850 0.865212
O O8 0.000000 0.500000 0.000000
O O9 0.917095 0.716057 0.338949
O O10 0.047261 0.284395 0.433675
O O11 0.127447 0.558490 0.408850
O O12 0.000000 0.000000 0.500000
O O13 0.875066 0.247555 0.777151
O O14 0.681771 0.311646 0.756902
O O15 0.298121 0.369160 0.386739
O O16 0.471614 0.293124 0.634935
O O17 0.500000 0.000000 0.500000
O O18 0.500000 0.500000 0.500000
#
# Coordination Sequence:
#
# PCOD9053146 Si02
#       8
#     2   2   2   2   2   2   2   2
#     4  11  20  34  52  85 120 156 189 244 305 358
#     4  11  25  39  61  84 123 166 204 246 297 368
#     4  11  23  36  58  89 116 163 206 245 295 359
#     4  11  23  37  60  86 124 161 199 256 301 348
#     4  11  22  38  56  88 122 162 195 243 305 358
#     4  11  19  29  51  82 117 159 181 234 303 356
#     4  11  19  32  55  82 124 147 197 235 287 363
#     4  11  21  32  54  87 117 153 196 243 305 366
#
# _framework density 17.648734000000001
#
# number of rings (size 3 to 8) (size 9 to 14) (size 15 to 20)
#    0.000    1.000    7.500    0.750    1.750    1.000 
#    0.000    0.000    0.000    0.750    0.000    2.625 
#    0.000    0.000    0.000    0.000    0.000    0.000 
#
# Total GULP energy -89116.304441 kJ/mol
# GULP energy per Si atom -5569.769028 kJ/mol
# Density = 1.760856 g / cm^3
# Si number density = 17.648734 Si / 1000 Ang^3
#
#
#
# Elastic Constant Matrix: (Units=GPa)
#
#
# Indices 1 2 3 4 5 6 
#
# 1 106.3898 55.2632 25.2000 -6.9441 3.3501 -0.9334
# 2 55.2632 128.8311 42.3552 -8.3302 -2.6677 -8.5440
# 3 25.2000 42.3552 60.2894 4.5140 2.5738 -5.7684
# 4 -6.9441 -8.3302 4.5140 30.3683 -2.6189 -0.2482
# 5 3.3501 -2.6677 2.5738 -2.6189 24.0237 -3.8636
# 6 -0.9334 -8.5440 -5.7684 -0.2482 -3.8636 52.7212
#
#
#
# Elastic Compliance Matrix: (Units=1/GPa)
#
#
# Indices 1 2 3 4 5 6 
#
# 1 0.012478 -0.004664 -0.002067 0.001702 -0.001995 -0.000899
# 2 -0.004664 0.012516 -0.007133 0.003735 0.003442 0.001435
# 3 -0.002067 -0.007133 0.023173 -0.006166 -0.003488 0.001058
# 4 0.001702 0.003735 -0.006166 0.035678 0.004805 0.000481
# 5 -0.001995 0.003442 -0.003488 0.004805 0.043725 0.003368
# 6 -0.000899 0.001435 0.001058 0.000481 0.003368 0.019549
#
#
# Mechanical properties :
#
#
# Convention : Reuss Voigt Hill
#
# Bulk Modulus (GPa) = 48.92484 60.12746 54.52615
# Shear Modulus (GPa) = 27.52411 32.93544 30.22977
#
# Velocity S-wave (km/s) = 3.95340 4.32460 4.14316
# Velocity P-wave (km/s) = 6.97286 7.68630 7.33825
#
# Compressibility (1/GPa) = 0.02043952
#
# Stress axis : x y z
#
# Youngs Moduli (GPa) = 80.14385 79.90071 43.15279
#
# Poissons Ratio (x) = 0.37263 0.08921
# Poissons Ratio (y) = 0.37376 0.30779
# Poissons Ratio (z) = 0.16568 0.56990
#
# Static dielectric constant tensor:
#      x y z
#    x 1.682100 -0.026430 0.021940 
#    y -0.026430 1.668540 -0.008260 
#    z 0.021940 -0.008260 1.612520 
# 
# From -- ./inp_files/441205.got.cif
#   From: 2010.05.17/outbox.cif.g08.bks.cpg/sg2_221_cif.got.tgz:441205.got - 2010.06.03 11:33:40.
