data_PCOD9053578
_publ_section_title
;
Structure prediction by ZEFSAII (Michael W. Deem and Ramdas Pophale) SiO2 
 PCOD9053578
Probable space group: P -1
;
_chemical_formula_sum "Si O2"
_cell_formula_units_Z 13
_cell_length_a 11.512790
_cell_length_b 8.105866
_cell_length_c 6.991763
_cell_angle_alpha 99.477552
_cell_angle_beta 53.693063
_cell_angle_gamma 79.506475
_cell_volume 485.476503
_symmetry_space_group_name_H-M "P -1"
_symmetry_group_IT_number 2
_symmetry_cell_setting 'triclinic'
loop_
_space_group_symop_operation_xyz
x,y,z
-x,-y,-z
loop_
_atom_site_type_symbol
_atom_site_label
_atom_site_fract_x
_atom_site_fract_y
_atom_site_fract_z
Si Si1 0.284112 0.675953 0.233430
Si Si2 0.000000 0.000000 0.500000
Si Si3 0.155575 0.537450 0.637429
Si Si4 0.691382 0.241429 0.216199
Si Si5 0.846107 0.830247 0.907894
Si Si6 0.391056 0.190787 0.398305
Si Si7 0.527811 0.803828 0.128022
O O1 0.152688 0.869105 0.438011
O O2 0.216262 0.534767 0.359614
O O3 0.440053 0.664639 0.187414
O O4 0.292568 0.685819 0.998766
O O5 0.903501 0.871290 0.651200
O O6 0.247289 0.643092 0.682187
O O7 0.221766 0.335305 0.605445
O O8 0.979909 0.663825 0.836856
O O9 0.515428 0.250685 0.405109
O O10 0.801536 0.031817 0.075844
O O11 0.691224 0.786001 0.050550
O O12 0.413851 0.986624 0.368620
O O13 0.452466 0.180613 0.117606
#
# Coordination Sequence:
#
# PCOD9053578 Si02
#       7
#     2   1   2   2   2   2   2
#     4   9  19  34  57  80 104 140 178 218 264 312
#     4   8  14  28  50  80 100 128 178 210 250 310
#     4  11  20  32  57  86 101 132 189 224 248 310
#     4   9  18  34  52  77 112 139 167 220 272 308
#     4   9  18  32  53  79 107 141 174 215 267 313
#     4   9  18  32  54  78 105 141 176 216 265 312
#     4   9  18  36  54  74 112 148 168 210 280 323
#
# _framework density 26.777813999999999
#
# number of rings (size 3 to 8) (size 9 to 14) (size 15 to 20)
#    0.000    2.769    0.000    3.692    0.000    3.077 
#    0.000    3.077    0.000   18.462    0.000   40.923 
#    0.000    0.000    0.000    0.000    0.000    0.000 
#
# Total GULP energy -72449.730689 kJ/mol
# GULP energy per Si atom -5573.056207 kJ/mol
# Density = 2.671687 g / cm^3
# Si number density = 26.777814 Si / 1000 Ang^3
#
#
#
# Elastic Constant Matrix: (Units=GPa)
#
#
# Indices 1 2 3 4 5 6 
#
# 1 96.7830 62.9002 45.9137 21.3608 -15.2739 -6.7936
# 2 62.9002 97.6182 79.4758 39.0822 -28.7048 -20.8159
# 3 45.9137 79.4758 72.9481 1.5458 -8.4285 -5.2387
# 4 21.3608 39.0822 1.5458 66.7017 -1.3687 -4.8182
# 5 -15.2739 -28.7048 -8.4285 -1.3687 38.9851 4.3058
# 6 -6.7936 -20.8159 -5.2387 -4.8182 4.3058 32.3770
#
#
#
# Elastic Compliance Matrix: (Units=1/GPa)
#
#
# Indices 1 2 3 4 5 6 
#
# 1 0.016728 -0.002709 -0.007187 -0.003566 0.002915 -0.000313
# 2 -0.002709 -0.043150 0.044762 0.023619 -0.020691 -0.014801
# 3 -0.007187 0.044762 -0.026342 -0.021647 0.021822 0.016884
# 4 -0.003566 0.023619 -0.021647 0.003740 0.010327 0.010117
# 5 0.002915 -0.020691 0.021822 0.010327 0.017741 -0.009983
# 6 -0.000313 -0.014801 0.016884 0.010117 -0.009983 0.026870
#
#
# Mechanical properties :
#
#
# Convention : Reuss Voigt Hill
#
# Bulk Modulus (GPa) = 58.93925 71.54761 65.24343
# Shear Modulus (GPa) = -73.00400 32.88341 -20.06030
#
# Velocity S-wave (km/s) = -5.22705 3.50810 -2.74001
# Velocity P-wave (km/s) = 3.79093 6.57161 3.79571
#
# Compressibility (1/GPa) = 0.01696662
#
# Stress axis : x y z
#
# Youngs Moduli (GPa) = 59.78147 -23.17514 -37.96186
#
# Poissons Ratio (x) = -0.06277 -0.27285
# Poissons Ratio (y) = 0.16193 1.69923
# Poissons Ratio (z) = 0.42968 1.03736
#
# Static dielectric constant tensor:
#      x y z
#    x 2.043020 -0.037780 0.023610 
#    y -0.037780 2.076770 -0.009110 
#    z 0.023610 -0.009110 2.213260 
# 
# From -- ./inp_files/195583.got.cif
#   From: 2010.05.17/outbox.cif.g08.bks.cpg/sg2_98_cif.got.tgz:195583.got - 2010.06.03 11:33:40.
