data_PCOD9053026
_publ_section_title
;
Structure prediction by ZEFSAII (Michael W. Deem and Ramdas Pophale) SiO2 
 PCOD9053026
Probable space group: P -1
;
_chemical_formula_sum "Si O2"
_cell_formula_units_Z 16
_cell_length_a 8.729938
_cell_length_b 29.269131
_cell_length_c 14.865873
_cell_angle_alpha 164.481144
_cell_angle_beta 130.574314
_cell_angle_gamma 41.616121
_cell_volume 620.515500
_symmetry_space_group_name_H-M "P -1"
_symmetry_group_IT_number 2
_symmetry_cell_setting 'triclinic'
loop_
_space_group_symop_operation_xyz
x,y,z
-x,-y,-z
loop_
_atom_site_type_symbol
_atom_site_label
_atom_site_fract_x
_atom_site_fract_y
_atom_site_fract_z
Si Si1 0.622511 0.052473 0.788079
Si Si2 0.279813 0.320366 0.500448
Si Si3 0.836515 0.143548 0.398593
Si Si4 0.782415 0.558671 0.097496
Si Si5 0.742453 0.695641 0.726373
Si Si6 0.472222 0.219835 0.863603
Si Si7 0.583177 0.401643 0.107535
Si Si8 0.965832 0.190271 0.723804
O O1 0.461587 0.230947 0.987823
O O2 0.698961 0.832772 0.352906
O O3 0.440252 0.106832 0.904058
O O4 0.880888 0.025758 0.852495
O O5 0.583472 0.173007 0.333054
O O6 0.218642 0.325069 0.591743
O O7 0.205474 0.252132 0.253200
O O8 0.136132 0.570893 0.893539
O O9 0.857330 0.127789 0.484391
O O10 0.787074 0.363122 0.766073
O O11 0.548645 0.651542 0.117428
O O12 0.000000 0.500000 0.000000
O O13 0.567741 0.612140 0.491486
O O14 0.000000 0.500000 0.500000
O O15 0.477183 0.396685 0.152565
O O16 0.743740 0.999819 0.529614
O O17 0.870508 0.223871 0.852967
#
# Coordination Sequence:
#
# PCOD9053026 Si02
#       8
#     2   2   2   2   2   2   2   2
#     4  10  22  38  57  93 119 164 209 250 304 365
#     4  10  19  38  61  85 122 162 204 246 306 366
#     4  10  17  35  59  81 119 160 199 249 290 366
#     4  11  20  34  61  95 121 156 206 255 300 362
#     4  11  24  40  62  88 124 163 210 247 313 374
#     4  10  21  36  59  89 126 155 204 262 298 353
#     4  11  20  36  60  92 119 162 200 251 310 361
#     4   9  16  31  57  84 114 149 203 242 296 348
#
# _framework density 25.785011999999998
#
# number of rings (size 3 to 8) (size 9 to 14) (size 15 to 20)
#    0.000    1.750    3.750    3.375    0.000    4.000 
#    0.000    0.000    0.000    3.000    0.000    0.000 
#    0.000    0.000    0.000    0.000    0.000    0.000 
#
# Total GULP energy -89155.498423 kJ/mol
# GULP energy per Si atom -5572.218651 kJ/mol
# Density = 2.572632 g / cm^3
# Si number density = 25.785012 Si / 1000 Ang^3
#
#
#
# Elastic Constant Matrix: (Units=GPa)
#
#
# Indices 1 2 3 4 5 6 
#
# 1 88.0587 25.0418 17.0870 -17.2638 -7.2624 12.9727
# 2 25.0418 94.2514 12.2431 -5.7115 -17.7544 -0.7307
# 3 17.0870 12.2431 57.9238 -5.0662 -9.3567 1.5765
# 4 -17.2638 -5.7115 -5.0662 20.2134 4.2654 -16.6476
# 5 -7.2624 -17.7544 -9.3567 4.2654 34.5520 7.9685
# 6 12.9727 -0.7307 1.5765 -16.6476 7.9685 45.3331
#
#
#
# Elastic Compliance Matrix: (Units=1/GPa)
#
#
# Indices 1 2 3 4 5 6 
#
# 1 0.014942 -0.003022 -0.002875 0.011359 -0.000605 0.000053
# 2 -0.003022 0.012563 -0.000892 -0.000524 0.005664 -0.000090
# 3 -0.002875 -0.000892 0.019046 0.001097 0.003995 -0.000154
# 4 0.011359 -0.000524 0.001097 0.089313 -0.016065 0.032325
# 5 -0.000605 0.005664 0.003995 -0.016065 0.037648 -0.012392
# 6 0.000053 -0.000090 -0.000154 0.032325 -0.012392 0.036097
#
#
# Mechanical properties :
#
#
# Convention : Reuss Voigt Hill
#
# Bulk Modulus (GPa) = 30.32733 38.77530 34.55132
# Shear Modulus (GPa) = 21.35116 32.41050 26.88083
#
# Velocity S-wave (km/s) = 2.88070 3.54920 3.23228
# Velocity P-wave (km/s) = 4.78035 5.64502 5.23058
#
# Compressibility (1/GPa) = 0.03297356
#
# Stress axis : x y z
#
# Youngs Moduli (GPa) = 66.92340 79.59721 52.50405
#
# Poissons Ratio (x) = 0.24053 0.15094
# Poissons Ratio (y) = 0.20223 0.04686
# Poissons Ratio (z) = 0.19239 0.07104
#
# Static dielectric constant tensor:
#      x y z
#    x 2.177600 -0.018710 0.029800 
#    y -0.018710 2.151850 -0.027230 
#    z 0.029800 -0.027230 2.092050 
# 
# From -- ./inp_files/509212.got.cif
#   From: 2010.05.17/outbox.cif.g08.bks.cpg/sg2_255_cif.got.tgz:509212.got - 2010.06.03 11:33:40.
