data_PCOD9053265
_publ_section_title
;
Structure prediction by ZEFSAII (Michael W. Deem and Ramdas Pophale) SiO2 
 PCOD9053265
Probable space group: P -1
;
_chemical_formula_sum "Si O2"
_cell_formula_units_Z 12
_cell_length_a 7.408343
_cell_length_b 12.042224
_cell_length_c 16.209943
_cell_angle_alpha 146.138507
_cell_angle_beta 44.340212
_cell_angle_gamma 111.034314
_cell_volume 449.104374
_symmetry_space_group_name_H-M "P -1"
_symmetry_group_IT_number 2
_symmetry_cell_setting 'triclinic'
loop_
_space_group_symop_operation_xyz
x,y,z
-x,-y,-z
loop_
_atom_site_type_symbol
_atom_site_label
_atom_site_fract_x
_atom_site_fract_y
_atom_site_fract_z
Si Si1 0.979445 0.711211 0.364103
Si Si2 0.441906 0.181526 0.900494
Si Si3 0.258293 0.027469 0.028612
Si Si4 0.880360 0.774461 0.242659
Si Si5 0.880540 0.278726 0.028817
Si Si6 0.507573 0.429418 0.551283
O O1 0.734107 0.649465 0.432587
O O2 0.325633 0.462704 0.124426
O O3 0.808636 0.974538 0.626602
O O4 0.101391 0.776016 0.700430
O O5 0.338966 0.093836 0.957889
O O6 0.209395 0.210093 0.918455
O O7 0.500000 0.000000 0.000000
O O8 0.285425 0.770328 0.866631
O O9 0.055393 0.829019 0.148300
O O10 0.500000 0.000000 0.500000
O O11 0.974909 0.737633 0.284090
O O12 0.000000 0.500000 0.000000
O O13 0.564550 0.557776 0.312421
O O14 0.500000 0.500000 0.500000
#
# Coordination Sequence:
#
# PCOD9053265 Si02
#       6
#     2   2   2   2   2   2
#     4  11  20  36  63  94 120 156 205 261 309 360
#     4  11  21  38  63  89 121 161 207 252 307 368
#     4  12  25  39  59  92 128 166 207 261 314 370
#     4  12  20  35  60 100 125 150 204 272 306 358
#     4  11  22  36  62  89 124 161 207 250 313 367
#     4  11  19  35  60  88 118 158 205 251 304 370
#
# _framework density 26.719843000000001
#
# number of rings (size 3 to 8) (size 9 to 14) (size 15 to 20)
#    0.000    0.667   10.000    1.500    0.000    0.667 
#    0.000    0.000    0.000    2.000    0.000    0.000 
#    0.000    0.000    0.000    0.000    0.000    0.000 
#
# Total GULP energy -66813.113047 kJ/mol
# GULP energy per Si atom -5567.759421 kJ/mol
# Density = 2.665903 g / cm^3
# Si number density = 26.719843 Si / 1000 Ang^3
#
#
#
# Elastic Constant Matrix: (Units=GPa)
#
#
# Indices 1 2 3 4 5 6 
#
# 1 76.0055 46.6464 42.7116 -5.2765 -2.3293 -5.6178
# 2 46.6464 199.4093 86.5329 -29.7188 5.4965 -8.9866
# 3 42.7116 86.5329 238.6618 -32.1272 -14.2952 -13.0616
# 4 -5.2765 -29.7188 -32.1272 59.3388 -9.9117 2.4073
# 5 -2.3293 5.4965 -14.2952 -9.9117 30.7383 -1.6902
# 6 -5.6178 -8.9866 -13.0616 2.4073 -1.6902 40.2592
#
#
#
# Elastic Compliance Matrix: (Units=1/GPa)
#
#
# Indices 1 2 3 4 5 6 
#
# 1 0.016103 -0.003112 -0.001794 -0.001029 0.000669 0.001060
# 2 -0.003112 0.006847 -0.001746 0.001920 -0.001634 0.000344
# 3 -0.001794 -0.001746 0.005803 0.002694 0.003812 0.001242
# 4 -0.001029 0.001920 0.002694 0.020412 0.007427 0.000250
# 5 0.000669 -0.001634 0.003812 0.007427 0.037158 0.002081
# 6 0.001060 0.000344 0.001242 0.000250 0.002081 0.025539
#
#
# Mechanical properties :
#
#
# Convention : Reuss Voigt Hill
#
# Bulk Modulus (GPa) = 64.73249 96.20647 80.46948
# Shear Modulus (GPa) = 38.36824 48.61296 43.49060
#
# Velocity S-wave (km/s) = 3.79350 4.27002 4.03879
# Velocity P-wave (km/s) = 6.59291 7.77139 7.20628
#
# Compressibility (1/GPa) = 0.01544819
#
# Stress axis : x y z
#
# Youngs Moduli (GPa) = 62.10216 146.04087 172.31942
#
# Poissons Ratio (x) = 0.45454 0.30910
# Poissons Ratio (y) = 0.19329 0.30091
# Poissons Ratio (z) = 0.11140 0.25502
#
# Static dielectric constant tensor:
#      x y z
#    x 2.223580 -0.567710 -0.072110 
#    y -0.567710 6.860850 1.637360 
#    z -0.072110 1.637360 2.815650 
# 
# From -- ./inp_files/498425.got.cif
#   From: 2010.05.17/outbox.cif.g08.bks.cpg/sg2_250_cif.got.tgz:498425.got - 2010.06.03 11:33:40.
