data_PCOD9053363
_publ_section_title
;
Structure prediction by ZEFSAII (Michael W. Deem and Ramdas Pophale) SiO2 
 PCOD9053363
Probable space group: P -1
;
_chemical_formula_sum "Si O2"
_cell_formula_units_Z 14
_cell_length_a 11.304108
_cell_length_b 12.268740
_cell_length_c 9.360260
_cell_angle_alpha 65.094599
_cell_angle_beta 41.717511
_cell_angle_gamma 50.803647
_cell_volume 666.249508
_symmetry_space_group_name_H-M "P -1"
_symmetry_group_IT_number 2
_symmetry_cell_setting 'triclinic'
loop_
_space_group_symop_operation_xyz
x,y,z
-x,-y,-z
loop_
_atom_site_type_symbol
_atom_site_label
_atom_site_fract_x
_atom_site_fract_y
_atom_site_fract_z
Si Si1 0.493078 0.845649 0.310389
Si Si2 0.814742 0.140115 0.654415
Si Si3 0.798814 0.399513 0.421248
Si Si4 0.242032 0.876562 0.811876
Si Si5 0.678432 0.399160 0.211799
Si Si6 0.769230 0.642943 0.957161
Si Si7 0.531745 0.118117 0.127933
O O1 0.370413 0.822020 0.308423
O O2 0.346585 0.873165 0.564910
O O3 0.512826 0.982023 0.201251
O O4 0.717243 0.712706 0.127015
O O5 0.846765 0.270344 0.553764
O O6 0.743166 0.101574 0.882852
O O7 0.000000 0.000000 0.500000
O O8 0.782055 0.353859 0.300186
O O9 0.570326 0.532720 0.584664
O O10 0.985486 0.425593 0.247854
O O11 0.237462 0.733209 0.894110
O O12 0.423662 0.864754 0.758283
O O13 0.000000 0.000000 0.000000
O O14 0.709003 0.525068 0.066860
O O15 0.652503 0.756313 0.870063
#
# Coordination Sequence:
#
# PCOD9053363 Si02
#       7
#     2   2   2   2   2   2   2
#     4  11  21  42  66  99 135 167 226 276 320 400
#     4  11  19  37  68 100 132 170 222 279 331 381
#     4  11  21  42  73 101 133 170 229 280 332 386
#     4  12  27  45  66  92 141 187 217 269 342 408
#     4  11  23  45  66 101 135 173 230 275 328 405
#     4  11  23  43  75 104 128 172 224 289 331 380
#     4  11  24  41  64 102 138 171 220 276 332 399
#
# _framework density 21.013148999999999
#
# number of rings (size 3 to 8) (size 9 to 14) (size 15 to 20)
#    0.000    0.857    4.286    6.000    2.000    0.571 
#    2.571    0.714    0.000    0.000    0.000    0.000 
#    0.000    0.000    0.000    0.000    0.000    0.000 
#
# Total GULP energy -77997.554884 kJ/mol
# GULP energy per Si atom -5571.253920 kJ/mol
# Density = 2.096532 g / cm^3
# Si number density = 21.013149 Si / 1000 Ang^3
#
#
#
# Elastic Constant Matrix: (Units=GPa)
#
#
# Indices 1 2 3 4 5 6 
#
# 1 67.0069 33.7728 30.8398 3.2639 -13.1169 4.7885
# 2 33.7728 124.4047 31.0045 -11.8411 -18.2091 24.2449
# 3 30.8398 31.0045 81.5939 -3.6244 -18.3572 -1.5414
# 4 3.2639 -11.8411 -3.6244 34.0536 -2.9412 -6.2292
# 5 -13.1169 -18.2091 -18.3572 -2.9412 35.9503 2.5914
# 6 4.7885 24.2449 -1.5414 -6.2292 2.5914 26.9812
#
#
#
# Elastic Compliance Matrix: (Units=1/GPa)
#
#
# Indices 1 2 3 4 5 6 
#
# 1 0.020314 -0.003743 -0.005955 -0.004001 0.002272 -0.001724
# 2 -0.003743 0.012734 -0.002396 0.002997 0.004877 -0.010692
# 3 -0.005955 -0.002396 0.016765 0.002751 0.005089 0.004314
# 4 -0.004001 0.002997 0.002751 0.032374 0.003730 0.005290
# 5 0.002272 0.004877 0.005089 0.003730 0.034520 -0.006949
# 6 -0.001724 -0.010692 0.004314 0.005290 -0.006949 0.049112
#
#
# Mechanical properties :
#
#
# Convention : Reuss Voigt Hill
#
# Bulk Modulus (GPa) = 39.02192 51.58220 45.30206
# Shear Modulus (GPa) = 25.18275 31.22290 28.20283
#
# Velocity S-wave (km/s) = 3.46559 3.85889 3.66751
# Velocity P-wave (km/s) = 5.88424 6.66750 6.28808
#
# Compressibility (1/GPa) = 0.02562662
#
# Stress axis : x y z
#
# Youngs Moduli (GPa) = 49.22716 78.52800 59.64633
#
# Poissons Ratio (x) = 0.29393 0.35519
# Poissons Ratio (y) = 0.18425 0.14290
# Poissons Ratio (z) = 0.29314 0.18813
#
# Static dielectric constant tensor:
#      x y z
#    x 1.454730 -0.041570 -0.252190 
#    y -0.041570 1.713060 -0.048810 
#    z -0.252190 -0.048810 1.502590 
# 
# From -- ./inp_files/261907.got.cif
#   From: 2010.05.17/outbox.cif.g08.bks.cpg/sg2_131_cif.got.tgz:261907.got - 2010.06.03 11:33:40.
