data_PCOD9053667
_publ_section_title
;
Structure prediction by ZEFSAII (Michael W. Deem and Ramdas Pophale) SiO2 
 PCOD9053667
Probable space group: P -1
;
_chemical_formula_sum "Si O2"
_cell_formula_units_Z 16
_cell_length_a 7.955789
_cell_length_b 12.330328
_cell_length_c 8.889498
_cell_angle_alpha 114.761960
_cell_angle_beta 86.843772
_cell_angle_gamma 75.841115
_cell_volume 755.416386
_symmetry_space_group_name_H-M "P -1"
_symmetry_group_IT_number 2
_symmetry_cell_setting 'triclinic'
loop_
_space_group_symop_operation_xyz
x,y,z
-x,-y,-z
loop_
_atom_site_type_symbol
_atom_site_label
_atom_site_fract_x
_atom_site_fract_y
_atom_site_fract_z
Si Si1 0.833004 0.481690 0.915746
Si Si2 0.819273 0.269763 0.024591
Si Si3 0.361859 0.306006 0.750101
Si Si4 0.762213 0.135415 0.682199
Si Si5 0.952515 0.705842 0.703274
Si Si6 0.559307 0.481950 0.312750
Si Si7 0.882883 0.843903 0.474108
Si Si8 0.196957 0.506169 0.376615
O O1 0.796005 0.370372 0.948608
O O2 0.691517 0.615349 0.046543
O O3 0.930600 0.446598 0.727999
O O4 0.000000 0.500000 0.000000
O O5 0.989631 0.252040 0.114243
O O6 0.659551 0.341461 0.182494
O O7 0.801380 0.151011 0.866914
O O8 0.564712 0.219503 0.701465
O O9 0.356414 0.414813 0.690602
O O10 0.233283 0.225971 0.657475
O O11 0.919666 0.171652 0.607391
O O12 0.785157 0.991847 0.559529
O O13 0.124491 0.593801 0.570783
O O14 0.903835 0.801010 0.623205
O O15 0.803676 0.634332 0.678546
O O16 0.500000 0.500000 0.500000
O O17 0.362745 0.515458 0.274459
#
# Coordination Sequence:
#
# PCOD9053667 Si02
#       8
#     2   2   2   2   2   2   2   2
#     4  11  20  35  61  96 125 159 197 250 314 383
#     4  11  22  37  60  94 128 159 202 253 318 376
#     4  11  23  41  68  93 125 165 212 263 310 374
#     4  11  25  45  66  89 120 172 222 266 304 364
#     4  11  22  36  61  92 128 165 199 257 314 384
#     4  11  21  35  58  96 126 156 192 250 322 383
#     4  11  25  44  67  88 121 170 224 264 309 360
#     4  11  21  35  58  92 130 160 199 245 325 378
#
# _framework density 21.180372999999999
#
# number of rings (size 3 to 8) (size 9 to 14) (size 15 to 20)
#    0.000    1.000    2.500    5.625    3.500    2.500 
#    0.000    0.000    0.000    2.250    0.000    0.000 
#    0.000    0.000    0.000    0.000    0.000    0.000 
#
# Total GULP energy -89091.908695 kJ/mol
# GULP energy per Si atom -5568.244293 kJ/mol
# Density = 2.113217 g / cm^3
# Si number density = 21.180373 Si / 1000 Ang^3
#
#
#
# Elastic Constant Matrix: (Units=GPa)
#
#
# Indices 1 2 3 4 5 6 
#
# 1 90.6536 32.7648 15.9099 19.4659 -8.2309 8.2404
# 2 32.7648 78.4919 41.7824 3.5331 0.5811 6.0261
# 3 15.9099 41.7824 126.6498 4.3153 7.9816 9.3699
# 4 19.4659 3.5331 4.3153 35.4499 2.6981 -0.2802
# 5 -8.2309 0.5811 7.9816 2.6981 33.0946 5.1508
# 6 8.2404 6.0261 9.3699 -0.2802 5.1508 33.3728
#
#
#
# Elastic Compliance Matrix: (Units=1/GPa)
#
#
# Indices 1 2 3 4 5 6 
#
# 1 0.015858 -0.006126 0.000267 -0.008561 0.005272 -0.003770
# 2 -0.006126 0.017968 -0.005177 0.002259 -0.000752 -0.000143
# 3 0.000267 -0.005177 0.009833 -0.000695 -0.001908 -0.001603
# 4 -0.008561 0.002259 -0.000695 0.033186 -0.005170 0.002978
# 5 0.005272 -0.000752 -0.001908 -0.005170 0.033328 -0.005817
# 6 -0.003770 -0.000143 -0.001603 0.002978 -0.005817 0.032294
#
#
# Mechanical properties :
#
#
# Convention : Reuss Voigt Hill
#
# Bulk Modulus (GPa) = 46.32467 52.96773 49.64620
# Shear Modulus (GPa) = 29.11476 34.07266 31.59371
#
# Velocity S-wave (km/s) = 3.71160 4.01520 3.86638
# Velocity P-wave (km/s) = 6.34720 6.82334 6.58957
#
# Compressibility (1/GPa) = 0.02158677
#
# Stress axis : x y z
#
# Youngs Moduli (GPa) = 63.06051 55.65418 101.70128
#
# Poissons Ratio (x) = 0.34094 -0.02719
# Poissons Ratio (y) = 0.38631 0.52653
# Poissons Ratio (z) = -0.01686 0.28813
#
# Static dielectric constant tensor:
#      x y z
#    x 2.322920 0.072640 -0.436510 
#    y 0.072640 1.749810 0.068240 
#    z -0.436510 0.068240 1.787550 
# 
# From -- ./inp_files/182507.got.cif
#   From: 2010.05.17/outbox.cif.g08.bks.cpg/sg2_92_cif.got.tgz:182507.got - 2010.06.03 11:33:40.
