data_PCOD9053235
_publ_section_title
;
Structure prediction by ZEFSAII (Michael W. Deem and Ramdas Pophale) SiO2 
 PCOD9053235
Probable space group: P -1
;
_chemical_formula_sum "Si O2"
_cell_formula_units_Z 16
_cell_length_a 15.628374
_cell_length_b 9.437777
_cell_length_c 12.553172
_cell_angle_alpha 102.087474
_cell_angle_beta 152.921379
_cell_angle_gamma 87.482258
_cell_volume 780.776559
_symmetry_space_group_name_H-M "P -1"
_symmetry_group_IT_number 2
_symmetry_cell_setting 'triclinic'
loop_
_space_group_symop_operation_xyz
x,y,z
-x,-y,-z
loop_
_atom_site_type_symbol
_atom_site_label
_atom_site_fract_x
_atom_site_fract_y
_atom_site_fract_z
Si Si1 0.658489 0.908390 0.672710
Si Si2 0.049585 0.669861 0.122387
Si Si3 0.119174 0.238105 0.843222
Si Si4 0.950452 0.329380 0.464181
Si Si5 0.528341 0.085985 0.931175
Si Si6 0.933144 0.833310 0.818303
Si Si7 0.498068 0.196412 0.291761
Si Si8 0.110233 0.130260 0.455538
O O1 0.715883 0.835923 0.617330
O O2 0.574413 0.809852 0.667396
O O3 0.500000 0.000000 0.500000
O O4 0.884852 0.008620 0.966140
O O5 0.267203 0.727804 0.426046
O O6 0.909119 0.696876 0.062670
O O7 0.000000 0.500000 0.000000
O O8 0.020205 0.754705 0.995368
O O9 0.010495 0.315190 0.650761
O O10 0.352344 0.271631 0.081982
O O11 0.019039 0.051394 0.705070
O O12 0.000000 0.500000 0.500000
O O13 0.065227 0.228195 0.515415
O O14 0.721300 0.232983 0.175641
O O15 0.333322 0.130037 0.702298
O O16 0.542812 0.968692 0.835463
O O17 0.500000 0.000000 0.000000
O O18 0.919497 0.785853 0.673153
#
# Coordination Sequence:
#
# PCOD9053235 Si02
#       8
#     2   2   2   2   2   2   2   2
#     4  11  19  34  63  92 127 166 221 279 321 390
#     4  12  27  44  65 100 149 185 224 290 354 406
#     4  12  23  47  73 100 136 185 240 286 341 429
#     4  12  28  47  71 107 146 178 228 303 364 407
#     4  12  23  43  75 104 133 187 240 287 349 420
#     4  11  22  39  62  99 138 170 224 281 339 399
#     4  12  22  41  72 100 128 185 241 276 338 418
#     4  12  23  43  75 103 135 182 241 285 340 427
#
# _framework density 20.492418000000001
#
# number of rings (size 3 to 8) (size 9 to 14) (size 15 to 20)
#    0.000    0.250    7.500    2.625    1.750    1.000 
#    2.250    0.000    0.000    0.000    0.000    0.000 
#    0.000    0.000    0.000    0.000    0.000    0.000 
#
# Total GULP energy -89220.325458 kJ/mol
# GULP energy per Si atom -5576.270341 kJ/mol
# Density = 2.044578 g / cm^3
# Si number density = 20.492418 Si / 1000 Ang^3
#
#
#
# Elastic Constant Matrix: (Units=GPa)
#
#
# Indices 1 2 3 4 5 6 
#
# 1 69.2488 15.2947 9.2526 0.6100 1.7423 1.9429
# 2 15.2947 99.6109 42.4899 5.3836 -0.9713 1.2352
# 3 9.2526 42.4899 107.1724 -20.0017 10.8295 2.0790
# 4 0.6100 5.3836 -20.0017 25.4511 -4.4316 -0.3976
# 5 1.7423 -0.9713 10.8295 -4.4316 41.3468 -14.3883
# 6 1.9429 1.2352 2.0790 -0.3976 -14.3883 26.8983
#
#
#
# Elastic Compliance Matrix: (Units=1/GPa)
#
#
# Indices 1 2 3 4 5 6 
#
# 1 0.015038 -0.002106 -0.000398 -0.000459 -0.001185 -0.001599
# 2 -0.002106 0.013772 -0.006961 -0.008031 0.001663 0.000829
# 3 -0.000398 -0.006961 0.014870 0.012505 -0.003582 -0.002532
# 4 -0.000459 -0.008031 0.012505 0.051307 0.002608 0.001589
# 5 -0.001185 0.001663 -0.003582 0.002608 0.031462 0.017154
# 6 -0.001599 0.000829 -0.002532 0.001589 0.017154 0.046650
#
#
# Mechanical properties :
#
#
# Convention : Reuss Voigt Hill
#
# Bulk Modulus (GPa) = 40.40631 45.56738 42.98685
# Shear Modulus (GPa) = 24.96533 32.67224 28.81878
#
# Velocity S-wave (km/s) = 3.49416 3.99727 3.75415
# Velocity P-wave (km/s) = 6.00328 6.60218 6.30984
#
# Compressibility (1/GPa) = 0.02474861
#
# Stress axis : x y z
#
# Youngs Moduli (GPa) = 66.49926 72.61281 67.25037
#
# Poissons Ratio (x) = 0.15292 0.02679
# Poissons Ratio (y) = 0.14004 0.46813
# Poissons Ratio (z) = 0.02649 0.50546
#
# Static dielectric constant tensor:
#      x y z
#    x 1.754440 -0.027300 -0.033180 
#    y -0.027300 1.693770 -0.048500 
#    z -0.033180 -0.048500 1.756530 
# 
# From -- ./inp_files/447718.got.cif
#   From: 2010.05.17/outbox.cif.g08.bks.cpg/sg2_224_cif.got.tgz:447718.got - 2010.06.03 11:33:40.
