data_PCOD9053140
_publ_section_title
;
Structure prediction by ZEFSAII (Michael W. Deem and Ramdas Pophale) SiO2 
 PCOD9053140
Probable space group: P -1
;
_chemical_formula_sum "Si O2"
_cell_formula_units_Z 16
_cell_length_a 11.317266
_cell_length_b 11.670395
_cell_length_c 5.185884
_cell_angle_alpha 95.133763
_cell_angle_beta 80.118403
_cell_angle_gamma 61.857787
_cell_volume 583.439768
_symmetry_space_group_name_H-M "P -1"
_symmetry_group_IT_number 2
_symmetry_cell_setting 'triclinic'
loop_
_space_group_symop_operation_xyz
x,y,z
-x,-y,-z
loop_
_atom_site_type_symbol
_atom_site_label
_atom_site_fract_x
_atom_site_fract_y
_atom_site_fract_z
Si Si1 0.164086 0.477731 0.492076
Si Si2 0.415123 0.307893 0.068800
Si Si3 0.957347 0.268328 0.119809
Si Si4 0.753108 0.173122 0.190825
Si Si5 0.870157 0.747010 0.399632
Si Si6 0.851832 0.010435 0.606821
Si Si7 0.672299 0.456892 0.164396
Si Si8 0.550878 0.847322 0.489667
O O1 0.247501 0.388113 0.199066
O O2 0.068921 0.635383 0.608743
O O3 0.081596 0.411377 0.639431
O O4 0.298920 0.466883 0.597486
O O5 0.494076 0.211254 0.261616
O O6 0.425836 0.433562 0.979241
O O7 0.456450 0.212625 0.790866
O O8 0.903237 0.167325 0.164378
O O9 0.831396 0.368065 0.984764
O O10 0.089328 0.226445 0.893375
O O11 0.773218 0.099803 0.899365
O O12 0.654340 0.335115 0.253159
O O13 0.753682 0.088056 0.415459
O O14 0.877272 0.861797 0.589387
O O15 0.000000 0.000000 0.500000
O O16 0.709985 0.793328 0.483546
O O17 0.500000 0.000000 0.500000
#
# Coordination Sequence:
#
# PCOD9053140 Si02
#       8
#     2   2   2   2   2   2   2   2
#     4   8  19  33  54  90 119 149 188 233 298 359
#     4  11  18  40  62  88 117 154 193 241 312 353
#     4   8  18  35  57  83 129 151 194 233 293 349
#     4   9  23  36  55  80 123 158 200 235 271 341
#     4  11  20  38  60  83 124 166 193 240 296 351
#     4  12  22  38  53  82 119 171 203 223 280 358
#     4   8  18  35  59  83 123 145 194 237 293 353
#     4  11  25  41  59  88 122 155 205 248 294 353
#
# _framework density 27.423566000000001
#
# number of rings (size 3 to 8) (size 9 to 14) (size 15 to 20)
#    1.500    0.500    3.750    1.125    3.500    2.000 
#    0.000    3.125    0.000    0.000    0.000    5.250 
#    0.000    0.000    0.000    0.000    0.000    0.000 
#
# Total GULP energy -89163.575909 kJ/mol
# GULP energy per Si atom -5572.723494 kJ/mol
# Density = 2.736115 g / cm^3
# Si number density = 27.423566 Si / 1000 Ang^3
#
#
#
# Elastic Constant Matrix: (Units=GPa)
#
#
# Indices 1 2 3 4 5 6 
#
# 1 -23.8087 35.4985 -60.1350 39.0111 13.6975 57.2353
# 2 35.4985 248.4635 98.1664 -15.3758 21.4208 -15.8966
# 3 -60.1350 98.1664 90.7401 50.4099 15.9821 51.9563
# 4 39.0111 -15.3758 50.4099 22.3766 -7.4287 -12.4791
# 5 13.6975 21.4208 15.9821 -7.4287 26.7020 -10.1183
# 6 57.2353 -15.8966 51.9563 -12.4791 -10.1183 12.4680
#
#
#
# Elastic Compliance Matrix: (Units=1/GPa)
#
#
# Indices 1 2 3 4 5 6 
#
# 1 0.007037 0.002082 -0.006207 0.007807 0.003081 0.006528
# 2 0.002082 0.004529 -0.001368 -0.000190 -0.004737 -0.002117
# 3 -0.006207 -0.001368 0.005828 -0.000257 0.002247 0.004027
# 4 0.007807 -0.000190 -0.000257 0.023824 -0.001881 -0.012693
# 5 0.003081 -0.004737 0.002247 -0.001881 0.037391 -0.001085
# 6 0.006528 -0.002117 0.004027 -0.012693 -0.001085 0.017171
#
#
# Mechanical properties :
#
#
# Convention : Reuss Voigt Hill
#
# Bulk Modulus (GPa) = 156.02230 51.38386 103.70308
# Shear Modulus (GPa) = 45.91310 28.43366 37.17338
#
# Velocity S-wave (km/s) = 4.09616 3.22348 3.68574
# Velocity P-wave (km/s) = 8.91002 5.71246 7.48401
#
# Compressibility (1/GPa) = 0.00640934
#
# Stress axis : x y z
#
# Youngs Moduli (GPa) = 142.10304 220.80032 171.58189
#
# Poissons Ratio (x) = -0.45970 1.06493
# Poissons Ratio (y) = -0.29586 0.23471
# Poissons Ratio (z) = 0.88197 0.30203
#
# Static dielectric constant tensor:
#      x y z
#    x 2.625100 0.433020 0.011670 
#    y 0.433020 4.609920 -0.716960 
#    z 0.011670 -0.716960 2.282570 
# 
# From -- ./inp_files/53274.got.cif
#   From: 2010.05.17/outbox.cif.g08.bks.cpg/sg2_27_cif.got.tgz:53274.got - 2010.06.03 11:33:40.
