data_PCOD9053156
_publ_section_title
;
Structure prediction by ZEFSAII (Michael W. Deem and Ramdas Pophale) SiO2 
 PCOD9053156
Probable space group: P -1
;
_chemical_formula_sum "Si O2"
_cell_formula_units_Z 16
_cell_length_a 11.782944
_cell_length_b 17.003334
_cell_length_c 11.903942
_cell_angle_alpha 71.581797
_cell_angle_beta 155.931821
_cell_angle_gamma 107.012542
_cell_volume 922.762729
_symmetry_space_group_name_H-M "P -1"
_symmetry_group_IT_number 2
_symmetry_cell_setting 'triclinic'
loop_
_space_group_symop_operation_xyz
x,y,z
-x,-y,-z
loop_
_atom_site_type_symbol
_atom_site_label
_atom_site_fract_x
_atom_site_fract_y
_atom_site_fract_z
Si Si1 0.367876 0.030425 0.530833
Si Si2 0.135609 0.414618 0.765245
Si Si3 0.950412 0.232130 0.464900
Si Si4 0.274985 0.591955 0.803827
Si Si5 0.959458 0.762839 0.186566
Si Si6 0.475092 0.134806 0.955960
Si Si7 0.216251 0.968084 0.901392
Si Si8 0.512140 0.137823 0.407029
O O1 0.366023 0.100107 0.402057
O O2 0.114377 0.038097 0.384725
O O3 0.352866 0.941152 0.497457
O O4 0.654310 0.035919 0.855723
O O5 0.199286 0.504918 0.833622
O O6 0.106956 0.333780 0.852391
O O7 0.859962 0.418486 0.438017
O O8 0.396244 0.398656 0.923695
O O9 0.997675 0.230212 0.643002
O O10 0.857074 0.324675 0.306188
O O11 0.697616 0.171963 0.227952
O O12 0.237977 0.201444 0.685594
O O13 0.242872 0.797318 0.373721
O O14 0.708287 0.818636 0.892447
O O15 0.648760 0.102156 0.021956
O O16 0.312085 0.055783 0.896035
#
# Coordination Sequence:
#
# PCOD9053156 Si02
#       8
#     2   2   2   2   2   2   2   2
#     4  11  22  36  50  67  96 126 157 201 242 273
#     4   9  17  28  43  66  97 130 155 181 227 280
#     4  11  19  31  49  71 100 128 158 193 227 275
#     4   9  17  28  43  66  97 130 155 181 227 280
#     4  11  19  31  49  71 100 128 158 193 227 275
#     4  11  22  33  50  72  92 125 166 194 230 284
#     4  11  22  36  50  67  96 126 157 201 242 273
#     4  11  22  33  50  72  92 125 166 194 230 284
#
# _framework density 17.339234999999999
#
# number of rings (size 3 to 8) (size 9 to 14) (size 15 to 20)
#    0.000    1.500    0.000    9.000    0.000    4.000 
#    0.000    0.000    0.000    0.000    0.000    0.000 
#    0.000   20.000    0.000    0.000    0.000    0.000 
#
# Total GULP energy -89347.225676 kJ/mol
# GULP energy per Si atom -5584.201605 kJ/mol
# Density = 1.729977 g / cm^3
# Si number density = 17.339235 Si / 1000 Ang^3
#
#
#
# Elastic Constant Matrix: (Units=GPa)
#
#
# Indices 1 2 3 4 5 6 
#
# 1 37.2820 31.7727 2.5847 -5.6605 11.2375 2.8457
# 2 31.7727 121.4026 25.8515 -11.7805 10.6908 10.9190
# 3 2.5847 25.8515 69.6013 -4.9896 19.5997 3.9663
# 4 -5.6605 -11.7805 -4.9896 25.2570 0.2092 5.8241
# 5 11.2375 10.6908 19.5997 0.2092 21.8649 -1.5677
# 6 2.8457 10.9190 3.9663 5.8241 -1.5677 21.0387
#
#
#
# Elastic Compliance Matrix: (Units=1/GPa)
#
#
# Indices 1 2 3 4 5 6 
#
# 1 0.045678 -0.010129 0.011556 0.009894 -0.029553 -0.008041
# 2 -0.010129 0.012421 -0.004438 0.003797 0.002710 -0.005089
# 3 0.011556 -0.004438 0.023775 0.007193 -0.025698 -0.007648
# 4 0.009894 0.003797 0.007193 0.049636 -0.015266 -0.019543
# 5 -0.029553 0.002710 -0.025698 -0.015266 0.084066 0.017926
# 6 -0.008041 -0.005089 -0.007648 -0.019543 0.017926 0.059448
#
#
# Mechanical properties :
#
#
# Convention : Reuss Voigt Hill
#
# Bulk Modulus (GPa) = 13.18391 38.74485 25.96438
# Shear Modulus (GPa) = 16.32225 24.83724 20.57974
#
# Velocity S-wave (km/s) = 3.07147 3.78885 3.44886
# Velocity P-wave (km/s) = 4.49428 6.44471 5.55575
#
# Compressibility (1/GPa) = 0.07585001
#
# Stress axis : x y z
#
# Youngs Moduli (GPa) = 21.89243 80.51135 42.06117
#
# Poissons Ratio (x) = 0.81553 -0.48605
# Poissons Ratio (y) = 0.22176 0.18667
# Poissons Ratio (z) = -0.25298 0.35731
#
# Static dielectric constant tensor:
#      x y z
#    x 1.569590 -0.002600 0.004990 
#    y -0.002600 1.634860 -0.004480 
#    z 0.004990 -0.004480 1.595890 
# 
# From -- ./inp_files/436733.got.cif
#   From: 2010.05.17/outbox.cif.g08.bks.cpg/sg2_219_cif.got.tgz:436733.got - 2010.06.03 11:33:40.
