data_PCOD9053503
_publ_section_title
;
Structure prediction by ZEFSAII (Michael W. Deem and Ramdas Pophale) SiO2 
 PCOD9053503
Probable space group: P -1
;
_chemical_formula_sum "Si O2"
_cell_formula_units_Z 16
_cell_length_a 9.332098
_cell_length_b 13.519830
_cell_length_c 11.702600
_cell_angle_alpha 133.306934
_cell_angle_beta 58.552906
_cell_angle_gamma 133.985909
_cell_volume 770.158796
_symmetry_space_group_name_H-M "P -1"
_symmetry_group_IT_number 2
_symmetry_cell_setting 'triclinic'
loop_
_space_group_symop_operation_xyz
x,y,z
-x,-y,-z
loop_
_atom_site_type_symbol
_atom_site_label
_atom_site_fract_x
_atom_site_fract_y
_atom_site_fract_z
Si Si1 0.754635 0.362100 0.677482
Si Si2 0.127429 0.175454 0.523075
Si Si3 0.047883 0.168447 0.072633
Si Si4 0.399111 0.641370 0.508761
Si Si5 0.822119 0.499655 0.139538
Si Si6 0.160594 0.697678 0.826029
Si Si7 0.933251 0.719212 0.592852
Si Si8 0.501751 0.366384 0.969338
O O1 0.651288 0.371250 0.613816
O O2 0.600916 0.292896 0.791174
O O3 0.935265 0.541356 0.779013
O O4 0.875014 0.280688 0.530073
O O5 0.364721 0.256360 0.496543
O O6 0.104313 0.321573 0.698944
O O7 0.079351 0.163285 0.398022
O O8 0.000000 0.000000 0.500000
O O9 0.042057 0.247923 0.257285
O O10 0.891303 0.165733 0.045914
O O11 0.271875 0.251532 0.001809
O O12 0.000000 0.000000 0.000000
O O13 0.300920 0.724439 0.682200
O O14 0.272991 0.459462 0.470187
O O15 0.758754 0.360086 0.150423
O O16 0.639742 0.444743 0.085340
O O17 0.000000 0.500000 0.000000
O O18 0.500000 0.500000 0.000000
#
# Coordination Sequence:
#
# PCOD9053503 Si02
#       8
#     2   2   2   2   2   2   2   2
#     4  11  19  41  73  98 121 169 241 275 313 402
#     4  12  27  42  63 104 140 173 225 293 344 389
#     4  12  26  44  65 104 141 173 221 294 353 395
#     4  11  21  41  75  94 126 176 238 270 330 407
#     4  12  23  43  72  96 135 185 229 277 337 413
#     4  11  21  42  68  99 126 174 234 274 331 413
#     4  11  21  43  69  95 129 180 227 271 331 418
#     4  12  23  41  70 101 134 181 232 271 336 411
#
# _framework density 20.774937999999999
#
# number of rings (size 3 to 8) (size 9 to 14) (size 15 to 20)
#    0.000    0.500    7.500    2.625    1.750    3.000 
#    4.500    1.875    0.000    0.000    0.000    0.000 
#    0.000    0.000    0.000    0.000    0.000    0.000 
#
# Total GULP energy -89259.840991 kJ/mol
# GULP energy per Si atom -5578.740062 kJ/mol
# Density = 2.072765 g / cm^3
# Si number density = 20.774938 Si / 1000 Ang^3
#
#
#
# Elastic Constant Matrix: (Units=GPa)
#
#
# Indices 1 2 3 4 5 6 
#
# 1 120.1594 62.5849 18.8195 -5.1821 -8.3555 -21.4298
# 2 62.5849 118.8941 42.3820 -10.3747 -13.7147 -13.3629
# 3 18.8195 42.3820 70.2630 -22.8992 -21.1997 10.5281
# 4 -5.1821 -10.3747 -22.8992 29.6318 -4.8974 -5.9934
# 5 -8.3555 -13.7147 -21.1997 -4.8974 31.5165 -17.1905
# 6 -21.4298 -13.3629 10.5281 -5.9934 -17.1905 30.9538
#
#
#
# Elastic Compliance Matrix: (Units=1/GPa)
#
#
# Indices 1 2 3 4 5 6 
#
# 1 0.014832 -0.004552 0.004719 0.011084 0.016745 0.018144
# 2 -0.004552 0.015312 -0.006544 0.002698 0.006971 0.010079
# 3 0.004719 -0.006544 0.038996 0.038629 0.039770 0.016744
# 4 0.011084 0.002698 0.038629 0.089469 0.073311 0.053737
# 5 0.016745 0.006971 0.039770 0.073311 0.122905 0.083527
# 6 0.018144 0.010079 0.016744 0.053737 0.083527 0.100317
#
#
# Mechanical properties :
#
#
# Convention : Reuss Voigt Hill
#
# Bulk Modulus (GPa) = 17.73503 61.87657 39.80580
# Shear Modulus (GPa) = 12.09540 30.78907 21.44224
#
# Velocity S-wave (km/s) = 2.41552 3.85389 3.21615
# Velocity P-wave (km/s) = 4.04165 7.04643 5.74400
#
# Compressibility (1/GPa) = 0.05638559
#
# Stress axis : x y z
#
# Youngs Moduli (GPa) = 67.42046 65.30781 25.64382
#
# Poissons Ratio (x) = 0.29725 -0.12101
# Poissons Ratio (y) = 0.30687 0.16782
# Poissons Ratio (z) = -0.31814 0.42740
#
# Static dielectric constant tensor:
#      x y z
#    x 1.766910 -0.068310 -0.018740 
#    y -0.068310 1.483650 -0.184040 
#    z -0.018740 -0.184040 1.646150 
# 
# From -- ./inp_files/393032.got.cif
#   From: 2010.05.17/outbox.cif.g08.bks.cpg/sg2_197_cif.got.tgz:393032.got - 2010.06.03 11:33:40.
