data_PCOD9053740
_publ_section_title
;
Structure prediction by ZEFSAII (Michael W. Deem and Ramdas Pophale) SiO2 
 PCOD9053740
Probable space group: P -1
;
_chemical_formula_sum "Si O2"
_cell_formula_units_Z 14
_cell_length_a 9.618481
_cell_length_b 15.829647
_cell_length_c 8.733662
_cell_angle_alpha 122.511817
_cell_angle_beta 75.761713
_cell_angle_gamma 54.707320
_cell_volume 538.640551
_symmetry_space_group_name_H-M "P -1"
_symmetry_group_IT_number 2
_symmetry_cell_setting 'triclinic'
loop_
_space_group_symop_operation_xyz
x,y,z
-x,-y,-z
loop_
_atom_site_type_symbol
_atom_site_label
_atom_site_fract_x
_atom_site_fract_y
_atom_site_fract_z
Si Si1 0.424832 0.266061 0.223946
Si Si2 0.875412 0.849276 0.827859
Si Si3 0.427295 0.631352 0.530148
Si Si4 0.559021 0.050961 0.410168
Si Si5 0.749816 0.413926 0.925143
Si Si6 0.035700 0.392297 0.644272
Si Si7 0.221375 0.958855 0.391758
O O1 0.571477 0.268159 0.276797
O O2 0.113310 0.440836 0.564081
O O3 0.591230 0.064362 0.032917
O O4 0.519098 0.217273 0.972933
O O5 0.967064 0.694346 0.566602
O O6 0.121114 0.785074 0.690661
O O7 0.799185 0.874987 0.049451
O O8 0.500000 0.500000 0.500000
O O9 0.665024 0.485157 0.191389
O O10 0.281782 0.242965 0.566513
O O11 0.500000 0.000000 0.500000
O O12 0.669667 0.076867 0.504594
O O13 0.777138 0.504725 0.925979
O O14 0.035515 0.170633 0.597808
O O15 0.500000 0.500000 0.000000
O O16 0.000000 0.000000 0.500000
#
# Coordination Sequence:
#
# PCOD9053740 Si02
#       7
#     2   2   2   2   2   2   2
#     4  11  23  44  69  99 129 174 233 274 327 396
#     4  11  21  42  70  97 131 176 224 272 331 400
#     4  12  26  43  65  98 140 178 215 274 343 400
#     4  11  20  36  67 101 130 162 221 286 324 374
#     4  12  24  44  68  95 138 179 217 268 344 412
#     4  11  23  42  71  99 133 177 225 281 337 389
#     4  12  24  43  70 103 130 172 230 282 325 388
#
# _framework density 25.991358000000002
#
# number of rings (size 3 to 8) (size 9 to 14) (size 15 to 20)
#    0.000    0.571    4.286    5.571    0.000    4.000 
#    0.000    0.714    0.000    0.000    0.000    0.000 
#    0.000    0.000    0.000    0.000    0.000    0.000 
#
# Total GULP energy -78363.698597 kJ/mol
# GULP energy per Si atom -5597.407043 kJ/mol
# Density = 2.593220 g / cm^3
# Si number density = 25.991358 Si / 1000 Ang^3
#
#
#
# Elastic Constant Matrix: (Units=GPa)
#
#
# Indices 1 2 3 4 5 6 
#
# 1 124.4150 19.7727 36.3244 -21.1819 -4.0450 -14.6093
# 2 19.7727 114.5014 46.2366 -40.0675 -2.5547 2.9601
# 3 36.3244 46.2366 147.4530 -44.8160 0.3953 6.6681
# 4 -21.1819 -40.0675 -44.8160 61.0443 2.7371 2.1265
# 5 -4.0450 -2.5547 0.3953 2.7371 54.3728 -12.2960
# 6 -14.6093 2.9601 6.6681 2.1265 -12.2960 43.1828
#
#
#
# Elastic Compliance Matrix: (Units=1/GPa)
#
#
# Indices 1 2 3 4 5 6 
#
# 1 0.009410 -0.000432 -0.001953 0.001345 0.001503 0.003876
# 2 -0.000432 0.011716 -0.001567 0.006426 -0.000027 -0.001031
# 3 -0.001953 -0.001567 0.009527 0.005431 -0.001154 -0.002620
# 4 0.001345 0.006426 0.005431 0.025206 -0.001468 -0.002483
# 5 0.001503 -0.000027 -0.001154 -0.001468 0.020047 0.006469
# 6 0.003876 -0.001031 -0.002620 -0.002483 0.006469 0.026908
#
#
# Mechanical properties :
#
#
# Convention : Reuss Voigt Hill
#
# Bulk Modulus (GPa) = 43.96195 65.67075 54.81635
# Shear Modulus (GPa) = 42.26519 50.65568 46.46044
#
# Velocity S-wave (km/s) = 4.03690 4.41947 4.23251
# Velocity P-wave (km/s) = 6.21929 7.16684 6.70981
#
# Compressibility (1/GPa) = 0.02274694
#
# Stress axis : x y z
#
# Youngs Moduli (GPa) = 106.27526 85.35391 104.97019
#
# Poissons Ratio (x) = 0.03689 0.20500
# Poissons Ratio (y) = 0.04594 0.16452
# Poissons Ratio (z) = 0.20755 0.13378
#
# Static dielectric constant tensor:
#      x y z
#    x 2.151120 0.016450 -0.017300 
#    y 0.016450 2.113150 0.120350 
#    z -0.017300 0.120350 2.165700 
# 
# From -- ./inp_files/189824.got.cif
#   From: 2010.05.17/outbox.cif.g08.bks.cpg/sg2_95_cif.got.tgz:189824.got - 2010.06.03 11:33:40.
