data_PCOD9053442
_publ_section_title
;
Structure prediction by ZEFSAII (Michael W. Deem and Ramdas Pophale) SiO2 
 PCOD9053442
Probable space group: P -1
;
_chemical_formula_sum "Si O2"
_cell_formula_units_Z 16
_cell_length_a 6.644259
_cell_length_b 24.764427
_cell_length_c 18.030383
_cell_angle_alpha 19.063944
_cell_angle_beta 71.778862
_cell_angle_gamma 61.008523
_cell_volume 729.582431
_symmetry_space_group_name_H-M "P -1"
_symmetry_group_IT_number 2
_symmetry_cell_setting 'triclinic'
loop_
_space_group_symop_operation_xyz
x,y,z
-x,-y,-z
loop_
_atom_site_type_symbol
_atom_site_label
_atom_site_fract_x
_atom_site_fract_y
_atom_site_fract_z
Si Si1 0.053814 0.499863 0.189651
Si Si2 0.690035 0.228350 0.959436
Si Si3 0.580863 0.773837 0.771722
Si Si4 0.926297 0.144808 0.202751
Si Si5 0.503942 0.693884 0.730004
Si Si6 0.106186 0.556141 0.580384
Si Si7 0.743872 0.592526 0.459350
Si Si8 0.214763 0.840965 0.123228
O O1 0.332503 0.356521 0.299404
O O2 0.986927 0.377436 0.410360
O O3 0.044477 0.673598 0.015396
O O4 0.820440 0.619256 0.000458
O O5 0.380247 0.320374 0.866751
O O6 0.690724 0.426754 0.695924
O O7 0.833443 0.102305 0.031014
O O8 0.821205 0.141644 0.136813
O O9 0.311557 0.800494 0.786757
O O10 0.654219 0.706790 0.765228
O O11 0.500000 0.000000 0.500000
O O12 0.209004 0.916397 0.475144
O O13 0.500000 0.500000 0.000000
O O14 0.207397 0.648556 0.391812
O O15 0.834273 0.624659 0.484700
O O16 0.492957 0.780706 0.199267
O O17 0.000000 0.500000 0.500000
O O18 0.000000 0.000000 0.000000
#
# Coordination Sequence:
#
# PCOD9053442 Si02
#       8
#     2   2   2   2   2   2   2   2
#     4  12  25  45  71 105 137 178 236 292 347 420
#     4  11  22  42  68  95 133 176 227 281 335 408
#     4  12  24  47  74  96 139 188 229 281 360 428
#     4  12  25  45  72 104 139 178 233 296 350 417
#     4  12  26  47  73 103 142 181 233 293 355 422
#     4  11  22  43  68  97 130 182 230 273 340 409
#     4  11  19  39  72  86 121 184 225 259 327 403
#     4  11  25  42  62 101 141 176 224 286 337 404
#
# _framework density 21.930353
#
# number of rings (size 3 to 8) (size 9 to 14) (size 15 to 20)
#    0.000    0.500    7.500    2.250    0.000    1.500 
#    9.000    0.000    0.000    0.000    0.000    0.000 
#    0.000    0.000    0.000    0.000    0.000    0.000 
#
# Total GULP energy -89222.600110 kJ/mol
# GULP energy per Si atom -5576.412507 kJ/mol
# Density = 2.188044 g / cm^3
# Si number density = 21.930353 Si / 1000 Ang^3
#
#
#
# Elastic Constant Matrix: (Units=GPa)
#
#
# Indices 1 2 3 4 5 6 
#
# 1 87.8659 25.7853 11.9040 -7.8708 17.4455 6.6578
# 2 25.7853 146.2668 19.9225 8.6279 21.6000 10.4381
# 3 11.9040 19.9225 27.2349 -2.1709 13.1880 14.2460
# 4 -7.8708 8.6279 -2.1709 29.6054 -1.9920 4.2641
# 5 17.4455 21.6000 13.1880 -1.9920 35.2067 7.7854
# 6 6.6578 10.4381 14.2460 4.2641 7.7854 53.5592
#
#
#
# Elastic Compliance Matrix: (Units=1/GPa)
#
#
# Indices 1 2 3 4 5 6 
#
# 1 0.013389 -0.001598 -0.001909 0.003640 -0.004631 -0.000462
# 2 -0.001598 0.008335 -0.004499 -0.003449 -0.002936 0.000472
# 3 -0.001909 -0.004499 0.054005 0.005534 -0.013621 -0.011711
# 4 0.003640 -0.003449 0.005534 0.036874 0.001293 -0.004376
# 5 -0.004631 -0.002936 -0.013621 0.001293 0.037860 -0.000835
# 6 -0.000462 0.000472 -0.011711 -0.004376 -0.000835 0.022221
#
#
# Mechanical properties :
#
#
# Convention : Reuss Voigt Hill
#
# Bulk Modulus (GPa) = 16.74546 41.84349 29.29448
# Shear Modulus (GPa) = 23.96915 37.25797 30.61356
#
# Velocity S-wave (km/s) = 3.30959 4.12627 3.74029
# Velocity P-wave (km/s) = 4.71772 6.46708 5.66039
#
# Compressibility (1/GPa) = 0.05971767
#
# Stress axis : x y z
#
# Youngs Moduli (GPa) = 74.68738 119.98104 18.51664
#
# Poissons Ratio (x) = 0.19176 0.03535
# Poissons Ratio (y) = 0.11937 0.08330
# Poissons Ratio (z) = 0.14257 0.53974
#
# Static dielectric constant tensor:
#      x y z
#    x 1.645420 -0.028110 0.275790 
#    y -0.028110 1.833200 0.057110 
#    z 0.275790 0.057110 1.467000 
# 
# From -- ./inp_files/47200.got.cif
#   From: 2010.05.17/outbox.cif.g08.bks.cpg/sg2_24_cif.got.tgz:47200.got - 2010.06.03 11:33:40.
