data_PCOD9053419
_publ_section_title
;
Structure prediction by ZEFSAII (Michael W. Deem and Ramdas Pophale) SiO2 
 PCOD9053419
Probable space group: P -1
;
_chemical_formula_sum "Si O2"
_cell_formula_units_Z 16
_cell_length_a 6.616493
_cell_length_b 21.777053
_cell_length_c 26.857297
_cell_angle_alpha 11.560275
_cell_angle_beta 82.692530
_cell_angle_gamma 84.742989
_cell_volume 758.537072
_symmetry_space_group_name_H-M "P -1"
_symmetry_group_IT_number 2
_symmetry_cell_setting 'triclinic'
loop_
_space_group_symop_operation_xyz
x,y,z
-x,-y,-z
loop_
_atom_site_type_symbol
_atom_site_label
_atom_site_fract_x
_atom_site_fract_y
_atom_site_fract_z
Si Si1 0.954652 0.218366 0.873964
Si Si2 0.956205 0.344302 0.220059
Si Si3 0.578743 0.840968 0.247035
Si Si4 0.780805 0.746775 0.060805
Si Si5 0.412498 0.672168 0.680727
Si Si6 0.634840 0.286777 0.044876
Si Si7 0.605786 0.378016 0.140187
Si Si8 0.845164 0.841250 0.336135
O O1 0.929745 0.548256 0.588865
O O2 0.120935 0.265753 0.876984
O O3 0.742397 0.048444 0.040839
O O4 0.000000 0.000000 0.000000
O O5 0.797585 0.403059 0.221243
O O6 0.843859 0.374772 0.147107
O O7 0.000000 0.000000 0.500000
O O8 0.169599 0.561224 0.049828
O O9 0.500000 0.500000 0.500000
O O10 0.701072 0.778396 0.342579
O O11 0.387669 0.023360 0.116068
O O12 0.664745 0.420781 0.299068
O O13 0.964830 0.901071 0.894800
O O14 0.506124 0.012328 0.429746
O O15 0.586884 0.463594 0.855103
O O16 0.695163 0.963929 0.283802
O O17 0.450835 0.374884 0.013582
O O18 0.500000 0.500000 0.000000
#
# Coordination Sequence:
#
# PCOD9053419 Si02
#       8
#     2   2   2   2   2   2   2   2
#     4  11  26  46  67 102 136 168 219 274 331 404
#     4  11  19  39  67  82 119 178 215 255 316 376
#     4  11  24  44  71  97 130 176 212 267 339 400
#     4  11  24  42  69  98 131 175 218 276 334 388
#     4  11  21  40  64  90 126 167 222 264 315 390
#     4  11  21  41  65  90 123 176 219 262 324 386
#     4  11  25  38  57  98 132 165 217 274 319 385
#     4  11  24  43  68  99 132 170 226 271 325 404
#
# _framework density 21.093233999999999
#
# number of rings (size 3 to 8) (size 9 to 14) (size 15 to 20)
#    0.000    1.000    5.000    2.250    0.000    7.500 
#    2.250    0.000    0.000    0.000    0.000    0.000 
#    0.000    0.000    0.000    0.000    0.000    0.000 
#
# Total GULP energy -89113.331088 kJ/mol
# GULP energy per Si atom -5569.583193 kJ/mol
# Density = 2.104522 g / cm^3
# Si number density = 21.093234 Si / 1000 Ang^3
#
#
#
# Elastic Constant Matrix: (Units=GPa)
#
#
# Indices 1 2 3 4 5 6 
#
# 1 111.1728 45.9274 24.5438 5.0469 22.0497 27.3206
# 2 45.9274 121.9122 50.9257 -11.8865 13.2780 27.9833
# 3 24.5438 50.9257 86.3802 -6.4256 28.1701 13.6414
# 4 5.0469 -11.8865 -6.4256 32.7033 4.5309 9.2603
# 5 22.0497 13.2780 28.1701 4.5309 34.9759 -0.1429
# 6 27.3206 27.9833 13.6414 9.2603 -0.1429 37.5766
#
#
#
# Elastic Compliance Matrix: (Units=1/GPa)
#
#
# Indices 1 2 3 4 5 6 
#
# 1 0.013785 -0.003002 0.002576 0.001213 -0.009820 -0.009058
# 2 -0.003002 0.014227 -0.005904 0.006666 0.000351 -0.007910
# 3 0.002576 -0.005904 0.021607 0.006091 -0.017602 -0.006888
# 4 0.001213 0.006666 0.006091 0.041055 -0.013594 -0.018226
# 5 -0.009820 0.000351 -0.017602 -0.013594 0.050655 0.016811
# 6 -0.009058 -0.007910 -0.006888 -0.018226 0.016811 0.046145
#
#
# Mechanical properties :
#
#
# Convention : Reuss Voigt Hill
#
# Bulk Modulus (GPa) = 27.05691 62.47323 44.76507
# Shear Modulus (GPa) = 23.53444 34.25573 28.89508
#
# Velocity S-wave (km/s) = 3.34388 4.03428 3.70520
# Velocity P-wave (km/s) = 5.26914 7.16816 6.29072
#
# Compressibility (1/GPa) = 0.03695914
#
# Stress axis : x y z
#
# Youngs Moduli (GPa) = 72.54126 70.28727 46.28153
#
# Poissons Ratio (x) = 0.21103 -0.11924
# Poissons Ratio (y) = 0.21780 0.27325
# Poissons Ratio (z) = -0.18690 0.41499
#
# Static dielectric constant tensor:
#      x y z
#    x 1.823020 0.008440 0.043150 
#    y 0.008440 1.744550 0.187190 
#    z 0.043150 0.187190 1.649430 
# 
# From -- ./inp_files/622027.got.cif
#   From: 2010.05.17/outbox.cif.g08.bks.cpg/sg2_312_cif.got.tgz:622027.got - 2010.06.03 11:33:40.
