data_PCOD9053520
_publ_section_title
;
Structure prediction by ZEFSAII (Michael W. Deem and Ramdas Pophale) SiO2 
 PCOD9053520
Probable space group: P -1
;
_chemical_formula_sum "Si O2"
_cell_formula_units_Z 16
_cell_length_a 23.094237
_cell_length_b 16.363435
_cell_length_c 11.192599
_cell_angle_alpha 30.170722
_cell_angle_beta 30.956342
_cell_angle_gamma 19.086992
_cell_volume 673.629012
_symmetry_space_group_name_H-M "P -1"
_symmetry_group_IT_number 2
_symmetry_cell_setting 'triclinic'
loop_
_space_group_symop_operation_xyz
x,y,z
-x,-y,-z
loop_
_atom_site_type_symbol
_atom_site_label
_atom_site_fract_x
_atom_site_fract_y
_atom_site_fract_z
Si Si1 0.234346 0.050307 0.980912
Si Si2 0.490489 0.734229 0.493807
Si Si3 0.208310 0.325347 0.324847
Si Si4 0.161766 0.477247 0.474437
Si Si5 0.967842 0.187776 0.101524
Si Si6 0.870286 0.999001 0.202488
Si Si7 0.566382 0.605420 0.781492
Si Si8 0.668997 0.311083 0.532579
O O1 0.303090 0.883124 0.191284
O O2 0.401952 0.857389 0.835111
O O3 0.076537 0.116655 0.116967
O O4 0.167690 0.314057 0.757407
O O5 0.590047 0.642125 0.559102
O O6 0.634468 0.509486 0.426903
O O7 0.348213 0.045900 0.364348
O O8 0.344919 0.749923 0.716590
O O9 0.265662 0.312678 0.373559
O O10 0.000000 0.500000 0.500000
O O11 0.182124 0.509425 0.055041
O O12 0.257057 0.527410 0.296560
O O13 0.960719 0.757655 0.431465
O O14 0.864793 0.133403 0.352689
O O15 0.107589 0.048561 0.919106
O O16 0.000000 0.000000 0.000000
O O17 0.500000 0.500000 0.000000
O O18 0.500000 0.500000 0.500000
#
# Coordination Sequence:
#
# PCOD9053520 Si02
#       8
#     2   2   2   2   2   2   2   2
#     4  12  23  45  69  96 139 189 237 286 356 423
#     4  12  22  42  68 103 136 183 231 297 357 418
#     4  11  19  42  74 106 140 171 235 301 359 417
#     4  11  23  38  71 114 137 177 229 306 362 397
#     4  11  23  44  68  95 138 194 229 282 361 425
#     4  11  21  38  71 103 134 174 240 291 347 422
#     4  12  23  39  67 112 137 169 236 304 350 402
#     4  12  30  45  64 100 150 195 239 287 357 428
#
# _framework density 23.751946
#
# number of rings (size 3 to 8) (size 9 to 14) (size 15 to 20)
#    0.000    0.500    7.500    2.250    3.500    0.500 
#    0.000    0.000    0.000    4.500    0.000    0.000 
#    0.000    0.000    0.000    0.000    0.000    0.000 
#
# Total GULP energy -89190.081114 kJ/mol
# GULP energy per Si atom -5574.380070 kJ/mol
# Density = 2.369789 g / cm^3
# Si number density = 23.751946 Si / 1000 Ang^3
#
#
#
# Elastic Constant Matrix: (Units=GPa)
#
#
# Indices 1 2 3 4 5 6 
#
# 1 101.3129 29.1741 39.4830 -17.9076 2.0924 -40.1674
# 2 29.1741 58.4856 29.8258 -10.7427 8.8300 -11.7258
# 3 39.4830 29.8258 99.2092 -16.8818 17.6530 -13.8038
# 4 -17.9076 -10.7427 -16.8818 38.5145 -5.2907 0.8848
# 5 2.0924 8.8300 17.6530 -5.2907 34.5523 1.0195
# 6 -40.1674 -11.7258 -13.8038 0.8848 1.0195 45.8502
#
#
#
# Elastic Compliance Matrix: (Units=1/GPa)
#
#
# Indices 1 2 3 4 5 6 
#
# 1 0.019347 -0.003983 -0.003829 0.006189 0.002319 0.014606
# 2 -0.003983 0.022200 -0.004042 0.002124 -0.003071 0.000999
# 3 -0.003829 -0.004042 0.014254 0.002568 -0.005623 -0.000022
# 4 0.006189 0.002124 0.002568 0.030735 0.002297 0.006094
# 5 0.002319 -0.003071 -0.005623 0.002297 0.032847 -0.001221
# 6 0.014606 0.000999 -0.000022 0.006094 -0.001221 0.034765
#
#
# Mechanical properties :
#
#
# Convention : Reuss Voigt Hill
#
# Bulk Modulus (GPa) = 31.16080 50.66372 40.91226
# Shear Modulus (GPa) = 26.51771 34.48506 30.50139
#
# Velocity S-wave (km/s) = 3.34495 3.81449 3.58741
# Velocity P-wave (km/s) = 5.29773 6.38570 5.86699
#
# Compressibility (1/GPa) = 0.03209160
#
# Stress axis : x y z
#
# Youngs Moduli (GPa) = 51.68864 45.04427 70.15813
#
# Poissons Ratio (x) = 0.17939 0.26867
# Poissons Ratio (y) = 0.20586 0.28360
# Poissons Ratio (z) = 0.19794 0.18208
#
# Static dielectric constant tensor:
#      x y z
#    x 1.940340 0.032670 -0.027690 
#    y 0.032670 1.914910 -0.085230 
#    z -0.027690 -0.085230 2.028330 
# 
# From -- ./inp_files/475328.got.cif
#   From: 2010.05.17/outbox.cif.g08.bks.cpg/sg2_238_cif.got.tgz:475328.got - 2010.06.03 11:33:40.
