data_PCOD9053683
_publ_section_title
;
Structure prediction by ZEFSAII (Michael W. Deem and Ramdas Pophale) SiO2 
 PCOD9053683
Probable space group: P -1
;
_chemical_formula_sum "Si O2"
_cell_formula_units_Z 16
_cell_length_a 18.049108
_cell_length_b 11.308463
_cell_length_c 7.787776
_cell_angle_alpha 64.466304
_cell_angle_beta 34.461219
_cell_angle_gamma 53.567334
_cell_volume 717.627018
_symmetry_space_group_name_H-M "P -1"
_symmetry_group_IT_number 2
_symmetry_cell_setting 'triclinic'
loop_
_space_group_symop_operation_xyz
x,y,z
-x,-y,-z
loop_
_atom_site_type_symbol
_atom_site_label
_atom_site_fract_x
_atom_site_fract_y
_atom_site_fract_z
Si Si1 0.672166 0.625070 0.833412
Si Si2 0.314693 0.294962 0.595713
Si Si3 0.717804 0.275228 0.239924
Si Si4 0.288225 0.993954 0.436272
Si Si5 0.482684 0.451080 0.334360
Si Si6 0.423237 0.128455 0.840579
Si Si7 0.012971 0.272288 0.688084
Si Si8 0.975514 0.561326 0.751709
O O1 0.648419 0.737768 0.653062
O O2 0.635055 0.722262 0.018415
O O3 0.845779 0.505107 0.554097
O O4 0.570186 0.543671 0.059771
O O5 0.384914 0.406699 0.426267
O O6 0.384047 0.174211 0.689763
O O7 0.136425 0.371000 0.918059
O O8 0.610284 0.300424 0.268655
O O9 0.637659 0.439273 0.369605
O O10 0.725423 0.156319 0.438875
O O11 0.882594 0.237691 0.901508
O O12 0.354970 0.028885 0.116426
O O13 0.130902 0.138274 0.658858
O O14 0.403249 0.961236 0.391018
O O15 0.952850 0.423929 0.814605
O O16 0.079197 0.310114 0.368514
#
# Coordination Sequence:
#
# PCOD9053683 Si02
#       8
#     2   2   2   2   2   2   2   2
#     4  12  23  41  67  92 128 164 199 264 318 358
#     4  12  23  41  67  92 128 164 199 264 318 358
#     4  11  20  35  65  89 124 170 203 253 316 362
#     4  11  21  36  62  88 125 167 210 250 306 370
#     4  11  21  38  60  95 123 158 213 255 304 381
#     4  11  22  40  62  94 120 159 218 251 298 388
#     4  11  20  35  65  89 124 170 203 253 316 362
#     4  11  21  38  60  95 123 158 213 255 304 381
#
# _framework density 22.295705999999999
#
# number of rings (size 3 to 8) (size 9 to 14) (size 15 to 20)
#    0.000    0.750    7.500    2.625    0.000    0.000 
#    0.000    2.500    0.000    0.000    0.000    5.250 
#    0.000    0.000    0.000    0.000    0.000    0.000 
#
# Total GULP energy -89263.966198 kJ/mol
# GULP energy per Si atom -5578.997887 kJ/mol
# Density = 2.224496 g / cm^3
# Si number density = 22.295706 Si / 1000 Ang^3
#
#
#
# Elastic Constant Matrix: (Units=GPa)
#
#
# Indices 1 2 3 4 5 6 
#
# 1 39.7442 21.9655 24.8158 3.6138 -5.1985 -27.4391
# 2 21.9655 124.2412 41.4640 -15.6628 -1.1940 -28.5149
# 3 24.8158 41.4640 94.2578 -5.7690 -20.1628 -15.8043
# 4 3.6138 -15.6628 -5.7690 31.5672 -13.3760 -4.2623
# 5 -5.1985 -1.1940 -20.1628 -13.3760 42.5064 -7.8533
# 6 -27.4391 -28.5149 -15.8043 -4.2623 -7.8533 37.2765
#
#
#
# Elastic Compliance Matrix: (Units=1/GPa)
#
#
# Indices 1 2 3 4 5 6 
#
# 1 0.064370 0.003678 -0.005526 0.007968 0.017555 0.052462
# 2 0.003678 0.012524 -0.002657 0.009157 0.004868 0.013233
# 3 -0.005526 -0.002657 0.016424 0.007041 0.009951 0.003765
# 4 0.007968 0.009157 0.007041 0.051134 0.025671 0.027110
# 5 0.017555 0.004868 0.009951 0.025671 0.044747 0.033227
# 6 0.052462 0.013233 0.003765 0.027110 0.033227 0.087263
#
#
# Mechanical properties :
#
#
# Convention : Reuss Voigt Hill
#
# Bulk Modulus (GPa) = 11.86135 48.30376 30.08255
# Shear Modulus (GPa) = 15.94521 33.60323 24.77422
#
# Velocity S-wave (km/s) = 2.67717 3.88643 3.33703
# Velocity P-wave (km/s) = 3.85848 6.46925 5.32631
#
# Compressibility (1/GPa) = 0.08430746
#
# Stress axis : x y z
#
# Youngs Moduli (GPa) = 15.53524 79.84849 60.88792
#
# Poissons Ratio (x) = -0.29366 0.33644
# Poissons Ratio (y) = -0.05713 0.16178
# Poissons Ratio (z) = 0.08584 0.21215
#
# Static dielectric constant tensor:
#      x y z
#    x 1.877240 -0.042390 -0.019450 
#    y -0.042390 1.856140 0.002170 
#    z -0.019450 0.002170 1.855490 
# 
# From -- ./inp_files/346017.got.cif
#   From: 2010.05.17/outbox.cif.g08.bks.cpg/sg2_174_cif.got.tgz:346017.got - 2010.06.03 11:33:40.
