data_PCOD9053120
_publ_section_title
;
Structure prediction by ZEFSAII (Michael W. Deem and Ramdas Pophale) SiO2 
 PCOD9053120
Probable space group: P -1
;
_chemical_formula_sum "Si O2"
_cell_formula_units_Z 14
_cell_length_a 12.557992
_cell_length_b 11.624683
_cell_length_c 13.914576
_cell_angle_alpha 33.046914
_cell_angle_beta 88.966801
_cell_angle_gamma 63.140843
_cell_volume 663.177596
_symmetry_space_group_name_H-M "P -1"
_symmetry_group_IT_number 2
_symmetry_cell_setting 'triclinic'
loop_
_space_group_symop_operation_xyz
x,y,z
-x,-y,-z
loop_
_atom_site_type_symbol
_atom_site_label
_atom_site_fract_x
_atom_site_fract_y
_atom_site_fract_z
Si Si1 0.311468 0.492387 0.657650
Si Si2 0.943790 0.417024 0.775951
Si Si3 0.227497 0.275673 0.948599
Si Si4 0.815720 0.355807 0.656239
Si Si5 0.521505 0.349951 0.463817
Si Si6 0.669430 0.854431 0.637432
Si Si7 0.035340 0.693549 0.843890
O O1 0.337705 0.269137 0.890943
O O2 0.258748 0.487798 0.557678
O O3 0.468086 0.415229 0.700319
O O4 0.138095 0.900678 0.410258
O O5 0.871899 0.473058 0.632629
O O6 0.788848 0.731663 0.631016
O O7 0.101333 0.334994 0.841598
O O8 0.021876 0.067781 0.055689
O O9 0.100181 0.601115 0.798229
O O10 0.346544 0.939254 0.251161
O O11 0.664338 0.468782 0.639120
O O12 0.596868 0.152532 0.498989
O O13 0.500000 0.000000 0.500000
O O14 0.799648 0.513790 0.943706
O O15 0.000000 0.500000 0.000000
#
# Coordination Sequence:
#
# PCOD9053120 Si02
#       7
#     2   2   2   2   2   2   2
#     4  12  22  38  65  92 122 162 203 248 306 358
#     4  11  21  40  62  91 119 166 201 246 306 363
#     4  11  23  38  66  90 123 156 208 253 296 361
#     4  11  23  38  64  87 128 164 201 243 311 362
#     4  11  22  41  63  93 120 159 204 255 296 359
#     4  11  19  36  67  89 114 159 204 248 303 354
#     4  11  18  38  64  89 119 157 203 250 300 358
#
# _framework density 21.110486000000002
#
# number of rings (size 3 to 8) (size 9 to 14) (size 15 to 20)
#    0.000    0.857    8.571    0.857    0.000    1.143 
#    0.000    0.000    3.143    2.571    0.000    0.000 
#    0.000    0.000    0.000    0.000    0.000    0.000 
#
# Total GULP energy -78286.121233 kJ/mol
# GULP energy per Si atom -5591.865802 kJ/mol
# Density = 2.106244 g / cm^3
# Si number density = 21.110486 Si / 1000 Ang^3
#
#
#
# Elastic Constant Matrix: (Units=GPa)
#
#
# Indices 1 2 3 4 5 6 
#
# 1 122.1561 43.2730 34.2324 17.6302 12.9833 17.6905
# 2 43.2730 134.7631 22.7826 0.7986 -7.1488 12.3271
# 3 34.2324 22.7826 58.0388 -7.4820 -3.5651 5.1018
# 4 17.6302 0.7986 -7.4820 30.4735 -5.2857 6.5409
# 5 12.9833 -7.1488 -3.5651 -5.2857 32.9332 6.7891
# 6 17.6905 12.3271 5.1018 6.5409 6.7891 36.6467
#
#
#
# Elastic Compliance Matrix: (Units=1/GPa)
#
#
# Indices 1 2 3 4 5 6 
#
# 1 0.015093 -0.003588 -0.009636 -0.012521 -0.009634 -0.000718
# 2 -0.003588 0.009121 -0.000581 0.003006 0.004350 -0.002598
# 3 -0.009636 -0.000581 0.025813 0.014200 0.009368 -0.003016
# 4 -0.012521 0.003006 0.014200 0.048206 0.016642 -0.008631
# 5 -0.009634 0.004350 0.009368 0.016642 0.040565 -0.008602
# 6 -0.000718 -0.002598 -0.003016 -0.008631 -0.008602 0.032062
#
#
# Mechanical properties :
#
#
# Convention : Reuss Voigt Hill
#
# Bulk Modulus (GPa) = 44.61131 57.28157 50.94644
# Shear Modulus (GPa) = 24.27864 34.32200 29.30032
#
# Velocity S-wave (km/s) = 3.39495 4.03653 3.72956
# Velocity P-wave (km/s) = 6.04531 6.99413 6.53696
#
# Compressibility (1/GPa) = 0.02241584
#
# Stress axis : x y z
#
# Youngs Moduli (GPa) = 66.25742 109.63192 38.74076
#
# Poissons Ratio (x) = 0.39341 0.37331
# Poissons Ratio (y) = 0.23776 0.02250
# Poissons Ratio (z) = 0.63846 0.06369
#
# Static dielectric constant tensor:
#      x y z
#    x 1.751370 -0.001300 0.028500 
#    y -0.001300 1.797250 -0.034380 
#    z 0.028500 -0.034380 1.765650 
# 
# From -- ./inp_files/389640.got.cif
#   From: 2010.05.17/outbox.cif.g08.bks.cpg/sg2_195_cif.got.tgz:389640.got - 2010.06.03 11:33:40.
