data_PCOD9053328
_publ_section_title
;
Structure prediction by ZEFSAII (Michael W. Deem and Ramdas Pophale) SiO2 
 PCOD9053328
Probable space group: P -1
;
_chemical_formula_sum "Si O2"
_cell_formula_units_Z 15
_cell_length_a 8.884048
_cell_length_b 11.880689
_cell_length_c 9.527125
_cell_angle_alpha 48.104566
_cell_angle_beta 121.471829
_cell_angle_gamma 107.489752
_cell_volume 636.571145
_symmetry_space_group_name_H-M "P -1"
_symmetry_group_IT_number 2
_symmetry_cell_setting 'triclinic'
loop_
_space_group_symop_operation_xyz
x,y,z
-x,-y,-z
loop_
_atom_site_type_symbol
_atom_site_label
_atom_site_fract_x
_atom_site_fract_y
_atom_site_fract_z
Si Si1 0.879094 0.805357 0.688222
Si Si2 0.210763 0.717404 0.425942
Si Si3 0.421816 0.717676 0.239479
Si Si4 0.314615 0.027784 0.311886
Si Si5 0.869945 0.883552 0.106417
Si Si6 0.771139 0.034159 0.223649
Si Si7 0.211049 0.439009 0.360223
Si Si8 0.000000 0.500000 0.500000
O O1 0.866856 0.647579 0.736624
O O2 0.075743 0.859865 0.741407
O O3 0.805341 0.840494 0.777214
O O4 0.751922 0.922893 0.435314
O O5 0.326044 0.745378 0.321969
O O6 0.239592 0.859222 0.420324
O O7 0.990464 0.723463 0.287737
O O8 0.212697 0.545235 0.612902
O O9 0.309776 0.584302 0.236971
O O10 0.624373 0.665277 0.405872
O O11 0.388452 0.861630 0.004888
O O12 0.500000 0.000000 0.500000
O O13 0.302262 0.087872 0.096091
O O14 0.843388 0.932493 0.211682
O O15 0.000000 0.000000 0.000000
O O16 0.073215 0.479751 0.382333
#
# Coordination Sequence:
#
# PCOD9053328 Si02
#       8
#     2   2   2   2   2   2   2   1
#     4  11  23  36  59  97 126 152 198 264 310 353
#     4  10  18  37  64  87 117 161 207 238 297 370
#     4  10  20  40  62  87 116 167 209 250 294 375
#     4  11  21  36  61  92 123 156 196 254 304 357
#     4  10  17  35  60  85 117 160 204 234 295 379
#     4  11  21  37  61  90 125 160 201 254 308 360
#     4  10  23  39  61  88 121 161 212 253 307 368
#     4  10  22  38  62  84 118 166 204 248 302 374
#
# _framework density 23.563745999999998
#
# number of rings (size 3 to 8) (size 9 to 14) (size 15 to 20)
#    0.000    1.600    5.333    1.600    1.867    1.067 
#    2.400    0.000    0.000    1.600    0.000    0.000 
#    0.000    0.000    0.000    0.000    0.000    0.000 
#
# Total GULP energy -83549.980076 kJ/mol
# GULP energy per Si atom -5569.998672 kJ/mol
# Density = 2.351011 g / cm^3
# Si number density = 23.563746 Si / 1000 Ang^3
#
#
#
# Elastic Constant Matrix: (Units=GPa)
#
#
# Indices 1 2 3 4 5 6 
#
# 1 72.3366 50.5093 12.7449 8.4617 -9.4327 1.7630
# 2 50.5093 191.1454 1.5543 23.3837 -0.6138 -3.2005
# 3 12.7449 1.5543 72.8245 -3.1731 7.4375 0.5834
# 4 8.4617 23.3837 -3.1731 27.8615 -6.9065 -0.3151
# 5 -9.4327 -0.6138 7.4375 -6.9065 23.5606 -1.7843
# 6 1.7630 -3.2005 0.5834 -0.3151 -1.7843 33.2979
#
#
#
# Elastic Compliance Matrix: (Units=1/GPa)
#
#
# Indices 1 2 3 4 5 6 
#
# 1 0.019248 -0.005053 -0.004152 0.000103 0.008843 -0.000957
# 2 -0.005053 0.007209 0.000862 -0.005304 -0.003609 0.000702
# 3 -0.004152 0.000862 0.015109 0.000712 -0.006222 -0.000289
# 4 0.000103 -0.005304 0.000712 0.043490 0.012469 0.000552
# 5 0.008843 -0.003609 -0.006222 0.012469 0.051674 0.002181
# 6 -0.000957 0.000702 -0.000289 0.000552 0.002181 0.030277
#
#
# Mechanical properties :
#
#
# Convention : Reuss Voigt Hill
#
# Bulk Modulus (GPa) = 40.19085 51.76926 45.98006
# Shear Modulus (GPa) = 26.04358 35.04387 30.54372
#
# Velocity S-wave (km/s) = 3.32812 3.86060 3.60421
# Velocity P-wave (km/s) = 5.64462 6.47224 6.07255
#
# Compressibility (1/GPa) = 0.02488129
#
# Stress axis : x y z
#
# Youngs Moduli (GPa) = 51.95282 138.71891 66.18731
#
# Poissons Ratio (x) = 0.70091 0.27479
# Poissons Ratio (y) = 0.26251 -0.05707
# Poissons Ratio (z) = 0.21569 -0.11961
#
# Static dielectric constant tensor:
#      x y z
#    x 1.924460 0.078540 0.001590 
#    y 0.078540 2.269680 -0.263130 
#    z 0.001590 -0.263130 2.138930 
# 
# From -- ./inp_files/185358.got.cif
#   From: 2010.05.17/outbox.cif.g08.bks.cpg/sg2_93_cif.got.tgz:185358.got - 2010.06.03 11:33:40.
