data_PCOD9053271
_publ_section_title
;
Structure prediction by ZEFSAII (Michael W. Deem and Ramdas Pophale) SiO2 
 PCOD9053271
Probable space group: P -1
;
_chemical_formula_sum "Si O2"
_cell_formula_units_Z 14
_cell_length_a 11.995991
_cell_length_b 6.644290
_cell_length_c 14.193894
_cell_angle_alpha 81.822836
_cell_angle_beta 124.030585
_cell_angle_gamma 58.980453
_cell_volume 638.943740
_symmetry_space_group_name_H-M "P -1"
_symmetry_group_IT_number 2
_symmetry_cell_setting 'triclinic'
loop_
_space_group_symop_operation_xyz
x,y,z
-x,-y,-z
loop_
_atom_site_type_symbol
_atom_site_label
_atom_site_fract_x
_atom_site_fract_y
_atom_site_fract_z
Si Si1 0.887826 0.026811 0.243126
Si Si2 0.741063 0.404167 0.672722
Si Si3 0.506678 0.274248 0.639465
Si Si4 0.809361 0.590183 0.870194
Si Si5 0.706074 0.418495 0.299873
Si Si6 0.663783 0.885819 0.160474
Si Si7 0.374782 0.506115 0.068997
O O1 0.857990 0.111646 0.333785
O O2 0.833323 0.851247 0.209120
O O3 0.724477 0.333004 0.087766
O O4 0.087218 0.860407 0.296767
O O5 0.642604 0.323515 0.686148
O O6 0.580974 0.674199 0.508513
O O7 0.822342 0.476227 0.780872
O O8 0.328727 0.526380 0.609000
O O9 0.631804 0.948076 0.759247
O O10 0.771303 0.442208 0.932080
O O11 0.000000 0.500000 0.000000
O O12 0.745979 0.597639 0.267433
O O13 0.488857 0.578575 0.154837
O O14 0.543073 0.156075 0.157598
O O15 0.500000 0.000000 0.000000
#
# Coordination Sequence:
#
# PCOD9053271 Si02
#       7
#     2   2   2   2   2   2   2
#     4  11  24  37  63 103 133 167 216 277 326 391
#     4  11  27  47  65  96 138 175 223 271 327 396
#     4  11  25  48  71  90 133 186 217 269 332 394
#     4  12  26  40  70 102 129 171 225 276 327 393
#     4  11  21  40  67  95 129 172 219 264 330 389
#     4  11  19  35  62  93 133 172 207 269 334 379
#     4  11  21  36  62  99 130 165 214 273 326 383
#
# _framework density 21.911162000000001
#
# number of rings (size 3 to 8) (size 9 to 14) (size 15 to 20)
#    0.000    0.857    5.714    2.143    4.000    2.857 
#    0.000    0.714    0.000    0.000    0.000    0.000 
#    0.000    0.000    0.000    0.000    0.000    0.000 
#
# Total GULP energy -78180.432228 kJ/mol
# GULP energy per Si atom -5584.316588 kJ/mol
# Density = 2.186129 g / cm^3
# Si number density = 21.911162 Si / 1000 Ang^3
#
#
#
# Elastic Constant Matrix: (Units=GPa)
#
#
# Indices 1 2 3 4 5 6 
#
# 1 137.1743 37.5129 18.1749 1.9667 -9.0989 0.0422
# 2 37.5129 82.6657 20.6905 14.6274 -3.1255 -2.1842
# 3 18.1749 20.6905 53.7082 15.3013 -8.7853 4.2777
# 4 1.9667 14.6274 15.3013 30.5530 -8.6488 -3.1958
# 5 -9.0989 -3.1255 -8.7853 -8.6488 19.9210 -0.0329
# 6 0.0422 -2.1842 4.2777 -3.1958 -0.0329 37.8949
#
#
#
# Elastic Compliance Matrix: (Units=1/GPa)
#
#
# Indices 1 2 3 4 5 6 
#
# 1 0.008847 -0.004017 -0.001771 0.003433 0.004121 0.000252
# 2 -0.004017 0.015844 -0.003560 -0.006525 -0.003750 0.000766
# 3 -0.001771 -0.003560 0.024408 -0.009278 0.005362 -0.003736
# 4 0.003433 -0.006525 -0.009278 0.045318 0.016135 0.004503
# 5 0.004121 -0.003750 0.005362 0.016135 0.060863 0.000588
# 6 0.000252 0.000766 -0.003736 0.004503 0.000588 0.027235
#
#
# Mechanical properties :
#
#
# Convention : Reuss Voigt Hill
#
# Bulk Modulus (GPa) = 32.88972 47.36721 40.12846
# Shear Modulus (GPa) = 23.65823 30.81843 27.23833
#
# Velocity S-wave (km/s) = 3.28950 3.75443 3.52962
# Velocity P-wave (km/s) = 5.42870 6.36074 5.91311
#
# Compressibility (1/GPa) = 0.03040464
#
# Stress axis : x y z
#
# Youngs Moduli (GPa) = 113.03250 63.11674 40.97059
#
# Poissons Ratio (x) = 0.25351 0.07254
# Poissons Ratio (y) = 0.45400 0.14585
# Poissons Ratio (z) = 0.20013 0.22468
#
# Static dielectric constant tensor:
#      x y z
#    x 1.802430 -0.023680 0.007990 
#    y -0.023680 1.830710 0.031990 
#    z 0.007990 0.031990 1.830050 
# 
# From -- ./inp_files/68273.got.cif
#   From: 2010.05.17/outbox.cif.g08.bks.cpg/sg2_35_cif.got.tgz:68273.got - 2010.06.03 11:33:40.
