data_PCOD9053354
_publ_section_title
;
Structure prediction by ZEFSAII (Michael W. Deem and Ramdas Pophale) SiO2 
 PCOD9053354
Probable space group: P -1
;
_chemical_formula_sum "Si O2"
_cell_formula_units_Z 16
_cell_length_a 9.772316
_cell_length_b 13.806444
_cell_length_c 6.626903
_cell_angle_alpha 65.082019
_cell_angle_beta 106.588259
_cell_angle_gamma 118.431838
_cell_volume 709.020856
_symmetry_space_group_name_H-M "P -1"
_symmetry_group_IT_number 2
_symmetry_cell_setting 'triclinic'
loop_
_space_group_symop_operation_xyz
x,y,z
-x,-y,-z
loop_
_atom_site_type_symbol
_atom_site_label
_atom_site_fract_x
_atom_site_fract_y
_atom_site_fract_z
Si Si1 0.784526 0.103286 0.835809
Si Si2 0.012140 0.109221 0.268201
Si Si3 0.342243 0.408930 0.421829
Si Si4 0.504124 0.372898 0.163054
Si Si5 0.899326 0.794654 0.373787
Si Si6 0.705612 0.853682 0.956278
Si Si7 0.207005 0.661759 0.494307
Si Si8 0.917448 0.522931 0.754420
O O1 0.725032 0.203612 0.671406
O O2 0.940522 0.142503 0.729181
O O3 0.673497 0.970594 0.842878
O O4 0.860720 0.106935 0.086685
O O5 0.064734 0.208723 0.373139
O O6 0.150800 0.128188 0.152108
O O7 0.000000 0.000000 0.500000
O O8 0.500000 0.500000 0.500000
O O9 0.392924 0.335510 0.348170
O O10 0.500000 0.500000 0.000000
O O11 0.238217 0.469195 0.230469
O O12 0.430777 0.270161 0.055235
O O13 0.668066 0.374049 0.305978
O O14 0.777192 0.663010 0.387812
O O15 0.786420 0.856931 0.204676
O O16 0.144356 0.581385 0.341866
O O17 0.054773 0.630020 0.600846
O O18 0.000000 0.500000 0.000000
#
# Coordination Sequence:
#
# PCOD9053354 Si02
#       8
#     2   2   2   2   2   2   2   2
#     4  11  23  39  66  99 137 177 223 280 344 410
#     4  11  19  37  65  99 133 172 229 277 332 399
#     4  12  23  42  69  97 133 177 229 284 333 403
#     4  12  26  45  68  99 136 179 231 287 346 412
#     4  11  21  38  65  98 131 170 225 281 327 404
#     4  11  23  38  67  99 131 176 226 278 342 399
#     4  11  26  45  64  99 144 175 225 287 345 408
#     4  11  25  44  70  98 133 185 230 278 346 410
#
# _framework density 22.566330000000001
#
# number of rings (size 3 to 8) (size 9 to 14) (size 15 to 20)
#    0.000    0.750    6.250    2.250    1.750    1.500 
#    0.000    0.000    0.000    1.500    0.000    0.000 
#    0.000    0.000    0.000    0.000    0.000    0.000 
#
# Total GULP energy -89182.092725 kJ/mol
# GULP energy per Si atom -5573.880795 kJ/mol
# Density = 2.251497 g / cm^3
# Si number density = 22.566330 Si / 1000 Ang^3
#
#
#
# Elastic Constant Matrix: (Units=GPa)
#
#
# Indices 1 2 3 4 5 6 
#
# 1 88.1411 17.4281 23.5118 4.6113 23.9371 0.4544
# 2 17.4281 140.3778 52.0873 -1.9616 22.1722 -0.2581
# 3 23.5118 52.0873 116.6377 8.7995 25.1886 -0.5531
# 4 4.6113 -1.9616 8.7995 39.9750 -4.9381 0.4943
# 5 23.9371 22.1722 25.1886 -4.9381 39.5005 -0.8961
# 6 0.4544 -0.2581 -0.5531 0.4943 -0.8961 24.9584
#
#
#
# Elastic Compliance Matrix: (Units=1/GPa)
#
#
# Indices 1 2 3 4 5 6 
#
# 1 0.013938 -0.000187 -0.000782 -0.002447 -0.008161 -0.000518
# 2 -0.000187 0.008833 -0.003424 0.000894 -0.002552 -0.000090
# 3 -0.000782 -0.003424 0.011694 -0.003330 -0.005475 0.000107
# 4 -0.002447 0.000894 -0.003330 0.026876 0.006456 -0.000320
# 5 -0.008161 -0.002552 -0.005475 0.006456 0.036019 0.001166
# 6 -0.000518 -0.000090 0.000107 -0.000320 0.001166 0.040126
#
#
# Mechanical properties :
#
#
# Convention : Reuss Voigt Hill
#
# Bulk Modulus (GPa) = 38.93986 59.02343 48.98164
# Shear Modulus (GPa) = 32.29360 37.69541 34.99451
#
# Velocity S-wave (km/s) = 3.78703 4.09152 3.94222
# Velocity P-wave (km/s) = 6.03451 6.96656 6.51722
#
# Compressibility (1/GPa) = 0.02568063
#
# Stress axis : x y z
#
# Youngs Moduli (GPa) = 71.74754 113.21819 85.51244
#
# Poissons Ratio (x) = 0.02112 0.06686
# Poissons Ratio (y) = 0.01338 0.29276
# Poissons Ratio (z) = 0.05610 0.38761
#
# Static dielectric constant tensor:
#      x y z
#    x 1.856560 -0.033070 -0.018240 
#    y -0.033070 2.007880 -0.085870 
#    z -0.018240 -0.085870 1.952310 
# 
# From -- ./inp_files/77256.got.cif
#   From: 2010.05.17/outbox.cif.g08.bks.cpg/sg2_39_cif.got.tgz:77256.got - 2010.06.03 11:33:40.
