data_PCOD9053581
_publ_section_title
;
Structure prediction by ZEFSAII (Michael W. Deem and Ramdas Pophale) SiO2 
 PCOD9053581
Probable space group: P -1
;
_chemical_formula_sum "Si O2"
_cell_formula_units_Z 16
_cell_length_a 11.657103
_cell_length_b 20.072047
_cell_length_c 14.411957
_cell_angle_alpha 148.865801
_cell_angle_beta 148.511435
_cell_angle_gamma 32.321164
_cell_volume 823.771954
_symmetry_space_group_name_H-M "P -1"
_symmetry_group_IT_number 2
_symmetry_cell_setting 'triclinic'
loop_
_space_group_symop_operation_xyz
x,y,z
-x,-y,-z
loop_
_atom_site_type_symbol
_atom_site_label
_atom_site_fract_x
_atom_site_fract_y
_atom_site_fract_z
Si Si1 0.051545 0.443590 0.113805
Si Si2 0.609154 0.845314 0.276916
Si Si3 0.753150 0.646923 0.513874
Si Si4 0.457412 0.493315 0.070394
Si Si5 0.673151 0.318936 0.175341
Si Si6 0.214024 0.162102 0.404536
Si Si7 0.420862 0.368831 0.439093
Si Si8 0.961581 0.289481 0.695533
O O1 0.284047 0.378595 0.261213
O O2 0.064481 0.578535 0.232418
O O3 0.806207 0.490354 0.061913
O O4 0.036337 0.334171 0.897695
O O5 0.701089 0.800675 0.393281
O O6 0.832893 0.846540 0.374602
O O7 0.378862 0.995875 0.305297
O O8 0.528066 0.741741 0.036431
O O9 0.514599 0.619899 0.299802
O O10 0.755770 0.750840 0.558744
O O11 0.713894 0.684920 0.640438
O O12 0.000000 0.500000 0.500000
O O13 0.660223 0.356268 0.100376
O O14 0.500000 0.500000 0.000000
O O15 0.614411 0.469726 0.364216
O O16 0.926341 0.207476 0.257581
O O17 0.707265 0.281667 0.522535
#
# Coordination Sequence:
#
# PCOD9053581 Si02
#       8
#     2   2   2   2   2   2   2   2
#     4  11  21  36  58  89 124 155 196 245 302 354
#     4  11  24  41  62  85 125 161 203 245 287 366
#     4  11  20  37  59  90 120 146 197 250 304 349
#     4  11  20  32  59  92 122 150 185 251 308 351
#     4  11  20  37  60  91 121 150 195 251 297 346
#     4  11  24  41  62  90 117 164 202 243 303 354
#     4  11  22  36  61  93 119 153 194 253 304 355
#     4  11  21  38  55  87 122 159 201 240 298 355
#
# _framework density 19.422853
#
# number of rings (size 3 to 8) (size 9 to 14) (size 15 to 20)
#    0.000    1.000    6.250    3.750    0.000    1.000 
#    0.000    0.625    0.000    0.750    0.000    0.000 
#    0.000    0.000    0.000    0.000    0.000    0.000 
#
# Total GULP energy -89190.539441 kJ/mol
# GULP energy per Si atom -5574.408715 kJ/mol
# Density = 1.937865 g / cm^3
# Si number density = 19.422853 Si / 1000 Ang^3
#
#
#
# Elastic Constant Matrix: (Units=GPa)
#
#
# Indices 1 2 3 4 5 6 
#
# 1 96.7514 26.7855 17.7195 -15.8082 1.0096 -1.4741
# 2 26.7855 73.5159 17.6031 -25.8497 -6.7484 -1.3064
# 3 17.7195 17.6031 55.6149 -28.8292 -1.1589 6.6895
# 4 -15.8082 -25.8497 -28.8292 26.6379 0.4573 -1.9710
# 5 1.0096 -6.7484 -1.1589 0.4573 27.4528 -9.6579
# 6 -1.4741 -1.3064 6.6895 -1.9710 -9.6579 30.4923
#
#
#
# Elastic Compliance Matrix: (Units=1/GPa)
#
#
# Indices 1 2 3 4 5 6 
#
# 1 0.011929 -0.003327 -0.001855 0.001907 -0.001156 0.000598
# 2 -0.003327 0.024762 0.010225 0.033225 0.007169 0.003075
# 3 -0.001855 0.010225 0.046427 0.058631 0.001618 -0.005535
# 4 0.001907 0.033225 0.058631 0.134222 0.008324 -0.000034
# 5 -0.001156 0.007169 0.001618 0.008324 0.043118 0.014091
# 6 0.000598 0.003075 -0.005535 -0.000034 0.014091 0.038631
#
#
# Mechanical properties :
#
#
# Convention : Reuss Voigt Hill
#
# Bulk Modulus (GPa) = 10.72921 38.89982 24.81451
# Shear Modulus (GPa) = 15.62146 27.83487 21.72816
#
# Velocity S-wave (km/s) = 2.83906 3.78974 3.34831
# Velocity P-wave (km/s) = 4.03523 6.26265 5.26801
#
# Compressibility (1/GPa) = 0.09320350
#
# Stress axis : x y z
#
# Youngs Moduli (GPa) = 83.82618 40.38478 21.53900
#
# Poissons Ratio (x) = 0.13437 0.03996
# Poissons Ratio (y) = 0.27891 -0.22024
# Poissons Ratio (z) = 0.15552 -0.41293
#
# Static dielectric constant tensor:
#      x y z
#    x 1.792790 0.018160 -0.011990 
#    y 0.018160 1.694550 -0.008870 
#    z -0.011990 -0.008870 1.721070 
# 
# From -- ./inp_files/424003.got.cif
#   From: 2010.05.17/outbox.cif.g08.bks.cpg/sg2_213_cif.got.tgz:424003.got - 2010.06.03 11:33:40.
