data_PCOD9053350
_publ_section_title
;
Structure prediction by ZEFSAII (Michael W. Deem and Ramdas Pophale) SiO2 
 PCOD9053350
Probable space group: P -1
;
_chemical_formula_sum "Si O2"
_cell_formula_units_Z 16
_cell_length_a 14.156603
_cell_length_b 9.108532
_cell_length_c 10.592737
_cell_angle_alpha 77.273905
_cell_angle_beta 119.771303
_cell_angle_gamma 139.622998
_cell_volume 737.124316
_symmetry_space_group_name_H-M "P -1"
_symmetry_group_IT_number 2
_symmetry_cell_setting 'triclinic'
loop_
_space_group_symop_operation_xyz
x,y,z
-x,-y,-z
loop_
_atom_site_type_symbol
_atom_site_label
_atom_site_fract_x
_atom_site_fract_y
_atom_site_fract_z
Si Si1 0.234926 0.274866 0.346296
Si Si2 0.362723 0.865496 0.549574
Si Si3 0.985157 0.474461 0.280909
Si Si4 0.380112 0.019935 0.892495
Si Si5 0.127716 0.460627 0.156801
Si Si6 0.923513 0.141531 0.843360
Si Si7 0.639241 0.009588 0.833773
Si Si8 0.416941 0.248055 0.637999
O O1 0.169672 0.374444 0.300884
O O2 0.273909 0.217280 0.507211
O O3 0.410249 0.492185 0.346014
O O4 0.115551 0.054368 0.213858
O O5 0.164642 0.622234 0.435579
O O6 0.442804 0.828931 0.704170
O O7 0.500000 0.000000 0.500000
O O8 0.378086 0.053313 0.572003
O O9 0.003082 0.439040 0.153367
O O10 0.993597 0.662261 0.243594
O O11 0.800676 0.221154 0.245645
O O12 0.443775 0.218028 0.803900
O O13 0.500000 0.000000 0.000000
O O14 0.346794 0.042173 0.007844
O O15 0.280859 0.734860 0.166552
O O16 0.047011 0.290162 0.016875
O O17 0.745646 0.026117 0.799338
#
# Coordination Sequence:
#
# PCOD9053350 Si02
#       8
#     2   2   2   2   2   2   2   2
#     4  11  22  40  60  90 126 167 207 261 309 376
#     4  12  19  37  64  99 121 155 207 260 312 359
#     4  11  22  37  67  96 124 159 214 265 304 367
#     4  12  23  42  64  89 130 170 205 260 322 363
#     4  11  19  37  64  95 123 159 207 263 313 361
#     4  11  20  36  66  98 121 153 213 271 307 361
#     4  11  20  38  66  94 124 159 208 263 315 361
#     4  11  24  39  59  88 128 171 206 251 314 378
#
# _framework density 21.705974999999999
#
# number of rings (size 3 to 8) (size 9 to 14) (size 15 to 20)
#    0.000    0.750    8.750    1.125    0.000    1.500 
#    0.000    1.250    0.000    0.000    0.000    0.000 
#    0.000    0.000    0.000    0.000    0.000    0.000 
#
# Total GULP energy -89233.839300 kJ/mol
# GULP energy per Si atom -5577.114956 kJ/mol
# Density = 2.165657 g / cm^3
# Si number density = 21.705975 Si / 1000 Ang^3
#
#
#
# Elastic Constant Matrix: (Units=GPa)
#
#
# Indices 1 2 3 4 5 6 
#
# 1 21.8190 11.9094 -1.8077 -8.9963 5.3619 -8.7669
# 2 11.9094 71.0082 27.7004 -14.2931 2.0528 -3.0520
# 3 -1.8077 27.7004 100.3104 -8.9979 14.4208 2.4305
# 4 -8.9963 -14.2931 -8.9979 43.7826 -0.2458 6.5635
# 5 5.3619 2.0528 14.4208 -0.2458 35.0033 2.8228
# 6 -8.7669 -3.0520 2.4305 6.5635 2.8228 31.7553
#
#
#
# Elastic Compliance Matrix: (Units=1/GPa)
#
#
# Indices 1 2 3 4 5 6 
#
# 1 0.065478 -0.010645 0.006436 0.008841 -0.013279 0.015914
# 2 -0.010645 0.018416 -0.005391 0.002978 0.002924 -0.001632
# 3 0.006436 -0.005391 0.012594 0.002059 -0.005875 0.000392
# 4 0.008841 0.002978 0.002059 0.026449 -0.001972 -0.002722
# 5 -0.013279 0.002924 -0.005875 -0.001972 0.033280 -0.005486
# 6 0.015914 -0.001632 0.000392 -0.002722 -0.005486 0.036748
#
#
# Mechanical properties :
#
#
# Convention : Reuss Voigt Hill
#
# Bulk Modulus (GPa) = 12.93865 29.86018 21.39942
# Shear Modulus (GPa) = 21.01472 32.46394 26.73933
#
# Velocity S-wave (km/s) = 3.11489 3.87152 3.51363
# Velocity P-wave (km/s) = 4.34863 5.81132 5.13235
#
# Compressibility (1/GPa) = 0.07728783
#
# Stress axis : x y z
#
# Youngs Moduli (GPa) = 15.27220 54.30032 79.40529
#
# Poissons Ratio (x) = 0.57803 -0.51106
# Poissons Ratio (y) = 0.16257 0.42808
# Poissons Ratio (z) = -0.09829 0.29274
#
# Static dielectric constant tensor:
#      x y z
#    x 1.839640 0.021230 0.055860 
#    y 0.021230 1.785420 -0.020610 
#    z 0.055860 -0.020610 1.995330 
# 
# From -- ./inp_files/445913.got.cif
#   From: 2010.05.17/outbox.cif.g08.bks.cpg/sg2_223_cif.got.tgz:445913.got - 2010.06.03 11:33:40.
