data_PCOD9053250
_publ_section_title
;
Structure prediction by ZEFSAII (Michael W. Deem and Ramdas Pophale) SiO2 
 PCOD9053250
Probable space group: P -1
;
_chemical_formula_sum "Si O2"
_cell_formula_units_Z 16
_cell_length_a 21.989675
_cell_length_b 8.031759
_cell_length_c 9.943857
_cell_angle_alpha 102.998058
_cell_angle_beta 53.430009
_cell_angle_gamma 143.108709
_cell_volume 722.280938
_symmetry_space_group_name_H-M "P -1"
_symmetry_group_IT_number 2
_symmetry_cell_setting 'triclinic'
loop_
_space_group_symop_operation_xyz
x,y,z
-x,-y,-z
loop_
_atom_site_type_symbol
_atom_site_label
_atom_site_fract_x
_atom_site_fract_y
_atom_site_fract_z
Si Si1 0.990832 0.817794 0.808578
Si Si2 0.524437 0.287728 0.419286
Si Si3 0.821716 0.479684 0.699490
Si Si4 0.237837 0.348780 0.410327
Si Si5 0.856262 0.189345 0.493543
Si Si6 0.720762 0.352545 0.230539
Si Si7 0.454914 0.388301 0.315357
Si Si8 0.436450 0.121363 0.902013
O O1 0.902202 0.696068 0.767674
O O2 0.024671 0.679431 0.728733
O O3 0.890734 0.664214 0.038769
O O4 0.147924 0.202491 0.641732
O O5 0.652853 0.406724 0.304226
O O6 0.530186 0.368872 0.275634
O O7 0.537147 0.458318 0.546367
O O8 0.367634 0.899436 0.575744
O O9 0.811526 0.608450 0.626144
O O10 0.898831 0.451217 0.547882
O O11 0.660971 0.108787 0.884255
O O12 0.409111 0.674463 0.260160
O O13 0.194537 0.065821 0.388726
O O14 0.713022 0.956837 0.555340
O O15 0.654998 0.120503 0.147852
O O16 0.531192 0.619353 0.128787
#
# Coordination Sequence:
#
# PCOD9053250 Si02
#       8
#     2   2   2   2   2   2   2   2
#     4   9  20  38  51  79 116 144 177 222 265 331
#     4   9  18  34  60  78 106 134 184 227 280 313
#     4  11  19  35  56  81 108 155 182 212 269 315
#     4   9  20  34  52  76 117 143 182 221 258 321
#     4   9  21  35  56  75 119 141 178 223 267 316
#     4   9  18  35  59  80 103 142 179 224 275 321
#     4   9  18  36  52  83 108 136 173 240 267 318
#     4   9  19  34  53  81 111 137 185 227 258 320
#
# _framework density 22.152044
#
# number of rings (size 3 to 8) (size 9 to 14) (size 15 to 20)
#    0.750    2.000    0.000    1.125    1.750    2.000 
#    4.500    5.000    0.000    0.000    0.000    0.000 
#    0.000    0.000    0.000    0.000    0.000    0.000 
#
# Total GULP energy -89171.093266 kJ/mol
# GULP energy per Si atom -5573.193329 kJ/mol
# Density = 2.210162 g / cm^3
# Si number density = 22.152044 Si / 1000 Ang^3
#
#
#
# Elastic Constant Matrix: (Units=GPa)
#
#
# Indices 1 2 3 4 5 6 
#
# 1 77.0108 13.9467 20.7472 3.0252 17.6992 -11.0468
# 2 13.9467 38.6766 11.6862 -9.0525 -2.2416 5.2856
# 3 20.7472 11.6862 110.2584 -10.0741 -13.1530 1.3980
# 4 3.0252 -9.0525 -10.0741 24.9081 9.4372 -11.4855
# 5 17.6992 -2.2416 -13.1530 9.4372 17.5373 -5.2255
# 6 -11.0468 5.2856 1.3980 -11.4855 -5.2255 16.8693
#
#
#
# Elastic Compliance Matrix: (Units=1/GPa)
#
#
# Indices 1 2 3 4 5 6 
#
# 1 0.026773 -0.009137 -0.007334 0.012155 -0.034710 0.018527
# 2 -0.009137 0.032270 -0.000219 0.005267 0.007300 -0.010229
# 3 -0.007334 -0.000219 0.012399 -0.001203 0.016921 -0.001339
# 4 0.012155 0.005267 -0.001203 0.076490 -0.039914 0.046124
# 5 -0.034710 0.007300 0.016921 -0.039914 0.122491 -0.015652
# 6 0.018527 -0.010229 -0.001339 0.046124 -0.015652 0.101283
#
#
# Mechanical properties :
#
#
# Convention : Reuss Voigt Hill
#
# Bulk Modulus (GPa) = 26.27380 35.41176 30.84278
# Shear Modulus (GPa) = 11.96819 23.83399 17.90109
#
# Velocity S-wave (km/s) = 2.32690 3.28369 2.84580
# Velocity P-wave (km/s) = 4.37101 5.51338 4.97509
#
# Compressibility (1/GPa) = 0.03806073
#
# Stress axis : x y z
#
# Youngs Moduli (GPa) = 37.35070 30.98840 80.65416
#
# Poissons Ratio (x) = 0.28314 0.59155
# Poissons Ratio (y) = 0.34127 0.01769
# Poissons Ratio (z) = 0.27395 0.00680
#
# Static dielectric constant tensor:
#      x y z
#    x 1.794190 0.001100 0.013630 
#    y 0.001100 1.925970 -0.006770 
#    z 0.013630 -0.006770 1.847300 
# 
# From -- ./inp_files/177709.got.cif
#   From: 2010.05.17/outbox.cif.g08.bks.cpg/sg2_89_cif.got.tgz:177709.got - 2010.06.03 11:33:40.
