data_PCOD9053380
_publ_section_title
;
Structure prediction by ZEFSAII (Michael W. Deem and Ramdas Pophale) SiO2 
 PCOD9053380
Probable space group: P -1
;
_chemical_formula_sum "Si O2"
_cell_formula_units_Z 16
_cell_length_a 12.106458
_cell_length_b 20.364216
_cell_length_c 20.751762
_cell_angle_alpha 160.420354
_cell_angle_beta 149.077061
_cell_angle_gamma 43.844982
_cell_volume 760.239469
_symmetry_space_group_name_H-M "P -1"
_symmetry_group_IT_number 2
_symmetry_cell_setting 'triclinic'
loop_
_space_group_symop_operation_xyz
x,y,z
-x,-y,-z
loop_
_atom_site_type_symbol
_atom_site_label
_atom_site_fract_x
_atom_site_fract_y
_atom_site_fract_z
Si Si1 0.796327 0.673969 0.318661
Si Si2 0.782840 0.758869 0.697402
Si Si3 0.629968 0.883638 0.525035
Si Si4 0.049265 0.138070 0.566984
Si Si5 0.884111 0.357440 0.160604
Si Si6 0.571021 0.474133 0.202238
Si Si7 0.847990 0.260638 0.784277
Si Si8 0.305140 0.757715 0.452823
O O1 0.780036 0.879693 0.534328
O O2 0.921375 0.736594 0.369956
O O3 0.915484 0.562215 0.320296
O O4 0.500000 0.500000 0.000000
O O5 0.652365 0.561309 0.395464
O O6 0.567307 0.808089 0.657094
O O7 0.888970 0.661096 0.713692
O O8 0.000000 0.000000 0.000000
O O9 0.658326 0.706198 0.420661
O O10 0.332072 0.783484 0.285869
O O11 0.734040 0.129768 0.833828
O O12 0.796113 0.082668 0.424213
O O13 0.073995 0.925062 0.362078
O O14 0.281049 0.307706 0.885619
O O15 0.718145 0.358563 0.138510
O O16 0.694255 0.242521 0.624961
O O17 0.090252 0.506791 0.133882
#
# Coordination Sequence:
#
# PCOD9053380 Si02
#       8
#     2   2   2   2   2   2   2   2
#     4  11  22  38  62  97 130 163 214 261 305 374
#     4  12  24  42  65  91 130 168 207 261 318 382
#     4  11  19  38  63  95 128 163 207 261 314 363
#     4  12  23  40  64  97 131 165 206 263 317 372
#     4  11  23  39  62  96 124 172 209 259 316 363
#     4  11  20  39  63  94 128 156 207 261 315 372
#     4  11  20  39  62  93 128 162 208 262 323 368
#     4  11  23  40  61  92 128 164 208 260 318 379
#
# _framework density 21.046002000000001
#
# number of rings (size 3 to 8) (size 9 to 14) (size 15 to 20)
#    0.000    0.750    7.500    1.500    0.000    3.000 
#    2.250    0.625    0.000    1.500    0.000    0.000 
#    0.000    0.000    0.000    0.000    0.000    0.000 
#
# Total GULP energy -89405.760282 kJ/mol
# GULP energy per Si atom -5587.860018 kJ/mol
# Density = 2.099810 g / cm^3
# Si number density = 21.046002 Si / 1000 Ang^3
#
#
#
# Elastic Constant Matrix: (Units=GPa)
#
#
# Indices 1 2 3 4 5 6 
#
# 1 92.3741 36.8668 25.6573 -2.8469 -4.4959 -14.4977
# 2 36.8668 143.8338 36.7724 -6.2922 11.8727 -3.2240
# 3 25.6573 36.7724 50.1983 10.5940 -10.0210 -12.1337
# 4 -2.8469 -6.2922 10.5940 35.6027 -15.1666 -2.5879
# 5 -4.4959 11.8727 -10.0210 -15.1666 20.8623 2.8067
# 6 -14.4977 -3.2240 -12.1337 -2.5879 2.8067 37.8473
#
#
#
# Elastic Compliance Matrix: (Units=1/GPa)
#
#
# Indices 1 2 3 4 5 6 
#
# 1 0.014034 -0.002681 -0.004194 0.004395 0.005230 0.003715
# 2 -0.002681 0.010875 -0.009294 -0.000501 -0.011289 -0.002277
# 3 -0.004194 -0.009294 0.034969 -0.004706 0.016786 0.007246
# 4 0.004395 -0.000501 -0.004706 0.042482 0.029744 0.000831
# 5 0.005230 -0.011289 0.016786 0.029744 0.084881 0.002163
# 6 0.003715 -0.002277 0.007246 0.000831 0.002163 0.029871
#
#
# Mechanical properties :
#
#
# Convention : Reuss Voigt Hill
#
# Bulk Modulus (GPa) = 36.31297 53.88879 45.10088
# Shear Modulus (GPa) = 19.33279 31.33644 25.33461
#
# Velocity S-wave (km/s) = 3.03412 3.86288 3.47331
# Velocity P-wave (km/s) = 5.43747 6.74956 6.12873
#
# Compressibility (1/GPa) = 0.02753837
#
# Stress axis : x y z
#
# Youngs Moduli (GPa) = 71.25779 91.95749 28.59711
#
# Poissons Ratio (x) = 0.24653 0.11994
# Poissons Ratio (y) = 0.19104 0.26578
# Poissons Ratio (z) = 0.29887 0.85466
#
# Static dielectric constant tensor:
#      x y z
#    x 1.813070 0.006390 -0.015560 
#    y 0.006390 1.795000 0.023080 
#    z -0.015560 0.023080 1.757560 
# 
# From -- ./inp_files/596276.got.cif
#   From: 2010.05.17/outbox.cif.g08.bks.cpg/sg2_299_cif.got.tgz:596276.got - 2010.06.03 11:33:40.
