data_PCOD9053641
_publ_section_title
;
Structure prediction by ZEFSAII (Michael W. Deem and Ramdas Pophale) SiO2 
 PCOD9053641
Probable space group: P -1
;
_chemical_formula_sum "Si O2"
_cell_formula_units_Z 16
_cell_length_a 13.649151
_cell_length_b 22.296810
_cell_length_c 19.747596
_cell_angle_alpha 156.578995
_cell_angle_beta 32.659543
_cell_angle_gamma 161.433139
_cell_volume 741.835143
_symmetry_space_group_name_H-M "P -1"
_symmetry_group_IT_number 2
_symmetry_cell_setting 'triclinic'
loop_
_space_group_symop_operation_xyz
x,y,z
-x,-y,-z
loop_
_atom_site_type_symbol
_atom_site_label
_atom_site_fract_x
_atom_site_fract_y
_atom_site_fract_z
Si Si1 0.613113 0.241230 0.660335
Si Si2 0.557277 0.207849 0.154566
Si Si3 0.306734 0.107850 0.948312
Si Si4 0.086608 0.019530 0.129015
Si Si5 0.154286 0.466887 0.031011
Si Si6 0.844502 0.544778 0.610792
Si Si7 0.469783 0.401060 0.809819
Si Si8 0.817512 0.556031 0.493062
O O1 0.706534 0.380859 0.820871
O O2 0.428314 0.233593 0.712453
O O3 0.921861 0.399533 0.603785
O O4 0.500000 0.000000 0.500000
O O5 0.264880 0.077256 0.149837
O O6 0.648380 0.384180 0.345073
O O7 0.848597 0.365207 0.097507
O O8 0.500000 0.000000 0.000000
O O9 0.612603 0.356086 0.984818
O O10 0.311315 0.124018 0.043106
O O11 0.168141 0.860259 0.743620
O O12 0.000000 0.000000 0.000000
O O13 0.067363 0.190470 0.319016
O O14 0.755146 0.704840 0.986216
O O15 0.160752 0.291004 0.859192
O O16 0.614787 0.444034 0.699364
O O17 0.660893 0.437938 0.535827
O O18 0.000000 0.500000 0.500000
#
# Coordination Sequence:
#
# PCOD9053641 Si02
#       8
#     2   2   2   2   2   2   2   2
#     4  11  22  32  54  92 132 159 203 263 313 365
#     4  11  27  43  61  89 131 180 211 251 315 382
#     4  11  20  38  67  98 121 158 206 270 320 367
#     4  11  21  41  68  90 125 168 214 256 318 374
#     4  11  22  40  60  93 126 162 214 258 314 375
#     4  11  20  34  65  98 128 154 206 263 323 370
#     4  11  21  38  65  96 122 166 206 268 317 364
#     4  11  21  39  62  90 126 165 213 256 310 378
#
# _framework density 21.568134000000001
#
# number of rings (size 3 to 8) (size 9 to 14) (size 15 to 20)
#    0.000    1.000    5.000    3.750    1.750    1.500 
#    0.000    0.000    0.000    1.500    0.000    0.000 
#    0.000    0.000    0.000    0.000    0.000    0.000 
#
# Total GULP energy -89131.578667 kJ/mol
# GULP energy per Si atom -5570.723667 kJ/mol
# Density = 2.151904 g / cm^3
# Si number density = 21.568134 Si / 1000 Ang^3
#
#
#
# Elastic Constant Matrix: (Units=GPa)
#
#
# Indices 1 2 3 4 5 6 
#
# 1 103.0842 22.6408 38.1168 -7.8959 -8.8054 -7.5970
# 2 22.6408 68.1203 18.8290 -15.4310 3.4969 -14.9279
# 3 38.1168 18.8290 88.4145 -16.0376 -6.8093 -2.1324
# 4 -7.8959 -15.4310 -16.0376 26.0911 -7.4044 -7.4572
# 5 -8.8054 3.4969 -6.8093 -7.4044 34.8450 -4.9204
# 6 -7.5970 -14.9279 -2.1324 -7.4572 -4.9204 32.7706
#
#
#
# Elastic Compliance Matrix: (Units=1/GPa)
#
#
# Indices 1 2 3 4 5 6 
#
# 1 0.012323 -0.002273 -0.004303 0.001274 0.003096 0.002296
# 2 -0.002273 0.022272 -0.000089 0.017211 0.002800 0.013950
# 3 -0.004303 -0.000089 0.015479 0.010311 0.004561 0.003000
# 4 0.001274 0.017211 0.010311 0.068400 0.018989 0.027223
# 5 0.003096 0.002800 0.004561 0.018989 0.035819 0.011989
# 6 0.002296 0.013950 0.003000 0.027223 0.011989 0.045592
#
#
# Mechanical properties :
#
#
# Convention : Reuss Voigt Hill
#
# Bulk Modulus (GPa) = 27.21676 46.53247 36.87462
# Shear Modulus (GPa) = 22.17663 30.74349 26.46006
#
# Velocity S-wave (km/s) = 3.21005 3.77956 3.50639
# Velocity P-wave (km/s) = 5.13669 6.37717 5.79024
#
# Compressibility (1/GPa) = 0.03674206
#
# Stress axis : x y z
#
# Youngs Moduli (GPa) = 81.15170 44.89937 64.60549
#
# Poissons Ratio (x) = 0.10207 0.27802
# Poissons Ratio (y) = 0.18447 0.00575
# Poissons Ratio (z) = 0.34922 0.00400
#
# Static dielectric constant tensor:
#      x y z
#    x 1.858980 -0.026590 -0.004030 
#    y -0.026590 1.911890 0.004720 
#    z -0.004030 0.004720 1.809560 
# 
# From -- ./inp_files/598528.got.cif
#   From: 2010.05.17/outbox.cif.g08.bks.cpg/sg2_300_cif.got.tgz:598528.got - 2010.06.03 11:33:40.
