data_PCOD9053596
_publ_section_title
;
Structure prediction by ZEFSAII (Michael W. Deem and Ramdas Pophale) SiO2 
 PCOD9053596
Probable space group: P -1
;
_chemical_formula_sum "Si O2"
_cell_formula_units_Z 12
_cell_length_a 11.264371
_cell_length_b 9.662875
_cell_length_c 7.937526
_cell_angle_alpha 65.847143
_cell_angle_beta 127.644918
_cell_angle_gamma 84.316016
_cell_volume 546.579963
_symmetry_space_group_name_H-M "P -1"
_symmetry_group_IT_number 2
_symmetry_cell_setting 'triclinic'
loop_
_space_group_symop_operation_xyz
x,y,z
-x,-y,-z
loop_
_atom_site_type_symbol
_atom_site_label
_atom_site_fract_x
_atom_site_fract_y
_atom_site_fract_z
Si Si1 0.470451 0.105208 0.682843
Si Si2 0.251489 0.224667 0.087888
Si Si3 0.538234 0.612841 0.844733
Si Si4 0.358228 0.687857 0.145876
Si Si5 0.024598 0.843511 0.980074
Si Si6 0.263544 0.930617 0.632242
O O1 0.357826 0.177865 0.379066
O O2 0.651554 0.943577 0.863036
O O3 0.364487 0.031210 0.731074
O O4 0.505316 0.248654 0.724925
O O5 0.290554 0.372960 0.976996
O O6 0.063804 0.256857 0.954335
O O7 0.500000 0.500000 0.000000
O O8 0.560607 0.509973 0.743623
O O9 0.618029 0.194493 0.355501
O O10 0.260602 0.809020 0.837685
O O11 0.218895 0.731054 0.148170
O O12 0.912626 0.933910 0.671202
O O13 0.000000 0.000000 0.000000
#
# Coordination Sequence:
#
# PCOD9053596 Si02
#       6
#     2   2   2   2   2   2
#     4   9  17  32  57  81 102 141 188 222 260 314
#     4   9  18  35  52  78 114 141 173 226 271 314
#     4   9  20  36  57  78 110 142 178 224 276 313
#     4  11  20  33  58  86 105 141 185 218 270 325
#     4  11  21  35  56  83 109 146 181 219 269 320
#     4   9  20  38  56  77 114 142 178 229 266 312
#
# _framework density 21.954701
#
# number of rings (size 3 to 8) (size 9 to 14) (size 15 to 20)
#    0.000    2.333    1.667    2.000    0.000    1.333 
#    0.000    0.000    0.000    2.000    0.000    0.000 
#    0.000    0.000    0.000    0.000    0.000    0.000 
#
# Total GULP energy -66995.125878 kJ/mol
# GULP energy per Si atom -5582.927156 kJ/mol
# Density = 2.190473 g / cm^3
# Si number density = 21.954701 Si / 1000 Ang^3
#
#
#
# Elastic Constant Matrix: (Units=GPa)
#
#
# Indices 1 2 3 4 5 6 
#
# 1 137.9935 47.6148 11.5708 -3.3721 13.0348 18.8197
# 2 47.6148 138.8004 0.8659 13.8906 16.1511 12.3153
# 3 11.5708 0.8659 40.5773 0.4145 2.8075 10.6034
# 4 -3.3721 13.8906 0.4145 20.3475 6.5869 -6.3489
# 5 13.0348 16.1511 2.8075 6.5869 28.9386 -4.3382
# 6 18.8197 12.3153 10.6034 -6.3489 -4.3382 41.8616
#
#
#
# Elastic Compliance Matrix: (Units=1/GPa)
#
#
# Indices 1 2 3 4 5 6 
#
# 1 0.009174 -0.002863 -0.001647 0.003861 -0.003652 -0.002658
# 2 -0.002863 0.009543 0.001779 -0.007070 -0.003104 -0.003365
# 3 -0.001647 0.001779 0.027308 -0.003339 -0.003271 -0.007545
# 4 0.003861 -0.007070 -0.003339 0.060816 -0.009905 0.009387
# 5 -0.003652 -0.003104 -0.003271 -0.009905 0.041431 0.006175
# 6 -0.002658 -0.003365 -0.007545 0.009387 0.006175 0.030048
#
#
# Mechanical properties :
#
#
# Convention : Reuss Voigt Hill
#
# Bulk Modulus (GPa) = 24.65237 48.60824 36.63031
# Shear Modulus (GPa) = 25.34160 35.38416 30.36288
#
# Velocity S-wave (km/s) = 3.40114 4.01894 3.72288
# Velocity P-wave (km/s) = 5.16496 6.61242 5.93300
#
# Compressibility (1/GPa) = 0.04056405
#
# Stress axis : x y z
#
# Youngs Moduli (GPa) = 108.99869 104.79049 36.61900
#
# Poissons Ratio (x) = 0.29997 0.06032
# Poissons Ratio (y) = 0.31201 -0.06515
# Poissons Ratio (z) = 0.17954 -0.18642
#
# Static dielectric constant tensor:
#      x y z
#    x 1.863000 0.016620 -0.060780 
#    y 0.016620 1.811890 0.011020 
#    z -0.060780 0.011020 1.853710 
# 
# From -- ./inp_files/146267.got.cif
#   From: 2010.05.17/outbox.cif.g08.bks.cpg/sg2_74_cif.got.tgz:146267.got - 2010.06.03 11:33:40.
