data_PCOD9053202
_publ_section_title
;
Structure prediction by ZEFSAII (Michael W. Deem and Ramdas Pophale) SiO2 
 PCOD9053202
Probable space group: P -1
;
_chemical_formula_sum "Si O2"
_cell_formula_units_Z 14
_cell_length_a 9.088863
_cell_length_b 11.940806
_cell_length_c 11.767863
_cell_angle_alpha 61.283115
_cell_angle_beta 140.409162
_cell_angle_gamma 116.325230
_cell_volume 707.669131
_symmetry_space_group_name_H-M "P -1"
_symmetry_group_IT_number 2
_symmetry_cell_setting 'triclinic'
loop_
_space_group_symop_operation_xyz
x,y,z
-x,-y,-z
loop_
_atom_site_type_symbol
_atom_site_label
_atom_site_fract_x
_atom_site_fract_y
_atom_site_fract_z
Si Si1 0.537535 0.620850 0.309537
Si Si2 0.830197 0.808299 0.243402
Si Si3 0.238482 0.985247 0.711753
Si Si4 0.308873 0.890570 0.391356
Si Si5 0.875827 0.221947 0.074671
Si Si6 0.741849 0.998102 0.922871
Si Si7 0.609560 0.676752 0.586411
O O1 0.718062 0.672468 0.292353
O O2 0.628788 0.674262 0.461552
O O3 0.490019 0.467535 0.365423
O O4 0.295086 0.676715 0.112884
O O5 0.109905 0.836103 0.389128
O O6 0.734813 0.907071 0.226609
O O7 0.755478 0.856739 0.052289
O O8 0.215571 0.849429 0.828829
O O9 0.463107 0.006318 0.757003
O O10 0.000000 0.000000 0.500000
O O11 0.189420 0.961425 0.183366
O O12 0.433692 0.774982 0.472011
O O13 0.500000 0.000000 0.500000
O O14 0.140385 0.281155 0.227339
O O15 0.855559 0.109050 0.023041
#
# Coordination Sequence:
#
# PCOD9053202 Si02
#       7
#     2   2   2   2   2   2   2
#     4  11  22  44  64  91 124 162 213 252 298 361
#     4  11  21  36  59  89 123 162 194 253 312 359
#     4  11  19  33  62  93 122 156 205 258 303 357
#     4  12  24  40  60  91 128 160 200 252 315 369
#     4  11  19  38  66  90 123 154 209 260 303 349
#     4  11  20  38  61  91 123 157 207 255 305 364
#     4  11  25  40  66  91 122 168 208 251 300 368
#
# _framework density 19.783256999999999
#
# number of rings (size 3 to 8) (size 9 to 14) (size 15 to 20)
#    0.000    0.857    4.286    6.000    0.000    0.571 
#    0.000    0.000    0.000    1.714    0.000    0.000 
#    0.000    0.000    0.000    0.000    0.000    0.000 
#
# Total GULP energy -78226.801285 kJ/mol
# GULP energy per Si atom -5587.628663 kJ/mol
# Density = 1.973823 g / cm^3
# Si number density = 19.783257 Si / 1000 Ang^3
#
#
#
# Elastic Constant Matrix: (Units=GPa)
#
#
# Indices 1 2 3 4 5 6 
#
# 1 91.0840 38.5985 13.7797 -9.0108 0.7026 29.5007
# 2 38.5985 108.0696 45.0533 -14.2494 -2.0932 16.3333
# 3 13.7797 45.0533 115.0147 -1.7253 -6.0492 12.3569
# 4 -9.0108 -14.2494 -1.7253 34.7268 9.0032 1.4534
# 5 0.7026 -2.0932 -6.0492 9.0032 29.3188 -2.1100
# 6 29.5007 16.3333 12.3569 1.4534 -2.1100 33.8854
#
#
#
# Elastic Compliance Matrix: (Units=1/GPa)
#
#
# Indices 1 2 3 4 5 6 
#
# 1 0.017523 -0.004003 0.000889 0.004272 -0.002842 -0.014010
# 2 -0.004003 0.013441 -0.004620 0.004691 -0.001453 -0.001601
# 3 0.000889 -0.004620 0.010731 -0.001606 0.002194 -0.002255
# 4 0.004272 0.004691 -0.001606 0.035024 -0.011401 -0.007606
# 5 -0.002842 -0.001453 0.002194 -0.011401 0.038404 0.005255
# 6 -0.014010 -0.001601 -0.002255 -0.007606 0.005255 0.043956
#
#
# Mechanical properties :
#
#
# Convention : Reuss Voigt Hill
#
# Bulk Modulus (GPa) = 38.12906 56.55903 47.34405
# Shear Modulus (GPa) = 27.27904 34.03530 30.65717
#
# Velocity S-wave (km/s) = 3.71738 4.15228 3.94083
# Velocity P-wave (km/s) = 6.14332 7.18610 6.68507
#
# Compressibility (1/GPa) = 0.02622672
#
# Stress axis : x y z
#
# Youngs Moduli (GPa) = 57.06725 74.39727 93.18601
#
# Poissons Ratio (x) = 0.29785 -0.08281
# Poissons Ratio (y) = 0.22847 0.43049
# Poissons Ratio (z) = -0.05071 0.34369
#
# Static dielectric constant tensor:
#      x y z
#    x 1.730660 0.026660 0.026130 
#    y 0.026660 1.677480 -0.001240 
#    z 0.026130 -0.001240 1.771650 
# 
# From -- ./inp_files/252748.got.cif
#   From: 2010.05.17/outbox.cif.g08.bks.cpg/sg2_127_cif.got.tgz:252748.got - 2010.06.03 11:33:40.
