data_PCOD9053356
_publ_section_title
;
Structure prediction by ZEFSAII (Michael W. Deem and Ramdas Pophale) SiO2 
 PCOD9053356
Probable space group: P -1
;
_chemical_formula_sum "Si O2"
_cell_formula_units_Z 16
_cell_length_a 26.948499
_cell_length_b 6.502796
_cell_length_c 11.578751
_cell_angle_alpha 55.433673
_cell_angle_beta 150.138530
_cell_angle_gamma 133.457646
_cell_volume 730.959410
_symmetry_space_group_name_H-M "P -1"
_symmetry_group_IT_number 2
_symmetry_cell_setting 'triclinic'
loop_
_space_group_symop_operation_xyz
x,y,z
-x,-y,-z
loop_
_atom_site_type_symbol
_atom_site_label
_atom_site_fract_x
_atom_site_fract_y
_atom_site_fract_z
Si Si1 0.904785 0.678535 0.939416
Si Si2 0.292200 0.171341 0.490665
Si Si3 0.114871 0.611464 0.771551
Si Si4 0.148902 0.515928 0.354626
Si Si5 0.897246 0.842485 0.428020
Si Si6 0.518151 0.259681 0.866149
Si Si7 0.334444 0.300932 0.790021
Si Si8 0.717828 0.331043 0.086836
O O1 0.787735 0.685193 0.728172
O O2 0.893910 0.504572 0.855668
O O3 0.925016 0.537106 0.137833
O O4 0.000000 0.000000 0.000000
O O5 0.393855 0.214884 0.596447
O O6 0.361864 0.305194 0.707899
O O7 0.203244 0.832223 0.415647
O O8 0.213278 0.554835 0.931648
O O9 0.000000 0.500000 0.500000
O O10 0.156880 0.947571 0.749012
O O11 0.063870 0.250751 0.347095
O O12 0.248581 0.429033 0.576897
O O13 0.804562 0.547532 0.284178
O O14 0.000000 0.000000 0.500000
O O15 0.583278 0.536307 0.990204
O O16 0.595591 0.280921 0.904187
O O17 0.500000 0.000000 0.000000
O O18 0.285796 0.969190 0.815183
#
# Coordination Sequence:
#
# PCOD9053356 Si02
#       8
#     2   2   2   2   2   2   2   2
#     4  11  29  45  68  99 140 188 227 288 359 417
#     4  11  24  41  67 102 145 178 226 286 353 409
#     4  12  26  46  69  95 134 184 236 286 348 416
#     4  11  22  43  66 105 142 177 231 288 346 412
#     4  12  23  38  69 100 134 184 232 286 339 408
#     4  12  21  36  68 111 138 182 230 287 341 410
#     4  11  19  37  66 103 143 171 229 282 342 402
#     4  12  23  38  65 103 140 174 235 284 340 396
#
# _framework density 21.889040999999999
#
# number of rings (size 3 to 8) (size 9 to 14) (size 15 to 20)
#    0.000    0.500    7.500    1.125    3.500    1.500 
#    0.000    0.625    0.000    3.750    0.000    0.000 
#    0.000    0.000    0.000    0.000    0.000    0.000 
#
# Total GULP energy -89144.825854 kJ/mol
# GULP energy per Si atom -5571.551616 kJ/mol
# Density = 2.183922 g / cm^3
# Si number density = 21.889041 Si / 1000 Ang^3
#
#
#
# Elastic Constant Matrix: (Units=GPa)
#
#
# Indices 1 2 3 4 5 6 
#
# 1 166.6307 28.0898 50.4234 -12.4538 8.4386 11.0434
# 2 28.0898 109.1201 14.8937 1.6655 -18.7777 -12.5000
# 3 50.4234 14.8937 57.7554 -14.2516 1.5512 11.4360
# 4 -12.4538 1.6655 -14.2516 21.2548 2.1760 -0.6057
# 5 8.4386 -18.7777 1.5512 2.1760 46.5481 -2.6479
# 6 11.0434 -12.5000 11.4360 -0.6057 -2.6479 35.2375
#
#
#
# Elastic Compliance Matrix: (Units=1/GPa)
#
#
# Indices 1 2 3 4 5 6 
#
# 1 0.008530 -0.001894 -0.006350 0.001077 -0.002231 -0.001434
# 2 -0.001894 0.012106 -0.004259 -0.005339 0.005995 0.006629
# 3 -0.006350 -0.004259 0.029985 0.016751 -0.002872 -0.009180
# 4 0.001077 -0.005339 0.016751 0.059752 -0.006104 -0.007099
# 5 -0.002231 0.005995 -0.002872 -0.006104 0.025002 0.005532
# 6 -0.001434 0.006629 -0.009180 -0.007099 0.005532 0.034453
#
#
# Mechanical properties :
#
#
# Convention : Reuss Voigt Hill
#
# Bulk Modulus (GPa) = 39.03986 57.81333 48.42659
# Shear Modulus (GPa) = 24.58561 36.61471 30.60016
#
# Velocity S-wave (km/s) = 3.35504 4.09435 3.74300
# Velocity P-wave (km/s) = 5.73432 6.98720 6.39154
#
# Compressibility (1/GPa) = 0.02561485
#
# Stress axis : x y z
#
# Youngs Moduli (GPa) = 117.22716 82.60606 33.35037
#
# Poissons Ratio (x) = 0.15644 0.21177
# Poissons Ratio (y) = 0.22200 0.14205
# Poissons Ratio (z) = 0.74436 0.35186
#
# Static dielectric constant tensor:
#      x y z
#    x 1.983280 -0.023380 0.034830 
#    y -0.023380 1.833740 0.003940 
#    z 0.034830 0.003940 1.814630 
# 
# From -- ./inp_files/475999.got.cif
#   From: 2010.05.17/outbox.cif.g08.bks.cpg/sg2_238_cif.got.tgz:475999.got - 2010.06.03 11:33:40.
