data_PCOD9053700
_publ_section_title
;
Structure prediction by ZEFSAII (Michael W. Deem and Ramdas Pophale) SiO2 
 PCOD9053700
Probable space group: P -1
;
_chemical_formula_sum "Si O2"
_cell_formula_units_Z 16
_cell_length_a 22.046960
_cell_length_b 22.038826
_cell_length_c 9.218245
_cell_angle_alpha 38.045814
_cell_angle_beta 40.267597
_cell_angle_gamma 13.585612
_cell_volume 648.318929
_symmetry_space_group_name_H-M "P -1"
_symmetry_group_IT_number 2
_symmetry_cell_setting 'triclinic'
loop_
_space_group_symop_operation_xyz
x,y,z
-x,-y,-z
loop_
_atom_site_type_symbol
_atom_site_label
_atom_site_fract_x
_atom_site_fract_y
_atom_site_fract_z
Si Si1 0.314074 0.027132 0.208861
Si Si2 0.179999 0.711612 0.674489
Si Si3 0.340524 0.881029 0.136331
Si Si4 0.289603 0.229260 0.669768
Si Si5 0.183855 0.573024 0.482107
Si Si6 0.796119 0.230230 0.778862
Si Si7 0.719587 0.368468 0.023974
Si Si8 0.786314 0.825951 0.384858
O O1 0.585772 0.728786 0.342809
O O2 0.306023 0.975521 0.168626
O O3 0.081271 0.217015 0.376937
O O4 0.287412 0.164617 0.939630
O O5 0.247842 0.719899 0.408176
O O6 0.249159 0.666993 0.795399
O O7 0.361841 0.439910 0.817900
O O8 0.874326 0.992564 0.693442
O O9 0.256991 0.022398 0.879601
O O10 0.246561 0.204211 0.649483
O O11 0.057580 0.533144 0.511376
O O12 0.564079 0.010773 0.552698
O O13 0.222487 0.638730 0.378532
O O14 0.202865 0.600629 0.235664
O O15 0.569868 0.379387 0.963728
O O16 0.077407 0.908148 0.890664
#
# Coordination Sequence:
#
# PCOD9053700 Si02
#       8
#     2   2   2   2   2   2   2   2
#     4  11  20  36  58  85 116 152 187 230 281 338
#     4  12  23  39  60  84 114 151 189 235 284 335
#     4  11  20  36  58  85 116 152 187 230 281 338
#     4   9  17  29  49  81 116 144 177 226 280 326
#     4  12  23  39  60  84 114 151 189 235 284 335
#     4  12  22  42  60  82 112 146 192 242 288 332
#     4  12  26  40  58  86 112 148 194 236 286 338
#     4   9  17  29  49  81 116 144 177 226 280 326
#
# _framework density 24.679213000000001
#
# number of rings (size 3 to 8) (size 9 to 14) (size 15 to 20)
#    0.000    1.000    2.500    6.000    0.000    4.000 
#    0.000    0.000    0.000    0.000    0.000   17.500 
#    0.000    0.000    0.000    0.000    0.000    0.000 
#
# Total GULP energy -89609.444862 kJ/mol
# GULP energy per Si atom -5600.590304 kJ/mol
# Density = 2.462304 g / cm^3
# Si number density = 24.679213 Si / 1000 Ang^3
#
#
#
# Elastic Constant Matrix: (Units=GPa)
#
#
# Indices 1 2 3 4 5 6 
#
# 1 48.2226 8.9680 5.6841 7.3722 7.0537 -0.1505
# 2 8.9680 130.4265 55.6771 -3.7430 -15.2119 -2.5852
# 3 5.6841 55.6771 165.7378 2.1860 -18.9877 3.0991
# 4 7.3722 -3.7430 2.1860 51.3925 -1.2855 -0.6876
# 5 7.0537 -15.2119 -18.9877 -1.2855 19.2615 -7.8179
# 6 -0.1505 -2.5852 3.0991 -0.6876 -7.8179 14.7192
#
#
#
# Elastic Compliance Matrix: (Units=1/GPa)
#
#
# Indices 1 2 3 4 5 6 
#
# 1 0.024692 -0.003402 -0.001449 -0.004286 -0.017263 -0.009409
# 2 -0.003402 0.010312 -0.002325 0.001704 0.010408 0.007873
# 3 -0.001449 -0.002325 0.007621 -0.000093 0.006853 0.001608
# 4 -0.004286 0.001704 -0.000093 0.020409 0.005972 0.004400
# 5 -0.017263 0.010408 0.006853 0.005972 0.094096 0.050466
# 6 -0.009409 0.007873 0.001608 0.004400 0.050466 0.095897
#
#
# Mechanical properties :
#
#
# Convention : Reuss Voigt Hill
#
# Bulk Modulus (GPa) = 35.37030 53.89394 44.63212
# Shear Modulus (GPa) = 18.06341 35.34515 26.70428
#
# Velocity S-wave (km/s) = 2.70835 3.78853 3.29303
# Velocity P-wave (km/s) = 4.91359 6.40488 5.70814
#
# Compressibility (1/GPa) = 0.02827231
#
# Stress axis : x y z
#
# Youngs Moduli (GPa) = 40.49964 96.97081 131.22199
#
# Poissons Ratio (x) = 0.32990 0.19017
# Poissons Ratio (y) = 0.13778 0.30509
# Poissons Ratio (z) = 0.05869 0.22545
#
# Static dielectric constant tensor:
#      x y z
#    x 2.031110 0.035000 0.024480 
#    y 0.035000 1.882400 -0.013850 
#    z 0.024480 -0.013850 1.935770 
# 
# From -- ./inp_files/84550.got.cif
#   From: 2010.05.17/outbox.cif.g08.bks.cpg/sg2_43_cif.got.tgz:84550.got - 2010.06.03 11:33:40.
