data_PCOD9053544
_publ_section_title
;
Structure prediction by ZEFSAII (Michael W. Deem and Ramdas Pophale) SiO2 
 PCOD9053544
Probable space group: P -1
;
_chemical_formula_sum "Si O2"
_cell_formula_units_Z 10
_cell_length_a 7.559634
_cell_length_b 8.367380
_cell_length_c 10.572396
_cell_angle_alpha 136.829595
_cell_angle_beta 121.529706
_cell_angle_gamma 51.266428
_cell_volume 354.119360
_symmetry_space_group_name_H-M "P -1"
_symmetry_group_IT_number 2
_symmetry_cell_setting 'triclinic'
loop_
_space_group_symop_operation_xyz
x,y,z
-x,-y,-z
loop_
_atom_site_type_symbol
_atom_site_label
_atom_site_fract_x
_atom_site_fract_y
_atom_site_fract_z
Si Si1 0.404521 0.725245 0.322651
Si Si2 0.910565 0.595609 0.328973
Si Si3 0.319050 0.267580 0.942957
Si Si4 0.296014 0.786584 0.588472
Si Si5 0.807220 0.971139 0.828963
O O1 0.667711 0.649530 0.337487
O O2 0.352661 0.870503 0.520353
O O3 0.249491 0.901647 0.255567
O O4 0.336535 0.481989 0.165536
O O5 0.851119 0.583104 0.149987
O O6 0.060194 0.760558 0.485429
O O7 0.097130 0.333802 0.309009
O O8 0.276480 0.013034 0.809867
O O9 0.574216 0.128601 0.905630
O O10 0.500000 0.500000 0.500000
O O11 0.000000 0.000000 0.000000
#
# Coordination Sequence:
#
# PCOD9053544 Si02
#       5
#     2   2   2   2   2
#     4  11  26  47  79 101 141 201 230 291 377 408
#     4  11  23  48  73 105 149 184 237 305 350 426
#     4  11  23  47  73 105 146 183 243 294 350 433
#     4  12  28  49  68 111 149 181 249 298 343 442
#     4  11  19  44  77 108 139 184 248 293 345 444
#
# _framework density 28.239065
#
# number of rings (size 3 to 8) (size 9 to 14) (size 15 to 20)
#    0.000    0.800    6.000    1.800    0.000    5.600 
#    7.200    2.000    0.000    0.000    0.000    0.000 
#    0.000    0.000    0.000    0.000    0.000    0.000 
#
# Total GULP energy -56039.570568 kJ/mol
# GULP energy per Si atom -5603.957057 kJ/mol
# Density = 2.817479 g / cm^3
# Si number density = 28.239065 Si / 1000 Ang^3
#
#
#
# Elastic Constant Matrix: (Units=GPa)
#
#
# Indices 1 2 3 4 5 6 
#
# 1 125.1391 18.2374 26.6941 -3.0451 22.0304 -26.3069
# 2 18.2374 173.7096 6.8976 -9.9674 3.7914 -19.1254
# 3 26.6941 6.8976 165.4111 5.4817 31.5916 10.1047
# 4 -3.0451 -9.9674 5.4817 45.7530 -1.5193 8.0464
# 5 22.0304 3.7914 31.5916 -1.5193 45.5042 -0.0176
# 6 -26.3069 -19.1254 10.1047 8.0464 -0.0176 45.2775
#
#
#
# Elastic Compliance Matrix: (Units=1/GPa)
#
#
# Indices 1 2 3 4 5 6 
#
# 1 0.010321 -0.000285 -0.001230 -0.000461 -0.004132 0.006231
# 2 -0.000285 0.006114 -0.000366 0.000944 -0.000085 0.002331
# 3 -0.001230 -0.000366 0.007280 -0.000767 -0.004454 -0.002359
# 4 -0.000461 0.000944 -0.000767 0.022831 0.001438 -0.003755
# 5 -0.004132 -0.000085 -0.004454 0.001438 0.027123 -0.001687
# 6 0.006231 0.002331 -0.002359 -0.003755 -0.001687 0.027884
#
#
# Mechanical properties :
#
#
# Convention : Reuss Voigt Hill
#
# Bulk Modulus (GPa) = 50.12058 63.10203 56.61131
# Shear Modulus (GPa) = 44.65597 54.80232 49.72915
#
# Velocity S-wave (km/s) = 3.98094 4.41007 4.20099
# Velocity P-wave (km/s) = 6.23841 6.95167 6.60467
#
# Compressibility (1/GPa) = 0.01995188
#
# Stress axis : x y z
#
# Youngs Moduli (GPa) = 96.88822 163.56286 137.37005
#
# Poissons Ratio (x) = 0.04661 0.16895
# Poissons Ratio (y) = 0.02761 0.05034
# Poissons Ratio (z) = 0.11916 0.05994
#
# Static dielectric constant tensor:
#      x y z
#    x 2.148090 0.082500 0.027990 
#    y 0.082500 2.378130 0.133700 
#    z 0.027990 0.133700 2.265520 
# 
# From -- ./inp_files/145738.got.cif
#   From: 2010.05.17/outbox.cif.g08.bks.cpg/sg2_73_cif.got.tgz:145738.got - 2010.06.03 11:33:40.
