data_PCOD9053807
_publ_section_title
;
Structure prediction by ZEFSAII (Michael W. Deem and Ramdas Pophale) SiO2 
 PCOD9053807
Probable space group: P -1
;
_chemical_formula_sum "Si O2"
_cell_formula_units_Z 12
_cell_length_a 9.625360
_cell_length_b 9.979082
_cell_length_c 10.295595
_cell_angle_alpha 123.127089
_cell_angle_beta 42.419304
_cell_angle_gamma 114.624346
_cell_volume 558.494791
_symmetry_space_group_name_H-M "P -1"
_symmetry_group_IT_number 2
_symmetry_cell_setting 'triclinic'
loop_
_space_group_symop_operation_xyz
x,y,z
-x,-y,-z
loop_
_atom_site_type_symbol
_atom_site_label
_atom_site_fract_x
_atom_site_fract_y
_atom_site_fract_z
Si Si1 0.279837 0.864085 0.446272
Si Si2 0.208267 0.343121 0.651077
Si Si3 0.846869 0.306057 0.061776
Si Si4 0.604042 0.214027 0.940511
Si Si5 0.412763 0.827095 0.621615
Si Si6 0.185952 0.118428 0.298411
O O1 0.339506 0.745536 0.224671
O O2 0.318488 0.804539 0.533130
O O3 0.040675 0.903958 0.615000
O O4 0.436142 0.016877 0.400351
O O5 0.149231 0.526856 0.776149
O O6 0.443059 0.318053 0.514434
O O7 0.168338 0.239717 0.495626
O O8 0.067782 0.277842 0.832214
O O9 0.757171 0.169436 0.145820
O O10 0.696949 0.323683 0.049447
O O11 0.721093 0.046654 0.799651
O O12 0.361953 0.187197 0.117177
#
# Coordination Sequence:
#
# PCOD9053807 Si02
#       6
#     2   2   2   2   2   2
#     4  11  23  39  61  93 128 154 198 256 306 351
#     4  11  22  41  67  88 122 160 206 251 292 364
#     4  11  23  39  67  92 116 163 211 240 300 364
#     4  11  20  37  65  93 114 160 210 245 295 359
#     4  11  23  40  61  92 126 160 195 253 309 354
#     4  11  21  38  66  91 118 159 208 251 293 357
#
# _framework density 21.486322000000001
#
# number of rings (size 3 to 8) (size 9 to 14) (size 15 to 20)
#    0.000    1.000    5.000    3.000    0.000    1.333 
#    0.000    5.833    0.000    0.000    0.000    0.000 
#    0.000    0.000    0.000    0.000    0.000    0.000 
#
# Total GULP energy -67083.585970 kJ/mol
# GULP energy per Si atom -5590.298831 kJ/mol
# Density = 2.143742 g / cm^3
# Si number density = 21.486322 Si / 1000 Ang^3
#
#
#
# Elastic Constant Matrix: (Units=GPa)
#
#
# Indices 1 2 3 4 5 6 
#
# 1 104.6594 17.4359 41.9835 -16.0419 18.0414 10.2509
# 2 17.4359 38.9039 27.7858 0.7487 -0.4688 15.9913
# 3 41.9835 27.7858 111.4041 -19.8125 1.2816 13.2711
# 4 -16.0419 0.7487 -19.8125 50.8297 8.8462 -0.1612
# 5 18.0414 -0.4688 1.2816 8.8462 33.5603 -7.5934
# 6 10.2509 15.9913 13.2711 -0.1612 -7.5934 18.5655
#
#
#
# Elastic Compliance Matrix: (Units=1/GPa)
#
#
# Indices 1 2 3 4 5 6 
#
# 1 0.014684 -0.000403 -0.003129 0.005390 -0.011505 -0.010182
# 2 -0.000403 0.046425 -0.007397 -0.002670 -0.006562 -0.037185
# 3 -0.003129 -0.007397 0.012892 0.004193 -0.000290 -0.001199
# 4 0.005390 -0.002670 0.004193 0.025032 -0.011544 -0.008178
# 5 -0.011505 -0.006562 -0.000290 -0.011544 0.045936 0.030900
# 6 -0.010182 -0.037185 -0.001199 -0.008178 0.030900 0.104939
#
#
# Mechanical properties :
#
#
# Convention : Reuss Voigt Hill
#
# Bulk Modulus (GPa) = 19.17795 47.70865 33.44330
# Shear Modulus (GPa) = 17.29224 31.77524 24.53374
#
# Velocity S-wave (km/s) = 2.83998 3.84977 3.38276
# Velocity P-wave (km/s) = 4.43836 6.48177 5.55483
#
# Compressibility (1/GPa) = 0.05214322
#
# Stress axis : x y z
#
# Youngs Moduli (GPa) = 68.10131 21.54010 77.56495
#
# Poissons Ratio (x) = 0.00868 0.24272
# Poissons Ratio (y) = 0.02744 0.57374
# Poissons Ratio (z) = 0.21311 0.15933
#
# Static dielectric constant tensor:
#      x y z
#    x 1.754600 0.037630 0.012740 
#    y 0.037630 1.821930 -0.002790 
#    z 0.012740 -0.002790 1.805200 
# 
# From -- ./inp_files/172591.got.cif
#   From: 2010.05.17/outbox.cif.g08.bks.cpg/sg2_87_cif.got.tgz:172591.got - 2010.06.03 11:33:40.
