data_PCOD9053868
_publ_section_title
;
Structure prediction by ZEFSAII (Michael W. Deem and Ramdas Pophale) SiO2 
 PCOD9053868
Probable space group: P -1
;
_chemical_formula_sum "Si O2"
_cell_formula_units_Z 16
_cell_length_a 21.766988
_cell_length_b 9.982763
_cell_length_c 9.415948
_cell_angle_alpha 79.132064
_cell_angle_beta 119.718250
_cell_angle_gamma 47.561749
_cell_volume 757.872218
_symmetry_space_group_name_H-M "P -1"
_symmetry_group_IT_number 2
_symmetry_cell_setting 'triclinic'
loop_
_space_group_symop_operation_xyz
x,y,z
-x,-y,-z
loop_
_atom_site_type_symbol
_atom_site_label
_atom_site_fract_x
_atom_site_fract_y
_atom_site_fract_z
Si Si1 0.267435 0.167054 0.029360
Si Si2 0.189613 0.999291 0.891323
Si Si3 0.145224 0.780095 0.320280
Si Si4 0.824263 0.541827 0.398233
Si Si5 0.491268 0.461993 0.159578
Si Si6 0.790861 0.790525 0.568691
Si Si7 0.388255 0.526825 0.472452
Si Si8 0.996920 0.309746 0.146594
O O1 0.279936 0.257388 0.902297
O O2 0.150046 0.424717 0.964681
O O3 0.187433 0.166978 0.873637
O O4 0.448474 0.807483 0.350763
O O5 0.308580 0.753972 0.946854
O O6 0.270948 0.800658 0.168884
O O7 0.010899 0.247833 0.626329
O O8 0.184652 0.584261 0.504121
O O9 0.295842 0.567583 0.439948
O O10 0.086279 0.011181 0.299419
O O11 0.000000 0.000000 0.000000
O O12 0.772168 0.750823 0.405471
O O13 0.558422 0.457102 0.349617
O O14 0.616603 0.118307 0.375617
O O15 0.500000 0.500000 0.000000
O O16 0.876552 0.788995 0.656159
O O17 0.915059 0.485271 0.865371
#
# Coordination Sequence:
#
# PCOD9053868 Si02
#       8
#     2   2   2   2   2   2   2   2
#     4  11  24  39  64 100 129 164 215 276 324 371
#     4  11  21  40  66  96 131 168 212 266 321 380
#     4  12  24  45  65  93 130 179 216 258 324 394
#     4  12  25  41  67  96 134 171 213 266 328 383
#     4  11  23  36  62 100 133 159 208 273 327 369
#     4  11  20  38  63  98 120 163 218 265 306 376
#     4  11  22  43  68  92 130 176 212 263 324 388
#     4  11  22  38  67  91 124 163 221 262 311 382
#
# _framework density 21.111739
#
# number of rings (size 3 to 8) (size 9 to 14) (size 15 to 20)
#    0.000    0.750    5.000    4.875    1.750    1.000 
#    0.000    1.875    0.000    0.000    0.000    0.000 
#    0.000    0.000    0.000    0.000    0.000    0.000 
#
# Total GULP energy -89545.633411 kJ/mol
# GULP energy per Si atom -5596.602088 kJ/mol
# Density = 2.106369 g / cm^3
# Si number density = 21.111739 Si / 1000 Ang^3
#
#
#
# Elastic Constant Matrix: (Units=GPa)
#
#
# Indices 1 2 3 4 5 6 
#
# 1 95.0588 25.2352 4.1926 -12.3614 -8.9619 -5.6870
# 2 25.2352 91.8837 -1.0664 -6.6570 8.4274 -20.2041
# 3 4.1926 -1.0664 45.1587 -1.7612 -17.6406 -0.9468
# 4 -12.3614 -6.6570 -1.7612 16.7189 -6.1625 -0.7950
# 5 -8.9619 8.4274 -17.6406 -6.1625 33.4530 -11.0505
# 6 -5.6870 -20.2041 -0.9468 -0.7950 -11.0505 34.6259
#
#
#
# Elastic Compliance Matrix: (Units=1/GPa)
#
#
# Indices 1 2 3 4 5 6 
#
# 1 0.014100 -0.002839 0.003177 0.013546 0.010075 0.004273
# 2 -0.002839 0.013596 0.000526 0.003392 -0.000879 0.007279
# 3 0.003177 0.000526 0.031774 0.014971 0.023370 0.009500
# 4 0.013546 0.003392 0.014971 0.085320 0.031923 0.016760
# 5 0.010075 -0.000879 0.023370 0.031923 0.057957 0.021010
# 6 0.004273 0.007279 0.009500 0.016760 0.021010 0.041179
#
#
# Mechanical properties :
#
#
# Convention : Reuss Voigt Hill
#
# Bulk Modulus (GPa) = 16.34002 32.09158 24.21580
# Shear Modulus (GPa) = 19.04067 30.54222 24.79145
#
# Velocity S-wave (km/s) = 3.00642 3.80767 3.43052
# Velocity P-wave (km/s) = 4.45062 5.87920 5.21407
#
# Compressibility (1/GPa) = 0.06119944
#
# Stress axis : x y z
#
# Youngs Moduli (GPa) = 70.92063 73.55127 31.47268
#
# Poissons Ratio (x) = 0.20880 -0.10000
# Poissons Ratio (y) = 0.20133 -0.01656
# Poissons Ratio (z) = -0.22534 -0.03871
#
# Static dielectric constant tensor:
#      x y z
#    x 1.755450 -0.018860 0.001330 
#    y -0.018860 1.740440 -0.008160 
#    z 0.001330 -0.008160 1.792620 
# 
# From -- ./inp_files/185811.got.cif
#   From: 2010.05.17/outbox.cif.g08.bks.cpg/sg2_93_cif.got.tgz:185811.got - 2010.06.03 11:33:40.
