data_PCOD9053955
_publ_section_title
;
Structure prediction by ZEFSAII (Michael W. Deem and Ramdas Pophale) SiO2 
 PCOD9053955
Probable space group: P -1
;
_chemical_formula_sum "Si O2"
_cell_formula_units_Z 16
_cell_length_a 9.111331
_cell_length_b 16.435488
_cell_length_c 19.990506
_cell_angle_alpha 160.785799
_cell_angle_beta 40.615977
_cell_angle_gamma 137.610302
_cell_volume 638.020113
_symmetry_space_group_name_H-M "P -1"
_symmetry_group_IT_number 2
_symmetry_cell_setting 'triclinic'
loop_
_space_group_symop_operation_xyz
x,y,z
-x,-y,-z
loop_
_atom_site_type_symbol
_atom_site_label
_atom_site_fract_x
_atom_site_fract_y
_atom_site_fract_z
Si Si1 0.764632 0.840314 0.112015
Si Si2 0.678548 0.472723 0.310587
Si Si3 0.436396 0.076639 0.507048
Si Si4 0.558779 0.127751 0.974142
Si Si5 0.656107 0.370435 0.999145
Si Si6 0.911252 0.354814 0.764133
Si Si7 0.275115 0.642299 0.656225
Si Si8 0.063752 0.251445 0.249655
O O1 0.643515 0.021067 0.344129
O O2 0.968538 0.012610 0.140684
O O3 0.575090 0.744214 0.047705
O O4 0.832978 0.599985 0.942907
O O5 0.671961 0.214120 0.071510
O O6 0.424494 0.525541 0.457389
O O7 0.804757 0.504187 0.363135
O O8 0.823598 0.653431 0.349607
O O9 0.229596 0.887393 0.405027
O O10 0.500000 0.000000 0.500000
O O11 0.381028 0.358320 0.750059
O O12 0.702383 0.203823 0.917859
O O13 0.329545 0.263406 0.154559
O O14 0.459962 0.845541 0.782764
O O15 0.845724 0.379838 0.883457
O O16 0.073269 0.752565 0.775174
O O17 0.000000 0.500000 0.500000
#
# Coordination Sequence:
#
# PCOD9053955 Si02
#       8
#     2   2   2   2   2   2   2   2
#     4  11  22  40  66 101 137 168 223 284 330 394
#     4  11  27  46  66  97 140 179 225 273 338 411
#     4  11  20  39  65 101 135 172 223 282 331 391
#     4  12  25  45  72  98 135 179 225 278 340 399
#     4  11  23  41  67 100 134 169 226 281 331 391
#     4  11  24  42  66 100 138 179 221 273 339 398
#     4  11  25  48  67  97 138 177 226 281 333 401
#     4  12  24  43  73 104 133 174 226 283 338 389
#
# _framework density 25.077577999999999
#
# number of rings (size 3 to 8) (size 9 to 14) (size 15 to 20)
#    0.000    0.750    5.000    3.000    1.750    2.500 
#    0.000    1.250    0.000    0.000    0.000    0.000 
#    0.000    0.000    0.000    0.000    0.000    0.000 
#
# Total GULP energy -89622.044509 kJ/mol
# GULP energy per Si atom -5601.377782 kJ/mol
# Density = 2.502050 g / cm^3
# Si number density = 25.077578 Si / 1000 Ang^3
#
#
#
# Elastic Constant Matrix: (Units=GPa)
#
#
# Indices 1 2 3 4 5 6 
#
# 1 105.2503 36.0394 25.5521 -20.4070 13.2541 -9.5749
# 2 36.0394 130.1646 32.3150 -20.0448 17.3034 -21.9446
# 3 25.5521 32.3150 117.5356 -16.5197 28.7518 -8.8453
# 4 -20.4070 -20.0448 -16.5197 35.0680 -5.8578 10.1449
# 5 13.2541 17.3034 28.7518 -5.8578 41.4138 -4.0834
# 6 -9.5749 -21.9446 -8.8453 10.1449 -4.0834 30.3489
#
#
#
# Elastic Compliance Matrix: (Units=1/GPa)
#
#
# Indices 1 2 3 4 5 6 
#
# 1 0.011552 -0.002006 -0.000891 0.004870 -0.001542 0.000099
# 2 -0.002006 0.010000 -0.001143 0.002162 -0.001916 0.005285
# 3 -0.000891 -0.001143 0.011018 0.002859 -0.006454 0.000279
# 4 0.004870 0.002162 0.002859 0.036288 -0.000124 -0.008214
# 5 -0.001542 -0.001916 -0.006454 -0.000124 0.029935 0.000316
# 6 0.000099 0.005285 0.000279 -0.008214 0.000316 0.039672
#
#
# Mechanical properties :
#
#
# Convention : Reuss Voigt Hill
#
# Bulk Modulus (GPa) = 40.83204 60.08485 50.45845
# Shear Modulus (GPa) = 32.31899 38.63575 35.47737
#
# Velocity S-wave (km/s) = 3.59383 3.92937 3.76534
# Velocity P-wave (km/s) = 5.79124 6.67819 6.25046
#
# Compressibility (1/GPa) = 0.02449057
#
# Stress axis : x y z
#
# Youngs Moduli (GPa) = 86.56823 99.99797 90.76180
#
# Poissons Ratio (x) = 0.20055 0.08085
# Poissons Ratio (y) = 0.17362 0.10376
# Poissons Ratio (z) = 0.07711 0.11432
#
# Static dielectric constant tensor:
#      x y z
#    x 1.979330 -0.005240 -0.008200 
#    y -0.005240 1.985160 0.000080 
#    z -0.008200 0.000080 1.996320 
# 
# From -- ./inp_files/591249.got.cif
#   From: 2010.05.17/outbox.cif.g08.bks.cpg/sg2_296_cif.got.tgz:591249.got - 2010.06.03 11:33:40.
