data_PCOD9053678
_publ_section_title
;
Structure prediction by ZEFSAII (Michael W. Deem and Ramdas Pophale) SiO2 
 PCOD9053678
Probable space group: P -1
;
_chemical_formula_sum "Si O2"
_cell_formula_units_Z 14
_cell_length_a 20.789675
_cell_length_b 10.188400
_cell_length_c 21.911290
_cell_angle_alpha 33.053137
_cell_angle_beta 13.089796
_cell_angle_gamma 30.650329
_cell_volume 535.851032
_symmetry_space_group_name_H-M "P -1"
_symmetry_group_IT_number 2
_symmetry_cell_setting 'triclinic'
loop_
_space_group_symop_operation_xyz
x,y,z
-x,-y,-z
loop_
_atom_site_type_symbol
_atom_site_label
_atom_site_fract_x
_atom_site_fract_y
_atom_site_fract_z
Si Si1 0.457080 0.743531 0.487095
Si Si2 0.155638 0.284999 0.388913
Si Si3 0.897103 0.378017 0.034866
Si Si4 0.079930 0.260248 0.667848
Si Si5 0.677383 0.305760 0.141692
Si Si6 0.743495 0.984157 0.936146
Si Si7 0.654520 0.095158 0.766735
O O1 0.500000 0.500000 0.500000
O O2 0.379766 0.653347 0.659874
O O3 0.172948 0.008159 0.635580
O O4 0.781784 0.772651 0.171964
O O5 0.034632 0.475246 0.366968
O O6 0.000000 0.500000 0.500000
O O7 0.518923 0.175921 0.117347
O O8 0.975536 0.084108 0.646943
O O9 0.902211 0.252642 0.012767
O O10 0.873375 0.676496 0.943755
O O11 0.405718 0.199976 0.424337
O O12 0.847781 0.285548 0.927871
O O13 0.485349 0.601199 0.222200
O O14 0.437879 0.014601 0.166071
O O15 0.000000 0.000000 0.500000
O O16 0.500000 0.000000 0.000000
#
# Coordination Sequence:
#
# PCOD9053678 Si02
#       7
#     2   2   2   2   2   2   2
#     4  12  28  49  73 102 139 192 242 295 342 429
#     4  12  26  44  67 103 142 192 234 289 352 419
#     4  11  26  47  75 105 141 187 237 289 361 414
#     4  12  26  44  72 104 146 184 239 295 356 417
#     4  11  24  43  69 108 142 181 234 295 357 424
#     4  11  24  42  68  99 138 183 229 287 346 419
#     4  11  20  35  63  95 138 180 220 273 339 419
#
# _framework density 26.126662
#
# number of rings (size 3 to 8) (size 9 to 14) (size 15 to 20)
#    0.000    0.571    0.000    8.571    4.000    8.000 
#    0.000    2.143    0.000    0.000    0.000    0.000 
#    0.000    0.000    0.000    0.000    0.000    0.000 
#
# Total GULP energy -78258.768790 kJ/mol
# GULP energy per Si atom -5589.912056 kJ/mol
# Density = 2.606720 g / cm^3
# Si number density = 26.126662 Si / 1000 Ang^3
#
#
#
# Elastic Constant Matrix: (Units=GPa)
#
#
# Indices 1 2 3 4 5 6 
#
# 1 45.4043 -2.4755 8.6721 1.4670 5.0396 -13.3748
# 2 -2.4755 154.9852 10.4132 3.1221 0.8184 6.1290
# 3 8.6721 10.4132 167.9575 0.8234 3.8252 -16.5909
# 4 1.4670 3.1221 0.8234 51.7205 -7.4828 -2.2972
# 5 5.0396 0.8184 3.8252 -7.4828 37.2798 3.5659
# 6 -13.3748 6.1290 -16.5909 -2.2972 3.5659 18.6188
#
#
#
# Elastic Compliance Matrix: (Units=1/GPa)
#
#
# Indices 1 2 3 4 5 6 
#
# 1 0.029411 -0.000467 0.000960 -0.000718 -0.006435 0.023280
# 2 -0.000467 0.006630 -0.000710 -0.000491 0.000203 -0.003250
# 3 0.000960 -0.000710 0.006690 0.000013 -0.001484 0.007171
# 4 -0.000718 -0.000491 0.000013 0.020023 0.003995 0.001362
# 5 -0.006435 0.000203 -0.001484 0.003995 0.029716 -0.011210
# 6 0.023280 -0.003250 0.007171 0.001362 -0.011210 0.080207
#
#
# Mechanical properties :
#
#
# Convention : Reuss Voigt Hill
#
# Bulk Modulus (GPa) = 23.64241 44.61849 34.13045
# Shear Modulus (GPa) = 26.70792 44.97297 35.84045
#
# Velocity S-wave (km/s) = 3.20073 4.15341 3.70779
# Velocity P-wave (km/s) = 4.76743 6.33371 5.60554
#
# Compressibility (1/GPa) = 0.04229688
#
# Stress axis : x y z
#
# Youngs Moduli (GPa) = 34.00131 150.83344 149.46712
#
# Poissons Ratio (x) = 0.07043 -0.14350
# Poissons Ratio (y) = 0.01588 0.10615
# Poissons Ratio (z) = -0.03264 0.10712
#
# Static dielectric constant tensor:
#      x y z
#    x 1.726740 -0.310790 -0.380230 
#    y -0.310790 1.779170 -0.214400 
#    z -0.380230 -0.214400 1.762430 
# 
# From -- ./inp_files/614119.got.cif
#   From: 2010.05.17/outbox.cif.g08.bks.cpg/sg2_308_cif.got.tgz:614119.got - 2010.06.03 11:33:40.
