data_PCOD9053124
_publ_section_title
;
Structure prediction by ZEFSAII (Michael W. Deem and Ramdas Pophale) SiO2 
 PCOD9053124
Probable space group: P -1
;
_chemical_formula_sum "Si O2"
_cell_formula_units_Z 16
_cell_length_a 9.618814
_cell_length_b 11.161839
_cell_length_c 9.152423
_cell_angle_alpha 57.470555
_cell_angle_beta 118.284489
_cell_angle_gamma 87.198456
_cell_volume 665.741593
_symmetry_space_group_name_H-M "P -1"
_symmetry_group_IT_number 2
_symmetry_cell_setting 'triclinic'
loop_
_space_group_symop_operation_xyz
x,y,z
-x,-y,-z
loop_
_atom_site_type_symbol
_atom_site_label
_atom_site_fract_x
_atom_site_fract_y
_atom_site_fract_z
Si Si1 0.237785 0.720771 0.579676
Si Si2 0.430447 0.380189 0.804166
Si Si3 0.117417 0.458777 0.434031
Si Si4 0.346841 0.993570 0.522712
Si Si5 0.014195 0.788693 0.116582
Si Si6 0.366446 0.088048 0.058359
Si Si7 0.766222 0.111711 0.066770
Si Si8 0.931098 0.825448 0.545692
O O1 0.373573 0.542502 0.752726
O O2 0.323989 0.841834 0.557313
O O3 0.106069 0.765683 0.341784
O O4 0.132429 0.740721 0.664395
O O5 0.315838 0.435952 0.565196
O O6 0.630015 0.277716 0.946285
O O7 0.349295 0.262066 0.901521
O O8 0.035859 0.615709 0.197153
O O9 0.127513 0.299105 0.478055
O O10 0.000000 0.500000 0.500000
O O11 0.443649 0.982779 0.732365
O O12 0.500000 0.000000 0.500000
O O13 0.158504 0.129698 0.370720
O O14 0.113111 0.860123 0.013620
O O15 0.807550 0.887149 0.953390
O O16 0.349866 0.972042 0.005639
O O17 0.876721 0.988927 0.324212
#
# Coordination Sequence:
#
# PCOD9053124 Si02
#       8
#     2   2   2   2   2   2   2   2
#     4  11  24  46  64  95 137 179 215 263 336 399
#     4  11  21  39  67  97 132 172 217 272 332 390
#     4  11  18  38  68 103 131 168 215 270 333 390
#     4  12  29  43  64  96 135 177 223 275 328 391
#     4  11  23  39  72  99 135 169 219 279 328 391
#     4  12  21  42  67  97 131 171 220 279 326 390
#     4  12  23  37  69 110 125 163 229 284 328 376
#     4  12  22  44  72  94 132 178 223 270 328 399
#
# _framework density 24.033349000000001
#
# number of rings (size 3 to 8) (size 9 to 14) (size 15 to 20)
#    0.000    0.500    7.500    2.625    1.750    3.500 
#    0.000    0.000    0.000    2.250    0.000    0.000 
#    0.000    0.000    0.000    0.000    0.000    0.000 
#
# Total GULP energy -89302.008446 kJ/mol
# GULP energy per Si atom -5581.375528 kJ/mol
# Density = 2.397865 g / cm^3
# Si number density = 24.033349 Si / 1000 Ang^3
#
#
#
# Elastic Constant Matrix: (Units=GPa)
#
#
# Indices 1 2 3 4 5 6 
#
# 1 161.5458 63.7423 17.9634 -20.6613 1.7157 -8.2028
# 2 63.7423 165.9158 27.1487 -30.7472 9.8573 -5.4582
# 3 17.9634 27.1487 44.4164 -8.0604 11.9229 -12.4122
# 4 -20.6613 -30.7472 -8.0604 46.0597 1.2149 14.8649
# 5 1.7157 9.8573 11.9229 1.2149 35.2386 -6.2349
# 6 -8.2028 -5.4582 -12.4122 14.8649 -6.2349 40.4175
#
#
#
# Elastic Compliance Matrix: (Units=1/GPa)
#
#
# Indices 1 2 3 4 5 6 
#
# 1 0.007490 -0.002434 -0.001407 0.001340 0.000816 0.000392
# 2 -0.002434 0.008442 -0.003558 0.004754 -0.001636 -0.002447
# 3 -0.001407 -0.003558 0.029271 0.000047 -0.007597 0.007034
# 4 0.001340 0.004754 0.000047 0.028954 -0.004245 -0.010375
# 5 0.000816 -0.001636 -0.007597 -0.004245 0.032247 0.004147
# 6 0.000392 -0.002447 0.007034 -0.010375 0.004147 0.031107
#
#
# Mechanical properties :
#
#
# Convention : Reuss Voigt Hill
#
# Bulk Modulus (GPa) = 32.88938 65.50963 49.19950
# Shear Modulus (GPa) = 30.77970 41.87807 36.32889
#
# Velocity S-wave (km/s) = 3.58258 4.17885 3.89215
# Velocity P-wave (km/s) = 5.55228 7.11342 6.38077
#
# Compressibility (1/GPa) = 0.03040495
#
# Stress axis : x y z
#
# Youngs Moduli (GPa) = 133.51285 118.45198 34.16305
#
# Poissons Ratio (x) = 0.28836 0.04808
# Poissons Ratio (y) = 0.32502 0.12154
# Poissons Ratio (z) = 0.18790 0.42140
#
# Static dielectric constant tensor:
#      x y z
#    x 2.054630 -0.078850 -0.050340 
#    y -0.078850 2.015870 0.125030 
#    z -0.050340 0.125030 2.120420 
# 
# From -- ./inp_files/392173.got.cif
#   From: 2010.05.17/outbox.cif.g08.bks.cpg/sg2_197_cif.got.tgz:392173.got - 2010.06.03 11:33:40.
