data_PCOD9053988
_publ_section_title
;
Structure prediction by ZEFSAII (Michael W. Deem and Ramdas Pophale) SiO2 
 PCOD9053988
Probable space group: P -1
;
_chemical_formula_sum "Si O2"
_cell_formula_units_Z 16
_cell_length_a 12.014590
_cell_length_b 13.293935
_cell_length_c 7.947965
_cell_angle_alpha 131.727894
_cell_angle_beta 95.026893
_cell_angle_gamma 59.976375
_cell_volume 758.827247
_symmetry_space_group_name_H-M "P -1"
_symmetry_group_IT_number 2
_symmetry_cell_setting 'triclinic'
loop_
_space_group_symop_operation_xyz
x,y,z
-x,-y,-z
loop_
_atom_site_type_symbol
_atom_site_label
_atom_site_fract_x
_atom_site_fract_y
_atom_site_fract_z
Si Si1 0.022427 0.740362 0.061967
Si Si2 0.061417 0.640034 0.325043
Si Si3 0.341213 0.318653 0.929264
Si Si4 0.182687 0.389222 0.636960
Si Si5 0.939992 0.013602 0.824423
Si Si6 0.713228 0.934253 0.259677
Si Si7 0.646693 0.144207 0.817213
Si Si8 0.650426 0.941142 0.902095
O O1 0.088755 0.674315 0.178381
O O2 0.999767 0.910100 0.198011
O O3 0.873697 0.780442 0.113105
O O4 0.117136 0.577902 0.776691
O O5 0.944644 0.608431 0.300541
O O6 0.214550 0.470687 0.192520
O O7 0.991525 0.823794 0.595959
O O8 0.291840 0.335631 0.745734
O O9 0.367628 0.145775 0.800515
O O10 0.484083 0.299463 0.950540
O O11 0.251095 0.255717 0.347360
O O12 0.774942 0.142262 0.900441
O O13 0.000000 0.000000 0.000000
O O14 0.685811 0.058789 0.543187
O O15 0.693742 0.994260 0.131832
O O16 0.650276 0.025361 0.825942
O O17 0.500000 0.000000 0.000000
#
# Coordination Sequence:
#
# PCOD9053988 Si02
#       8
#     2   2   2   2   2   2   2   2
#     4  11  22  40  69  96 128 172 227 267 326 394
#     4  11  21  42  70  98 128 174 223 273 331 390
#     4  11  20  39  68  96 132 174 208 276 339 378
#     4  11  21  41  66 103 136 164 222 283 324 387
#     4  12  26  45  66  90 134 180 221 273 329 398
#     4  12  21  37  69  98 130 173 215 271 335 382
#     4  12  24  44  63  95 142 173 216 275 333 393
#     4  12  23  35  63 101 133 169 220 268 331 395
#
# _framework density 21.085167999999999
#
# number of rings (size 3 to 8) (size 9 to 14) (size 15 to 20)
#    0.000    0.500    7.500    3.000    0.000    1.500 
#    0.000    3.125    2.750    0.000    0.000    0.000 
#    0.000    0.000    0.000    0.000    0.000    0.000 
#
# Total GULP energy -89137.140035 kJ/mol
# GULP energy per Si atom -5571.071252 kJ/mol
# Density = 2.103718 g / cm^3
# Si number density = 21.085168 Si / 1000 Ang^3
#
#
#
# Elastic Constant Matrix: (Units=GPa)
#
#
# Indices 1 2 3 4 5 6 
#
# 1 64.0366 42.5870 63.0629 -21.7500 -10.0706 4.3667
# 2 42.5870 15.7760 -3.5233 30.3872 3.4759 -53.6189
# 3 63.0629 -3.5233 24.4587 26.5499 -7.7902 -49.9025
# 4 -21.7500 30.3872 26.5499 -8.3005 -1.7253 37.2469
# 5 -10.0706 3.4759 -7.7902 -1.7253 28.9833 11.3970
# 6 4.3667 -53.6189 -49.9025 37.2469 11.3970 -10.9217
#
#
#
# Elastic Compliance Matrix: (Units=1/GPa)
#
#
# Indices 1 2 3 4 5 6 
#
# 1 0.022215 0.007463 -0.016073 -0.007193 -0.004425 0.016532
# 2 0.007463 0.027181 -0.024341 0.008118 -0.007124 0.001013
# 3 -0.016073 -0.024341 0.040239 0.011892 0.014709 -0.014879
# 4 -0.007193 0.008118 0.011892 0.034112 -0.004128 0.014958
# 5 -0.004425 -0.007124 0.014709 -0.004128 0.040013 -0.006323
# 6 0.016532 0.001013 -0.014879 0.014958 -0.006323 0.022474
#
#
# Mechanical properties :
#
#
# Convention : Reuss Voigt Hill
#
# Bulk Modulus (GPa) = 42.13642 34.28051 38.20847
# Shear Modulus (GPa) = 19.22734 2.09518 10.66126
#
# Velocity S-wave (km/s) = 3.02303 0.99791 2.25106
# Velocity P-wave (km/s) = 5.67558 4.19776 4.99166
#
# Compressibility (1/GPa) = 0.02373244
#
# Stress axis : x y z
#
# Youngs Moduli (GPa) = 45.01511 36.79102 24.85141
#
# Poissons Ratio (x) = -0.27456 0.39943
# Poissons Ratio (y) = -0.33593 0.60491
# Poissons Ratio (z) = 0.72351 0.89553
#
# Static dielectric constant tensor:
#      x y z
#    x 1.865980 -0.181050 0.014520 
#    y -0.181050 2.047560 -0.001510 
#    z 0.014520 -0.001510 1.895410 
# 
# From -- ./inp_files/274679.got.cif
#   From: 2010.05.17/outbox.cif.g08.bks.cpg/sg2_138_cif.got.tgz:274679.got - 2010.06.03 11:33:40.
