data_PCOD9053462
_publ_section_title
;
Structure prediction by ZEFSAII (Michael W. Deem and Ramdas Pophale) SiO2 
 PCOD9053462
Probable space group: P -1
;
_chemical_formula_sum "Si O2"
_cell_formula_units_Z 16
_cell_length_a 12.381841
_cell_length_b 12.429207
_cell_length_c 19.254026
_cell_angle_alpha 42.337352
_cell_angle_beta 27.567776
_cell_angle_gamma 61.464868
_cell_volume 759.050183
_symmetry_space_group_name_H-M "P -1"
_symmetry_group_IT_number 2
_symmetry_cell_setting 'triclinic'
loop_
_space_group_symop_operation_xyz
x,y,z
-x,-y,-z
loop_
_atom_site_type_symbol
_atom_site_label
_atom_site_fract_x
_atom_site_fract_y
_atom_site_fract_z
Si Si1 0.651084 0.845148 0.076042
Si Si2 0.177710 0.147998 0.395049
Si Si3 0.232856 0.362657 0.769470
Si Si4 0.251899 0.206436 0.108073
Si Si5 0.130316 0.665855 0.682745
Si Si6 0.752678 0.199939 0.896018
Si Si7 0.937533 0.385783 0.418440
Si Si8 0.356677 0.913246 0.837136
O O1 0.712437 0.747779 0.150485
O O2 0.327334 0.773934 0.308049
O O3 0.684357 0.767873 0.021577
O O4 0.826171 0.080495 0.861593
O O5 0.166178 0.332913 0.315222
O O6 0.493168 0.202057 0.193873
O O7 0.000000 0.000000 0.500000
O O8 0.008063 0.012586 0.621420
O O9 0.500000 0.500000 0.500000
O O10 0.156674 0.503950 0.779470
O O11 0.954002 0.201308 0.962608
O O12 0.136000 0.330199 0.144136
O O13 0.517228 0.227160 0.985803
O O14 0.121092 0.627164 0.623918
O O15 0.419487 0.880739 0.424310
O O16 0.985302 0.412126 0.691277
O O17 0.652350 0.063315 0.086634
#
# Coordination Sequence:
#
# PCOD9053462 Si02
#       8
#     2   2   2   2   2   2   2   2
#     4  12  26  46  60  98 143 181 213 276 341 394
#     4  11  19  40  68 100 135 170 218 280 335 397
#     4  12  25  44  70  98 133 178 232 277 319 404
#     4  11  24  43  68  95 144 173 211 283 345 400
#     4  11  22  43  66 103 126 173 227 274 329 393
#     4  12  22  39  69  99 129 175 222 276 336 390
#     4  12  22  39  70 102 130 170 233 277 331 395
#     4  11  21  39  70 101 129 172 222 283 333 379
#
# _framework density 21.078975
#
# number of rings (size 3 to 8) (size 9 to 14) (size 15 to 20)
#    0.000    0.500    8.750    0.375    1.750    5.000 
#    0.000    2.500    0.000    0.000    0.000    0.000 
#    0.000    0.000    0.000    0.000    0.000    0.000 
#
# Total GULP energy -89296.681568 kJ/mol
# GULP energy per Si atom -5581.042598 kJ/mol
# Density = 2.103100 g / cm^3
# Si number density = 21.078975 Si / 1000 Ang^3
#
#
#
# Elastic Constant Matrix: (Units=GPa)
#
#
# Indices 1 2 3 4 5 6 
#
# 1 98.0641 41.6034 39.8691 14.2590 -5.9479 -4.2453
# 2 41.6034 134.8630 24.4702 -8.4200 4.6715 -10.5491
# 3 39.8691 24.4702 59.7693 0.6872 -9.0453 15.7369
# 4 14.2590 -8.4200 0.6872 33.8795 -0.1432 5.3880
# 5 -5.9479 4.6715 -9.0453 -0.1432 22.7546 1.8569
# 6 -4.2453 -10.5491 15.7369 5.3880 1.8569 36.1996
#
#
#
# Elastic Compliance Matrix: (Units=1/GPa)
#
#
# Indices 1 2 3 4 5 6 
#
# 1 0.018827 -0.003297 -0.013429 -0.009837 -0.000502 0.008575
# 2 -0.003297 0.009712 -0.003471 0.003264 -0.004517 0.003698
# 3 -0.013429 -0.003471 0.033892 0.007178 0.012272 -0.019018
# 4 -0.009837 0.003264 0.007178 0.035702 0.000544 -0.008665
# 5 -0.000502 -0.004517 0.012272 0.000544 0.050390 -0.009376
# 6 0.008575 0.003698 -0.019018 -0.008665 -0.009376 0.039746
#
#
# Mechanical properties :
#
#
# Convention : Reuss Voigt Hill
#
# Bulk Modulus (GPa) = 45.38213 56.06463 50.72338
# Shear Modulus (GPa) = 21.18546 31.01701 26.10123
#
# Velocity S-wave (km/s) = 3.17369 3.84013 3.52271
# Velocity P-wave (km/s) = 5.91659 6.80568 6.37665
#
# Compressibility (1/GPa) = 0.02203510
#
# Stress axis : x y z
#
# Youngs Moduli (GPa) = 53.11459 102.97054 29.50518
#
# Poissons Ratio (x) = 0.33952 0.39623
# Poissons Ratio (y) = 0.17513 0.10242
# Poissons Ratio (z) = 0.71329 0.35745
#
# Static dielectric constant tensor:
#      x y z
#    x 1.786420 0.007860 -0.021390 
#    y 0.007860 1.835530 -0.014650 
#    z -0.021390 -0.014650 1.787260 
# 
# From -- ./inp_files/568654.got.cif
#   From: 2010.05.17/outbox.cif.g08.bks.cpg/sg2_285_cif.got.tgz:568654.got - 2010.06.03 11:33:40.
