data_PCOD9053973
_publ_section_title
;
Structure prediction by ZEFSAII (Michael W. Deem and Ramdas Pophale) SiO2 
 PCOD9053973
Probable space group: P -1
;
_chemical_formula_sum "Si O2"
_cell_formula_units_Z 14
_cell_length_a 21.627386
_cell_length_b 9.277468
_cell_length_c 7.873072
_cell_angle_alpha 110.912357
_cell_angle_beta 134.981599
_cell_angle_gamma 35.036393
_cell_volume 537.297422
_symmetry_space_group_name_H-M "P -1"
_symmetry_group_IT_number 2
_symmetry_cell_setting 'triclinic'
loop_
_space_group_symop_operation_xyz
x,y,z
-x,-y,-z
loop_
_atom_site_type_symbol
_atom_site_label
_atom_site_fract_x
_atom_site_fract_y
_atom_site_fract_z
Si Si1 0.724605 0.621510 0.466399
Si Si2 0.836122 0.163694 0.328346
Si Si3 0.603807 0.247397 0.950709
Si Si4 0.252517 0.160074 0.628611
Si Si5 0.056238 0.181969 0.111737
Si Si6 0.109491 0.593076 0.786942
Si Si7 0.320424 0.498441 0.333378
O O1 0.711927 0.488158 0.271878
O O2 0.646393 0.881719 0.321697
O O3 0.667705 0.641120 0.545557
O O4 0.924218 0.363966 0.777371
O O5 0.729258 0.177518 0.069645
O O6 0.000000 0.000000 0.500000
O O7 0.929365 0.954654 0.586945
O O8 0.682102 0.004173 0.131605
O O9 0.500000 0.500000 0.000000
O O10 0.488141 0.343562 0.623704
O O11 0.190346 0.115241 0.370440
O O12 0.115751 0.483594 0.585016
O O13 0.921161 0.438824 0.105895
O O14 0.164424 0.858249 0.187332
O O15 0.267381 0.470551 0.060933
#
# Coordination Sequence:
#
# PCOD9053973 Si02
#       7
#     2   2   2   2   2   2   2
#     4  11  21  37  66 102 127 168 224 273 314 384
#     4  12  22  41  70  99 129 170 219 272 328 390
#     4  12  24  44  67  93 134 180 219 261 335 403
#     4  12  24  36  66 100 132 168 221 279 325 374
#     4  11  20  39  66  99 128 176 221 267 322 392
#     4  11  21  38  68  94 131 169 222 265 327 382
#     4  11  22  43  68  92 132 182 217 255 331 405
#
# _framework density 26.056332000000001
#
# number of rings (size 3 to 8) (size 9 to 14) (size 15 to 20)
#    0.000    0.571    8.571    1.714    0.000    1.143 
#    0.000    0.714    0.000    0.000    0.000    0.000 
#    0.000    0.000    0.000    0.000    0.000    0.000 
#
# Total GULP energy -77959.005496 kJ/mol
# GULP energy per Si atom -5568.500393 kJ/mol
# Density = 2.599703 g / cm^3
# Si number density = 26.056332 Si / 1000 Ang^3
#
#
#
# Elastic Constant Matrix: (Units=GPa)
#
#
# Indices 1 2 3 4 5 6 
#
# 1 52.7010 22.3987 20.1253 4.2149 7.9930 6.5414
# 2 22.3987 52.3466 14.8074 8.4950 -5.3936 17.1895
# 3 20.1253 14.8074 133.1068 12.3836 24.5781 22.5607
# 4 4.2149 8.4950 12.3836 28.5845 6.7835 5.5868
# 5 7.9930 -5.3936 24.5781 6.7835 40.1109 10.3821
# 6 6.5414 17.1895 22.5607 5.5868 10.3821 24.0492
#
#
#
# Elastic Compliance Matrix: (Units=1/GPa)
#
#
# Indices 1 2 3 4 5 6 
#
# 1 0.026068 -0.014421 -0.002458 0.001755 -0.008161 0.008638
# 2 -0.014421 0.037393 0.000570 -0.007493 0.016223 -0.028602
# 3 -0.002458 0.000570 0.009804 -0.001891 -0.003289 -0.007077
# 4 0.001755 -0.007493 -0.001891 0.039325 -0.006987 0.000533
# 5 -0.008161 0.016223 -0.003289 -0.006987 0.037313 -0.020775
# 6 0.008638 -0.028602 -0.007077 0.000533 -0.020775 0.075159
#
#
# Mechanical properties :
#
#
# Convention : Reuss Voigt Hill
#
# Bulk Modulus (GPa) = 24.60224 39.20191 31.90207
# Shear Modulus (GPa) = 18.43468 30.60379 24.51923
#
# Velocity S-wave (km/s) = 2.66276 3.43085 3.07091
# Velocity P-wave (km/s) = 4.34927 5.54725 4.98439
#
# Compressibility (1/GPa) = 0.04064671
#
# Stress axis : x y z
#
# Youngs Moduli (GPa) = 38.36142 26.74318 102.00286
#
# Poissons Ratio (x) = 0.38567 0.25069
# Poissons Ratio (y) = 0.55322 -0.05815
# Poissons Ratio (z) = 0.09428 -0.01525
#
# Static dielectric constant tensor:
#      x y z
#    x 2.190500 0.084290 -0.038770 
#    y 0.084290 2.164930 -0.100740 
#    z -0.038770 -0.100740 2.114220 
# 
# From -- ./inp_files/352315.got.cif
#   From: 2010.05.17/outbox.cif.g08.bks.cpg/sg2_177_cif.got.tgz:352315.got - 2010.06.03 11:33:40.
