data_PCOD9053043
_publ_section_title
;
Structure prediction by ZEFSAII (Michael W. Deem and Ramdas Pophale) SiO2 
 PCOD9053043
Probable space group: P -1
;
_chemical_formula_sum "Si O2"
_cell_formula_units_Z 16
_cell_length_a 10.173148
_cell_length_b 9.381546
_cell_length_c 15.451523
_cell_angle_alpha 36.886652
_cell_angle_beta 125.687006
_cell_angle_gamma 129.692909
_cell_volume 672.660463
_symmetry_space_group_name_H-M "P -1"
_symmetry_group_IT_number 2
_symmetry_cell_setting 'triclinic'
loop_
_space_group_symop_operation_xyz
x,y,z
-x,-y,-z
loop_
_atom_site_type_symbol
_atom_site_label
_atom_site_fract_x
_atom_site_fract_y
_atom_site_fract_z
Si Si1 0.741858 0.907214 0.990678
Si Si2 0.944382 0.554688 0.612551
Si Si3 0.444438 0.729913 0.217061
Si Si4 0.620265 0.296162 0.983485
Si Si5 0.826632 0.250347 0.232263
Si Si6 0.341077 0.256912 0.499167
Si Si7 0.100229 0.003448 0.171489
Si Si8 0.888658 0.941500 0.654913
O O1 0.564981 0.701871 0.057138
O O2 0.691750 0.161006 0.844695
O O3 0.792553 0.858481 0.938067
O O4 0.900979 0.956432 0.092833
O O5 0.802837 0.651793 0.555397
O O6 0.880967 0.272438 0.690392
O O7 0.026312 0.754747 0.471151
O O8 0.086185 0.593459 0.725027
O O9 0.484893 0.526653 0.392418
O O10 0.596065 0.990813 0.120212
O O11 0.355071 0.611852 0.149463
O O12 0.758265 0.392796 0.064491
O O13 0.669004 0.994503 0.328646
O O14 0.972058 0.169035 0.278916
O O15 0.267378 0.139306 0.434179
O O16 0.146319 0.115595 0.230038
#
# Coordination Sequence:
#
# PCOD9053043 Si02
#       8
#     2   2   2   2   2   2   2   2
#     4   9  20  32  50  71 103 132 165 210 240 300
#     4   9  17  33  52  76 103 130 165 207 250 296
#     4   9  17  33  54  72 104 128 169 214 242 289
#     4   9  18  34  52  73 104 130 170 209 247 293
#     4   9  18  33  55  77 102 130 164 210 255 292
#     4   9  17  34  52  80 102 125 169 213 248 291
#     4  11  18  33  53  73 101 136 166 201 252 298
#     4   9  19  30  54  79 101 126 166 211 249 296
#
# _framework density 23.786147
#
# number of rings (size 3 to 8) (size 9 to 14) (size 15 to 20)
#    0.750    2.000    1.250    2.625    0.000    0.500 
#    4.500    2.500    2.750    1.500    0.000    0.000 
#    0.000    0.000    0.000    0.000    0.000    0.000 
#
# Total GULP energy -89256.484855 kJ/mol
# GULP energy per Si atom -5578.530303 kJ/mol
# Density = 2.373201 g / cm^3
# Si number density = 23.786147 Si / 1000 Ang^3
#
#
#
# Elastic Constant Matrix: (Units=GPa)
#
#
# Indices 1 2 3 4 5 6 
#
# 1 44.9724 12.4042 5.2186 15.9690 -4.0541 -18.5023
# 2 12.4042 73.1164 15.2927 5.4185 3.4149 -29.0554
# 3 5.2186 15.2927 112.4186 18.6240 -21.9112 -19.9669
# 4 15.9690 5.4185 18.6240 45.4755 1.5050 -8.9802
# 5 -4.0541 3.4149 -21.9112 1.5050 27.2873 7.7730
# 6 -18.5023 -29.0554 -19.9669 -8.9802 7.7730 21.5164
#
#
#
# Elastic Compliance Matrix: (Units=1/GPa)
#
#
# Indices 1 2 3 4 5 6 
#
# 1 0.052992 0.027466 0.008531 -0.006463 -0.014926 0.093270
# 2 0.027466 0.056244 0.004571 0.006287 -0.033389 0.118497
# 3 0.008531 0.004571 0.013745 -0.004990 0.005707 0.022120
# 4 -0.006463 0.006287 -0.004990 0.028788 -0.011460 0.014456
# 5 -0.014926 -0.033389 0.005707 -0.011460 0.067079 -0.081642
# 6 0.093270 0.118497 0.022120 0.014456 -0.081642 0.342751
#
#
# Mechanical properties :
#
#
# Convention : Reuss Voigt Hill
#
# Bulk Modulus (GPa) = 4.89915 32.92649 18.91282
# Shear Modulus (GPa) = 9.11574 32.02864 20.57219
#
# Velocity S-wave (km/s) = 1.95977 3.67348 2.94408
# Velocity P-wave (km/s) = 2.68050 5.64495 4.41874
#
# Compressibility (1/GPa) = 0.20411718
#
# Stress axis : x y z
#
# Youngs Moduli (GPa) = 18.87072 17.77981 72.75210
#
# Poissons Ratio (x) = -0.48833 -0.62066
# Poissons Ratio (y) = -0.51830 -0.33257
# Poissons Ratio (z) = -0.16099 -0.08128
#
# Static dielectric constant tensor:
#      x y z
#    x 1.868380 0.076850 -0.040460 
#    y 0.076850 2.014480 -0.042800 
#    z -0.040460 -0.042800 1.928950 
# 
# From -- ./inp_files/417310.got.cif
#   From: 2010.05.17/outbox.cif.g08.bks.cpg/sg2_209_cif.got.tgz:417310.got - 2010.06.03 11:33:40.
