data_PCOD9053891
_publ_section_title
;
Structure prediction by ZEFSAII (Michael W. Deem and Ramdas Pophale) SiO2 
 PCOD9053891
Probable space group: P -1
;
_chemical_formula_sum "Si O2"
_cell_formula_units_Z 15
_cell_length_a 12.962593
_cell_length_b 8.908174
_cell_length_c 12.907749
_cell_angle_alpha 132.425949
_cell_angle_beta 39.097359
_cell_angle_gamma 120.544840
_cell_volume 693.458915
_symmetry_space_group_name_H-M "P -1"
_symmetry_group_IT_number 2
_symmetry_cell_setting 'triclinic'
loop_
_space_group_symop_operation_xyz
x,y,z
-x,-y,-z
loop_
_atom_site_type_symbol
_atom_site_label
_atom_site_fract_x
_atom_site_fract_y
_atom_site_fract_z
Si Si1 0.487201 0.125939 0.269820
Si Si2 0.813452 0.016192 0.687114
Si Si3 0.330423 0.596850 0.906167
Si Si4 0.585289 0.426652 0.793974
Si Si5 0.377861 0.021709 0.510667
Si Si6 0.000000 0.500000 0.000000
Si Si7 0.772072 0.807757 0.840809
Si Si8 0.986167 0.934888 0.101302
O O1 0.565695 0.291671 0.211446
O O2 0.309274 0.076281 0.341893
O O3 0.453855 0.174833 0.438834
O O4 0.611084 0.929921 0.068401
O O5 0.796501 0.891029 0.746476
O O6 0.748049 0.239819 0.874788
O O7 0.000000 0.000000 0.500000
O O8 0.459552 0.467606 0.815298
O O9 0.172798 0.504362 0.931762
O O10 0.632140 0.191135 0.641716
O O11 0.739872 0.571485 0.741255
O O12 0.500000 0.500000 0.000000
O O13 0.500000 0.000000 0.500000
O O14 0.200315 0.063246 0.714689
O O15 0.947198 0.286346 0.010140
O O16 0.918971 0.886630 0.831214
O O17 0.000000 0.000000 0.000000
#
# Coordination Sequence:
#
# PCOD9053891 Si02
#       8
#     2   2   2   2   2   1   2   2
#     4  11  20  43  71  96 144 185 238 310 360 438
#     4  11  20  38  67 100 140 176 241 311 357 428
#     4  11  23  44  70 104 141 198 247 301 377 454
#     4  12  24  45  76 109 144 199 248 305 383 452
#     4  12  27  47  71 108 150 196 250 308 381 455
#     4  12  26  46  76 102 146 202 250 288 400 448
#     4  11  21  43  71 100 141 192 243 304 378 440
#     4  12  28  51  73 106 158 198 250 322 380 458
#
# _framework density 21.630697999999999
#
# number of rings (size 3 to 8) (size 9 to 14) (size 15 to 20)
#    0.000    0.533    6.667    3.200    1.867    0.533 
#    4.800    1.333    0.000    0.000    0.000    0.000 
#    0.000    0.000    0.000    0.000    0.000    0.000 
#
# Total GULP energy -83515.275777 kJ/mol
# GULP energy per Si atom -5567.685052 kJ/mol
# Density = 2.158147 g / cm^3
# Si number density = 21.630698 Si / 1000 Ang^3
#
#
#
# Elastic Constant Matrix: (Units=GPa)
#
#
# Indices 1 2 3 4 5 6 
#
# 1 159.9185 34.9101 16.5582 -19.0591 7.6249 9.7043
# 2 34.9101 76.5882 19.9038 5.6494 -0.7656 1.9574
# 3 16.5582 19.9038 77.5153 -27.9825 5.3290 -18.1978
# 4 -19.0591 5.6494 -27.9825 34.2610 2.7945 -0.0727
# 5 7.6249 -0.7656 5.3290 2.7945 26.6248 -14.2830
# 6 9.7043 1.9574 -18.1978 -0.0727 -14.2830 42.9611
#
#
#
# Elastic Compliance Matrix: (Units=1/GPa)
#
#
# Indices 1 2 3 4 5 6 
#
# 1 0.008397 -0.004846 0.001874 0.007408 -0.005067 -0.002554
# 2 -0.004846 0.018987 -0.009868 -0.014217 0.003979 -0.002652
# 3 0.001874 -0.009868 0.026558 0.024646 -0.003227 0.010245
# 4 0.007408 -0.014217 0.024646 0.056620 -0.010107 0.006150
# 5 -0.005067 0.003979 -0.003227 -0.010107 0.049420 0.016009
# 6 -0.002554 -0.002652 0.010245 0.006150 0.016009 0.033647
#
#
# Mechanical properties :
#
#
# Convention : Reuss Voigt Hill
#
# Bulk Modulus (GPa) = 35.38507 50.75180 43.06843
# Shear Modulus (GPa) = 21.85988 36.94604 29.40296
#
# Velocity S-wave (km/s) = 3.18243 4.13732 3.69089
# Velocity P-wave (km/s) = 5.46792 6.80713 6.17394
#
# Compressibility (1/GPa) = 0.02826051
#
# Stress axis : x y z
#
# Youngs Moduli (GPa) = 119.09625 52.66894 37.65293
#
# Poissons Ratio (x) = 0.25524 -0.07055
# Poissons Ratio (y) = 0.57715 0.37157
# Poissons Ratio (z) = -0.22316 0.51975
#
# Static dielectric constant tensor:
#      x y z
#    x 1.758700 -0.028490 -0.013690 
#    y -0.028490 1.834270 0.004210 
#    z -0.013690 0.004210 1.850470 
# 
# From -- ./inp_files/335792.got.cif
#   From: 2010.05.17/outbox.cif.g08.bks.cpg/sg2_168_cif.got.tgz:335792.got - 2010.06.03 11:33:40.
