data_PCOD9053604
_publ_section_title
;
Structure prediction by ZEFSAII (Michael W. Deem and Ramdas Pophale) SiO2 
 PCOD9053604
Probable space group: P -1
;
_chemical_formula_sum "Si O2"
_cell_formula_units_Z 10
_cell_length_a 8.800311
_cell_length_b 7.626804
_cell_length_c 13.992999
_cell_angle_alpha 118.878764
_cell_angle_beta 32.699766
_cell_angle_gamma 110.006750
_cell_volume 440.165029
_symmetry_space_group_name_H-M "P -1"
_symmetry_group_IT_number 2
_symmetry_cell_setting 'triclinic'
loop_
_space_group_symop_operation_xyz
x,y,z
-x,-y,-z
loop_
_atom_site_type_symbol
_atom_site_label
_atom_site_fract_x
_atom_site_fract_y
_atom_site_fract_z
Si Si1 0.277283 0.138889 0.718675
Si Si2 0.653984 0.239760 0.070249
Si Si3 0.595148 0.660892 0.111638
Si Si4 0.477943 0.499454 0.398531
Si Si5 0.826126 0.625127 0.770595
O O1 0.371742 0.162778 0.784898
O O2 0.310041 0.355186 0.713816
O O3 0.500000 0.000000 0.500000
O O4 0.952671 0.097026 0.872170
O O5 0.562326 0.292546 0.241533
O O6 0.720645 0.448536 0.038995
O O7 0.367961 0.221204 0.156890
O O8 0.280986 0.598179 0.242907
O O9 0.744723 0.685625 0.938389
O O10 0.500000 0.500000 0.500000
O O11 0.157530 0.594026 0.565877
#
# Coordination Sequence:
#
# PCOD9053604 Si02
#       5
#     2   2   2   2   2
#     4  11  22  36  52  79 115 146 167 213 277 321
#     4   9  18  33  54  77 105 140 180 215 260 309
#     4   8  17  33  59  74 111 132 185 213 269 305
#     4  11  20  33  60  83 103 135 188 221 256 311
#     4   9  17  32  60  83  97 134 190 229 248 299
#
# _framework density 22.718751999999999
#
# number of rings (size 3 to 8) (size 9 to 14) (size 15 to 20)
#    1.200    1.200    0.000    5.400    0.000    0.000 
#    0.000    6.000    0.000    0.000    0.000    0.000 
#    0.000    0.000    0.000    0.000    0.000    0.000 
#
# Total GULP energy -55690.706448 kJ/mol
# GULP energy per Si atom -5569.070645 kJ/mol
# Density = 2.266704 g / cm^3
# Si number density = 22.718752 Si / 1000 Ang^3
#
#
#
# Elastic Constant Matrix: (Units=GPa)
#
#
# Indices 1 2 3 4 5 6 
#
# 1 119.0463 17.7972 76.3664 6.8059 18.0086 30.0561
# 2 17.7972 32.3942 1.6486 -11.7183 -6.9983 11.9841
# 3 76.3664 1.6486 131.8274 -1.9941 -22.2457 36.2567
# 4 6.8059 -11.7183 -1.9941 29.7952 8.2135 3.7933
# 5 18.0086 -6.9983 -22.2457 8.2135 50.1608 -6.4157
# 6 30.0561 11.9841 36.2567 3.7933 -6.4157 24.0790
#
#
#
# Elastic Compliance Matrix: (Units=1/GPa)
#
#
# Indices 1 2 3 4 5 6 
#
# 1 0.028264 -0.026394 -0.021651 -0.013611 -0.020283 0.007197
# 2 -0.026394 0.092830 0.038800 0.048312 0.022344 -0.073335
# 3 -0.021651 0.038800 0.035359 0.022782 0.019521 -0.043915
# 4 -0.013611 0.048312 0.022782 0.062099 0.005198 -0.049756
# 5 -0.020283 0.022344 0.019521 0.005198 0.037366 -0.006059
# 6 0.007197 -0.073335 -0.043915 -0.049756 -0.006059 0.141393
#
#
# Mechanical properties :
#
#
# Convention : Reuss Voigt Hill
#
# Bulk Modulus (GPa) = 7.24836 52.76580 30.00708
# Shear Modulus (GPa) = 10.82744 33.30406 22.06575
#
# Velocity S-wave (km/s) = 2.18545 3.83290 3.11988
# Velocity P-wave (km/s) = 3.09284 6.54708 5.12005
#
# Compressibility (1/GPa) = 0.13796216
#
# Stress axis : x y z
#
# Youngs Moduli (GPa) = 35.38056 10.77242 28.28096
#
# Poissons Ratio (x) = 0.28433 0.61231
# Poissons Ratio (y) = 0.93385 -1.09730
# Poissons Ratio (z) = 0.76603 -0.41797
#
# Static dielectric constant tensor:
#      x y z
#    x 1.914020 0.055230 -0.001370 
#    y 0.055230 1.931530 0.057810 
#    z -0.001370 0.057810 1.828280 
# 
# From -- ./inp_files/147567.got.cif
#   From: 2010.05.17/outbox.cif.g08.bks.cpg/sg2_74_cif.got.tgz:147567.got - 2010.06.03 11:33:40.
