data_PCOD9053560
_publ_section_title
;
Structure prediction by ZEFSAII (Michael W. Deem and Ramdas Pophale) SiO2 
 PCOD9053560
Probable space group: P -1
;
_chemical_formula_sum "Si O2"
_cell_formula_units_Z 12
_cell_length_a 7.030852
_cell_length_b 11.707454
_cell_length_c 8.617284
_cell_angle_alpha 45.707578
_cell_angle_beta 105.580131
_cell_angle_gamma 80.412244
_cell_volume 419.631728
_symmetry_space_group_name_H-M "P -1"
_symmetry_group_IT_number 2
_symmetry_cell_setting 'triclinic'
loop_
_space_group_symop_operation_xyz
x,y,z
-x,-y,-z
loop_
_atom_site_type_symbol
_atom_site_label
_atom_site_fract_x
_atom_site_fract_y
_atom_site_fract_z
Si Si1 0.099538 0.747992 0.171789
Si Si2 0.288043 0.340202 0.496734
Si Si3 0.413591 0.188740 0.979909
Si Si4 0.675549 0.851210 0.564595
Si Si5 0.125384 0.792252 0.789370
Si Si6 0.780776 0.391797 0.338605
O O1 0.238913 0.531450 0.368614
O O2 0.187545 0.739374 0.377546
O O3 0.828272 0.810872 0.058084
O O4 0.158684 0.814035 0.960729
O O5 0.445811 0.200064 0.794412
O O6 0.040160 0.356937 0.418941
O O7 0.378675 0.294912 0.385336
O O8 0.370664 0.383319 0.866875
O O9 0.619763 0.999540 0.273852
O O10 0.500000 0.000000 0.500000
O O11 0.921746 0.744584 0.797480
O O12 0.262527 0.671871 0.779195
O O13 0.000000 0.000000 0.500000
#
# Coordination Sequence:
#
# PCOD9053560 Si02
#       6
#     2   2   2   2   2   2
#     4   9  17  34  55  77 101 133 174 209 251 306
#     4   8  17  30  53  80 102 130 165 215 259 297
#     4   9  16  32  54  80 103 124 170 220 256 293
#     4  11  20  30  52  82 105 129 165 214 262 291
#     4  11  23  36  51  74 106 142 172 204 251 309
#     4   8  18  33  55  76 100 137 171 209 253 301
#
# _framework density 28.596501
#
# number of rings (size 3 to 8) (size 9 to 14) (size 15 to 20)
#    0.000    2.667    1.667    2.500    2.333    2.667 
#    0.000    0.833    0.000    2.000    0.000    0.000 
#    0.000    0.000    0.000    0.000    0.000    0.000 
#
# Total GULP energy -66915.206174 kJ/mol
# GULP energy per Si atom -5576.267181 kJ/mol
# Density = 2.853141 g / cm^3
# Si number density = 28.596501 Si / 1000 Ang^3
#
#
#
# Elastic Constant Matrix: (Units=GPa)
#
#
# Indices 1 2 3 4 5 6 
#
# 1 71.7702 23.6322 29.3702 36.5091 6.0069 -12.3793
# 2 23.6322 169.8555 18.0074 26.1724 5.4100 -28.0744
# 3 29.3702 18.0074 105.1531 20.3443 -11.6118 3.6318
# 4 36.5091 26.1724 20.3443 51.8105 -4.9392 0.1493
# 5 6.0069 5.4100 -11.6118 -4.9392 48.5446 12.9534
# 6 -12.3793 -28.0744 3.6318 0.1493 12.9534 30.0597
#
#
#
# Elastic Compliance Matrix: (Units=1/GPa)
#
#
# Indices 1 2 3 4 5 6 
#
# 1 0.034822 0.005045 -0.008472 -0.025441 -0.016810 0.027446
# 2 0.005045 0.009209 -0.002707 -0.007835 -0.006828 0.013987
# 3 -0.008472 -0.002707 0.012983 0.003002 0.007671 -0.010907
# 4 -0.025441 -0.007835 0.003002 0.041574 0.015672 -0.025118
# 5 -0.016810 -0.006828 0.007671 0.015672 0.034674 -0.029246
# 6 0.027446 0.013987 -0.010907 -0.025118 -0.029246 0.071678
#
#
# Mechanical properties :
#
#
# Convention : Reuss Voigt Hill
#
# Bulk Modulus (GPa) = 22.34850 54.31092 38.32971
# Shear Modulus (GPa) = 21.54025 44.46758 33.00392
#
# Velocity S-wave (km/s) = 2.74751 3.94763 3.40093
# Velocity P-wave (km/s) = 4.23051 6.30965 5.37164
#
# Compressibility (1/GPa) = 0.04474574
#
# Stress axis : x y z
#
# Youngs Moduli (GPa) = 28.71753 108.58954 77.02487
#
# Poissons Ratio (x) = -0.54788 0.65256
# Poissons Ratio (y) = -0.14489 0.20853
# Poissons Ratio (z) = 0.24330 0.29399
#
# Static dielectric constant tensor:
#      x y z
#    x 2.991400 0.435380 -0.001900 
#    y 0.435380 2.910570 0.162670 
#    z -0.001900 0.162670 2.275580 
# 
# From -- ./inp_files/150916.got.cif
#   From: 2010.05.17/outbox.cif.g08.bks.cpg/sg2_76_cif.got.tgz:150916.got - 2010.06.03 11:33:40.
