data_PCOD9053252
_publ_section_title
;
Structure prediction by ZEFSAII (Michael W. Deem and Ramdas Pophale) SiO2 
 PCOD9053252
Probable space group: P -1
;
_chemical_formula_sum "Si O2"
_cell_formula_units_Z 10
_cell_length_a 7.138423
_cell_length_b 12.147565
_cell_length_c 7.793710
_cell_angle_alpha 72.684981
_cell_angle_beta 97.542272
_cell_angle_gamma 138.523448
_cell_volume 422.804307
_symmetry_space_group_name_H-M "P -1"
_symmetry_group_IT_number 2
_symmetry_cell_setting 'triclinic'
loop_
_space_group_symop_operation_xyz
x,y,z
-x,-y,-z
loop_
_atom_site_type_symbol
_atom_site_label
_atom_site_fract_x
_atom_site_fract_y
_atom_site_fract_z
Si Si1 0.724213 0.470933 0.155226
Si Si2 0.870471 0.505342 0.645857
Si Si3 0.873021 0.902627 0.759052
Si Si4 0.632835 0.669920 0.149273
Si Si5 0.170869 0.888916 0.521578
O O1 0.994288 0.513998 0.182140
O O2 0.443219 0.272454 0.274035
O O3 0.758211 0.600533 0.213334
O O4 0.637340 0.470549 0.953142
O O5 0.985313 0.688141 0.584225
O O6 0.000000 0.500000 0.500000
O O7 0.528408 0.351289 0.698292
O O8 0.094943 0.927326 0.666523
O O9 0.904329 0.053182 0.664156
O O10 0.836634 0.840482 0.976957
O O11 0.500000 0.000000 0.500000
#
# Coordination Sequence:
#
# PCOD9053252 Si02
#       5
#     2   2   2   2   2
#     4   9  17  34  59  80 103 143 190 227 258 317
#     4  12  23  34  55  88 117 145 175 227 287 328
#     4   9  19  33  61  81 101 141 195 229 263 304
#     4   9  18  37  56  82 108 142 197 222 263 323
#     4  11  19  35  56  85 111 139 185 233 269 323
#
# _framework density 23.651605
#
# number of rings (size 3 to 8) (size 9 to 14) (size 15 to 20)
#    1.200    0.800    4.000    0.600    0.000    2.400 
#    0.000    1.000    0.000    2.400    0.000    0.000 
#    0.000    0.000    0.000    0.000    0.000    0.000 
#
# Total GULP energy -55810.288016 kJ/mol
# GULP energy per Si atom -5581.028802 kJ/mol
# Density = 2.359777 g / cm^3
# Si number density = 23.651605 Si / 1000 Ang^3
#
#
#
# Elastic Constant Matrix: (Units=GPa)
#
#
# Indices 1 2 3 4 5 6 
#
# 1 189.7504 46.9135 49.9397 -22.6135 -16.4751 -31.8049
# 2 46.9135 68.1365 23.6996 -11.8587 6.2677 -23.5099
# 3 49.9397 23.6996 107.8016 -17.7464 -14.9147 -17.5664
# 4 -22.6135 -11.8587 -17.7464 28.6638 -5.2188 4.7703
# 5 -16.4751 6.2677 -14.9147 -5.2188 47.7963 -7.1708
# 6 -31.8049 -23.5099 -17.5664 4.7703 -7.1708 42.4740
#
#
#
# Elastic Compliance Matrix: (Units=1/GPa)
#
#
# Indices 1 2 3 4 5 6 
#
# 1 0.007843 -0.003356 -0.001059 0.004218 0.003836 0.003751
# 2 -0.003356 0.021019 -0.001723 0.003184 -0.002970 0.007549
# 3 -0.001059 -0.001723 0.012482 0.006502 0.004995 0.003529
# 4 0.004218 0.003184 0.006502 0.044434 0.008526 0.004059
# 5 0.003836 -0.002970 0.004995 0.008526 0.026136 0.006749
# 6 0.003751 0.007549 0.003529 0.004059 0.006749 0.032675
#
#
# Mechanical properties :
#
#
# Convention : Reuss Voigt Hill
#
# Bulk Modulus (GPa) = 34.40230 67.42156 50.91193
# Shear Modulus (GPa) = 30.02019 40.12919 35.07469
#
# Velocity S-wave (km/s) = 3.56654 4.12355 3.85512
# Velocity P-wave (km/s) = 5.61581 7.15818 6.43338
#
# Compressibility (1/GPa) = 0.02906782
#
# Stress axis : x y z
#
# Youngs Moduli (GPa) = 127.50036 47.57659 80.11432
#
# Poissons Ratio (x) = 0.15968 0.08486
# Poissons Ratio (y) = 0.42793 0.13801
# Poissons Ratio (z) = 0.13505 0.08196
#
# Static dielectric constant tensor:
#      x y z
#    x 1.850460 0.032450 0.016020 
#    y 0.032450 1.975190 0.124930 
#    z 0.016020 0.124930 2.031350 
# 
# From -- ./inp_files/29255.got.cif
#   From: 2010.05.17/outbox.cif.g08.bks.cpg/sg2_15_cif.got.tgz:29255.got - 2010.06.03 11:33:40.
