data_PCOD9053588
_publ_section_title
;
Structure prediction by ZEFSAII (Michael W. Deem and Ramdas Pophale) SiO2 
 PCOD9053588
Probable space group: P -1
;
_chemical_formula_sum "Si O2"
_cell_formula_units_Z 16
_cell_length_a 17.999750
_cell_length_b 9.007321
_cell_length_c 22.622512
_cell_angle_alpha 141.290866
_cell_angle_beta 161.684310
_cell_angle_gamma 38.021493
_cell_volume 699.903024
_symmetry_space_group_name_H-M "P -1"
_symmetry_group_IT_number 2
_symmetry_cell_setting 'triclinic'
loop_
_space_group_symop_operation_xyz
x,y,z
-x,-y,-z
loop_
_atom_site_type_symbol
_atom_site_label
_atom_site_fract_x
_atom_site_fract_y
_atom_site_fract_z
Si Si1 0.130068 0.606302 0.934705
Si Si2 0.376436 0.533690 0.796064
Si Si3 0.702835 0.066853 0.340735
Si Si4 0.799348 0.292907 0.847890
Si Si5 0.979097 0.533683 0.398632
Si Si6 0.312550 0.066854 0.950459
Si Si7 0.196236 0.145059 0.009482
Si Si8 0.242548 0.393636 0.437778
O O1 0.354303 0.612660 0.062809
O O2 0.144835 0.728925 0.047238
O O3 0.876498 0.690749 0.735955
O O4 0.179978 0.315546 0.896394
O O5 0.266365 0.500021 0.766447
O O6 0.362319 0.824220 0.874382
O O7 0.193317 0.475212 0.590509
O O8 0.913910 0.824249 0.425919
O O9 0.479532 0.036512 0.205352
O O10 0.769805 0.315588 0.486303
O O11 0.561819 0.095184 0.179727
O O12 0.806897 0.571393 0.921224
O O13 0.525727 0.270897 0.623097
O O14 0.003335 0.134433 0.910389
O O15 0.076207 0.387256 0.367552
O O16 0.153981 0.036625 0.879850
#
# Coordination Sequence:
#
# PCOD9053588 Si02
#       8
#     2   2   2   2   2   2   2   2
#     4  11  20  33  56  82 110 144 177 219 269 320
#     4  11  22  35  51  79 112 144 177 225 270 322
#     4   9  18  34  54  78 109 141 174 220 266 316
#     4   9  16  36  53  80 112 134 183 220 266 311
#     4  11  22  35  51  79 112 144 177 225 270 322
#     4   9  18  34  54  78 109 141 174 220 266 316
#     4   7  16  32  57  74 108 146 163 230 272 293
#     4  11  20  33  56  82 110 144 177 219 269 320
#
# _framework density 22.860309000000001
#
# number of rings (size 3 to 8) (size 9 to 14) (size 15 to 20)
#    0.750    1.500    2.500    2.250    0.000    2.000 
#    0.000   11.250    0.000    1.500    0.000    0.000 
#    0.000    0.000    0.000    0.000    0.000    0.000 
#
# Total GULP energy -89353.233089 kJ/mol
# GULP energy per Si atom -5584.577068 kJ/mol
# Density = 2.280828 g / cm^3
# Si number density = 22.860309 Si / 1000 Ang^3
#
#
#
# Elastic Constant Matrix: (Units=GPa)
#
#
# Indices 1 2 3 4 5 6 
#
# 1 177.2229 12.3358 82.8207 -9.5273 19.4396 -16.7301
# 2 12.3358 59.2501 13.4805 3.9069 5.2574 1.0651
# 3 82.8207 13.4805 126.7016 -24.5064 -9.7331 -0.4680
# 4 -9.5273 3.9069 -24.5064 23.0451 -5.8554 8.3533
# 5 19.4396 5.2574 -9.7331 -5.8554 30.5862 1.5993
# 6 -16.7301 1.0651 -0.4680 8.3533 1.5993 30.5014
#
#
#
# Elastic Compliance Matrix: (Units=1/GPa)
#
#
# Indices 1 2 3 4 5 6 
#
# 1 0.015730 0.003609 -0.016645 -0.022826 -0.021100 0.015604
# 2 0.003609 0.020085 -0.008534 -0.016269 -0.011902 0.006227
# 3 -0.016645 -0.008534 0.030151 0.042289 0.030864 -0.021569
# 4 -0.022826 -0.016269 0.042289 0.111759 0.054497 -0.044768
# 5 -0.021100 -0.011902 0.030864 0.054497 0.069936 -0.029276
# 6 0.015604 0.006227 -0.021569 -0.044768 -0.029276 0.054591
#
#
# Mechanical properties :
#
#
# Convention : Reuss Voigt Hill
#
# Bulk Modulus (GPa) = 43.80794 64.49429 54.15112
# Shear Modulus (GPa) = 14.16421 33.79572 23.97997
#
# Velocity S-wave (km/s) = 2.49187 3.84911 3.24231
# Velocity P-wave (km/s) = 5.24253 6.93021 6.14459
#
# Compressibility (1/GPa) = 0.02282691
#
# Stress axis : x y z
#
# Youngs Moduli (GPa) = 63.57133 49.78880 33.16600
#
# Poissons Ratio (x) = -0.17968 0.55204
# Poissons Ratio (y) = -0.22942 0.28304
# Poissons Ratio (z) = 1.05812 0.42490
#
# Static dielectric constant tensor:
#      x y z
#    x 1.896870 0.036590 0.043440 
#    y 0.036590 1.873860 0.027490 
#    z 0.043440 0.027490 1.811860 
# 
# From -- ./inp_files/599748.got.cif
#   From: 2010.05.17/outbox.cif.g08.bks.cpg/sg2_300_cif.got.tgz:599748.got - 2010.06.03 11:33:40.
