data_PCOD9053405
_publ_section_title
;
Structure prediction by ZEFSAII (Michael W. Deem and Ramdas Pophale) SiO2 
 PCOD9053405
Probable space group: P -1
;
_chemical_formula_sum "Si O2"
_cell_formula_units_Z 16
_cell_length_a 11.958100
_cell_length_b 13.850075
_cell_length_c 17.986124
_cell_angle_alpha 31.896837
_cell_angle_beta 29.711791
_cell_angle_gamma 55.088896
_cell_volume 605.642849
_symmetry_space_group_name_H-M "P -1"
_symmetry_group_IT_number 2
_symmetry_cell_setting 'triclinic'
loop_
_space_group_symop_operation_xyz
x,y,z
-x,-y,-z
loop_
_atom_site_type_symbol
_atom_site_label
_atom_site_fract_x
_atom_site_fract_y
_atom_site_fract_z
Si Si1 0.298008 0.887049 0.863266
Si Si2 0.423523 0.363359 0.486228
Si Si3 0.820937 0.098101 0.677301
Si Si4 0.220477 0.602292 0.374564
Si Si5 0.682677 0.838319 0.569898
Si Si6 0.232275 0.962475 0.410439
Si Si7 0.949924 0.737614 0.024706
Si Si8 0.211473 0.505559 0.959152
O O1 0.327983 0.110890 0.726841
O O2 0.439493 0.839111 0.880029
O O3 0.504819 0.915299 0.657998
O O4 0.004783 0.742693 0.077404
O O5 0.196460 0.393618 0.564748
O O6 0.633909 0.431922 0.248968
O O7 0.619329 0.560996 0.305591
O O8 0.818395 0.254866 0.637362
O O9 0.774535 0.156339 0.584391
O O10 0.123485 0.153191 0.484013
O O11 0.559055 0.815254 0.017691
O O12 0.000000 0.500000 0.500000
O O13 0.448214 0.582122 0.836505
O O14 0.889995 0.006112 0.272241
O O15 0.000000 0.000000 0.500000
O O16 0.067996 0.761615 0.698371
O O17 0.099903 0.647367 0.952952
#
# Coordination Sequence:
#
# PCOD9053405 Si02
#       8
#     2   2   2   2   2   2   2   2
#     4  11  22  37  61  99 134 164 207 258 320 385
#     4  12  20  38  68  94 127 165 221 264 313 371
#     4  11  25  45  64  91 134 167 216 264 320 383
#     4  11  26  46  70  91 117 171 227 275 314 368
#     4  11  19  39  63 100 132 164 207 268 316 380
#     4  12  24  41  61  95 142 176 202 256 327 396
#     4  11  20  35  62 100 130 161 210 265 320 371
#     4  11  21  34  63 100 135 167 203 252 327 391
#
# _framework density 26.418208
#
# number of rings (size 3 to 8) (size 9 to 14) (size 15 to 20)
#    0.000    0.750    6.250    3.375    0.000    0.500 
#    4.500    0.625    0.000    1.500    0.000    0.000 
#    0.000    0.000    0.000    0.000    0.000    0.000 
#
# Total GULP energy -89506.192210 kJ/mol
# GULP energy per Si atom -5594.137013 kJ/mol
# Density = 2.635808 g / cm^3
# Si number density = 26.418208 Si / 1000 Ang^3
#
#
#
# Elastic Constant Matrix: (Units=GPa)
#
#
# Indices 1 2 3 4 5 6 
#
# 1 179.5068 20.2937 33.6035 0.5461 -65.0641 0.1537
# 2 20.2937 64.4268 14.4755 -7.5219 -18.5228 -15.5680
# 3 33.6035 14.4755 75.6164 2.7743 -41.1827 3.7478
# 4 0.5461 -7.5219 2.7743 33.7091 -1.6026 -8.2717
# 5 -65.0641 -18.5228 -41.1827 -1.6026 62.7056 -1.3634
# 6 0.1537 -15.5680 3.7478 -8.2717 -1.3634 41.5212
#
#
#
# Elastic Compliance Matrix: (Units=1/GPa)
#
#
# Indices 1 2 3 4 5 6 
#
# 1 0.009073 -0.000167 0.001698 0.000208 0.010488 0.000137
# 2 -0.000167 0.020611 -0.001831 0.007332 0.005107 0.009522
# 3 0.001698 -0.001831 0.021218 -0.002088 0.015047 -0.002530
# 4 0.000208 0.007332 -0.002088 0.033967 0.002091 0.009772
# 5 0.010488 0.005107 0.015047 0.002091 0.038322 0.002193
# 6 0.000137 0.009522 -0.002530 0.009772 0.002193 0.029901
#
#
# Mechanical properties :
#
#
# Convention : Reuss Voigt Hill
#
# Bulk Modulus (GPa) = 19.88017 50.69947 35.28982
# Shear Modulus (GPa) = 29.33268 44.33233 36.83251
#
# Velocity S-wave (km/s) = 3.33576 4.10090 3.73796
# Velocity P-wave (km/s) = 4.73053 6.45414 5.65835
#
# Compressibility (1/GPa) = 0.05030137
#
# Stress axis : x y z
#
# Youngs Moduli (GPa) = 110.22308 48.51883 47.12989
#
# Poissons Ratio (x) = 0.00808 -0.08001
# Poissons Ratio (y) = 0.01836 0.08629
# Poissons Ratio (z) = -0.18712 0.08883
#
# Static dielectric constant tensor:
#      x y z
#    x 2.098070 0.013550 0.021190 
#    y 0.013550 2.070190 0.077460 
#    z 0.021190 0.077460 2.163890 
# 
# From -- ./inp_files/524117.got.cif
#   From: 2010.05.17/outbox.cif.g08.bks.cpg/sg2_263_cif.got.tgz:524117.got - 2010.06.03 11:33:40.
