data_PCOD9053160
_publ_section_title
;
Structure prediction by ZEFSAII (Michael W. Deem and Ramdas Pophale) SiO2 
 PCOD9053160
Probable space group: P -1
;
_chemical_formula_sum "Si O2"
_cell_formula_units_Z 16
_cell_length_a 22.565803
_cell_length_b 5.357079
_cell_length_c 16.841172
_cell_angle_alpha 104.981668
_cell_angle_beta 157.376983
_cell_angle_gamma 75.122745
_cell_volume 755.611566
_symmetry_space_group_name_H-M "P -1"
_symmetry_group_IT_number 2
_symmetry_cell_setting 'triclinic'
loop_
_space_group_symop_operation_xyz
x,y,z
-x,-y,-z
loop_
_atom_site_type_symbol
_atom_site_label
_atom_site_fract_x
_atom_site_fract_y
_atom_site_fract_z
Si Si1 0.495706 0.865401 0.100829
Si Si2 0.097506 0.812517 0.331343
Si Si3 0.978624 0.371053 0.047382
Si Si4 0.239473 0.029961 0.278893
Si Si5 0.578097 0.501543 0.685861
Si Si6 0.328363 0.692564 0.737652
Si Si7 0.765305 0.962326 0.901858
Si Si8 0.591141 0.133610 0.386089
O O1 0.615024 0.609767 0.228734
O O2 0.558514 0.113020 0.151542
O O3 0.479624 0.980366 0.178462
O O4 0.351589 0.764991 0.864615
O O5 0.024788 0.552791 0.189000
O O6 0.167102 0.765030 0.501026
O O7 0.247444 0.853931 0.463466
O O8 0.945691 0.004149 0.149193
O O9 0.106847 0.140103 0.182046
O O10 0.000000 0.500000 0.000000
O O11 0.814200 0.252959 0.834280
O O12 0.383886 0.015229 0.512230
O O13 0.243332 0.155790 0.208491
O O14 0.500000 0.500000 0.500000
O O15 0.694197 0.739234 0.847976
O O16 0.462578 0.586907 0.622789
O O17 0.663854 0.229232 0.792478
#
# Coordination Sequence:
#
# PCOD9053160 Si02
#       8
#     2   2   2   2   2   2   2   2
#     4   9  19  37  59  93 123 158 192 260 309 374
#     4  11  22  38  67  92 118 161 207 264 300 369
#     4  11  19  31  50  87 124 146 190 254 302 342
#     4  11  21  33  54  83 120 161 199 249 292 362
#     4  12  28  45  58  85 129 176 202 251 304 371
#     4   9  19  36  61  92 128 147 198 257 325 349
#     4  12  26  43  61  84 129 165 208 251 310 358
#     4  11  23  39  65  89 120 164 216 248 307 364
#
# _framework density 21.174900999999998
#
# number of rings (size 3 to 8) (size 9 to 14) (size 15 to 20)
#    0.000    1.250    3.750    2.625    1.750    5.000 
#    0.000    0.000    0.000    1.500    0.000    0.000 
#    0.000    0.000    0.000    0.000    0.000    0.000 
#
# Total GULP energy -89149.729552 kJ/mol
# GULP energy per Si atom -5571.858097 kJ/mol
# Density = 2.112671 g / cm^3
# Si number density = 21.174901 Si / 1000 Ang^3
#
#
#
# Elastic Constant Matrix: (Units=GPa)
#
#
# Indices 1 2 3 4 5 6 
#
# 1 56.9947 22.5131 58.0664 0.2336 -14.6636 -9.6521
# 2 22.5131 108.4604 32.3761 -8.6942 4.0130 -6.7132
# 3 58.0664 32.3761 125.6919 -19.4307 -28.7561 -16.2725
# 4 0.2336 -8.6942 -19.4307 35.7953 -2.8665 4.6427
# 5 -14.6636 4.0130 -28.7561 -2.8665 51.5570 10.9879
# 6 -9.6521 -6.7132 -16.2725 4.6427 10.9879 38.1746
#
#
#
# Elastic Compliance Matrix: (Units=1/GPa)
#
#
# Indices 1 2 3 4 5 6 
#
# 1 0.037509 -0.003138 -0.017958 -0.011132 -0.000302 0.002718
# 2 -0.003138 0.010613 -0.001559 0.001401 -0.002729 0.001023
# 3 -0.017958 -0.001559 0.019939 0.011040 0.006658 0.000425
# 4 -0.011132 0.001401 0.011040 0.035285 0.005650 -0.003780
# 5 -0.000302 -0.002729 0.006658 0.005650 0.024727 -0.005522
# 6 0.002718 0.001023 0.000425 -0.003780 -0.005522 0.029293
#
#
# Mechanical properties :
#
#
# Convention : Reuss Voigt Hill
#
# Bulk Modulus (GPa) = 43.95565 57.45091 50.70328
# Shear Modulus (GPa) = 23.78016 36.98482 30.38249
#
# Velocity S-wave (km/s) = 3.35481 4.18381 3.79203
# Velocity P-wave (km/s) = 5.98412 7.10841 6.57036
#
# Compressibility (1/GPa) = 0.02275020
#
# Stress axis : x y z
#
# Youngs Moduli (GPa) = 26.66045 94.22078 50.15421
#
# Poissons Ratio (x) = 0.29567 0.90066
# Poissons Ratio (y) = 0.08366 0.07821
# Poissons Ratio (z) = 0.47876 0.14692
#
# Static dielectric constant tensor:
#      x y z
#    x 1.845550 -0.015240 0.044240 
#    y -0.015240 1.854470 -0.060720 
#    z 0.044240 -0.060720 1.856230 
# 
# From -- ./inp_files/578754.got.cif
#   From: 2010.05.17/outbox.cif.g08.bks.cpg/sg2_290_cif.got.tgz:578754.got - 2010.06.03 11:33:40.
