data_PCOD9053528
_publ_section_title
;
Structure prediction by ZEFSAII (Michael W. Deem and Ramdas Pophale) SiO2 
 PCOD9053528
Probable space group: P -1
;
_chemical_formula_sum "Si O2"
_cell_formula_units_Z 14
_cell_length_a 14.194556
_cell_length_b 14.307150
_cell_length_c 8.738297
_cell_angle_alpha 49.176336
_cell_angle_beta 110.612262
_cell_angle_gamma 150.227086
_cell_volume 546.395899
_symmetry_space_group_name_H-M "P -1"
_symmetry_group_IT_number 2
_symmetry_cell_setting 'triclinic'
loop_
_space_group_symop_operation_xyz
x,y,z
-x,-y,-z
loop_
_atom_site_type_symbol
_atom_site_label
_atom_site_fract_x
_atom_site_fract_y
_atom_site_fract_z
Si Si1 0.762748 0.398064 0.470598
Si Si2 0.723256 0.749139 0.468987
Si Si3 0.912143 0.480242 0.136551
Si Si4 0.386360 0.102341 0.733209
Si Si5 0.199895 0.907454 0.399333
Si Si6 0.153708 0.116312 0.313936
Si Si7 0.466250 0.821014 0.944985
O O1 0.847902 0.475385 0.264648
O O2 0.575393 0.297198 0.501104
O O3 0.978160 0.653901 0.431670
O O4 0.626595 0.120482 0.729194
O O5 0.500000 0.500000 0.500000
O O6 0.762916 0.939275 0.311987
O O7 0.941278 0.938545 0.285415
O O8 0.629715 0.613357 0.740322
O O9 0.811842 0.231437 0.359649
O O10 0.786124 0.417895 0.999027
O O11 0.187128 0.779234 0.961721
O O12 0.523920 0.238435 0.825747
O O13 0.192784 0.025375 0.364476
O O14 0.419552 0.131578 0.175610
O O15 0.000000 0.000000 0.500000
#
# Coordination Sequence:
#
# PCOD9053528 Si02
#       7
#     2   2   2   2   2   2   2
#     4  11  22  41  66  94 140 181 207 257 339 392
#     4   9  21  42  65  90 126 165 225 270 317 382
#     4  11  25  41  63 102 140 170 213 265 327 404
#     4  12  24  42  67 101 131 169 219 271 327 391
#     4  11  19  43  69  89 141 175 209 276 323 382
#     4   8  22  38  62  97 115 174 228 256 322 381
#     4  11  24  40  61 102 140 172 213 263 332 395
#
# _framework density 25.622447000000001
#
# number of rings (size 3 to 8) (size 9 to 14) (size 15 to 20)
#    0.857    0.571    2.857    3.857    4.000    4.000 
#    0.000    0.714    0.000    1.714    0.000    0.000 
#    0.000    0.000    0.000    0.000    0.000    0.000 
#
# Total GULP energy -77967.659963 kJ/mol
# GULP energy per Si atom -5569.118569 kJ/mol
# Density = 2.556413 g / cm^3
# Si number density = 25.622447 Si / 1000 Ang^3
#
#
#
# Elastic Constant Matrix: (Units=GPa)
#
#
# Indices 1 2 3 4 5 6 
#
# 1 180.9316 43.7361 32.8620 12.0472 -31.3874 5.2007
# 2 43.7361 155.8165 23.3387 15.2137 -17.1114 7.0179
# 3 32.8620 23.3387 54.9503 5.9911 -18.9458 -1.5084
# 4 12.0472 15.2137 5.9911 21.3006 -5.6421 -2.2713
# 5 -31.3874 -17.1114 -18.9458 -5.6421 38.5209 0.6814
# 6 5.2007 7.0179 -1.5084 -2.2713 0.6814 41.9789
#
#
#
# Elastic Compliance Matrix: (Units=1/GPa)
#
#
# Indices 1 2 3 4 5 6 
#
# 1 0.006994 -0.000989 -0.002253 -0.001676 0.003922 -0.000937
# 2 -0.000989 0.007562 -0.001837 -0.004199 0.001061 -0.001452
# 3 -0.002253 -0.001837 0.023520 -0.001607 0.008659 0.001204
# 4 -0.001676 -0.004199 -0.001607 0.052697 0.003632 0.003644
# 5 0.003922 0.001061 0.008659 0.003632 0.034431 -0.000714
# 6 -0.000937 -0.001452 0.001204 0.003644 -0.000714 0.024432
#
#
# Mechanical properties :
#
#
# Convention : Reuss Voigt Hill
#
# Bulk Modulus (GPa) = 35.81899 65.73023 50.77461
# Shear Modulus (GPa) = 29.56815 39.81085 34.68950
#
# Velocity S-wave (km/s) = 3.40073 3.94604 3.68349
# Velocity P-wave (km/s) = 5.42493 6.81694 6.16038
#
# Compressibility (1/GPa) = 0.02791816
#
# Stress axis : x y z
#
# Youngs Moduli (GPa) = 142.97367 132.23232 42.51761
#
# Poissons Ratio (x) = 0.13079 0.09580
# Poissons Ratio (y) = 0.14142 0.07810
# Poissons Ratio (z) = 0.32215 0.24288
#
# Static dielectric constant tensor:
#      x y z
#    x 2.185280 -0.631620 0.393560 
#    y -0.631620 2.731460 -0.615700 
#    z 0.393560 -0.615700 2.581450 
# 
# From -- ./inp_files/312795.got.cif
#   From: 2010.05.17/outbox.cif.g08.bks.cpg/sg2_157_cif.got.tgz:312795.got - 2010.06.03 11:33:40.
