data_PCOD9053232
_publ_section_title
;
Structure prediction by ZEFSAII (Michael W. Deem and Ramdas Pophale) SiO2 
 PCOD9053232
Probable space group: P -1
;
_chemical_formula_sum "Si O2"
_cell_formula_units_Z 12
_cell_length_a 5.845184
_cell_length_b 9.269532
_cell_length_c 17.486311
_cell_angle_alpha 52.334778
_cell_angle_beta 128.210595
_cell_angle_gamma 99.512485
_cell_volume 553.772352
_symmetry_space_group_name_H-M "P -1"
_symmetry_group_IT_number 2
_symmetry_cell_setting 'triclinic'
loop_
_space_group_symop_operation_xyz
x,y,z
-x,-y,-z
loop_
_atom_site_type_symbol
_atom_site_label
_atom_site_fract_x
_atom_site_fract_y
_atom_site_fract_z
Si Si1 0.912732 0.969059 0.252657
Si Si2 0.477647 0.508903 0.717750
Si Si3 0.659657 0.365351 0.647398
Si Si4 0.138989 0.230901 0.550511
Si Si5 0.566686 0.909812 0.629764
Si Si6 0.365095 0.935103 0.071098
O O1 0.096405 0.117762 0.253384
O O2 0.024301 0.855358 0.392123
O O3 0.550082 0.019925 0.145231
O O4 0.061963 0.814882 0.266515
O O5 0.687837 0.470985 0.696001
O O6 0.515885 0.704124 0.695325
O O7 0.549601 0.299947 0.838926
O O8 0.110716 0.584802 0.598321
O O9 0.500000 0.500000 0.500000
O O10 0.386522 0.282897 0.635905
O O11 0.319596 0.073146 0.577411
O O12 0.500000 0.000000 0.500000
O O13 0.500000 0.000000 0.000000
O O14 0.000000 0.000000 0.000000
#
# Coordination Sequence:
#
# PCOD9053232 Si02
#       6
#     2   2   2   2   2   2
#     4  11  23  44  68  98 147 179 225 300 361 422
#     4  12  22  42  70 107 139 184 238 294 358 432
#     4  11  19  34  63 102 138 176 227 280 362 437
#     4  11  21  38  66 105 143 175 217 286 382 438
#     4  11  24  40  66 113 151 176 213 287 387 457
#     4  12  29  51  73  99 138 199 263 302 333 403
#
# _framework density 21.669557000000001
#
# number of rings (size 3 to 8) (size 9 to 14) (size 15 to 20)
#    0.000    0.667    5.000    4.000    2.333    1.333 
#    0.000    1.667    0.000    0.000    0.000    0.000 
#    0.000    0.000    0.000    0.000    0.000    0.000 
#
# Total GULP energy -66801.209919 kJ/mol
# GULP energy per Si atom -5566.767493 kJ/mol
# Density = 2.162024 g / cm^3
# Si number density = 21.669557 Si / 1000 Ang^3
#
#
#
# Elastic Constant Matrix: (Units=GPa)
#
#
# Indices 1 2 3 4 5 6 
#
# 1 89.5361 39.8171 47.5224 -3.0642 8.1723 6.5336
# 2 39.8171 113.7240 39.2010 -5.8153 13.7752 -2.9741
# 3 47.5224 39.2010 95.9662 -6.2432 4.8287 13.7147
# 4 -3.0642 -5.8153 -6.2432 30.9807 10.4396 8.1336
# 5 8.1723 13.7752 4.8287 10.4396 49.9500 4.5837
# 6 6.5336 -2.9741 13.7147 8.1336 4.5837 29.6411
#
#
#
# Elastic Compliance Matrix: (Units=1/GPa)
#
#
# Indices 1 2 3 4 5 6 
#
# 1 0.016272 -0.003329 -0.006511 0.000253 -0.001094 -0.000808
# 2 -0.003329 0.011638 -0.003393 0.001213 -0.002920 0.003590
# 3 -0.006511 -0.003393 0.016355 0.003907 0.000300 -0.007591
# 4 0.000253 0.001213 0.003907 0.038907 -0.007857 -0.011203
# 5 -0.001094 -0.002920 0.000300 -0.007857 0.022760 -0.001554
# 6 -0.000808 0.003590 -0.007591 -0.011203 -0.001554 0.041102
#
#
# Mechanical properties :
#
#
# Convention : Reuss Voigt Hill
#
# Bulk Modulus (GPa) = 56.18220 61.36749 58.77484
# Shear Modulus (GPa) = 27.86572 33.62672 30.74622
#
# Velocity S-wave (km/s) = 3.58989 3.94356 3.77087
# Velocity P-wave (km/s) = 6.57009 7.00833 6.79275
#
# Compressibility (1/GPa) = 0.01779923
#
# Stress axis : x y z
#
# Youngs Moduli (GPa) = 61.45385 85.92781 61.14514
#
# Poissons Ratio (x) = 0.28601 0.39814
# Poissons Ratio (y) = 0.20455 0.20745
# Poissons Ratio (z) = 0.40015 0.29153
#
# Static dielectric constant tensor:
#      x y z
#    x 1.982010 0.093460 -0.058800 
#    y 0.093460 1.845530 0.003340 
#    z -0.058800 0.003340 1.873510 
# 
# From -- ./inp_files/25701.got.cif
#   From: 2010.05.17/outbox.cif.g08.bks.cpg/sg2_13_cif.got.tgz:25701.got - 2010.06.03 11:33:40.
