data_PCOD9053053
_publ_section_title
;
Structure prediction by ZEFSAII (Michael W. Deem and Ramdas Pophale) SiO2 
 PCOD9053053
Probable space group: P -1
;
_chemical_formula_sum "Si O2"
_cell_formula_units_Z 16
_cell_length_a 7.710467
_cell_length_b 13.397946
_cell_length_c 11.398841
_cell_angle_alpha 61.966561
_cell_angle_beta 50.459586
_cell_angle_gamma 54.615112
_cell_volume 730.674436
_symmetry_space_group_name_H-M "P -1"
_symmetry_group_IT_number 2
_symmetry_cell_setting 'triclinic'
loop_
_space_group_symop_operation_xyz
x,y,z
-x,-y,-z
loop_
_atom_site_type_symbol
_atom_site_label
_atom_site_fract_x
_atom_site_fract_y
_atom_site_fract_z
Si Si1 0.360338 0.435793 0.915540
Si Si2 0.926450 0.894681 0.258133
Si Si3 0.338351 0.829132 0.742144
Si Si4 0.182048 0.696711 0.071664
Si Si5 0.590578 0.120822 0.575015
Si Si6 0.914968 0.407312 0.250414
Si Si7 0.322784 0.330704 0.748871
Si Si8 0.855395 0.842585 0.576885
O O1 0.612074 0.414372 0.883259
O O2 0.388997 0.335639 0.854463
O O3 0.234840 0.561357 0.824691
O O4 0.165225 0.423185 0.097788
O O5 0.666900 0.888659 0.339853
O O6 0.974532 0.845566 0.397705
O O7 0.115877 0.811689 0.126780
O O8 0.875515 0.038110 0.202302
O O9 0.335533 0.829082 0.602919
O O10 0.599682 0.830019 0.666059
O O11 0.299178 0.725615 0.889913
O O12 0.931461 0.685252 0.152257
O O13 0.527865 0.221086 0.649217
O O14 0.776613 0.977803 0.595153
O O15 0.984049 0.275558 0.350337
O O16 0.751675 0.525640 0.336509
#
# Coordination Sequence:
#
# PCOD9053053 Si02
#       8
#     2   2   2   2   2   2   2   2
#     4   9  20  36  57  79 117 147 186 227 283 329
#     4   8  17  29  52  85 112 142 194 223 274 342
#     4   9  16  29  55  82 113 151 180 227 285 335
#     4  11  18  33  60  84 112 147 185 233 282 321
#     4   8  16  32  55  84 113 142 190 229 275 336
#     4   9  18  37  56  76 116 150 186 225 281 332
#     4   9  20  36  58  85 115 138 191 237 267 337
#     4   9  15  32  57  79 110 158 179 223 288 331
#
# _framework density 21.897576000000001
#
# number of rings (size 3 to 8) (size 9 to 14) (size 15 to 20)
#    0.750    2.250    1.250    1.875    0.000    0.500 
#    0.000    6.875    2.750    1.500    3.250    0.000 
#    0.000    0.000    0.000    0.000    0.000    0.000 
#
# Total GULP energy -89246.903645 kJ/mol
# GULP energy per Si atom -5577.931478 kJ/mol
# Density = 2.184774 g / cm^3
# Si number density = 21.897576 Si / 1000 Ang^3
#
#
#
# Elastic Constant Matrix: (Units=GPa)
#
#
# Indices 1 2 3 4 5 6 
#
# 1 24.6162 -63.5409 -22.8520 -71.2077 -7.9695 113.9742
# 2 -63.5409 -29.2547 -13.4177 -93.9803 22.4939 181.6354
# 3 -22.8520 -13.4177 34.2726 -49.4903 11.3364 80.3819
# 4 -71.2077 -93.9803 -49.4903 -18.5154 -6.9359 126.8265
# 5 -7.9695 22.4939 11.3364 -6.9359 21.3265 14.8709
# 6 113.9742 181.6354 80.3819 126.8265 14.8709 -154.7999
#
#
#
# Elastic Compliance Matrix: (Units=1/GPa)
#
#
# Indices 1 2 3 4 5 6 
#
# 1 0.014339 -0.007544 -0.002269 0.000751 0.013091 0.002401
# 2 -0.007544 0.020557 -0.010451 -0.007729 -0.024562 0.004448
# 3 -0.002269 -0.010451 0.025672 0.002592 -0.003457 0.001189
# 4 0.000751 -0.007729 0.002592 0.015507 0.007722 0.006277
# 5 0.013091 -0.024562 -0.003457 0.007722 0.086461 -0.006344
# 6 0.002401 0.004448 0.001189 0.006277 -0.006344 0.005678
#
#
# Mechanical properties :
#
#
# Convention : Reuss Voigt Hill
#
# Bulk Modulus (GPa) = 49.89732 -18.88745 15.50493
# Shear Modulus (GPa) = 23.21024 -21.76813 0.72105
#
# Velocity S-wave (km/s) = 3.25921 -3.15634 0.57446
# Velocity P-wave (km/s) = 6.08272 4.68267 2.74518
#
# Compressibility (1/GPa) = 0.02004116
#
# Stress axis : x y z
#
# Youngs Moduli (GPa) = 69.73841 48.64436 38.95294
#
# Poissons Ratio (x) = 0.36695 0.08839
# Poissons Ratio (y) = 0.52607 0.40710
# Poissons Ratio (z) = 0.15825 0.50838
#
# Static dielectric constant tensor:
#      x y z
#    x 1.809210 -0.000860 -0.003580 
#    y -0.000860 1.826740 0.032110 
#    z -0.003580 0.032110 1.756320 
# 
# From -- ./inp_files/395597.got.cif
#   From: 2010.05.17/outbox.cif.g08.bks.cpg/sg2_198_cif.got.tgz:395597.got - 2010.06.03 11:33:40.
