data_PCOD9053273
_publ_section_title
;
Structure prediction by ZEFSAII (Michael W. Deem and Ramdas Pophale) SiO2 
 PCOD9053273
Probable space group: P -1
;
_chemical_formula_sum "Si O2"
_cell_formula_units_Z 12
_cell_length_a 9.929429
_cell_length_b 9.467936
_cell_length_c 11.253956
_cell_angle_alpha 57.507861
_cell_angle_beta 119.900923
_cell_angle_gamma 76.019355
_cell_volume 554.990481
_symmetry_space_group_name_H-M "P -1"
_symmetry_group_IT_number 2
_symmetry_cell_setting 'triclinic'
loop_
_space_group_symop_operation_xyz
x,y,z
-x,-y,-z
loop_
_atom_site_type_symbol
_atom_site_label
_atom_site_fract_x
_atom_site_fract_y
_atom_site_fract_z
Si Si1 0.350310 0.030143 0.563449
Si Si2 0.978262 0.198862 0.465587
Si Si3 0.020292 0.189221 0.132404
Si Si4 0.687291 0.564253 0.647418
Si Si5 0.744062 0.306326 0.563176
Si Si6 0.660652 0.506655 0.003445
O O1 0.587828 0.823580 0.480887
O O2 0.541965 0.751516 0.779786
O O3 0.214227 0.098458 0.593828
O O4 0.195463 0.113508 0.342995
O O5 0.861503 0.263590 0.510492
O O6 0.824082 0.433927 0.212781
O O7 0.000000 0.000000 0.500000
O O8 0.810948 0.297786 0.070137
O O9 0.908399 0.400329 0.896196
O O10 0.121055 0.956448 0.214407
O O11 0.744195 0.452866 0.592466
O O12 0.502680 0.575472 0.609966
O O13 0.500000 0.500000 0.000000
#
# Coordination Sequence:
#
# PCOD9053273 Si02
#       6
#     2   2   2   2   2   2
#     4  11  23  39  63  98 124 157 214 259 305 364
#     4  11  20  40  63  93 117 163 212 255 304 363
#     4  11  21  39  64  89 123 167 208 255 302 369
#     4  11  26  40  61  93 131 169 197 256 315 372
#     4  11  23  44  63  89 129 165 211 247 316 376
#     4  11  19  35  63  92 122 158 206 260 305 355
#
# _framework density 21.62199
#
# number of rings (size 3 to 8) (size 9 to 14) (size 15 to 20)
#    0.000    1.000    5.000    3.000    0.000    6.000 
#    0.000    0.833    0.000    0.000    0.000    0.000 
#    0.000    0.000    0.000    0.000    0.000    0.000 
#
# Total GULP energy -66974.376242 kJ/mol
# GULP energy per Si atom -5581.198020 kJ/mol
# Density = 2.157278 g / cm^3
# Si number density = 21.621990 Si / 1000 Ang^3
#
#
#
# Elastic Constant Matrix: (Units=GPa)
#
#
# Indices 1 2 3 4 5 6 
#
# 1 71.6980 39.6811 14.0529 3.4437 -4.1409 -14.0284
# 2 39.6811 115.5911 46.0815 -5.9235 0.8458 -14.4948
# 3 14.0529 46.0815 137.7583 -16.0382 -15.4971 5.6296
# 4 3.4437 -5.9235 -16.0382 24.1896 -5.7662 -4.6041
# 5 -4.1409 0.8458 -15.4971 -5.7662 26.8511 -10.0882
# 6 -14.0284 -14.4948 5.6296 -4.6041 -10.0882 37.6033
#
#
#
# Elastic Compliance Matrix: (Units=1/GPa)
#
#
# Indices 1 2 3 4 5 6 
#
# 1 0.018669 -0.005880 0.000192 -0.001674 0.004997 0.005805
# 2 -0.005880 0.012638 -0.003816 0.001438 -0.002126 0.002855
# 3 0.000192 -0.003816 0.010288 0.007733 0.007784 0.000096
# 4 -0.001674 0.001438 0.007733 0.053782 0.019709 0.010645
# 5 0.004997 -0.002126 0.007784 0.019709 0.053010 0.016514
# 6 0.005805 0.002855 0.000096 0.010645 0.016514 0.035579
#
#
# Mechanical properties :
#
#
# Convention : Reuss Voigt Hill
#
# Bulk Modulus (GPa) = 44.27153 58.29760 51.28457
# Shear Modulus (GPa) = 23.75274 32.74426 28.24850
#
# Velocity S-wave (km/s) = 3.31803 3.89575 3.61843
# Velocity P-wave (km/s) = 5.93285 6.87434 6.42087
#
# Compressibility (1/GPa) = 0.02258788
#
# Stress axis : x y z
#
# Youngs Moduli (GPa) = 53.56572 79.12420 97.19953
#
# Poissons Ratio (x) = 0.46524 -0.01871
# Poissons Ratio (y) = 0.31496 0.37093
# Poissons Ratio (z) = -0.01031 0.30195
#
# Static dielectric constant tensor:
#      x y z
#    x 1.852390 -0.024540 0.009120 
#    y -0.024540 1.781970 0.022540 
#    z 0.009120 0.022540 1.852870 
# 
# From -- ./inp_files/420911.got.cif
#   From: 2010.05.17/outbox.cif.g08.bks.cpg/sg2_211_cif.got.tgz:420911.got - 2010.06.03 11:33:40.
