data_PCOD9053186
_publ_section_title
;
Structure prediction by ZEFSAII (Michael W. Deem and Ramdas Pophale) SiO2 
 PCOD9053186
Probable space group: P -1
;
_chemical_formula_sum "Si O2"
_cell_formula_units_Z 14
_cell_length_a 10.058649
_cell_length_b 10.668410
_cell_length_c 8.157555
_cell_angle_alpha 67.567991
_cell_angle_beta 115.349567
_cell_angle_gamma 124.363843
_cell_volume 641.436178
_symmetry_space_group_name_H-M "P -1"
_symmetry_group_IT_number 2
_symmetry_cell_setting 'triclinic'
loop_
_space_group_symop_operation_xyz
x,y,z
-x,-y,-z
loop_
_atom_site_type_symbol
_atom_site_label
_atom_site_fract_x
_atom_site_fract_y
_atom_site_fract_z
Si Si1 0.392220 0.219848 0.257644
Si Si2 0.620736 0.262259 0.886273
Si Si3 0.849486 0.772229 0.159452
Si Si4 0.543367 0.992953 0.796922
Si Si5 0.090047 0.761309 0.037972
Si Si6 0.056956 0.077797 0.317559
Si Si7 0.559646 0.545163 0.322783
O O1 0.465483 0.103775 0.319360
O O2 0.526645 0.392356 0.285240
O O3 0.254336 0.156544 0.358252
O O4 0.287491 0.227945 0.039702
O O5 0.557880 0.382512 0.832968
O O6 0.520038 0.143918 0.740513
O O7 0.573354 0.140672 0.070884
O O8 0.817152 0.337360 0.909187
O O9 0.747851 0.671670 0.312553
O O10 0.973374 0.942972 0.204544
O O11 0.960711 0.714503 0.143079
O O12 0.741867 0.077493 0.907947
O O13 0.004306 0.798620 0.821819
O O14 0.000000 0.000000 0.500000
O O15 0.500000 0.500000 0.500000
#
# Coordination Sequence:
#
# PCOD9053186 Si02
#       7
#     2   2   2   2   2   2   2
#     4  11  20  37  61  88 112 159 204 232 283 367
#     4   9  18  36  61  86 118 153 195 244 284 353
#     4  11  19  37  60  83 114 159 202 235 277 366
#     4   9  16  34  65  85 107 149 209 237 274 338
#     4   9  17  35  61  82 108 153 200 234 279 338
#     4  11  19  32  59  91 118 146 196 252 290 333
#     4  12  25  38  58  90 125 152 191 250 306 339
#
# _framework density 21.826021999999998
#
# number of rings (size 3 to 8) (size 9 to 14) (size 15 to 20)
#    0.857    0.857    4.286    2.143    0.000    0.000 
#    0.000    4.286    3.143    0.000    0.000    0.000 
#    0.000    0.000    0.000    0.000    0.000    0.000 
#
# Total GULP energy -78019.097791 kJ/mol
# GULP energy per Si atom -5572.792699 kJ/mol
# Density = 2.177635 g / cm^3
# Si number density = 21.826022 Si / 1000 Ang^3
#
#
#
# Elastic Constant Matrix: (Units=GPa)
#
#
# Indices 1 2 3 4 5 6 
#
# 1 117.6082 9.7861 23.9571 -17.0734 -16.9002 1.7167
# 2 9.7861 44.5077 -2.7139 -1.2543 9.0165 -3.6026
# 3 23.9571 -2.7139 53.0257 -9.9845 -12.2810 5.3167
# 4 -17.0734 -1.2543 -9.9845 20.4654 8.2911 -8.4836
# 5 -16.9002 9.0165 -12.2810 8.2911 24.0903 -6.8107
# 6 1.7167 -3.6026 5.3167 -8.4836 -6.8107 33.1550
#
#
#
# Elastic Compliance Matrix: (Units=1/GPa)
#
#
# Indices 1 2 3 4 5 6 
#
# 1 0.011125 -0.003518 -0.002846 0.006127 0.006225 0.002345
# 2 -0.003518 0.026224 0.000652 0.004968 -0.013243 0.001478
# 3 -0.002846 0.000652 0.023011 0.005692 0.007391 -0.000497
# 4 0.006127 0.004968 0.005692 0.068641 -0.014346 0.013926
# 5 0.006225 -0.013243 0.007391 -0.014346 0.061224 0.005959
# 6 0.002345 0.001478 -0.000497 0.013926 0.005959 0.035068
#
#
# Mechanical properties :
#
#
# Convention : Reuss Voigt Hill
#
# Bulk Modulus (GPa) = 20.43521 30.80003 25.61762
# Shear Modulus (GPa) = 19.76053 27.81628 23.78840
#
# Velocity S-wave (km/s) = 3.01219 3.57382 3.30496
# Velocity P-wave (km/s) = 4.63474 5.58318 5.13092
#
# Compressibility (1/GPa) = 0.04893514
#
# Stress axis : x y z
#
# Youngs Moduli (GPa) = 89.88723 38.13343 43.45675
#
# Poissons Ratio (x) = 0.13416 0.12368
# Poissons Ratio (y) = 0.31624 -0.02833
# Poissons Ratio (z) = 0.25583 -0.02486
#
# Static dielectric constant tensor:
#      x y z
#    x 1.847310 -0.047810 -0.028290 
#    y -0.047810 1.798990 -0.004810 
#    z -0.028290 -0.004810 1.900410 
# 
# From -- ./inp_files/247880.got.cif
#   From: 2010.05.17/outbox.cif.g08.bks.cpg/sg2_124_cif.got.tgz:247880.got - 2010.06.03 11:33:40.
