data_PCOD9053370
_publ_section_title
;
Structure prediction by ZEFSAII (Michael W. Deem and Ramdas Pophale) SiO2 
 PCOD9053370
Probable space group: P -1
;
_chemical_formula_sum "Si O2"
_cell_formula_units_Z 16
_cell_length_a 17.653048
_cell_length_b 11.069084
_cell_length_c 14.249544
_cell_angle_alpha 54.940902
_cell_angle_beta 157.688301
_cell_angle_gamma 131.699021
_cell_volume 780.975431
_symmetry_space_group_name_H-M "P -1"
_symmetry_group_IT_number 2
_symmetry_cell_setting 'triclinic'
loop_
_space_group_symop_operation_xyz
x,y,z
-x,-y,-z
loop_
_atom_site_type_symbol
_atom_site_label
_atom_site_fract_x
_atom_site_fract_y
_atom_site_fract_z
Si Si1 0.179179 0.896424 0.693889
Si Si2 0.907130 0.341807 0.774921
Si Si3 0.299648 0.183977 0.841967
Si Si4 0.522853 0.797235 0.759949
Si Si5 0.424806 0.841361 0.364283
Si Si6 0.374092 0.593984 0.260825
Si Si7 0.163918 0.163605 0.060909
Si Si8 0.512486 0.757210 0.159417
O O1 0.930940 0.807553 0.416048
O O2 0.685877 0.948145 0.288228
O O3 0.219055 0.995647 0.794660
O O4 0.285301 0.771599 0.878315
O O5 0.699706 0.342424 0.478690
O O6 0.784275 0.225521 0.774999
O O7 0.111853 0.493027 0.987884
O O8 0.041108 0.277264 0.887196
O O9 0.422566 0.289468 0.845176
O O10 0.439369 0.222195 0.078864
O O11 0.749286 0.830326 0.948285
O O12 0.494884 0.965440 0.639139
O O13 0.389618 0.751691 0.265147
O O14 0.607558 0.794326 0.641869
O O15 0.500000 0.500000 0.500000
O O16 0.495676 0.647118 0.276751
O O17 0.000000 0.000000 0.000000
#
# Coordination Sequence:
#
# PCOD9053370 Si02
#       8
#     2   2   2   2   2   2   2   2
#     4   8  17  36  60  87 122 148 200 262 304 332
#     4  11  23  42  54  88 133 164 196 255 306 377
#     4   9  18  35  57  93 113 150 199 256 307 348
#     4  11  22  35  68  90 121 164 209 253 310 357
#     4  11  22  38  60  91 120 163 213 248 305 361
#     4  12  25  40  63  92 126 170 202 246 318 372
#     4  11  19  38  58  88 125 160 207 255 295 359
#     4   9  19  38  57  86 126 151 201 257 299 362
#
# _framework density 20.487199
#
# number of rings (size 3 to 8) (size 9 to 14) (size 15 to 20)
#    0.750    1.000    3.750    1.875    0.000    3.000 
#    4.500    0.625    0.000    1.500    0.000    0.000 
#    0.000    0.000    0.000    0.000    0.000    0.000 
#
# Total GULP energy -89071.753234 kJ/mol
# GULP energy per Si atom -5566.984577 kJ/mol
# Density = 2.044057 g / cm^3
# Si number density = 20.487199 Si / 1000 Ang^3
#
#
#
# Elastic Constant Matrix: (Units=GPa)
#
#
# Indices 1 2 3 4 5 6 
#
# 1 108.7747 19.9827 48.1914 -9.5420 -14.0361 21.2017
# 2 19.9827 14.9070 9.5114 -2.4064 2.2706 6.4446
# 3 48.1914 9.5114 94.5611 -7.9993 -1.0258 6.8880
# 4 -9.5420 -2.4064 -7.9993 14.1904 -17.3995 -10.4698
# 5 -14.0361 2.2706 -1.0258 -17.3995 21.3050 -14.8715
# 6 21.2017 6.4446 6.8880 -10.4698 -14.8715 26.3799
#
#
#
# Elastic Compliance Matrix: (Units=1/GPa)
#
#
# Indices 1 2 3 4 5 6 
#
# 1 0.015851 -0.012694 -0.006528 -0.006683 -0.002252 -0.011856
# 2 -0.012694 0.082504 0.000135 0.029790 0.013949 0.009697
# 3 -0.006528 0.000135 0.013901 0.000994 -0.002397 0.000627
# 4 -0.006683 0.029790 0.000994 -0.020190 -0.051318 -0.039109
# 5 -0.002252 0.013949 -0.002397 -0.051318 -0.021359 -0.033380
# 6 -0.011856 0.009697 0.000627 -0.039109 -0.033380 0.010564
#
#
# Mechanical properties :
#
#
# Convention : Reuss Voigt Hill
#
# Bulk Modulus (GPa) = 13.49816 41.51264 27.50540
# Shear Modulus (GPa) = 34.68905 21.74556 28.21730
#
# Velocity S-wave (km/s) = 4.11932 3.26148 3.71524
# Velocity P-wave (km/s) = 5.40629 5.87280 5.64436
#
# Compressibility (1/GPa) = 0.07408418
#
# Stress axis : x y z
#
# Youngs Moduli (GPa) = 63.08620 12.12065 71.93907
#
# Poissons Ratio (x) = 0.15385 0.46960
# Poissons Ratio (y) = 0.80079 -0.00974
# Poissons Ratio (z) = 0.41181 -0.00164
#
# Static dielectric constant tensor:
#      x y z
#    x 1.789930 0.005540 0.018500 
#    y 0.005540 1.799700 0.049440 
#    z 0.018500 0.049440 1.744610 
# 
# From -- ./inp_files/538253.got.cif
#   From: 2010.05.17/outbox.cif.g08.bks.cpg/sg2_270_cif.got.tgz:538253.got - 2010.06.03 11:33:40.
