data_PCOD9053879
_publ_section_title
;
Structure prediction by ZEFSAII (Michael W. Deem and Ramdas Pophale) SiO2 
 PCOD9053879
Probable space group: P -1
;
_chemical_formula_sum "Si O2"
_cell_formula_units_Z 14
_cell_length_a 12.276665
_cell_length_b 7.990689
_cell_length_c 9.585403
_cell_angle_alpha 89.815270
_cell_angle_beta 133.136366
_cell_angle_gamma 92.284730
_cell_volume 685.259193
_symmetry_space_group_name_H-M "P -1"
_symmetry_group_IT_number 2
_symmetry_cell_setting 'triclinic'
loop_
_space_group_symop_operation_xyz
x,y,z
-x,-y,-z
loop_
_atom_site_type_symbol
_atom_site_label
_atom_site_fract_x
_atom_site_fract_y
_atom_site_fract_z
Si Si1 0.775598 0.661859 0.547167
Si Si2 0.931305 0.318358 0.669063
Si Si3 0.097884 0.172100 0.061659
Si Si4 0.369349 0.865124 0.547345
Si Si5 0.486132 0.779007 0.365042
Si Si6 0.134443 0.135296 0.645478
Si Si7 0.656633 0.961561 0.930821
O O1 0.855587 0.492461 0.584532
O O2 0.595940 0.244324 0.559163
O O3 0.596916 0.638696 0.418155
O O4 0.799744 0.786053 0.437818
O O5 0.794526 0.178704 0.542220
O O6 0.057969 0.278506 0.669096
O O7 0.004269 0.294879 0.884450
O O8 0.146498 0.259769 0.246924
O O9 0.237871 0.118907 0.091916
O O10 0.000000 0.000000 0.000000
O O11 0.398624 0.055966 0.518531
O O12 0.496856 0.859563 0.776893
O O13 0.375497 0.850140 0.151093
O O14 0.000000 0.000000 0.500000
O O15 0.261303 0.055122 0.851292
#
# Coordination Sequence:
#
# PCOD9053879 Si02
#       7
#     2   2   2   2   2   2   2
#     4  12  22  38  58  91 125 154 189 250 307 348
#     4  11  24  38  60  88 124 154 192 249 305 353
#     4  11  20  38  65  90 113 156 206 243 284 348
#     4   9  17  37  61  87 113 151 199 244 289 346
#     4   9  17  34  63  86 114 147 198 243 293 338
#     4  11  24  41  62  84 114 163 207 243 286 354
#     4   9  19  37  63  85 112 149 203 249 278 342
#
# _framework density 20.430226999999999
#
# number of rings (size 3 to 8) (size 9 to 14) (size 15 to 20)
#    0.857    0.857    1.429    5.143    0.000    1.143 
#    0.000    0.714    3.143    0.000    0.000    0.000 
#    0.000    0.000    0.000    0.000    0.000    0.000 
#
# Total GULP energy -78118.400011 kJ/mol
# GULP energy per Si atom -5579.885715 kJ/mol
# Density = 2.038373 g / cm^3
# Si number density = 20.430227 Si / 1000 Ang^3
#
#
#
# Elastic Constant Matrix: (Units=GPa)
#
#
# Indices 1 2 3 4 5 6 
#
# 1 78.5888 2.2274 28.5760 -10.6703 -3.0798 -1.4835
# 2 2.2274 35.9942 15.1396 -20.7394 -6.3874 -11.4810
# 3 28.5760 15.1396 150.3391 -27.0460 -9.3748 -3.6526
# 4 -10.6703 -20.7394 -27.0460 26.7775 1.3169 9.1843
# 5 -3.0798 -6.3874 -9.3748 1.3169 34.4632 -5.5751
# 6 -1.4835 -11.4810 -3.6526 9.1843 -5.5751 26.6384
#
#
#
# Elastic Compliance Matrix: (Units=1/GPa)
#
#
# Indices 1 2 3 4 5 6 
#
# 1 0.014261 0.004210 -0.001788 0.006992 0.001339 0.000233
# 2 0.004210 0.058281 0.002347 0.044118 0.012238 0.013026
# 3 -0.001788 0.002347 0.008678 0.010089 0.002099 -0.000937
# 4 0.006992 0.044118 0.010089 0.086778 0.006990 -0.007668
# 5 0.001339 0.012238 0.002099 0.006990 0.033360 0.010209
# 6 0.000233 0.013026 -0.000937 -0.007668 0.010209 0.047819
#
#
# Mechanical properties :
#
#
# Convention : Reuss Voigt Hill
#
# Bulk Modulus (GPa) = 11.01803 39.64533 25.33168
# Shear Modulus (GPa) = 18.52601 32.17442 25.35021
#
# Velocity S-wave (km/s) = 3.01457 3.97274 3.52635
# Velocity P-wave (km/s) = 4.18587 6.36324 5.38574
#
# Compressibility (1/GPa) = 0.09076034
#
# Stress axis : x y z
#
# Youngs Moduli (GPa) = 70.11934 17.15815 115.23163
#
# Poissons Ratio (x) = -0.07224 0.20600
# Poissons Ratio (y) = -0.29522 -0.27046
# Poissons Ratio (z) = 0.12535 -0.04027
#
# Static dielectric constant tensor:
#      x y z
#    x 1.754680 -0.044720 0.019410 
#    y -0.044720 1.749030 -0.012180 
#    z 0.019410 -0.012180 1.754080 
# 
# From -- ./inp_files/195288.got.cif
#   From: 2010.05.17/outbox.cif.g08.bks.cpg/sg2_98_cif.got.tgz:195288.got - 2010.06.03 11:33:40.
