data_PCOD9053342
_publ_section_title
;
Structure prediction by ZEFSAII (Michael W. Deem and Ramdas Pophale) SiO2 
 PCOD9053342
Probable space group: P -1
;
_chemical_formula_sum "Si O2"
_cell_formula_units_Z 16
_cell_length_a 15.447371
_cell_length_b 14.420220
_cell_length_c 11.989228
_cell_angle_alpha 30.245694
_cell_angle_beta 64.679692
_cell_angle_gamma 45.163367
_cell_volume 821.714100
_symmetry_space_group_name_H-M "P -1"
_symmetry_group_IT_number 2
_symmetry_cell_setting 'triclinic'
loop_
_space_group_symop_operation_xyz
x,y,z
-x,-y,-z
loop_
_atom_site_type_symbol
_atom_site_label
_atom_site_fract_x
_atom_site_fract_y
_atom_site_fract_z
Si Si1 0.312842 0.545871 0.620433
Si Si2 0.589456 0.098438 0.052176
Si Si3 0.754853 0.941447 0.910467
Si Si4 0.852212 0.306495 0.233398
Si Si5 0.050630 0.450738 0.150234
Si Si6 0.591332 0.407281 0.890102
Si Si7 0.278962 0.811630 0.728425
Si Si8 0.465625 0.229920 0.645114
O O1 0.458984 0.390983 0.762515
O O2 0.222861 0.558038 0.746349
O O3 0.364583 0.367300 0.667328
O O4 0.240028 0.843310 0.325480
O O5 0.611217 0.168991 0.083552
O O6 0.716593 0.942574 0.056879
O O7 0.540870 0.955509 0.222353
O O8 0.623183 0.058717 0.782315
O O9 0.907296 0.651720 0.091724
O O10 0.762244 0.289428 0.229698
O O11 0.875612 0.454382 0.993884
O O12 0.000000 0.000000 0.500000
O O13 0.161425 0.136352 0.447531
O O14 0.000000 0.500000 0.000000
O O15 0.433542 0.661999 0.760582
O O16 0.598504 0.527676 0.654071
O O17 0.700644 0.287796 0.053508
#
# Coordination Sequence:
#
# PCOD9053342 Si02
#       8
#     2   2   2   2   2   2   2   2
#     4  11  19  37  62  96 130 157 205 266 312 360
#     4  11  22  36  65  93 125 164 210 264 305 365
#     4  11  20  38  60  96 131 160 207 262 314 361
#     4  12  23  39  62  97 127 161 205 258 315 367
#     4  12  25  38  64  93 129 164 204 255 315 376
#     4  11  23  45  63  90 131 165 212 254 312 371
#     4  11  26  43  65  91 127 172 206 257 310 381
#     4  11  22  36  66  96 124 164 205 263 317 362
#
# _framework density 19.471492000000001
#
# number of rings (size 3 to 8) (size 9 to 14) (size 15 to 20)
#    0.000    0.750    6.250    3.000    5.250    1.000 
#    0.000    3.125    0.000    3.750    0.000    0.000 
#    0.000    0.000    0.000    0.000    0.000    0.000 
#
# Total GULP energy -89377.129524 kJ/mol
# GULP energy per Si atom -5586.070595 kJ/mol
# Density = 1.942717 g / cm^3
# Si number density = 19.471492 Si / 1000 Ang^3
#
#
#
# Elastic Constant Matrix: (Units=GPa)
#
#
# Indices 1 2 3 4 5 6 
#
# 1 46.5628 7.3594 37.4149 -4.0204 -6.1775 6.7882
# 2 7.3594 118.8592 33.0318 -16.3980 5.2974 -9.1678
# 3 37.4149 33.0318 90.0935 -11.5033 0.1386 0.1238
# 4 -4.0204 -16.3980 -11.5033 29.1768 5.2693 1.1429
# 5 -6.1775 5.2974 0.1386 5.2693 31.3690 1.3580
# 6 6.7882 -9.1678 0.1238 1.1429 1.3580 24.8712
#
#
#
# Elastic Compliance Matrix: (Units=1/GPa)
#
#
# Indices 1 2 3 4 5 6 
#
# 1 0.036128 0.000719 -0.015488 -0.001743 0.007781 -0.009863
# 2 0.000719 0.010404 -0.003489 0.004896 -0.002577 0.003572
# 3 -0.015488 -0.003489 0.019325 0.004017 -0.003344 0.002843
# 4 -0.001743 0.004896 0.004017 0.039763 -0.007904 0.000865
# 5 0.007781 -0.002577 -0.003344 -0.007904 0.035389 -0.004626
# 6 -0.009863 0.003572 0.002843 0.000865 -0.004626 0.044414
#
#
# Mechanical properties :
#
#
# Convention : Reuss Voigt Hill
#
# Bulk Modulus (GPa) = 34.08181 45.68084 39.88132
# Shear Modulus (GPa) = 21.57781 28.93070 25.25426
#
# Velocity S-wave (km/s) = 3.33254 3.85879 3.60528
# Velocity P-wave (km/s) = 5.68763 6.58521 6.15281
#
# Compressibility (1/GPa) = 0.02934117
#
# Stress axis : x y z
#
# Youngs Moduli (GPa) = 27.67952 96.11407 51.74649
#
# Poissons Ratio (x) = -0.06914 0.80146
# Poissons Ratio (y) = -0.01991 0.18055
# Poissons Ratio (z) = 0.42871 0.33535
#
# Static dielectric constant tensor:
#      x y z
#    x 1.722290 -0.007510 -0.049360 
#    y -0.007510 1.744590 0.018130 
#    z -0.049360 0.018130 1.685800 
# 
# From -- ./inp_files/433247.got.cif
#   From: 2010.05.17/outbox.cif.g08.bks.cpg/sg2_217_cif.got.tgz:433247.got - 2010.06.03 11:33:40.
