data_PCOD9053792
_publ_section_title
;
Structure prediction by ZEFSAII (Michael W. Deem and Ramdas Pophale) SiO2 
 PCOD9053792
Probable space group: P -1
;
_chemical_formula_sum "Si O2"
_cell_formula_units_Z 16
_cell_length_a 21.523997
_cell_length_b 11.622075
_cell_length_c 12.739365
_cell_angle_alpha 34.064515
_cell_angle_beta 154.787709
_cell_angle_gamma 139.086725
_cell_volume 760.108111
_symmetry_space_group_name_H-M "P -1"
_symmetry_group_IT_number 2
_symmetry_cell_setting 'triclinic'
loop_
_space_group_symop_operation_xyz
x,y,z
-x,-y,-z
loop_
_atom_site_type_symbol
_atom_site_label
_atom_site_fract_x
_atom_site_fract_y
_atom_site_fract_z
Si Si1 0.911714 0.756176 0.151833
Si Si2 0.572092 0.007402 0.720673
Si Si3 0.671681 0.446275 0.122121
Si Si4 0.939614 0.387099 0.325664
Si Si5 0.664414 0.573057 0.671527
Si Si6 0.339602 0.535540 0.487542
Si Si7 0.698301 0.996836 0.527644
Si Si8 0.775553 0.620398 0.358388
O O1 0.773967 0.619173 0.091877
O O2 0.973936 0.606985 0.270419
O O3 0.022951 0.776002 0.403165
O O4 0.842749 0.958021 0.847036
O O5 0.500000 0.000000 0.500000
O O6 0.662162 0.219790 0.711129
O O7 0.442098 0.002252 0.611095
O O8 0.680364 0.821729 0.043904
O O9 0.702770 0.462759 0.281555
O O10 0.702286 0.214337 0.311982
O O11 0.505869 0.491502 0.808569
O O12 0.057034 0.353085 0.440490
O O13 0.777309 0.415772 0.015072
O O14 0.500000 0.500000 0.500000
O O15 0.690403 0.570503 0.589133
O O16 0.687724 0.797991 0.587324
O O17 0.240073 0.456967 0.489414
#
# Coordination Sequence:
#
# PCOD9053792 Si02
#       8
#     2   2   2   2   2   2   2   2
#     4   9  18  39  63  89 123 158 200 263 307 344
#     4  12  20  36  63  92 125 160 204 250 305 358
#     4  11  20  37  63  98 123 151 207 258 304 358
#     4   9  20  40  62  85 124 164 200 251 312 362
#     4  11  23  43  65  87 120 166 213 252 303 370
#     4  12  22  37  62  90 129 168 199 252 304 361
#     4  11  21  37  64  97 120 155 210 254 302 362
#     4  11  23  38  59  95 129 157 203 257 307 367
#
# _framework density 21.049638000000002
#
# number of rings (size 3 to 8) (size 9 to 14) (size 15 to 20)
#    0.000    1.250    5.000    2.625    0.000    1.000 
#    0.000   18.750    0.000    0.000    0.000    0.000 
#    0.000    0.000    0.000    0.000    0.000    0.000 
#
# Total GULP energy -89472.209929 kJ/mol
# GULP energy per Si atom -5592.013121 kJ/mol
# Density = 2.100173 g / cm^3
# Si number density = 21.049638 Si / 1000 Ang^3
#
#
#
# Elastic Constant Matrix: (Units=GPa)
#
#
# Indices 1 2 3 4 5 6 
#
# 1 137.7419 25.9432 23.5605 9.9244 8.9106 -12.0546
# 2 25.9432 60.2730 24.3339 -7.1808 -0.2461 -10.8381
# 3 23.5605 24.3339 94.3986 10.2838 23.9453 -0.7940
# 4 9.9244 -7.1808 10.2838 33.6021 -5.0774 -1.7239
# 5 8.9106 -0.2461 23.9453 -5.0774 32.7295 3.0936
# 6 -12.0546 -10.8381 -0.7940 -1.7239 3.0936 25.6690
#
#
#
# Elastic Compliance Matrix: (Units=1/GPa)
#
#
# Indices 1 2 3 4 5 6 
#
# 1 0.008664 -0.003735 0.000055 -0.003730 -0.003255 0.002635
# 2 -0.003735 0.024390 -0.008563 0.010608 0.008356 0.007984
# 3 0.000055 -0.008563 0.017355 -0.009381 -0.014043 -0.001991
# 4 -0.003730 0.010608 -0.009381 0.038223 0.013570 0.003369
# 5 -0.003255 0.008356 -0.014043 0.013570 0.044151 -0.002844
# 6 0.002635 0.007984 -0.001991 0.003369 -0.002844 0.044074
#
#
# Mechanical properties :
#
#
# Convention : Reuss Voigt Hill
#
# Bulk Modulus (GPa) = 38.57860 48.89874 43.73867
# Shear Modulus (GPa) = 23.81138 32.97184 28.39161
#
# Velocity S-wave (km/s) = 3.36698 3.96205 3.67658
# Velocity P-wave (km/s) = 5.78642 6.64914 6.23273
#
# Compressibility (1/GPa) = 0.02592111
#
# Stress axis : x y z
#
# Youngs Moduli (GPa) = 115.41925 41.00089 57.62145
#
# Poissons Ratio (x) = 0.15315 -0.00314
# Poissons Ratio (y) = 0.43111 0.49341
# Poissons Ratio (z) = -0.00629 0.35109
#
# Static dielectric constant tensor:
#      x y z
#    x 1.791160 0.010830 0.001430 
#    y 0.010830 1.750860 0.008430 
#    z 0.001430 0.008430 1.769630 
# 
# From -- ./inp_files/470633.got.cif
#   From: 2010.05.17/outbox.cif.g08.bks.cpg/sg2_236_cif.got.tgz:470633.got - 2010.06.03 11:33:40.
