data_PCOD9053940
_publ_section_title
;
Structure prediction by ZEFSAII (Michael W. Deem and Ramdas Pophale) SiO2 
 PCOD9053940
Probable space group: P -1
;
_chemical_formula_sum "Si O2"
_cell_formula_units_Z 14
_cell_length_a 13.977140
_cell_length_b 21.339986
_cell_length_c 9.538841
_cell_angle_alpha 36.012525
_cell_angle_beta 148.562634
_cell_angle_gamma 158.349307
_cell_volume 545.631295
_symmetry_space_group_name_H-M "P -1"
_symmetry_group_IT_number 2
_symmetry_cell_setting 'triclinic'
loop_
_space_group_symop_operation_xyz
x,y,z
-x,-y,-z
loop_
_atom_site_type_symbol
_atom_site_label
_atom_site_fract_x
_atom_site_fract_y
_atom_site_fract_z
Si Si1 0.643171 0.162371 0.301186
Si Si2 0.515708 0.362597 0.672584
Si Si3 0.939923 0.467466 0.791858
Si Si4 0.113957 0.168493 0.279892
Si Si5 0.524676 0.025420 0.819833
Si Si6 0.278399 0.179117 0.950164
Si Si7 0.462195 0.722001 0.624795
O O1 0.932959 0.353277 0.370645
O O2 0.408255 0.150452 0.054495
O O3 0.500000 0.000000 0.500000
O O4 0.690800 0.138030 0.251671
O O5 0.319665 0.320591 0.375950
O O6 0.670188 0.346019 0.784468
O O7 0.807916 0.495683 0.898062
O O8 0.270373 0.265953 0.666336
O O9 0.821472 0.400625 0.607799
O O10 0.293981 0.223297 0.266153
O O11 0.000000 0.000000 0.500000
O O12 0.838758 0.119719 0.997748
O O13 0.477488 0.126677 0.545254
O O14 0.500000 0.000000 0.000000
O O15 0.502430 0.309042 0.119860
O O16 0.000000 0.000000 0.000000
#
# Coordination Sequence:
#
# PCOD9053940 Si02
#       7
#     2   2   2   2   2   2   2
#     4  11  23  43  65  98 135 172 221 290 335 398
#     4   9  20  36  65  92 127 179 216 270 336 395
#     4   9  21  41  68  95 132 181 226 272 352 396
#     4  11  20  39  63  95 136 174 226 281 333 397
#     4  12  25  39  67 101 131 177 235 280 330 409
#     4  11  22  39  67  99 132 178 224 274 339 401
#     4  11  23  41  67  99 132 180 226 279 337 409
#
# _framework density 25.658349999999999
#
# number of rings (size 3 to 8) (size 9 to 14) (size 15 to 20)
#    0.000    1.429    2.857    3.429    6.000    2.286 
#    0.000    0.714   12.571    4.286    0.000    0.000 
#    0.000    0.000    0.000    0.000    0.000    0.000 
#
# Total GULP energy -77937.046280 kJ/mol
# GULP energy per Si atom -5566.931877 kJ/mol
# Density = 2.559995 g / cm^3
# Si number density = 25.658350 Si / 1000 Ang^3
#
#
#
# Elastic Constant Matrix: (Units=GPa)
#
#
# Indices 1 2 3 4 5 6 
#
# 1 171.1172 41.9431 44.6625 9.0418 -24.2463 -6.6232
# 2 41.9431 102.2070 22.5498 12.4742 -9.1425 -10.8999
# 3 44.6625 22.5498 75.4798 11.9844 -2.5972 -11.0007
# 4 9.0418 12.4742 11.9844 30.9224 6.3326 -7.6365
# 5 -24.2463 -9.1425 -2.5972 6.3326 46.1305 15.3455
# 6 -6.6232 -10.8999 -11.0007 -7.6365 15.3455 48.8875
#
#
#
# Elastic Compliance Matrix: (Units=1/GPa)
#
#
# Indices 1 2 3 4 5 6 
#
# 1 0.008019 -0.002045 -0.004047 -0.001308 0.004380 -0.001859
# 2 -0.002045 0.011608 -0.001507 -0.003511 0.001283 0.001021
# 3 -0.004047 -0.001507 0.017046 -0.003675 -0.001957 0.002991
# 4 -0.001308 -0.003511 -0.003675 0.039295 -0.009415 0.007306
# 5 0.004380 0.001283 -0.001957 -0.009415 0.028763 -0.010060
# 6 -0.001859 0.001021 0.002991 0.007306 -0.010060 0.025403
#
#
# Mechanical properties :
#
#
# Convention : Reuss Voigt Hill
#
# Bulk Modulus (GPa) = 46.56691 63.01276 54.78983
# Shear Modulus (GPa) = 32.78914 41.16467 36.97690
#
# Velocity S-wave (km/s) = 3.57867 4.00976 3.80033
# Velocity P-wave (km/s) = 5.93836 6.78596 6.37626
#
# Compressibility (1/GPa) = 0.02147448
#
# Stress axis : x y z
#
# Youngs Moduli (GPa) = 124.70190 86.14724 58.66588
#
# Poissons Ratio (x) = 0.17616 0.23741
# Poissons Ratio (y) = 0.25501 0.08844
# Poissons Ratio (z) = 0.50464 0.12987
#
# Static dielectric constant tensor:
#      x y z
#    x 1.991370 0.080830 -0.031620 
#    y 0.080830 2.187940 0.022590 
#    z -0.031620 0.022590 2.062030 
# 
# From -- ./inp_files/279141.got.cif
#   From: 2010.05.17/outbox.cif.g08.bks.cpg/sg2_140_cif.got.tgz:279141.got - 2010.06.03 11:33:40.
