data_PCOD9053430
_publ_section_title
;
Structure prediction by ZEFSAII (Michael W. Deem and Ramdas Pophale) SiO2 
 PCOD9053430
Probable space group: P -1
;
_chemical_formula_sum "Si O2"
_cell_formula_units_Z 16
_cell_length_a 9.138068
_cell_length_b 10.921870
_cell_length_c 12.136052
_cell_angle_alpha 52.022833
_cell_angle_beta 45.781663
_cell_angle_gamma 64.382520
_cell_volume 684.256393
_symmetry_space_group_name_H-M "P -1"
_symmetry_group_IT_number 2
_symmetry_cell_setting 'triclinic'
loop_
_space_group_symop_operation_xyz
x,y,z
-x,-y,-z
loop_
_atom_site_type_symbol
_atom_site_label
_atom_site_fract_x
_atom_site_fract_y
_atom_site_fract_z
Si Si1 0.004009 0.335646 0.653156
Si Si2 0.679704 0.914116 0.729033
Si Si3 0.395975 0.894994 0.705422
Si Si4 0.545132 0.638892 0.627668
Si Si5 0.586793 0.570557 0.029436
Si Si6 0.719777 0.448413 0.367621
Si Si7 0.929060 0.331668 0.946862
Si Si8 0.085937 0.817141 0.436576
O O1 0.245681 0.311012 0.564072
O O2 0.000000 0.500000 0.500000
O O3 0.898679 0.329504 0.830648
O O4 0.935919 0.214769 0.663455
O O5 0.478583 0.959367 0.740557
O O6 0.630260 0.750852 0.900555
O O7 0.869888 0.877140 0.566771
O O8 0.751877 0.050710 0.693819
O O9 0.515480 0.735921 0.700887
O O10 0.500000 0.000000 0.500000
O O11 0.164099 0.831023 0.869138
O O12 0.348663 0.653969 0.644791
O O13 0.549851 0.466171 0.771179
O O14 0.796375 0.474090 0.986748
O O15 0.500000 0.500000 0.000000
O O16 0.500000 0.500000 0.500000
O O17 0.845754 0.340263 0.446467
O O18 0.844634 0.603943 0.187222
#
# Coordination Sequence:
#
# PCOD9053430 Si02
#       8
#     2   2   2   2   2   2   2   2
#     4  12  20  40  69  97 128 178 226 271 339 415
#     4  11  21  41  68  98 139 170 232 292 337 403
#     4  11  24  44  67  96 135 180 225 283 347 402
#     4  11  23  38  68  94 134 171 226 279 335 398
#     4  11  19  39  69 101 124 171 237 284 327 409
#     4  12  23  42  63 104 141 176 225 286 334 412
#     4  11  23  39  71  98 132 178 232 278 341 412
#     4  11  23  39  69 100 136 181 224 283 350 399
#
# _framework density 23.383049
#
# number of rings (size 3 to 8) (size 9 to 14) (size 15 to 20)
#    0.000    0.750    7.500    1.500    0.000    2.000 
#    4.500    1.250    2.750    0.000    0.000    0.000 
#    0.000    0.000    0.000    0.000    0.000    0.000 
#
# Total GULP energy -89312.221379 kJ/mol
# GULP energy per Si atom -5582.013836 kJ/mol
# Density = 2.332983 g / cm^3
# Si number density = 23.383049 Si / 1000 Ang^3
#
#
#
# Elastic Constant Matrix: (Units=GPa)
#
#
# Indices 1 2 3 4 5 6 
#
# 1 108.5015 17.4687 35.7063 -11.1243 -24.3905 31.1908
# 2 17.4687 49.3661 27.5956 -4.9908 -7.9245 27.3453
# 3 35.7063 27.5956 140.4674 -23.4876 -21.2218 13.3709
# 4 -11.1243 -4.9908 -23.4876 41.8625 6.3622 -10.1390
# 5 -24.3905 -7.9245 -21.2218 6.3622 45.2800 -3.1387
# 6 31.1908 27.3453 13.3709 -10.1390 -3.1387 38.5583
#
#
#
# Elastic Compliance Matrix: (Units=1/GPa)
#
#
# Indices 1 2 3 4 5 6 
#
# 1 0.014846 0.005313 -0.002629 -0.001504 0.006887 -0.014700
# 2 0.005313 0.039444 -0.006272 -0.005787 0.005477 -0.031172
# 3 -0.002629 -0.006272 0.009635 0.004833 0.001644 0.004639
# 4 -0.001504 -0.005787 0.004833 0.028586 -0.002816 0.010932
# 5 0.006887 0.005477 0.001644 -0.002816 0.027327 -0.008542
# 6 -0.014700 -0.031172 0.004639 0.010932 -0.008542 0.060504
#
#
# Mechanical properties :
#
#
# Convention : Reuss Voigt Hill
#
# Bulk Modulus (GPa) = 17.62209 51.09736 34.35972
# Shear Modulus (GPa) = 24.22064 39.64446 31.93255
#
# Velocity S-wave (km/s) = 3.22191 4.12203 3.69945
# Velocity P-wave (km/s) = 4.62532 6.67493 5.74231
#
# Compressibility (1/GPa) = 0.05674697
#
# Stress axis : x y z
#
# Youngs Moduli (GPa) = 67.35762 25.35209 103.79257
#
# Poissons Ratio (x) = -0.13468 0.27289
# Poissons Ratio (y) = -0.35784 0.65103
# Poissons Ratio (z) = 0.17710 0.15902
#
# Static dielectric constant tensor:
#      x y z
#    x 1.956690 -0.005910 -0.010840 
#    y -0.005910 1.950990 -0.025430 
#    z -0.010840 -0.025430 2.005750 
# 
# From -- ./inp_files/391962.got.cif
#   From: 2010.05.17/outbox.cif.g08.bks.cpg/sg2_196_cif.got.tgz:391962.got - 2010.06.03 11:33:40.
