data_PCOD9053948
_publ_section_title
;
Structure prediction by ZEFSAII (Michael W. Deem and Ramdas Pophale) SiO2 
 PCOD9053948
Probable space group: P -1
;
_chemical_formula_sum "Si O2"
_cell_formula_units_Z 14
_cell_length_a 15.627586
_cell_length_b 14.902460
_cell_length_c 17.994912
_cell_angle_alpha 22.474237
_cell_angle_beta 157.221164
_cell_angle_gamma 150.265751
_cell_volume 616.463402
_symmetry_space_group_name_H-M "P -1"
_symmetry_group_IT_number 2
_symmetry_cell_setting 'triclinic'
loop_
_space_group_symop_operation_xyz
x,y,z
-x,-y,-z
loop_
_atom_site_type_symbol
_atom_site_label
_atom_site_fract_x
_atom_site_fract_y
_atom_site_fract_z
Si Si1 0.166287 0.223014 0.937154
Si Si2 0.873777 0.485538 0.827858
Si Si3 0.221341 0.680270 0.845258
Si Si4 0.548180 0.885831 0.207392
Si Si5 0.966775 0.279580 0.487077
Si Si6 0.368044 0.826262 0.584047
Si Si7 0.680092 0.613529 0.210989
O O1 0.091035 0.459112 0.733511
O O2 0.200928 0.200619 0.893679
O O3 0.424951 0.244929 0.149645
O O4 0.000000 0.000000 0.000000
O O5 0.727863 0.695424 0.519094
O O6 0.074279 0.499811 0.918152
O O7 0.000000 0.500000 0.000000
O O8 0.691976 0.256127 0.856132
O O9 0.417400 0.575368 0.037404
O O10 0.344280 0.893185 0.827667
O O11 0.073439 0.772592 0.590553
O O12 0.500000 0.000000 0.000000
O O13 0.808527 0.110829 0.544240
O O14 0.222188 0.305690 0.693719
O O15 0.254546 0.624379 0.593020
O O16 0.500000 0.000000 0.500000
#
# Coordination Sequence:
#
# PCOD9053948 Si02
#       7
#     2   2   2   2   2   2   2
#     4  11  20  39  64  87 132 182 226 270 337 402
#     4  11  26  49  77 106 140 186 237 286 368 453
#     4  12  25  45  70 103 141 173 233 303 347 419
#     4  11  26  49  78 106 138 189 235 286 375 442
#     4  11  23  41  62  94 133 176 226 283 338 397
#     4  11  20  41  60  90 133 184 225 273 340 407
#     4  11  23  41  62  95 132 175 226 281 337 400
#
# _framework density 22.710187999999999
#
# number of rings (size 3 to 8) (size 9 to 14) (size 15 to 20)
#    0.000    0.857    4.286    4.714    2.000    1.143 
#    7.714    0.000    0.000    0.000    0.000    0.000 
#    0.000    0.000    0.000    0.000    0.000    0.000 
#
# Total GULP energy -77940.877373 kJ/mol
# GULP energy per Si atom -5567.205527 kJ/mol
# Density = 2.265850 g / cm^3
# Si number density = 22.710188 Si / 1000 Ang^3
#
#
#
# Elastic Constant Matrix: (Units=GPa)
#
#
# Indices 1 2 3 4 5 6 
#
# 1 103.0110 58.1266 33.3296 -2.1193 -34.4887 27.8197
# 2 58.1266 138.1700 42.1228 21.3607 -25.7565 20.3706
# 3 33.3296 42.1228 95.5563 26.5076 -24.1122 -0.5850
# 4 -2.1193 21.3607 26.5076 46.7495 -5.2128 -14.1808
# 5 -34.4887 -25.7565 -24.1122 -5.2128 44.9285 6.5716
# 6 27.8197 20.3706 -0.5850 -14.1808 6.5716 53.4385
#
#
#
# Elastic Compliance Matrix: (Units=1/GPa)
#
#
# Indices 1 2 3 4 5 6 
#
# 1 0.020089 -0.004138 -0.002646 0.002820 0.013390 -0.009808
# 2 -0.004138 0.011294 -0.001421 -0.005455 0.002475 -0.003918
# 3 -0.002646 -0.001421 0.015330 -0.007821 0.004554 -0.000548
# 4 0.002820 -0.005455 -0.007821 0.030875 -0.002905 0.009076
# 5 0.013390 0.002475 0.004554 -0.002905 0.038009 -0.013310
# 6 -0.009808 -0.003918 -0.000548 0.009076 -0.013310 0.029352
#
#
# Mechanical properties :
#
#
# Convention : Reuss Voigt Hill
#
# Bulk Modulus (GPa) = 33.00199 67.09946 50.05072
# Shear Modulus (GPa) = 29.16109 42.56720 35.86414
#
# Velocity S-wave (km/s) = 3.58726 4.33409 3.97824
# Velocity P-wave (km/s) = 5.63216 7.39296 6.57180
#
# Compressibility (1/GPa) = 0.03030121
#
# Stress axis : x y z
#
# Youngs Moduli (GPa) = 49.77850 88.54120 65.23163
#
# Poissons Ratio (x) = 0.36642 0.17262
# Poissons Ratio (y) = 0.20600 0.09272
# Poissons Ratio (z) = 0.13172 0.12586
#
# Static dielectric constant tensor:
#      x y z
#    x 1.915990 0.014360 -0.160420 
#    y 0.014360 1.809250 -0.059320 
#    z -0.160420 -0.059320 2.318610 
# 
# From -- ./inp_files/529946.got.cif
#   From: 2010.05.17/outbox.cif.g08.bks.cpg/sg2_265_cif.got.tgz:529946.got - 2010.06.03 11:33:40.
