data_PCOD9053573
_publ_section_title
;
Structure prediction by ZEFSAII (Michael W. Deem and Ramdas Pophale) SiO2 
 PCOD9053573
Probable space group: P -1
;
_chemical_formula_sum "Si O2"
_cell_formula_units_Z 14
_cell_length_a 9.542233
_cell_length_b 7.631872
_cell_length_c 18.163934
_cell_angle_alpha 126.324275
_cell_angle_beta 35.819538
_cell_angle_gamma 108.665905
_cell_volume 586.572443
_symmetry_space_group_name_H-M "P -1"
_symmetry_group_IT_number 2
_symmetry_cell_setting 'triclinic'
loop_
_space_group_symop_operation_xyz
x,y,z
-x,-y,-z
loop_
_atom_site_type_symbol
_atom_site_label
_atom_site_fract_x
_atom_site_fract_y
_atom_site_fract_z
Si Si1 0.728634 0.696069 0.649000
Si Si2 0.053553 0.541261 0.122846
Si Si3 0.193353 0.255119 0.128870
Si Si4 0.492033 0.741824 0.442945
Si Si5 0.975028 0.983306 0.370882
Si Si6 0.635380 0.265800 0.051030
Si Si7 0.284183 0.314253 0.513183
O O1 0.536000 0.681795 0.790308
O O2 0.624146 0.687628 0.609251
O O3 0.000000 0.500000 0.500000
O O4 0.791784 0.934966 0.687293
O O5 0.753935 0.580765 0.253903
O O6 0.183933 0.319463 0.062819
O O7 0.054854 0.763855 0.227241
O O8 0.207073 0.566555 0.992290
O O9 0.440905 0.274024 0.068955
O O10 0.954208 0.452797 0.314952
O O11 0.185663 0.001260 0.083725
O O12 0.228853 0.794402 0.526405
O O13 0.519232 0.698056 0.507809
O O14 0.500000 0.000000 0.500000
O O15 0.831787 0.892838 0.473993
#
# Coordination Sequence:
#
# PCOD9053573 Si02
#       7
#     2   2   2   2   2   2   2
#     4  12  23  34  50  86 122 141 178 228 292 331
#     4   9  18  33  59  83 105 143 195 230 273 320
#     4   9  18  33  53  82 109 146 189 229 271 330
#     4   7  15  34  62  82 101 142 197 229 266 325
#     4   9  18  36  62  81 106 150 186 235 273 325
#     4  11  20  32  53  81 119 145 179 233 279 331
#     4   9  18  36  57  84 107 143 189 230 274 335
#
# _framework density 23.867470999999998
#
# number of rings (size 3 to 8) (size 9 to 14) (size 15 to 20)
#    0.000    3.143    1.429    2.571    0.000    1.143 
#    2.571    0.714    9.429    9.429    0.000    1.000 
#    0.000    0.000    0.000    0.000    0.000    0.000 
#
# Total GULP energy -78238.094948 kJ/mol
# GULP energy per Si atom -5588.435353 kJ/mol
# Density = 2.381315 g / cm^3
# Si number density = 23.867471 Si / 1000 Ang^3
#
#
#
# Elastic Constant Matrix: (Units=GPa)
#
#
# Indices 1 2 3 4 5 6 
#
# 1 75.4707 38.6184 36.2585 -6.4003 -12.9951 -9.5421
# 2 38.6184 142.9624 24.1654 -14.8285 -11.6394 -27.7952
# 3 36.2585 24.1654 52.2646 2.7225 -18.3202 -21.0710
# 4 -6.4003 -14.8285 2.7225 42.7233 -13.9486 3.4021
# 5 -12.9951 -11.6394 -18.3202 -13.9486 25.0651 6.4907
# 6 -9.5421 -27.7952 -21.0710 3.4021 6.4907 44.0213
#
#
#
# Elastic Compliance Matrix: (Units=1/GPa)
#
#
# Indices 1 2 3 4 5 6 
#
# 1 0.022922 -0.004015 -0.015774 0.004283 0.002375 -0.005798
# 2 -0.004015 0.009485 0.001751 0.003576 0.004285 0.005048
# 3 -0.015774 0.001751 0.042313 0.000976 0.020252 0.014879
# 4 0.004283 0.003576 0.000976 0.033142 0.023658 -0.002396
# 5 0.002375 0.004285 0.020252 0.023658 0.070923 0.000629
# 6 -0.005798 0.005048 0.014879 -0.002396 0.000629 0.031861
#
#
# Mechanical properties :
#
#
# Convention : Reuss Voigt Hill
#
# Bulk Modulus (GPa) = 25.87658 52.08694 38.98176
# Shear Modulus (GPa) = 19.26018 33.80564 26.53291
#
# Velocity S-wave (km/s) = 2.84379 3.76758 3.33780
# Velocity P-wave (km/s) = 4.65276 6.38725 5.58772
#
# Compressibility (1/GPa) = 0.03864498
#
# Stress axis : x y z
#
# Youngs Moduli (GPa) = 43.62606 105.43168 23.63322
#
# Poissons Ratio (x) = 0.42334 0.37278
# Poissons Ratio (y) = 0.17517 -0.04139
# Poissons Ratio (z) = 0.68814 -0.18465
#
# Static dielectric constant tensor:
#      x y z
#    x 1.966430 0.025180 0.015700 
#    y 0.025180 2.009730 -0.020560 
#    z 0.015700 -0.020560 1.901050 
# 
# From -- ./inp_files/609653.got.cif
#   From: 2010.05.17/outbox.cif.g08.bks.cpg/sg2_305_cif.got.tgz:609653.got - 2010.06.03 11:33:40.
