data_PCOD9053795
_publ_section_title
;
Structure prediction by ZEFSAII (Michael W. Deem and Ramdas Pophale) SiO2 
 PCOD9053795
Probable space group: P -1
;
_chemical_formula_sum "Si O2"
_cell_formula_units_Z 12
_cell_length_a 9.187975
_cell_length_b 10.733775
_cell_length_c 14.708514
_cell_angle_alpha 151.044060
_cell_angle_beta 49.976194
_cell_angle_gamma 114.932645
_cell_volume 497.281238
_symmetry_space_group_name_H-M "P -1"
_symmetry_group_IT_number 2
_symmetry_cell_setting 'triclinic'
loop_
_space_group_symop_operation_xyz
x,y,z
-x,-y,-z
loop_
_atom_site_type_symbol
_atom_site_label
_atom_site_fract_x
_atom_site_fract_y
_atom_site_fract_z
Si Si1 0.307705 0.505198 0.496713
Si Si2 0.358861 0.992632 0.967139
Si Si3 0.918200 0.470770 0.685077
Si Si4 0.948385 0.906530 0.083283
Si Si5 0.541594 0.207728 0.524191
Si Si6 0.396450 0.749050 0.272296
O O1 0.484609 0.255835 0.318170
O O2 0.121600 0.392682 0.491921
O O3 0.442506 0.546556 0.385528
O O4 0.263862 0.285065 0.139016
O O5 0.166826 0.834463 0.775285
O O6 0.500000 0.000000 0.000000
O O7 0.827482 0.249336 0.613110
O O8 0.836562 0.076924 0.969669
O O9 0.969072 0.618286 0.846675
O O10 0.780581 0.988214 0.282805
O O11 0.487114 0.302111 0.709352
O O12 0.410223 0.043089 0.428774
O O13 0.500000 0.500000 0.000000
#
# Coordination Sequence:
#
# PCOD9053795 Si02
#       6
#     2   2   2   2   2   2
#     4   9  20  38  61  90 121 158 198 259 305 358
#     4  11  22  34  61  96 125 158 204 258 314 363
#     4  11  22  38  66  93 122 161 209 254 310 369
#     4   9  21  38  59  92 122 161 202 251 309 365
#     4   9  21  38  62  89 123 163 206 252 311 366
#     4  11  20  37  64  89 118 169 210 246 306 376
#
# _framework density 24.131214
#
# number of rings (size 3 to 8) (size 9 to 14) (size 15 to 20)
#    1.000    1.000    1.667    3.000    2.333    4.667 
#    0.000    0.000    3.667    5.000    0.000    0.000 
#    0.000    0.000    0.000    0.000    0.000    0.000 
#
# Total GULP energy -66824.596163 kJ/mol
# GULP energy per Si atom -5568.716347 kJ/mol
# Density = 2.407629 g / cm^3
# Si number density = 24.131214 Si / 1000 Ang^3
#
#
#
# Elastic Constant Matrix: (Units=GPa)
#
#
# Indices 1 2 3 4 5 6 
#
# 1 123.3911 43.3875 47.4102 4.8242 -11.4796 29.5606
# 2 43.3875 160.9194 43.5912 7.6164 7.7669 48.2959
# 3 47.4102 43.5912 115.9365 6.7361 17.9038 12.9886
# 4 4.8242 7.6164 6.7361 29.3747 4.1242 17.8248
# 5 -11.4796 7.7669 17.9038 4.1242 50.7160 2.8967
# 6 29.5606 48.2959 12.9886 17.8248 2.8967 38.0375
#
#
#
# Elastic Compliance Matrix: (Units=1/GPa)
#
#
# Indices 1 2 3 4 5 6 
#
# 1 0.013181 0.001473 -0.005562 0.006228 0.004987 -0.013513
# 2 0.001473 0.012362 -0.003564 0.009564 0.000069 -0.020111
# 3 -0.005562 -0.003564 0.012506 -0.004642 -0.005159 0.007145
# 4 0.006228 0.009564 -0.004642 0.057307 -0.000666 -0.042202
# 5 0.004987 0.000069 -0.005159 -0.000666 0.022919 -0.003635
# 6 -0.013513 -0.020111 0.007145 -0.042202 -0.003635 0.079940
#
#
# Mechanical properties :
#
#
# Convention : Reuss Voigt Hill
#
# Bulk Modulus (GPa) = 43.96884 74.33610 59.15247
# Shear Modulus (GPa) = 22.61399 41.34951 31.98175
#
# Velocity S-wave (km/s) = 3.06457 4.14397 3.64445
# Velocity P-wave (km/s) = 5.54819 7.33270 6.50196
#
# Compressibility (1/GPa) = 0.02274338
#
# Stress axis : x y z
#
# Youngs Moduli (GPa) = 75.86529 80.89040 79.96335
#
# Poissons Ratio (x) = -0.11914 0.44477
# Poissons Ratio (y) = -0.11174 0.28497
# Poissons Ratio (z) = 0.42197 0.28827
#
# Static dielectric constant tensor:
#      x y z
#    x 1.968590 0.004140 0.120250 
#    y 0.004140 1.986350 -0.017030 
#    z 0.120250 -0.017030 2.233150 
# 
# From -- ./inp_files/221608.got.cif
#   From: 2010.05.17/outbox.cif.g08.bks.cpg/sg2_111_cif.got.tgz:221608.got - 2010.06.03 11:33:40.
