data_PCOD9053286
_publ_section_title
;
Structure prediction by ZEFSAII (Michael W. Deem and Ramdas Pophale) SiO2 
 PCOD9053286
Probable space group: P -1
;
_chemical_formula_sum "Si O2"
_cell_formula_units_Z 16
_cell_length_a 23.718748
_cell_length_b 19.566224
_cell_length_c 9.723010
_cell_angle_alpha 142.627906
_cell_angle_beta 34.868681
_cell_angle_gamma 162.550635
_cell_volume 771.652062
_symmetry_space_group_name_H-M "P -1"
_symmetry_group_IT_number 2
_symmetry_cell_setting 'triclinic'
loop_
_space_group_symop_operation_xyz
x,y,z
-x,-y,-z
loop_
_atom_site_type_symbol
_atom_site_label
_atom_site_fract_x
_atom_site_fract_y
_atom_site_fract_z
Si Si1 0.783703 0.609349 0.641961
Si Si2 0.967174 0.015858 0.444167
Si Si3 0.643821 0.882987 0.952856
Si Si4 0.655819 0.266625 0.215850
Si Si5 0.398047 0.037125 0.111286
Si Si6 0.348154 0.393013 0.752512
Si Si7 0.818418 0.971159 0.318718
Si Si8 0.355060 0.106410 0.723131
O O1 0.806784 0.506864 0.364635
O O2 0.552259 0.381369 0.776891
O O3 0.828892 0.740983 0.641371
O O4 0.951093 0.803178 0.730924
O O5 0.817816 0.974444 0.690587
O O6 0.861911 0.820090 0.245783
O O7 0.000000 0.000000 0.500000
O O8 0.592386 0.925384 0.009662
O O9 0.444464 0.608974 0.932848
O O10 0.709207 0.983221 0.136215
O O11 0.601322 0.234264 0.113052
O O12 0.449472 0.091250 0.432195
O O13 0.703302 0.184399 0.014537
O O14 0.277397 0.019943 0.392082
O O15 0.500000 0.500000 0.500000
O O16 0.307572 0.262977 0.749206
O O17 0.789979 0.975574 0.224099
#
# Coordination Sequence:
#
# PCOD9053286 Si02
#       8
#     2   2   2   2   2   2   2   2
#     4   9  19  38  55  82 108 152 183 232 274 334
#     4  10  21  34  55  83 111 142 192 233 268 331
#     4  11  21  36  57  84 111 150 184 231 290 324
#     4   8  20  34  59  84 109 148 188 231 278 334
#     4  10  17  35  60  84 107 148 194 228 275 334
#     4   9  18  32  53  80 101 148 180 226 272 319
#     4  10  18  37  57  76 118 144 190 229 271 339
#     4   9  22  37  56  82 118 148 181 231 290 331
#
# _framework density 20.734735000000001
#
# number of rings (size 3 to 8) (size 9 to 14) (size 15 to 20)
#    0.750    1.750    3.750    0.000    5.250    1.500 
#    2.250    1.250    0.000    0.750    0.000    0.000 
#    0.000    0.000    0.000    0.000    0.000    0.000 
#
# Total GULP energy -89076.635747 kJ/mol
# GULP energy per Si atom -5567.289734 kJ/mol
# Density = 2.068754 g / cm^3
# Si number density = 20.734735 Si / 1000 Ang^3
#
#
#
# Elastic Constant Matrix: (Units=GPa)
#
#
# Indices 1 2 3 4 5 6 
#
# 1 173.4848 21.3766 44.5570 8.2849 28.8129 -1.3730
# 2 21.3766 51.5411 10.8703 7.6949 -1.9590 -0.2010
# 3 44.5570 10.8703 49.6513 4.0839 9.1767 -7.9275
# 4 8.2849 7.6949 4.0839 23.3439 2.6691 1.0315
# 5 28.8129 -1.9590 9.1767 2.6691 38.1828 1.3157
# 6 -1.3730 -0.2010 -7.9275 1.0315 1.3157 9.9811
#
#
#
# Elastic Compliance Matrix: (Units=1/GPa)
#
#
# Indices 1 2 3 4 5 6 
#
# 1 0.008596 -0.002250 -0.006888 -0.000394 -0.004793 -0.003661
# 2 -0.002250 0.022158 -0.003501 -0.006261 0.004202 -0.002551
# 3 -0.006888 -0.003501 0.031928 -0.002714 -0.003329 0.025060
# 4 -0.000394 -0.006261 -0.002714 0.046086 -0.002359 -0.006787
# 5 -0.004793 0.004202 -0.003329 -0.002359 0.031232 -0.007092
# 6 -0.003661 -0.002551 0.025060 -0.006787 -0.007092 0.121174
#
#
# Mechanical properties :
#
#
# Convention : Reuss Voigt Hill
#
# Bulk Modulus (GPa) = 26.73473 47.58723 37.16098
# Shear Modulus (GPa) = 16.72690 27.49312 22.11001
#
# Velocity S-wave (km/s) = 2.84334 3.64530 3.26901
# Velocity P-wave (km/s) = 4.86838 6.38106 5.67535
#
# Compressibility (1/GPa) = 0.03740453
#
# Stress axis : x y z
#
# Youngs Moduli (GPa) = 116.32666 45.13036 31.32073
#
# Poissons Ratio (x) = 0.10155 0.21574
# Poissons Ratio (y) = 0.26176 0.10964
# Poissons Ratio (z) = 0.80126 0.15798
#
# Static dielectric constant tensor:
#      x y z
#    x 1.760390 0.018520 0.054080 
#    y 0.018520 1.768020 -0.013880 
#    z 0.054080 -0.013880 1.872660 
# 
# From -- ./inp_files/348882.got.cif
#   From: 2010.05.17/outbox.cif.g08.bks.cpg/sg2_175_cif.got.tgz:348882.got - 2010.06.03 11:33:40.
