data_PCOD9053493
_publ_section_title
;
Structure prediction by ZEFSAII (Michael W. Deem and Ramdas Pophale) SiO2 
 PCOD9053493
Probable space group: P -1
;
_chemical_formula_sum "Si O2"
_cell_formula_units_Z 16
_cell_length_a 14.870034
_cell_length_b 12.334894
_cell_length_c 9.636596
_cell_angle_alpha 27.625287
_cell_angle_beta 60.109732
_cell_angle_gamma 63.602754
_cell_volume 710.547695
_symmetry_space_group_name_H-M "P -1"
_symmetry_group_IT_number 2
_symmetry_cell_setting 'triclinic'
loop_
_space_group_symop_operation_xyz
x,y,z
-x,-y,-z
loop_
_atom_site_type_symbol
_atom_site_label
_atom_site_fract_x
_atom_site_fract_y
_atom_site_fract_z
Si Si1 0.077333 0.873472 0.978362
Si Si2 0.813053 0.348878 0.199941
Si Si3 0.550591 0.234972 0.262201
Si Si4 0.340578 0.031539 0.308125
Si Si5 0.737569 0.448306 0.716826
Si Si6 0.024128 0.221346 0.132921
Si Si7 0.260360 0.391626 0.772369
Si Si8 0.746678 0.749255 0.610001
O O1 0.014041 0.813881 0.956052
O O2 0.161864 0.069142 0.658510
O O3 0.145580 0.657854 0.233646
O O4 0.000000 0.000000 0.000000
O O5 0.755812 0.428989 0.291990
O O6 0.935076 0.393161 0.066181
O O7 0.769672 0.094768 0.487927
O O8 0.782252 0.497172 0.921969
O O9 0.500000 0.000000 0.500000
O O10 0.577990 0.165166 0.480693
O O11 0.500000 0.500000 0.000000
O O12 0.655903 0.272744 0.049142
O O13 0.331874 0.182582 0.284542
O O14 0.344284 0.202020 0.980041
O O15 0.714056 0.489980 0.526756
O O16 0.720419 0.694101 0.533816
O O17 0.144194 0.285331 0.966376
O O18 0.000000 0.000000 0.500000
#
# Coordination Sequence:
#
# PCOD9053493 Si02
#       8
#     2   2   2   2   2   2   2   2
#     4  12  26  38  62  99 151 188 240 299 356 424
#     4  11  21  40  66  93 139 194 239 284 343 432
#     4  12  27  51  88 112 135 188 255 313 383 465
#     4  11  22  48  68 105 133 186 236 298 364 440
#     4  12  26  47  67 110 143 186 242 311 379 425
#     4  12  21  40  57 100 136 200 258 274 341 435
#     4  11  27  38  68  98 152 188 234 304 371 420
#     4  11  19  41  70  88 144 192 238 294 344 425
#
# _framework density 22.517842000000002
#
# number of rings (size 3 to 8) (size 9 to 14) (size 15 to 20)
#    0.000    0.500    6.250    2.625    5.250    2.000 
#    0.000    1.250    0.000    0.000    0.000    0.000 
#    0.000    0.000    0.000    0.000    0.000    0.000 
#
# Total GULP energy -89177.561791 kJ/mol
# GULP energy per Si atom -5573.597612 kJ/mol
# Density = 2.246659 g / cm^3
# Si number density = 22.517842 Si / 1000 Ang^3
#
#
#
# Elastic Constant Matrix: (Units=GPa)
#
#
# Indices 1 2 3 4 5 6 
#
# 1 102.3181 31.0792 38.2648 -3.1102 19.0606 12.3579
# 2 31.0792 93.1986 28.2674 5.1609 20.3218 21.1205
# 3 38.2648 28.2674 88.1696 9.1161 28.9686 10.0140
# 4 -3.1102 5.1609 9.1161 31.5968 11.1163 6.7570
# 5 19.0606 20.3218 28.9686 11.1163 46.2514 -3.6051
# 6 12.3579 21.1205 10.0140 6.7570 -3.6051 32.8677
#
#
#
# Elastic Compliance Matrix: (Units=1/GPa)
#
#
# Indices 1 2 3 4 5 6 
#
# 1 0.013093 -0.001734 -0.003988 0.004845 -0.003611 -0.003986
# 2 -0.001734 0.015200 -0.001041 0.002094 -0.006591 -0.009952
# 3 -0.003988 -0.001041 0.016673 -0.001359 -0.008291 -0.003541
# 4 0.004845 0.002094 -0.001359 0.039148 -0.012423 -0.012164
# 5 -0.003611 -0.006591 -0.008291 -0.012423 0.035318 0.014547
# 6 -0.003986 -0.009952 -0.003541 -0.012164 0.014547 0.043494
#
#
# Mechanical properties :
#
#
# Convention : Reuss Voigt Hill
#
# Bulk Modulus (GPa) = 31.80765 53.21211 42.50988
# Shear Modulus (GPa) = 26.74756 34.54815 30.64786
#
# Velocity S-wave (km/s) = 3.45024 3.92121 3.69324
# Velocity P-wave (km/s) = 5.47982 6.64707 6.09147
#
# Compressibility (1/GPa) = 0.03143897
#
# Stress axis : x y z
#
# Youngs Moduli (GPa) = 76.37628 65.78819 59.97598
#
# Poissons Ratio (x) = 0.11410 0.23919
# Poissons Ratio (y) = 0.13246 0.06246
# Poissons Ratio (z) = 0.30460 0.06852
#
# Static dielectric constant tensor:
#      x y z
#    x 2.103670 -0.010190 0.116490 
#    y -0.010190 1.926070 -0.059640 
#    z 0.116490 -0.059640 1.864990 
# 
# From -- ./inp_files/138717.got.cif
#   From: 2010.05.17/outbox.cif.g08.bks.cpg/sg2_70_cif.got.tgz:138717.got - 2010.06.03 11:33:40.
