data_PCOD9053532
_publ_section_title
;
Structure prediction by ZEFSAII (Michael W. Deem and Ramdas Pophale) SiO2 
 PCOD9053532
Probable space group: P -1
;
_chemical_formula_sum "Si O2"
_cell_formula_units_Z 16
_cell_length_a 11.055496
_cell_length_b 13.871073
_cell_length_c 9.488916
_cell_angle_alpha 64.151922
_cell_angle_beta 93.052334
_cell_angle_gamma 137.078748
_cell_volume 803.406448
_symmetry_space_group_name_H-M "P -1"
_symmetry_group_IT_number 2
_symmetry_cell_setting 'triclinic'
loop_
_space_group_symop_operation_xyz
x,y,z
-x,-y,-z
loop_
_atom_site_type_symbol
_atom_site_label
_atom_site_fract_x
_atom_site_fract_y
_atom_site_fract_z
Si Si1 0.962189 0.674777 0.522203
Si Si2 0.127336 0.020846 0.384635
Si Si3 0.224379 0.863253 0.160911
Si Si4 0.338985 0.880509 0.861642
Si Si5 0.568354 0.837240 0.459426
Si Si6 0.297524 0.784616 0.633653
Si Si7 0.489116 0.610503 0.361787
Si Si8 0.799253 0.896333 0.980137
O O1 0.102662 0.706553 0.615343
O O2 0.728996 0.501728 0.621721
O O3 0.008332 0.831498 0.455419
O O4 0.046949 0.709215 0.350432
O O5 0.317372 0.117075 0.422510
O O6 0.185211 0.113842 0.179868
O O7 0.000000 0.000000 0.500000
O O8 0.431878 0.976551 0.174443
O O9 0.227384 0.994488 0.066156
O O10 0.220244 0.802807 0.048653
O O11 0.279330 0.753995 0.819267
O O12 0.324748 0.987303 0.720064
O O13 0.355618 0.728110 0.571379
O O14 0.563398 0.741509 0.405263
O O15 0.500000 0.000000 0.500000
O O16 0.500000 0.500000 0.500000
O O17 0.625293 0.714994 0.166461
O O18 0.000000 0.000000 0.000000
#
# Coordination Sequence:
#
# PCOD9053532 Si02
#       8
#     2   2   2   2   2   2   2   2
#     4  11  21  38  63  93 127 161 206 263 322 368
#     4  11  22  39  68  95 117 169 223 257 311 383
#     4  10  19  35  62  97 118 163 214 256 310 377
#     4  10  18  34  65  94 125 153 217 261 299 371
#     4  11  20  40  63  91 128 169 207 259 313 386
#     4  10  17  35  60  93 121 163 201 256 309 376
#     4  12  26  44  60  91 134 169 210 268 320 370
#     4  11  23  41  65  91 125 167 218 261 309 384
#
# _framework density 19.915199000000001
#
# number of rings (size 3 to 8) (size 9 to 14) (size 15 to 20)
#    0.000    1.250    6.250    3.750    0.000    0.500 
#    0.000    3.750    0.000    2.250    0.000    0.000 
#    0.000    0.000    0.000    0.000    0.000    0.000 
#
# Total GULP energy -89322.702130 kJ/mol
# GULP energy per Si atom -5582.668883 kJ/mol
# Density = 1.986987 g / cm^3
# Si number density = 19.915199 Si / 1000 Ang^3
#
#
#
# Elastic Constant Matrix: (Units=GPa)
#
#
# Indices 1 2 3 4 5 6 
#
# 1 75.9445 4.9876 45.9259 7.5461 -8.8619 20.7425
# 2 4.9876 39.5907 40.0874 13.5233 -3.6096 19.5280
# 3 45.9259 40.0874 143.0381 31.0889 -24.1712 19.7965
# 4 7.5461 13.5233 31.0889 32.3924 0.7627 -7.6484
# 5 -8.8619 -3.6096 -24.1712 0.7627 36.9013 7.2856
# 6 20.7425 19.5280 19.7965 -7.6484 7.2856 43.5555
#
#
#
# Elastic Compliance Matrix: (Units=1/GPa)
#
#
# Indices 1 2 3 4 5 6 
#
# 1 0.022694 0.016913 -0.005562 -0.011713 0.007489 -0.019172
# 2 0.016913 0.064334 -0.008282 -0.032904 0.013746 -0.041211
# 3 -0.005562 -0.008282 0.015848 -0.011731 0.009359 -0.004466
# 4 -0.011713 -0.032904 -0.011731 0.068989 -0.023372 0.041686
# 5 0.007489 0.013746 0.009359 -0.023372 0.041808 -0.025081
# 6 -0.019172 -0.041211 -0.004466 0.041686 -0.025081 0.064112
#
#
# Mechanical properties :
#
#
# Convention : Reuss Voigt Hill
#
# Bulk Modulus (GPa) = 9.17324 48.95278 29.06301
# Shear Modulus (GPa) = 16.23460 33.74133 24.98797
#
# Velocity S-wave (km/s) = 2.85824 4.12059 3.54604
# Velocity P-wave (km/s) = 3.93813 6.87554 5.60276
#
# Compressibility (1/GPa) = 0.10901279
#
# Stress axis : x y z
#
# Youngs Moduli (GPa) = 44.06399 15.54399 63.10143
#
# Poissons Ratio (x) = -0.26289 0.35096
# Poissons Ratio (y) = -0.74524 0.52261
# Poissons Ratio (z) = 0.24508 0.12874
#
# Static dielectric constant tensor:
#      x y z
#    x 1.735170 -0.007700 -0.013970 
#    y -0.007700 1.696560 0.006510 
#    z -0.013970 0.006510 1.743760 
# 
# From -- ./inp_files/272530.got.cif
#   From: 2010.05.17/outbox.cif.g08.bks.cpg/sg2_137_cif.got.tgz:272530.got - 2010.06.03 11:33:40.
