data_PCOD9053937
_publ_section_title
;
Structure prediction by ZEFSAII (Michael W. Deem and Ramdas Pophale) SiO2 
 PCOD9053937
Probable space group: P -1
;
_chemical_formula_sum "Si O2"
_cell_formula_units_Z 14
_cell_length_a 8.851056
_cell_length_b 7.970496
_cell_length_c 10.328079
_cell_angle_alpha 75.119648
_cell_angle_beta 56.194223
_cell_angle_gamma 87.918099
_cell_volume 579.952733
_symmetry_space_group_name_H-M "P -1"
_symmetry_group_IT_number 2
_symmetry_cell_setting 'triclinic'
loop_
_space_group_symop_operation_xyz
x,y,z
-x,-y,-z
loop_
_atom_site_type_symbol
_atom_site_label
_atom_site_fract_x
_atom_site_fract_y
_atom_site_fract_z
Si Si1 0.333879 0.236697 0.616554
Si Si2 0.453619 0.602368 0.874960
Si Si3 0.723997 0.405941 0.283968
Si Si4 0.284560 0.648885 0.287374
Si Si5 0.503879 0.011793 0.772388
Si Si6 0.835023 0.881786 0.535535
Si Si7 0.978973 0.594438 0.671644
O O1 0.537196 0.280664 0.443230
O O2 0.290502 0.410239 0.674844
O O3 0.350212 0.089862 0.746942
O O4 0.180586 0.185007 0.589958
O O5 0.274225 0.580772 0.874270
O O6 0.575518 0.494568 0.738562
O O7 0.466536 0.807629 0.868117
O O8 0.500000 0.500000 0.000000
O O9 0.913057 0.352342 0.260331
O O10 0.403494 0.840117 0.200830
O O11 0.146031 0.593789 0.244765
O O12 0.141626 0.621541 0.480976
O O13 0.669471 0.993680 0.598875
O O14 0.833053 0.720053 0.668361
O O15 0.000000 0.000000 0.500000
#
# Coordination Sequence:
#
# PCOD9053937 Si02
#       7
#     2   2   2   2   2   2   2
#     4  11  21  37  63  95 134 163 201 272 326 376
#     4  12  27  45  64  88 126 179 227 263 302 374
#     4  11  20  39  63  92 130 166 211 258 326 379
#     4  11  21  42  61  98 129 163 203 266 329 377
#     4  12  23  39  66  93 129 166 215 264 314 386
#     4  12  22  33  58 105 138 158 197 251 339 400
#     4  11  21  36  65  98 136 163 189 267 345 377
#
# _framework density 24.139897000000001
#
# number of rings (size 3 to 8) (size 9 to 14) (size 15 to 20)
#    0.000    0.571    7.143    3.000    2.000    0.571 
#    0.000    0.714    0.000    0.857    0.000    0.000 
#    0.000    0.000    0.000    0.000    0.000    0.000 
#
# Total GULP energy -77958.338723 kJ/mol
# GULP energy per Si atom -5568.452766 kJ/mol
# Density = 2.408495 g / cm^3
# Si number density = 24.139897 Si / 1000 Ang^3
#
#
#
# Elastic Constant Matrix: (Units=GPa)
#
#
# Indices 1 2 3 4 5 6 
#
# 1 139.3133 72.7092 27.2419 -8.7631 45.2966 38.1490
# 2 72.7092 151.7429 28.3303 -30.9647 17.4726 23.8099
# 3 27.2419 28.3303 46.9896 -11.0046 20.6734 12.9011
# 4 -8.7631 -30.9647 -11.0046 32.0051 -4.2985 1.0869
# 5 45.2966 17.4726 20.6734 -4.2985 37.3370 8.3308
# 6 38.1490 23.8099 12.9011 1.0869 8.3308 65.3656
#
#
#
# Elastic Compliance Matrix: (Units=1/GPa)
#
#
# Indices 1 2 3 4 5 6 
#
# 1 0.017594 -0.006408 0.003061 -0.002674 -0.018994 -0.006073
# 2 -0.006408 0.011626 -0.003351 0.009087 0.005385 -0.000671
# 3 0.003061 -0.003351 0.032373 0.006434 -0.018273 -0.004733
# 4 -0.002674 0.009087 0.006434 0.041795 0.001102 -0.003854
# 5 -0.018994 0.005385 -0.018273 0.001102 0.056316 0.005535
# 6 -0.006073 -0.000671 -0.004733 -0.003854 0.005535 0.019380
#
#
# Mechanical properties :
#
#
# Convention : Reuss Voigt Hill
#
# Bulk Modulus (GPa) = 20.74829 66.06762 43.40795
# Shear Modulus (GPa) = 23.97551 40.92583 32.45067
#
# Velocity S-wave (km/s) = 3.15491 4.12194 3.67041
# Velocity P-wave (km/s) = 4.67814 7.07686 5.99862
#
# Compressibility (1/GPa) = 0.04819675
#
# Stress axis : x y z
#
# Youngs Moduli (GPa) = 56.83603 86.01695 30.89026
#
# Poissons Ratio (x) = 0.55117 -0.09454
# Poissons Ratio (y) = 0.36419 0.10351
# Poissons Ratio (z) = -0.17395 0.28824
#
# Static dielectric constant tensor:
#      x y z
#    x 2.019830 0.084850 -0.034480 
#    y 0.084850 2.025540 -0.038180 
#    z -0.034480 -0.038180 2.127050 
# 
# From -- ./inp_files/378235.got.cif
#   From: 2010.05.17/outbox.cif.g08.bks.cpg/sg2_190_cif.got.tgz:378235.got - 2010.06.03 11:33:40.
