data_PCOD9053900
_publ_section_title
;
Structure prediction by ZEFSAII (Michael W. Deem and Ramdas Pophale) SiO2 
 PCOD9053900
Probable space group: P -1
;
_chemical_formula_sum "Si O2"
_cell_formula_units_Z 14
_cell_length_a 8.997331
_cell_length_b 10.926540
_cell_length_c 14.480743
_cell_angle_alpha 141.615495
_cell_angle_beta 50.265033
_cell_angle_gamma 123.695557
_cell_volume 675.462417
_symmetry_space_group_name_H-M "P -1"
_symmetry_group_IT_number 2
_symmetry_cell_setting 'triclinic'
loop_
_space_group_symop_operation_xyz
x,y,z
-x,-y,-z
loop_
_atom_site_type_symbol
_atom_site_label
_atom_site_fract_x
_atom_site_fract_y
_atom_site_fract_z
Si Si1 0.024523 0.399571 0.174525
Si Si2 0.407646 0.345741 0.653088
Si Si3 0.237559 0.093639 0.238701
Si Si4 0.876315 0.803318 0.462069
Si Si5 0.406285 0.669233 0.700868
Si Si6 0.187425 0.444900 0.336599
Si Si7 0.940069 0.705179 0.103048
O O1 0.987284 0.617836 0.282531
O O2 0.152763 0.421377 0.227532
O O3 0.807235 0.304090 0.234004
O O4 0.094464 0.297833 0.995097
O O5 0.374090 0.559570 0.748273
O O6 0.632549 0.385987 0.614333
O O7 0.260749 0.273599 0.750522
O O8 0.329364 0.206588 0.515855
O O9 0.458633 0.128537 0.210226
O O10 0.229509 0.231769 0.234669
O O11 0.139683 0.204788 0.426836
O O12 0.115298 0.880583 0.154394
O O13 0.000000 0.000000 0.500000
O O14 0.500000 0.500000 0.500000
O O15 0.000000 0.500000 0.500000
O O16 0.000000 0.500000 0.000000
#
# Coordination Sequence:
#
# PCOD9053900 Si02
#       7
#     2   2   2   2   2   2   2
#     4  11  22  38  63  83 128 163 199 249 305 364
#     4  10  21  36  63  89 123 156 200 255 304 353
#     4  11  22  36  66  93 122 156 205 254 309 355
#     4  11  18  36  63  93 116 157 210 259 294 347
#     4  10  17  35  62  92 115 154 209 261 289 343
#     4  11  23  41  63  91 122 164 201 252 308 361
#     4  12  23  42  62  91 126 163 203 252 304 364
#
# _framework density 20.726541000000001
#
# number of rings (size 3 to 8) (size 9 to 14) (size 15 to 20)
#    0.000    1.143    8.571    0.857    0.000    1.714 
#    0.000    2.857    3.143    0.000    0.000    0.000 
#    0.000    0.000    0.000    0.000    0.000    0.000 
#
# Total GULP energy -77950.899834 kJ/mol
# GULP energy per Si atom -5567.921417 kJ/mol
# Density = 2.067937 g / cm^3
# Si number density = 20.726541 Si / 1000 Ang^3
#
#
#
# Elastic Constant Matrix: (Units=GPa)
#
#
# Indices 1 2 3 4 5 6 
#
# 1 129.9513 60.7914 35.2736 -3.2241 37.5018 23.2911
# 2 60.7914 148.4279 30.8660 9.8620 19.4080 39.7333
# 3 35.2736 30.8660 60.7672 -9.3170 31.5563 0.9903
# 4 -3.2241 9.8620 -9.3170 31.0912 -3.1056 14.2086
# 5 37.5018 19.4080 31.5563 -3.1056 33.8191 -1.0857
# 6 23.2911 39.7333 0.9903 14.2086 -1.0857 36.3419
#
#
#
# Elastic Compliance Matrix: (Units=1/GPa)
#
#
# Indices 1 2 3 4 5 6 
#
# 1 0.015061 -0.001994 0.002559 0.005940 -0.017733 -0.010394
# 2 -0.001994 0.011529 -0.003963 -0.000020 -0.001070 -0.011243
# 3 0.002559 -0.003963 0.035887 0.010508 -0.033194 -0.003386
# 4 0.005940 -0.000020 0.010508 0.044654 -0.012984 -0.021918
# 5 -0.017733 -0.001070 -0.033194 -0.012984 0.080299 0.020914
# 6 -0.010394 -0.011243 -0.003386 -0.021918 0.020914 0.055756
#
#
# Mechanical properties :
#
#
# Convention : Reuss Voigt Hill
#
# Bulk Modulus (GPa) = 17.95907 65.88982 41.92445
# Shear Modulus (GPa) = 18.61900 34.39812 26.50856
#
# Velocity S-wave (km/s) = 3.00044 4.07826 3.58014
# Velocity P-wave (km/s) = 4.54831 7.35087 6.11238
#
# Compressibility (1/GPa) = 0.05568216
#
# Stress axis : x y z
#
# Youngs Moduli (GPa) = 66.39581 86.73764 27.86507
#
# Poissons Ratio (x) = 0.17299 -0.07131
# Poissons Ratio (y) = 0.13242 0.11042
# Poissons Ratio (z) = -0.16993 0.34370
#
# Static dielectric constant tensor:
#      x y z
#    x 1.785080 0.032160 -0.003310 
#    y 0.032160 1.784590 -0.036490 
#    z -0.003310 -0.036490 1.812400 
# 
# From -- ./inp_files/302284.got.cif
#   From: 2010.05.17/outbox.cif.g08.bks.cpg/sg2_152_cif.got.tgz:302284.got - 2010.06.03 11:33:40.
