data_PCOD9053367
_publ_section_title
;
Structure prediction by ZEFSAII (Michael W. Deem and Ramdas Pophale) SiO2 
 PCOD9053367
Probable space group: P -1
;
_chemical_formula_sum "Si O2"
_cell_formula_units_Z 16
_cell_length_a 12.106228
_cell_length_b 11.446944
_cell_length_c 8.777357
_cell_angle_alpha 137.951026
_cell_angle_beta 97.488353
_cell_angle_gamma 63.103480
_cell_volume 682.151375
_symmetry_space_group_name_H-M "P -1"
_symmetry_group_IT_number 2
_symmetry_cell_setting 'triclinic'
loop_
_space_group_symop_operation_xyz
x,y,z
-x,-y,-z
loop_
_atom_site_type_symbol
_atom_site_label
_atom_site_fract_x
_atom_site_fract_y
_atom_site_fract_z
Si Si1 0.431757 0.345543 0.036074
Si Si2 0.408624 0.748350 0.481787
Si Si3 0.971344 0.258179 0.921818
Si Si4 0.640108 0.899366 0.001426
Si Si5 0.991822 0.166087 0.479413
Si Si6 0.699629 0.016778 0.633857
Si Si7 0.900134 0.562197 0.677822
Si Si8 0.680787 0.614560 0.272036
O O1 0.399323 0.551109 0.313743
O O2 0.364845 0.231645 0.985330
O O3 0.588783 0.183187 0.890215
O O4 0.376090 0.416071 0.925082
O O5 0.341920 0.869484 0.428442
O O6 0.564378 0.667511 0.420162
O O7 0.343351 0.918755 0.764309
O O8 0.959883 0.255275 0.733056
O O9 0.030950 0.018123 0.734264
O O10 0.826807 0.413095 0.118994
O O11 0.060286 0.340401 0.082178
O O12 0.758150 0.736917 0.761780
O O13 0.500000 0.000000 0.000000
O O14 0.909972 0.359074 0.542859
O O15 0.148987 0.063199 0.385970
O O16 0.687710 0.817085 0.443752
O O17 0.000000 0.500000 0.500000
#
# Coordination Sequence:
#
# PCOD9053367 Si02
#       8
#     2   2   2   2   2   2   2   2
#     4  11  22  40  66 100 136 170 218 278 336 392
#     4  11  22  40  66 100 136 170 218 278 336 392
#     4  11  24  43  72 103 136 178 229 283 341 405
#     4  12  28  46  67  92 129 182 232 271 319 396
#     4  11  24  43  72 103 136 178 229 283 341 405
#     4  11  19  37  70 104 135 169 209 279 345 396
#     4  12  29  47  69  99 142 186 224 277 342 408
#     4  11  19  37  70 104 135 169 209 279 345 396
#
# _framework density 23.455204999999999
#
# number of rings (size 3 to 8) (size 9 to 14) (size 15 to 20)
#    0.000    0.750    3.750    5.625    3.500    4.000 
#    0.000    0.000    0.000    0.000    0.000    0.000 
#    0.000    0.000    0.000    0.000    0.000    0.000 
#
# Total GULP energy -89607.997951 kJ/mol
# GULP energy per Si atom -5600.499872 kJ/mol
# Density = 2.340182 g / cm^3
# Si number density = 23.455205 Si / 1000 Ang^3
#
#
#
# Elastic Constant Matrix: (Units=GPa)
#
#
# Indices 1 2 3 4 5 6 
#
# 1 67.9560 5.0106 21.9033 15.9671 -16.2253 -15.5917
# 2 5.0106 49.4149 47.6443 25.9425 1.7029 -4.1559
# 3 21.9033 47.6443 122.8740 40.7393 0.1610 6.9147
# 4 15.9671 25.9425 40.7393 27.5166 4.3968 -3.3012
# 5 -16.2253 1.7029 0.1610 4.3968 46.5866 14.0758
# 6 -15.5917 -4.1559 6.9147 -3.3012 14.0758 31.5476
#
#
#
# Elastic Compliance Matrix: (Units=1/GPa)
#
#
# Indices 1 2 3 4 5 6 
#
# 1 0.022980 0.010903 -0.001674 -0.021385 0.007315 0.007659
# 2 0.010903 0.048046 -0.007907 -0.039537 0.003451 0.007774
# 3 -0.001674 -0.007907 0.019661 -0.022788 0.005058 -0.010820
# 4 -0.021385 -0.039537 -0.022788 0.124561 -0.021221 0.011720
# 5 0.007315 0.003451 0.005058 -0.021221 0.029645 -0.012486
# 6 0.007659 0.007774 -0.010820 0.011720 -0.012486 0.045677
#
#
# Mechanical properties :
#
#
# Convention : Reuss Voigt Hill
#
# Bulk Modulus (GPa) = 10.71466 43.26236 26.98851
# Shear Modulus (GPa) = 15.67225 32.17592 23.92409
#
# Velocity S-wave (km/s) = 2.58772 3.70780 3.19719
# Velocity P-wave (km/s) = 3.67511 6.06755 5.01605
#
# Compressibility (1/GPa) = 0.09333003
#
# Stress axis : x y z
#
# Youngs Moduli (GPa) = 43.51703 20.81328 50.86335
#
# Poissons Ratio (x) = -0.22693 0.08517
# Poissons Ratio (y) = -0.47447 0.40217
# Poissons Ratio (z) = 0.07286 0.16457
#
# Static dielectric constant tensor:
#      x y z
#    x 1.909230 -0.012330 -0.017800 
#    y -0.012330 1.870010 -0.011070 
#    z -0.017800 -0.011070 1.862550 
# 
# From -- ./inp_files/308801.got.cif
#   From: 2010.05.17/outbox.cif.g08.bks.cpg/sg2_155_cif.got.tgz:308801.got - 2010.06.03 11:33:40.
