data_PCOD9053790
_publ_section_title
;
Structure prediction by ZEFSAII (Michael W. Deem and Ramdas Pophale) SiO2 
 PCOD9053790
Probable space group: P -1
;
_chemical_formula_sum "Si O2"
_cell_formula_units_Z 16
_cell_length_a 11.467912
_cell_length_b 8.752472
_cell_length_c 19.874482
_cell_angle_alpha 148.083017
_cell_angle_beta 123.857343
_cell_angle_gamma 68.486201
_cell_volume 849.822069
_symmetry_space_group_name_H-M "P -1"
_symmetry_group_IT_number 2
_symmetry_cell_setting 'triclinic'
loop_
_space_group_symop_operation_xyz
x,y,z
-x,-y,-z
loop_
_atom_site_type_symbol
_atom_site_label
_atom_site_fract_x
_atom_site_fract_y
_atom_site_fract_z
Si Si1 0.861280 0.620925 0.520086
Si Si2 0.150306 0.253750 0.135234
Si Si3 0.914670 0.666406 0.330158
Si Si4 0.675332 0.356347 0.234490
Si Si5 0.664048 0.747427 0.931737
Si Si6 0.026251 0.290147 0.787706
Si Si7 0.162754 0.630382 0.076137
Si Si8 0.844962 0.686298 0.691428
O O1 0.740828 0.479444 0.373474
O O2 0.805865 0.552957 0.553734
O O3 0.000000 0.500000 0.500000
O O4 0.934072 0.972166 0.664795
O O5 0.253439 0.160352 0.078236
O O6 0.219553 0.361525 0.270813
O O7 0.093875 0.521490 0.185877
O O8 0.000000 0.000000 0.000000
O O9 0.767413 0.574832 0.289895
O O10 0.904524 0.689940 0.256097
O O11 0.006780 0.423876 0.289122
O O12 0.000000 0.000000 0.500000
O O13 0.506517 0.341731 0.169436
O O14 0.695418 0.028407 0.098073
O O15 0.722663 0.477358 0.881023
O O16 0.156022 0.455637 0.938750
O O17 0.167466 0.975219 0.196872
O O18 0.000000 0.500000 0.000000
#
# Coordination Sequence:
#
# PCOD9053790 Si02
#       8
#     2   2   2   2   2   2   2   2
#     4  12  21  37  61  93 122 160 203 253 302 365
#     4  11  20  37  63  92 120 155 206 257 294 360
#     4  11  21  39  62  94 123 161 201 253 303 366
#     4  11  24  41  64  89 130 161 202 249 313 386
#     4  11  24  42  64  92 122 164 202 254 322 356
#     4  11  21  32  61  93 119 152 212 253 299 346
#     4  12  19  36  62  93 118 156 211 262 294 356
#     4  11  22  34  63  94 119 153 217 251 299 345
#
# _framework density 18.827470999999999
#
# number of rings (size 3 to 8) (size 9 to 14) (size 15 to 20)
#    0.000    0.750    6.250    3.000    0.000    0.000 
#    0.000    3.750    5.500    0.000    0.000    0.000 
#    0.000    0.000    0.000    0.000    0.000    0.000 
#
# Total GULP energy -89092.700187 kJ/mol
# GULP energy per Si atom -5568.293762 kJ/mol
# Density = 1.878462 g / cm^3
# Si number density = 18.827471 Si / 1000 Ang^3
#
#
#
# Elastic Constant Matrix: (Units=GPa)
#
#
# Indices 1 2 3 4 5 6 
#
# 1 103.5486 38.8284 41.1830 -15.1348 -13.2863 9.6688
# 2 38.8284 90.8030 34.6581 0.9446 -9.9141 0.5125
# 3 41.1830 34.6581 92.3823 -12.5429 -16.4525 3.9625
# 4 -15.1348 0.9446 -12.5429 43.0644 13.4655 -20.6766
# 5 -13.2863 -9.9141 -16.4525 13.4655 29.8116 -9.7779
# 6 9.6688 0.5125 3.9625 -20.6766 -9.7779 29.9732
#
#
#
# Elastic Compliance Matrix: (Units=1/GPa)
#
#
# Indices 1 2 3 4 5 6 
#
# 1 0.013395 -0.004205 -0.003836 0.002656 0.000704 -0.001680
# 2 -0.004205 0.014511 -0.003606 -0.003725 0.002599 -0.000136
# 3 -0.003836 -0.003606 0.015062 0.002989 0.005042 0.003014
# 4 0.002656 -0.003725 0.002989 0.038649 -0.008408 0.022731
# 5 0.000704 0.002599 0.005042 -0.008408 0.043776 0.007543
# 6 -0.001680 -0.000136 0.003014 0.022731 0.007543 0.051650
#
#
# Mechanical properties :
#
#
# Convention : Reuss Voigt Hill
#
# Bulk Modulus (GPa) = 50.83001 57.34144 54.08573
# Shear Modulus (GPa) = 24.16678 32.04079 28.10378
#
# Velocity S-wave (km/s) = 3.58661 4.12978 3.86774
# Velocity P-wave (km/s) = 6.64892 7.29811 6.98107
#
# Compressibility (1/GPa) = 0.01967342
#
# Stress axis : x y z
#
# Youngs Moduli (GPa) = 74.65437 68.91449 66.39258
#
# Poissons Ratio (x) = 0.28979 0.25467
# Poissons Ratio (y) = 0.31393 0.23943
# Poissons Ratio (z) = 0.28636 0.24852
#
# Static dielectric constant tensor:
#      x y z
#    x 1.712230 0.058050 -0.109440 
#    y 0.058050 1.685310 -0.082380 
#    z -0.109440 -0.082380 1.672570 
# 
# From -- ./inp_files/566095.got.cif
#   From: 2010.05.17/outbox.cif.g08.bks.cpg/sg2_284_cif.got.tgz:566095.got - 2010.06.03 11:33:40.
