data_PCOD9053961
_publ_section_title
;
Structure prediction by ZEFSAII (Michael W. Deem and Ramdas Pophale) SiO2 
 PCOD9053961
Probable space group: P -1
;
_chemical_formula_sum "Si O2"
_cell_formula_units_Z 14
_cell_length_a 8.863228
_cell_length_b 8.190315
_cell_length_c 20.160888
_cell_angle_alpha 40.075870
_cell_angle_beta 140.840472
_cell_angle_gamma 128.627097
_cell_volume 593.273216
_symmetry_space_group_name_H-M "P -1"
_symmetry_group_IT_number 2
_symmetry_cell_setting 'triclinic'
loop_
_space_group_symop_operation_xyz
x,y,z
-x,-y,-z
loop_
_atom_site_type_symbol
_atom_site_label
_atom_site_fract_x
_atom_site_fract_y
_atom_site_fract_z
Si Si1 0.767077 0.209322 0.685543
Si Si2 0.705900 0.820784 0.146480
Si Si3 0.307959 0.760636 0.501960
Si Si4 0.144994 0.977383 0.720270
Si Si5 0.647873 0.651338 0.836881
Si Si6 0.012240 0.541250 0.104030
Si Si7 0.571208 0.283841 0.728046
O O1 0.761595 0.297799 0.580578
O O2 0.661178 0.366104 0.659878
O O3 0.041695 0.155592 0.812944
O O4 0.614303 0.939957 0.718863
O O5 0.773842 0.915874 0.213278
O O6 0.587876 0.536812 0.188138
O O7 0.500000 0.000000 0.000000
O O8 0.433399 0.511298 0.643307
O O9 0.071317 0.853372 0.427411
O O10 0.500000 0.000000 0.500000
O O11 0.379593 0.041622 0.736579
O O12 0.056064 0.685785 0.795994
O O13 0.830865 0.568351 0.867986
O O14 0.780392 0.628129 0.960205
O O15 0.193032 0.747148 0.138183
#
# Coordination Sequence:
#
# PCOD9053961 Si02
#       7
#     2   2   2   2   2   2   2
#     4  11  26  42  62  99 131 163 207 266 325 367
#     4  11  20  39  68  92 124 171 216 253 300 384
#     4  11  22  46  70  87 120 171 221 262 302 379
#     4  11  22  39  66  96 119 167 218 251 316 379
#     4  11  20  39  65  95 125 169 215 256 305 377
#     4  11  21  38  68  94 125 168 217 256 302 385
#     4  12  25  42  63  94 135 164 203 272 326 360
#
# _framework density 23.597898000000001
#
# number of rings (size 3 to 8) (size 9 to 14) (size 15 to 20)
#    0.000    0.857    7.143    1.714    0.000    1.714 
#    0.000    2.143    0.000    0.000    0.000    0.000 
#    0.000    0.000    0.000    0.000    0.000    0.000 
#
# Total GULP energy -78254.992701 kJ/mol
# GULP energy per Si atom -5589.642336 kJ/mol
# Density = 2.354419 g / cm^3
# Si number density = 23.597898 Si / 1000 Ang^3
#
#
#
# Elastic Constant Matrix: (Units=GPa)
#
#
# Indices 1 2 3 4 5 6 
#
# 1 86.4559 8.4280 8.3773 9.6267 4.2310 17.0922
# 2 8.4280 84.1301 2.1031 8.8519 10.2016 34.8923
# 3 8.3773 2.1031 59.8050 13.5957 7.3315 -1.3320
# 4 9.6267 8.8519 13.5957 36.1216 4.0106 -1.9247
# 5 4.2310 10.2016 7.3315 4.0106 21.8093 1.3100
# 6 17.0922 34.8923 -1.3320 -1.9247 1.3100 28.4942
#
#
#
# Elastic Compliance Matrix: (Units=1/GPa)
#
#
# Indices 1 2 3 4 5 6 
#
# 1 0.015450 0.007187 -0.000980 -0.006065 -0.003813 -0.018349
# 2 0.007187 0.031690 0.000872 -0.010995 -0.011890 -0.043272
# 3 -0.000980 0.000872 0.018969 -0.006480 -0.005416 0.000218
# 4 -0.006065 -0.010995 -0.006480 0.035360 0.000845 0.019149
# 5 -0.003813 -0.011890 -0.005416 0.000845 0.052965 0.014216
# 6 -0.018349 -0.043272 0.000218 0.019149 0.014216 0.099741
#
#
# Mechanical properties :
#
#
# Convention : Reuss Voigt Hill
#
# Bulk Modulus (GPa) = 12.45798 29.80088 21.12943
# Shear Modulus (GPa) = 18.74258 31.38387 25.06323
#
# Velocity S-wave (km/s) = 2.82130 3.65080 3.26252
# Velocity P-wave (km/s) = 3.98794 5.51608 4.81305
#
# Compressibility (1/GPa) = 0.08026982
#
# Stress axis : x y z
#
# Youngs Moduli (GPa) = 64.72348 31.55557 52.71643
#
# Poissons Ratio (x) = -0.22680 0.05164
# Poissons Ratio (y) = -0.46519 -0.04598
# Poissons Ratio (z) = 0.06340 -0.02752
#
# Static dielectric constant tensor:
#      x y z
#    x 1.944470 0.008450 0.006330 
#    y 0.008450 1.886390 -0.009070 
#    z 0.006330 -0.009070 1.937720 
# 
# From -- ./inp_files/177246.got.cif
#   From: 2010.05.17/outbox.cif.g08.bks.cpg/sg2_89_cif.got.tgz:177246.got - 2010.06.03 11:33:40.
