data_PCOD9053059
_publ_section_title
;
Structure prediction by ZEFSAII (Michael W. Deem and Ramdas Pophale) SiO2 
 PCOD9053059
Probable space group: P -1
;
_chemical_formula_sum "Si O2"
_cell_formula_units_Z 14
_cell_length_a 11.095878
_cell_length_b 17.781056
_cell_length_c 14.018730
_cell_angle_alpha 32.689581
_cell_angle_beta 32.380467
_cell_angle_gamma 30.068231
_cell_volume 675.976575
_symmetry_space_group_name_H-M "P -1"
_symmetry_group_IT_number 2
_symmetry_cell_setting 'triclinic'
loop_
_space_group_symop_operation_xyz
x,y,z
-x,-y,-z
loop_
_atom_site_type_symbol
_atom_site_label
_atom_site_fract_x
_atom_site_fract_y
_atom_site_fract_z
Si Si1 0.877456 0.783258 0.532715
Si Si2 0.272155 0.115293 0.842850
Si Si3 0.361390 0.778850 0.224818
Si Si4 0.025619 0.492980 0.877265
Si Si5 0.480248 0.161261 0.458227
Si Si6 0.786151 0.043054 0.678141
Si Si7 0.880922 0.278380 0.089681
O O1 0.716007 0.756089 0.587836
O O2 0.167810 0.732499 0.354021
O O3 0.926013 0.669872 0.711563
O O4 0.703739 0.976248 0.471391
O O5 0.318607 0.144738 0.671467
O O6 0.499275 0.124424 0.737460
O O7 0.992299 0.245031 0.942337
O O8 0.338739 0.930775 0.018495
O O9 0.657493 0.635895 0.205951
O O10 0.222962 0.846018 0.348629
O O11 0.000000 0.500000 0.000000
O O12 0.860673 0.430674 0.995221
O O13 0.634198 0.252522 0.286181
O O14 0.000000 0.000000 0.500000
O O15 0.876986 0.872781 0.851605
#
# Coordination Sequence:
#
# PCOD9053059 Si02
#       7
#     2   2   2   2   2   2   2
#     4  11  25  44  61  99 136 169 218 268 315 395
#     4  11  19  38  68  99 121 167 224 266 319 379
#     4  11  21  40  65  97 130 165 217 275 325 387
#     4  12  26  42  65  97 136 168 212 278 339 374
#     4  11  24  44  70  91 131 179 220 260 317 394
#     4  11  18  33  69  98 123 162 218 275 321 372
#     4  11  22  41  66  97 125 168 220 268 316 391
#
# _framework density 20.710775999999999
#
# number of rings (size 3 to 8) (size 9 to 14) (size 15 to 20)
#    0.000    0.857    7.143    2.143    2.000    1.143 
#    5.143    0.714    0.000    0.000    0.000    0.000 
#    0.000    0.000    0.000    0.000    0.000    0.000 
#
# Total GULP energy -78131.277967 kJ/mol
# GULP energy per Si atom -5580.805569 kJ/mol
# Density = 2.066364 g / cm^3
# Si number density = 20.710776 Si / 1000 Ang^3
#
#
#
# Elastic Constant Matrix: (Units=GPa)
#
#
# Indices 1 2 3 4 5 6 
#
# 1 90.1822 20.0331 55.9094 3.5283 0.2449 -16.3399
# 2 20.0331 31.5669 26.6996 7.6511 -3.3997 -2.0024
# 3 55.9094 26.6996 99.0323 10.0746 0.6386 -8.4862
# 4 3.5283 7.6511 10.0746 30.9801 13.6710 6.6476
# 5 0.2449 -3.3997 0.6386 13.6710 38.2950 0.7523
# 6 -16.3399 -2.0024 -8.4862 6.6476 0.7523 13.9789
#
#
#
# Elastic Compliance Matrix: (Units=1/GPa)
#
#
# Indices 1 2 3 4 5 6 
#
# 1 0.021289 -0.003888 -0.008911 -0.003103 0.000375 0.020373
# 2 -0.003888 0.045510 -0.008723 -0.012141 0.008506 0.001994
# 3 -0.008911 -0.008723 0.017788 -0.002672 -0.000068 0.000407
# 4 -0.003103 -0.012141 -0.002672 0.051278 -0.018723 -0.030366
# 5 0.000375 0.008506 -0.000068 -0.018723 0.033379 0.008722
# 6 0.020373 0.001994 0.000407 -0.030366 0.008722 0.109854
#
#
# Mechanical properties :
#
#
# Convention : Reuss Voigt Hill
#
# Bulk Modulus (GPa) = 24.07280 47.34063 35.70672
# Shear Modulus (GPa) = 14.88135 24.52675 19.70405
#
# Velocity S-wave (km/s) = 2.68345 3.44503 3.08781
# Velocity P-wave (km/s) = 4.60975 6.22349 5.47639
#
# Compressibility (1/GPa) = 0.04154066
#
# Stress axis : x y z
#
# Youngs Moduli (GPa) = 46.97282 21.97319 56.21836
#
# Poissons Ratio (x) = 0.08543 0.50099
# Poissons Ratio (y) = 0.18264 0.49042
# Poissons Ratio (z) = 0.41860 0.19168
#
# Static dielectric constant tensor:
#      x y z
#    x 1.757990 0.034080 -0.013550 
#    y 0.034080 1.822730 -0.000560 
#    z -0.013550 -0.000560 1.785400 
# 
# From -- ./inp_files/381591.got.cif
#   From: 2010.05.17/outbox.cif.g08.bks.cpg/sg2_191_cif.got.tgz:381591.got - 2010.06.03 11:33:40.
