data_PCOD9053135
_publ_section_title
;
Structure prediction by ZEFSAII (Michael W. Deem and Ramdas Pophale) SiO2 
 PCOD9053135
Probable space group: P -1
;
_chemical_formula_sum "Si O2"
_cell_formula_units_Z 16
_cell_length_a 11.344076
_cell_length_b 26.507292
_cell_length_c 18.100003
_cell_angle_alpha 21.667828
_cell_angle_beta 149.510560
_cell_angle_gamma 159.650038
_cell_volume 696.874903
_symmetry_space_group_name_H-M "P -1"
_symmetry_group_IT_number 2
_symmetry_cell_setting 'triclinic'
loop_
_space_group_symop_operation_xyz
x,y,z
-x,-y,-z
loop_
_atom_site_type_symbol
_atom_site_label
_atom_site_fract_x
_atom_site_fract_y
_atom_site_fract_z
Si Si1 0.131825 0.768873 0.299686
Si Si2 0.955947 0.124676 0.508911
Si Si3 0.768277 0.462024 0.639431
Si Si4 0.050084 0.043493 0.879833
Si Si5 0.602837 0.922948 0.213685
Si Si6 0.898556 0.670171 0.990210
Si Si7 0.840017 0.072850 0.346872
Si Si8 0.809519 0.203375 0.462288
O O1 0.813510 0.577824 0.434642
O O2 0.306464 0.768728 0.323859
O O3 0.438106 0.895180 0.354272
O O4 0.059984 0.891165 0.065706
O O5 0.964928 0.151150 0.390255
O O6 0.973748 0.253345 0.402453
O O7 0.569184 0.902764 0.609889
O O8 0.255351 0.146766 0.656770
O O9 0.404755 0.265552 0.744052
O O10 0.959853 0.406115 0.794601
O O11 0.973269 0.616027 0.609121
O O12 0.786392 0.038995 0.708849
O O13 0.000000 0.000000 0.000000
O O14 0.932814 0.127446 0.155090
O O15 0.500000 0.000000 0.000000
O O16 0.500000 0.500000 0.000000
O O17 0.040359 0.745444 0.882115
O O18 0.000000 0.000000 0.500000
#
# Coordination Sequence:
#
# PCOD9053135 Si02
#       8
#     2   2   2   2   2   2   2   2
#     4  11  22  41  70 102 129 183 226 287 345 404
#     4  11  22  41  68  95 138 180 223 276 351 409
#     4  12  23  42  68 103 134 171 238 276 338 414
#     4  12  23  43  67  98 136 178 233 276 335 411
#     4  11  23  44  70 102 142 180 224 291 357 404
#     4  11  23  38  70 104 135 172 231 289 336 414
#     4  11  18  39  67  95 129 172 227 274 338 406
#     4  11  25  40  66  97 136 184 220 283 339 409
#
# _framework density 22.959644999999998
#
# number of rings (size 3 to 8) (size 9 to 14) (size 15 to 20)
#    0.000    0.750    7.500    2.625    0.000    0.000 
#    0.000    2.500    2.750    0.000    0.000    0.000 
#    0.000    0.000    0.000    0.000    0.000    0.000 
#
# Total GULP energy -89366.409677 kJ/mol
# GULP energy per Si atom -5585.400605 kJ/mol
# Density = 2.290739 g / cm^3
# Si number density = 22.959645 Si / 1000 Ang^3
#
#
#
# Elastic Constant Matrix: (Units=GPa)
#
#
# Indices 1 2 3 4 5 6 
#
# 1 114.0905 25.0411 15.0348 -15.9839 -11.0896 8.9823
# 2 25.0411 82.5574 25.5673 -6.2758 -14.1934 15.1174
# 3 15.0348 25.5673 75.4765 -8.2163 -12.7361 4.4547
# 4 -15.9839 -6.2758 -8.2163 38.4594 4.5236 -2.2967
# 5 -11.0896 -14.1934 -12.7361 4.5236 44.5852 5.8344
# 6 8.9823 15.1174 4.4547 -2.2967 5.8344 34.9691
#
#
#
# Elastic Compliance Matrix: (Units=1/GPa)
#
#
# Indices 1 2 3 4 5 6 
#
# 1 0.010052 -0.002037 -0.000577 0.003440 0.001555 -0.001661
# 2 -0.002037 0.015866 -0.003854 0.000022 0.004300 -0.006561
# 3 -0.000577 -0.003854 0.015410 0.002054 0.002888 -0.000496
# 4 0.003440 0.000022 0.002054 0.028109 -0.001527 0.000946
# 5 0.001555 0.004300 0.002888 -0.001527 0.026091 -0.007080
# 6 -0.001661 -0.006561 -0.000496 0.000946 -0.007080 0.033166
#
#
# Mechanical properties :
#
#
# Convention : Reuss Voigt Hill
#
# Bulk Modulus (GPa) = 35.22133 44.82345 40.02239
# Shear Modulus (GPa) = 33.09172 37.36815 35.22993
#
# Velocity S-wave (km/s) = 3.80056 4.03868 3.92143
# Velocity P-wave (km/s) = 5.88497 6.42752 6.16222
#
# Compressibility (1/GPa) = 0.02839188
#
# Stress axis : x y z
#
# Youngs Moduli (GPa) = 99.48228 63.02620 64.89389
#
# Poissons Ratio (x) = 0.12839 0.03747
# Poissons Ratio (y) = 0.20265 0.25008
# Poissons Ratio (z) = 0.05744 0.24289
#
# Static dielectric constant tensor:
#      x y z
#    x 1.940310 0.045330 -0.001870 
#    y 0.045330 2.059020 0.027520 
#    z -0.001870 0.027520 1.880620 
# 
# From -- ./inp_files/596470.got.cif
#   From: 2010.05.17/outbox.cif.g08.bks.cpg/sg2_299_cif.got.tgz:596470.got - 2010.06.03 11:33:40.
