data_PCOD9053679
_publ_section_title
;
Structure prediction by ZEFSAII (Michael W. Deem and Ramdas Pophale) SiO2 
 PCOD9053679
Probable space group: P -1
;
_chemical_formula_sum "Si O2"
_cell_formula_units_Z 12
_cell_length_a 23.451528
_cell_length_b 9.548120
_cell_length_c 9.438047
_cell_angle_alpha 138.569425
_cell_angle_beta 153.601453
_cell_angle_gamma 30.865491
_cell_volume 480.354244
_symmetry_space_group_name_H-M "P -1"
_symmetry_group_IT_number 2
_symmetry_cell_setting 'triclinic'
loop_
_space_group_symop_operation_xyz
x,y,z
-x,-y,-z
loop_
_atom_site_type_symbol
_atom_site_label
_atom_site_fract_x
_atom_site_fract_y
_atom_site_fract_z
Si Si1 0.063823 0.119929 0.130614
Si Si2 0.779556 0.273393 0.435577
Si Si3 0.421233 0.276476 0.447564
Si Si4 0.387537 0.853482 0.500150
Si Si5 0.230331 0.151128 0.771370
Si Si6 0.404919 0.320424 0.909229
O O1 0.236315 0.887064 0.258508
O O2 0.109226 0.259480 0.448866
O O3 0.930266 0.264038 0.816970
O O4 0.000000 0.000000 0.000000
O O5 0.636250 0.489195 0.392189
O O6 0.815013 0.988893 0.325460
O O7 0.715960 0.405817 0.241414
O O8 0.550025 0.226995 0.581910
O O9 0.500000 0.000000 0.500000
O O10 0.263693 0.339657 0.062917
O O11 0.333949 0.156954 0.626822
O O12 0.547028 0.662871 0.812983
O O13 0.415157 0.899179 0.932354
#
# Coordination Sequence:
#
# PCOD9053679 Si02
#       6
#     2   2   2   2   2   2
#     4   9  20  37  59  84 117 159 185 234 298 343
#     4  11  20  35  64  87 111 156 198 225 293 348
#     4  11  21  36  61  91 110 151 198 242 280 336
#     4   9  18  36  56  82 122 146 190 245 283 336
#     4   9  19  37  57  82 122 147 187 242 285 333
#     4   9  17  32  57  83 108 155 189 230 288 334
#
# _framework density 24.981560999999999
#
# number of rings (size 3 to 8) (size 9 to 14) (size 15 to 20)
#    0.000    2.333    3.333    1.500    0.000    1.333 
#    0.000    7.500    0.000    8.000    0.000    0.000 
#    0.000    0.000    0.000    0.000    0.000    0.000 
#
# Total GULP energy -67132.661906 kJ/mol
# GULP energy per Si atom -5594.388492 kJ/mol
# Density = 2.492470 g / cm^3
# Si number density = 24.981561 Si / 1000 Ang^3
#
#
#
# Elastic Constant Matrix: (Units=GPa)
#
#
# Indices 1 2 3 4 5 6 
#
# 1 106.8478 37.9018 43.1387 -1.7532 -12.5876 16.2237
# 2 37.9018 65.7372 27.8298 4.5560 -2.5500 19.1519
# 3 43.1387 27.8298 149.7615 -6.9514 -16.9948 13.0512
# 4 -1.7532 4.5560 -6.9514 37.2619 11.4868 -4.6145
# 5 -12.5876 -2.5500 -16.9948 11.4868 40.6521 -4.6658
# 6 16.2237 19.1519 13.0512 -4.6145 -4.6658 36.7068
#
#
#
# Elastic Compliance Matrix: (Units=1/GPa)
#
#
# Indices 1 2 3 4 5 6 
#
# 1 0.012883 -0.005969 -0.002186 -0.000039 0.002542 -0.001485
# 2 -0.005969 0.022350 -0.001971 -0.004146 -0.001130 -0.008987
# 3 -0.002186 -0.001971 0.008009 0.000884 0.002246 -0.000456
# 4 -0.000039 -0.004146 0.000884 0.030553 -0.007998 0.004691
# 5 0.002542 -0.001130 0.002246 -0.007998 0.028664 0.001306
# 6 -0.001485 -0.008987 -0.000456 0.004691 0.001306 0.033506
#
#
# Mechanical properties :
#
#
# Convention : Reuss Voigt Hill
#
# Bulk Modulus (GPa) = 43.49776 60.00969 51.75373
# Shear Modulus (GPa) = 30.51014 37.15591 33.83302
#
# Velocity S-wave (km/s) = 3.49851 3.86078 3.68410
# Velocity P-wave (km/s) = 5.81113 6.62932 6.23366
#
# Compressibility (1/GPa) = 0.02298969
#
# Stress axis : x y z
#
# Youngs Moduli (GPa) = 77.62122 44.74311 124.86147
#
# Poissons Ratio (x) = 0.26706 0.27293
# Poissons Ratio (y) = 0.46330 0.24616
# Poissons Ratio (z) = 0.16967 0.08821
#
# Static dielectric constant tensor:
#      x y z
#    x 1.959660 -0.027430 0.000020 
#    y -0.027430 2.061550 0.039260 
#    z 0.000020 0.039260 2.065620 
# 
# From -- ./inp_files/153632.got.cif
#   From: 2010.05.17/outbox.cif.g08.bks.cpg/sg2_77_cif.got.tgz:153632.got - 2010.06.03 11:33:40.
