data_PCOD9053668
_publ_section_title
;
Structure prediction by ZEFSAII (Michael W. Deem and Ramdas Pophale) SiO2 
 PCOD9053668
Probable space group: P -1
;
_chemical_formula_sum "Si O2"
_cell_formula_units_Z 16
_cell_length_a 9.962312
_cell_length_b 14.420967
_cell_length_c 12.824095
_cell_angle_alpha 30.781220
_cell_angle_beta 113.180992
_cell_angle_gamma 121.720003
_cell_volume 794.858675
_symmetry_space_group_name_H-M "P -1"
_symmetry_group_IT_number 2
_symmetry_cell_setting 'triclinic'
loop_
_space_group_symop_operation_xyz
x,y,z
-x,-y,-z
loop_
_atom_site_type_symbol
_atom_site_label
_atom_site_fract_x
_atom_site_fract_y
_atom_site_fract_z
Si Si1 0.528802 0.879620 0.029952
Si Si2 0.755556 0.549939 0.331011
Si Si3 0.273064 0.376912 0.114497
Si Si4 0.270715 0.839210 0.364320
Si Si5 0.555001 0.228164 0.324699
Si Si6 0.375804 0.473089 0.288201
Si Si7 0.105406 0.119930 0.125385
Si Si8 0.214370 0.225467 0.677088
O O1 0.393602 0.694527 0.110161
O O2 0.633287 0.785252 0.212678
O O3 0.500000 0.000000 0.000000
O O4 0.628131 0.020761 0.831923
O O5 0.817204 0.375650 0.504530
O O6 0.558789 0.480999 0.336645
O O7 0.828306 0.652613 0.364003
O O8 0.817160 0.708345 0.102711
O O9 0.410838 0.297769 0.208130
O O10 0.287240 0.399812 0.221568
O O11 0.133458 0.222256 0.149341
O O12 0.313412 0.598284 0.869763
O O13 0.378669 0.778054 0.535617
O O14 0.185235 0.960040 0.283988
O O15 0.500000 0.000000 0.500000
O O16 0.269751 0.332942 0.481174
O O17 0.921713 0.990515 0.171133
#
# Coordination Sequence:
#
# PCOD9053668 Si02
#       8
#     2   2   2   2   2   2   2   2
#     4  11  23  41  66  98 122 163 224 268 309 377
#     4  11  21  42  66  92 126 162 217 272 309 364
#     4  11  22  38  63  90 133 164 209 263 314 372
#     4  12  21  36  68  97 123 163 214 262 324 368
#     4  11  20  35  61  97 121 159 213 269 304 361
#     4  11  21  42  65  90 126 171 213 265 311 365
#     4  12  24  42  61  99 134 170 204 258 327 386
#     4  11  25  42  63  90 140 169 205 262 325 382
#
# _framework density 20.129365
#
# number of rings (size 3 to 8) (size 9 to 14) (size 15 to 20)
#    0.000    0.750    6.250    4.875    0.000    1.000 
#    2.250    0.000    0.000    1.500    0.000    0.000 
#    0.000    0.000    0.000    0.000    0.000    0.000 
#
# Total GULP energy -89096.369448 kJ/mol
# GULP energy per Si atom -5568.523090 kJ/mol
# Density = 2.008355 g / cm^3
# Si number density = 20.129365 Si / 1000 Ang^3
#
#
#
# Elastic Constant Matrix: (Units=GPa)
#
#
# Indices 1 2 3 4 5 6 
#
# 1 -3.3370 -15.5383 -22.7830 -2.1805 -12.0479 -46.7882
# 2 -15.5383 123.7837 -22.4448 -4.4262 -24.7839 -90.7552
# 3 -22.7830 -22.4448 60.9910 3.9371 -19.3087 -57.0255
# 4 -2.1805 -4.4262 3.9371 41.4999 -18.3820 10.5042
# 5 -12.0479 -24.7839 -19.3087 -18.3820 16.0430 -29.8541
# 6 -46.7882 -90.7552 -57.0255 10.5042 -29.8541 -15.0421
#
#
#
# Elastic Compliance Matrix: (Units=1/GPa)
#
#
# Indices 1 2 3 4 5 6 
#
# 1 0.041492 -0.009476 -0.006101 -0.003415 -0.019155 -0.013123
# 2 -0.009476 0.006191 -0.001791 0.000378 -0.000171 -0.000482
# 3 -0.006101 -0.001791 0.009901 -0.002155 -0.003224 -0.002861
# 4 -0.003415 0.000378 -0.002155 0.036902 0.024798 -0.006938
# 5 -0.019155 -0.000171 -0.003224 0.024798 0.051133 -0.011329
# 6 -0.013123 -0.000482 -0.002861 -0.006938 -0.011329 0.005730
#
#
# Mechanical properties :
#
#
# Convention : Reuss Voigt Hill
#
# Bulk Modulus (GPa) = 43.76854 6.65616 25.21235
# Shear Modulus (GPa) = 25.81300 24.64708 25.23004
#
# Velocity S-wave (km/s) = 3.58488 3.50299 3.54417
# Velocity P-wave (km/s) = 6.23907 4.43566 5.41300
#
# Compressibility (1/GPa) = 0.02284746
#
# Stress axis : x y z
#
# Youngs Moduli (GPa) = 24.10096 161.53708 100.99666
#
# Poissons Ratio (x) = 1.53079 0.61620
# Poissons Ratio (y) = 0.22839 0.18085
# Poissons Ratio (z) = 0.14705 0.28926
#
# Static dielectric constant tensor:
#      x y z
#    x 1.967890 -0.441930 0.072120 
#    y -0.441930 2.593000 -0.142250 
#    z 0.072120 -0.142250 1.697660 
# 
# From -- ./inp_files/432324.got.cif
#   From: 2010.05.17/outbox.cif.g08.bks.cpg/sg2_217_cif.got.tgz:432324.got - 2010.06.03 11:33:40.
