data_PCOD9053440
_publ_section_title
;
Structure prediction by ZEFSAII (Michael W. Deem and Ramdas Pophale) SiO2 
 PCOD9053440
Probable space group: P -1
;
_chemical_formula_sum "Si O2"
_cell_formula_units_Z 16
_cell_length_a 16.895562
_cell_length_b 13.989440
_cell_length_c 9.295483
_cell_angle_alpha 33.763381
_cell_angle_beta 141.707772
_cell_angle_gamma 144.748134
_cell_volume 665.191020
_symmetry_space_group_name_H-M "P -1"
_symmetry_group_IT_number 2
_symmetry_cell_setting 'triclinic'
loop_
_space_group_symop_operation_xyz
x,y,z
-x,-y,-z
loop_
_atom_site_type_symbol
_atom_site_label
_atom_site_fract_x
_atom_site_fract_y
_atom_site_fract_z
Si Si1 0.162272 0.352497 0.051845
Si Si2 0.532647 0.620866 0.542434
Si Si3 0.694104 0.625083 0.228488
Si Si4 0.097520 0.547506 0.941210
Si Si5 0.360653 0.001563 0.368842
Si Si6 0.170994 0.585388 0.497472
Si Si7 0.994325 0.051300 0.760604
Si Si8 0.687840 0.047030 0.303637
O O1 0.161147 0.412951 0.137289
O O2 0.141960 0.483108 0.738836
O O3 0.312784 0.360181 0.213398
O O4 0.031839 0.137831 0.124737
O O5 0.500000 0.500000 0.500000
O O6 0.412567 0.500953 0.639982
O O7 0.574374 0.850726 0.307138
O O8 0.711301 0.471649 0.336672
O O9 0.864077 0.766419 0.324125
O O10 0.647481 0.793156 0.906537
O O11 0.975538 0.511732 0.686877
O O12 0.251226 0.742459 0.944222
O O13 0.000000 0.500000 0.000000
O O14 0.234343 0.815279 0.336003
O O15 0.500000 0.000000 0.500000
O O16 0.356863 0.954570 0.592381
O O17 0.847274 0.061472 0.521653
O O18 0.000000 0.000000 0.000000
#
# Coordination Sequence:
#
# PCOD9053440 Si02
#       8
#     2   2   2   2   2   2   2   2
#     4  11  23  44  74 103 139 190 245 297 364 430
#     4  11  28  47  70  99 150 200 238 298 372 443
#     4  12  24  43  71 106 146 185 247 295 363 433
#     4  12  27  44  72 110 149 187 239 305 373 436
#     4  12  25  41  72 113 145 189 246 305 364 428
#     4  12  24  44  77 107 145 188 245 307 363 419
#     4  11  19  39  71 105 133 177 238 310 356 418
#     4  11  23  45  70 100 141 188 246 299 361 434
#
# _framework density 24.053242000000001
#
# number of rings (size 3 to 8) (size 9 to 14) (size 15 to 20)
#    0.000    0.500    5.000    3.375    1.750    3.500 
#    0.000    3.125    0.000    0.000    0.000    0.000 
#    0.000    0.000    0.000    0.000    0.000    0.000 
#
# Total GULP energy -89293.384383 kJ/mol
# GULP energy per Si atom -5580.836524 kJ/mol
# Density = 2.399850 g / cm^3
# Si number density = 24.053242 Si / 1000 Ang^3
#
#
#
# Elastic Constant Matrix: (Units=GPa)
#
#
# Indices 1 2 3 4 5 6 
#
# 1 204.7986 58.2925 5.3392 -12.7345 -5.2711 -2.0033
# 2 58.2925 175.4620 6.2704 -14.3025 -14.8207 -2.6502
# 3 5.3392 6.2704 24.2389 7.1248 10.4586 -7.3748
# 4 -12.7345 -14.3025 7.1248 32.4485 5.2797 10.2239
# 5 -5.2711 -14.8207 10.4586 5.2797 39.4360 1.2801
# 6 -2.0033 -2.6502 -7.3748 10.2239 1.2801 42.8156
#
#
#
# Elastic Compliance Matrix: (Units=1/GPa)
#
#
# Indices 1 2 3 4 5 6 
#
# 1 0.005505 -0.001586 -0.001725 0.001979 0.000353 -0.000621
# 2 -0.001586 0.006869 -0.004042 0.003172 0.003056 -0.001194
# 3 -0.001725 -0.004042 0.058879 -0.017412 -0.015502 0.014432
# 4 0.001979 0.003172 -0.017412 0.040561 0.001047 -0.012427
# 5 0.000353 0.003056 -0.015502 0.001047 0.030642 -0.003631
# 6 -0.000621 -0.001194 0.014432 -0.012427 -0.003631 0.028815
#
#
# Mechanical properties :
#
#
# Convention : Reuss Voigt Hill
#
# Bulk Modulus (GPa) = 17.68386 60.47817 39.08101
# Shear Modulus (GPa) = 24.41103 45.24652 34.82878
#
# Velocity S-wave (km/s) = 3.18917 4.34187 3.80937
# Velocity P-wave (km/s) = 4.57482 7.09463 5.96920
#
# Compressibility (1/GPa) = 0.05654875
#
# Stress axis : x y z
#
# Youngs Moduli (GPa) = 181.64752 145.58026 16.98389
#
# Poissons Ratio (x) = 0.23083 0.02930
# Poissons Ratio (y) = 0.28802 0.06864
# Poissons Ratio (z) = 0.31335 0.58840
#
# Static dielectric constant tensor:
#      x y z
#    x 1.874040 -0.000660 0.058420 
#    y -0.000660 2.117540 -0.241070 
#    z 0.058420 -0.241070 2.390950 
# 
# From -- ./inp_files/306606.got.cif
#   From: 2010.05.17/outbox.cif.g08.bks.cpg/sg2_154_cif.got.tgz:306606.got - 2010.06.03 11:33:40.
