data_PCOD9053817
_publ_section_title
;
Structure prediction by ZEFSAII (Michael W. Deem and Ramdas Pophale) SiO2 
 PCOD9053817
Probable space group: P -1
;
_chemical_formula_sum "Si O2"
_cell_formula_units_Z 15
_cell_length_a 10.895192
_cell_length_b 7.211064
_cell_length_c 15.112818
_cell_angle_alpha 75.972755
_cell_angle_beta 48.001479
_cell_angle_gamma 113.667920
_cell_volume 533.885754
_symmetry_space_group_name_H-M "P -1"
_symmetry_group_IT_number 2
_symmetry_cell_setting 'triclinic'
loop_
_space_group_symop_operation_xyz
x,y,z
-x,-y,-z
loop_
_atom_site_type_symbol
_atom_site_label
_atom_site_fract_x
_atom_site_fract_y
_atom_site_fract_z
Si Si1 0.803241 0.171486 0.485241
Si Si2 0.349831 0.369168 0.432735
Si Si3 0.875592 0.106768 0.806514
Si Si4 0.085876 0.079585 0.849384
Si Si5 0.500000 0.000000 0.500000
Si Si6 0.963931 0.565346 0.914399
Si Si7 0.651617 0.557486 0.783382
Si Si8 0.615810 0.979164 0.788648
O O1 0.712587 0.251284 0.453452
O O2 0.077258 0.303453 0.337591
O O3 0.615023 0.829274 0.573774
O O4 0.728292 0.161168 0.621721
O O5 0.602307 0.665951 0.330925
O O6 0.357524 0.458552 0.318339
O O7 0.088767 0.179959 0.636295
O O8 0.006181 0.204373 0.828423
O O9 0.780815 0.181863 0.773236
O O10 0.587929 0.754163 0.011434
O O11 0.929168 0.762270 0.919540
O O12 0.000000 0.000000 0.000000
O O13 0.757645 0.194610 0.294351
O O14 0.000000 0.500000 0.000000
O O15 0.695064 0.256397 0.031163
O O16 0.654405 0.785479 0.778160
#
# Coordination Sequence:
#
# PCOD9053817 Si02
#       8
#     2   2   2   2   1   2   2   2
#     4  11  21  40  66 100 138 175 226 287 332 407
#     4  11  22  39  61  99 136 169 221 285 342 387
#     4  12  21  35  65  97 132 171 219 290 335 386
#     4  12  25  44  68 103 141 178 224 287 348 400
#     4  12  26  40  68 100 140 184 220 270 352 406
#     4  12  26  47  71  99 143 183 226 280 338 418
#     4  11  20  37  66  99 136 166 230 293 329 387
#     4  11  20  39  65  98 130 171 230 290 333 379
#
# _framework density 28.095897999999998
#
# number of rings (size 3 to 8) (size 9 to 14) (size 15 to 20)
#    0.000    0.533    6.667    4.000    0.000    0.000 
#    0.000    0.000    0.000    5.600    0.000    0.000 
#    0.000    0.000    0.000    0.000    0.000    0.000 
#
# Total GULP energy -83843.305237 kJ/mol
# GULP energy per Si atom -5589.553682 kJ/mol
# Density = 2.803195 g / cm^3
# Si number density = 28.095898 Si / 1000 Ang^3
#
#
#
# Elastic Constant Matrix: (Units=GPa)
#
#
# Indices 1 2 3 4 5 6 
#
# 1 154.9792 48.1859 54.7269 7.0268 -16.6465 33.2259
# 2 48.1859 63.6729 3.1177 7.8919 -2.9563 -10.0514
# 3 54.7269 3.1177 181.0136 28.4106 -8.4803 8.9834
# 4 7.0268 7.8919 28.4106 31.4278 10.0541 1.1166
# 5 -16.6465 -2.9563 -8.4803 10.0541 73.7426 -8.2192
# 6 33.2259 -10.0514 8.9834 1.1166 -8.2192 59.9099
#
#
#
# Elastic Compliance Matrix: (Units=1/GPa)
#
#
# Indices 1 2 3 4 5 6 
#
# 1 0.013179 -0.011565 -0.003890 0.003586 0.000611 -0.008649
# 2 -0.011565 0.027072 0.003897 -0.008524 0.001278 0.010706
# 3 -0.003890 0.003897 0.007812 -0.007704 0.001448 0.001982
# 4 0.003586 -0.008524 -0.007704 0.042387 -0.006639 -0.003965
# 5 0.000611 0.001278 0.001448 -0.006639 0.015027 0.001844
# 6 -0.008649 0.010706 0.001982 -0.003965 0.001844 0.023314
#
#
# Mechanical properties :
#
#
# Convention : Reuss Voigt Hill
#
# Bulk Modulus (GPa) = 40.08502 67.96961 54.02732
# Shear Modulus (GPa) = 31.20614 52.59173 41.89893
#
# Velocity S-wave (km/s) = 3.33633 4.33120 3.86590
# Velocity P-wave (km/s) = 5.39812 7.01833 6.26085
#
# Compressibility (1/GPa) = 0.02494697
#
# Stress axis : x y z
#
# Youngs Moduli (GPa) = 75.87687 36.93826 128.00449
#
# Poissons Ratio (x) = 0.42718 0.49798
# Poissons Ratio (y) = 0.87749 -0.49879
# Poissons Ratio (z) = 0.29519 -0.14394
#
# Static dielectric constant tensor:
#      x y z
#    x 2.552170 -0.059140 0.129420 
#    y -0.059140 2.361710 -0.114360 
#    z 0.129420 -0.114360 2.163600 
# 
# From -- ./inp_files/260866.got.cif
#   From: 2010.05.17/outbox.cif.g08.bks.cpg/sg2_131_cif.got.tgz:260866.got - 2010.06.03 11:33:40.
