data_PCOD9053595
_publ_section_title
;
Structure prediction by ZEFSAII (Michael W. Deem and Ramdas Pophale) SiO2 
 PCOD9053595
Probable space group: P -1
;
_chemical_formula_sum "Si O2"
_cell_formula_units_Z 14
_cell_length_a 9.378391
_cell_length_b 7.217997
_cell_length_c 11.478066
_cell_angle_alpha 90.214054
_cell_angle_beta 63.705904
_cell_angle_gamma 130.299535
_cell_volume 483.712680
_symmetry_space_group_name_H-M "P -1"
_symmetry_group_IT_number 2
_symmetry_cell_setting 'triclinic'
loop_
_space_group_symop_operation_xyz
x,y,z
-x,-y,-z
loop_
_atom_site_type_symbol
_atom_site_label
_atom_site_fract_x
_atom_site_fract_y
_atom_site_fract_z
Si Si1 0.930893 0.838812 0.144496
Si Si2 0.657823 0.240632 0.697936
Si Si3 0.505872 0.778986 0.017903
Si Si4 0.567286 0.723218 0.752075
Si Si5 0.941053 0.434174 0.888252
Si Si6 0.812318 0.293286 0.413790
Si Si7 0.728543 0.796109 0.456522
O O1 0.683340 0.548542 0.199125
O O2 0.126211 0.842199 0.095068
O O3 0.898631 0.890965 0.287477
O O4 0.000000 0.000000 0.000000
O O5 0.507894 0.245226 0.835326
O O6 0.669907 0.294097 0.557105
O O7 0.922193 0.470471 0.643035
O O8 0.590646 0.968193 0.736503
O O9 0.225013 0.538935 0.085899
O O10 0.592915 0.718239 0.882139
O O11 0.500000 0.000000 0.000000
O O12 0.741749 0.779313 0.594097
O O13 0.165187 0.632281 0.726965
O O14 0.000000 0.500000 0.000000
O O15 0.723279 0.012964 0.454820
O O16 0.500000 0.500000 0.500000
#
# Coordination Sequence:
#
# PCOD9053595 Si02
#       7
#     2   2   2   2   2   2   2
#     4  11  22  35  56  83 123 160 186 238 309 358
#     4   8  16  30  57  84 103 147 198 238 282 331
#     4   9  17  32  60  83 112 148 190 249 288 334
#     4   9  17  34  55  83 110 151 195 238 288 343
#     4  11  20  33  57  91 116 147 204 252 284 344
#     4   9  17  33  57  84 111 149 200 243 283 344
#     4   9  19  34  53  80 120 159 183 227 299 363
#
# _framework density 28.942799000000001
#
# number of rings (size 3 to 8) (size 9 to 14) (size 15 to 20)
#    0.000    2.571    1.429    0.857    2.000    0.000 
#    0.000    6.429   15.714   38.571    0.000    0.000 
#    0.000    0.000    0.000    0.000    0.000    0.000 
#
# Total GULP energy -78166.265727 kJ/mol
# GULP energy per Si atom -5583.304695 kJ/mol
# Density = 2.887692 g / cm^3
# Si number density = 28.942799 Si / 1000 Ang^3
#
#
#
# Elastic Constant Matrix: (Units=GPa)
#
#
# Indices 1 2 3 4 5 6 
#
# 1 85.7074 11.9259 24.0440 -5.6076 -12.7920 -16.1335
# 2 11.9259 117.9584 46.9067 17.2567 -11.8897 -3.5700
# 3 24.0440 46.9067 328.3041 64.5717 1.8445 -19.2976
# 4 -5.6076 17.2567 64.5717 78.1356 -7.2515 -10.5221
# 5 -12.7920 -11.8897 1.8445 -7.2515 25.1368 -6.4785
# 6 -16.1335 -3.5700 -19.2976 -10.5221 -6.4785 32.2836
#
#
#
# Elastic Compliance Matrix: (Units=1/GPa)
#
#
# Indices 1 2 3 4 5 6 
#
# 1 0.016659 -0.000143 -0.001643 0.005377 0.013100 0.011709
# 2 -0.000143 0.009553 -0.001213 -0.000552 0.004636 0.001011
# 3 -0.001643 -0.001213 0.004022 -0.003462 -0.002763 -0.000234
# 4 0.005377 -0.000552 -0.003462 0.018267 0.010205 0.008558
# 5 0.013100 0.004636 -0.002763 0.010205 0.056986 0.020169
# 6 0.011709 0.001011 -0.000234 0.008558 0.020169 0.043636
#
#
# Mechanical properties :
#
#
# Convention : Reuss Voigt Hill
#
# Bulk Modulus (GPa) = 41.25732 77.52478 59.39105
# Shear Modulus (GPa) = 30.63752 57.05077 43.84415
#
# Velocity S-wave (km/s) = 3.25707 4.44459 3.89634
# Velocity P-wave (km/s) = 5.33202 7.29265 6.38801
#
# Compressibility (1/GPa) = 0.02423813
#
# Stress axis : x y z
#
# Youngs Moduli (GPa) = 60.02625 104.68168 248.62017
#
# Poissons Ratio (x) = 0.01497 0.40838
# Poissons Ratio (y) = 0.00858 0.30146
# Poissons Ratio (z) = 0.09860 0.12693
#
# Static dielectric constant tensor:
#      x y z
#    x 2.333400 0.207810 -0.126240 
#    y 0.207810 2.564490 -0.186710 
#    z -0.126240 -0.186710 2.389300 
# 
# From -- ./inp_files/444718.got.cif
#   From: 2010.05.17/outbox.cif.g08.bks.cpg/sg2_223_cif.got.tgz:444718.got - 2010.06.03 11:33:40.
