data_PCOD9053982
_publ_section_title
;
Structure prediction by ZEFSAII (Michael W. Deem and Ramdas Pophale) SiO2 
 PCOD9053982
Probable space group: P -1
;
_chemical_formula_sum "Si O2"
_cell_formula_units_Z 16
_cell_length_a 9.795213
_cell_length_b 12.787571
_cell_length_c 13.671120
_cell_angle_alpha 131.619062
_cell_angle_beta 129.630623
_cell_angle_gamma 86.928888
_cell_volume 755.322477
_symmetry_space_group_name_H-M "P -1"
_symmetry_group_IT_number 2
_symmetry_cell_setting 'triclinic'
loop_
_space_group_symop_operation_xyz
x,y,z
-x,-y,-z
loop_
_atom_site_type_symbol
_atom_site_label
_atom_site_fract_x
_atom_site_fract_y
_atom_site_fract_z
Si Si1 0.824642 0.766754 0.959091
Si Si2 0.080077 0.940394 0.373771
Si Si3 0.893557 0.201357 0.067225
Si Si4 0.510168 0.044343 0.419830
Si Si5 0.801889 0.445553 0.798133
Si Si6 0.933294 0.417596 0.628414
Si Si7 0.556716 0.905405 0.890190
Si Si8 0.239464 0.312293 0.759569
O O1 0.740841 0.576829 0.846789
O O2 0.646793 0.803528 0.910338
O O3 0.034745 0.905948 0.216170
O O4 0.906412 0.778557 0.891304
O O5 0.259240 0.918881 0.485288
O O6 0.851541 0.784328 0.234630
O O7 0.186784 0.145670 0.570916
O O8 0.696926 0.113653 0.838909
O O9 0.763147 0.055859 0.004568
O O10 0.972011 0.393125 0.261924
O O11 0.569451 0.237340 0.566433
O O12 0.500000 0.000000 0.500000
O O13 0.914847 0.465536 0.759386
O O14 0.000000 0.500000 0.000000
O O15 0.095286 0.364993 0.676947
O O16 0.681271 0.245990 0.369442
O O17 0.500000 0.000000 0.000000
O O18 0.500000 0.500000 0.000000
#
# Coordination Sequence:
#
# PCOD9053982 Si02
#       8
#     2   2   2   2   2   2   2   2
#     4  11  24  43  68 100 134 179 233 285 343 404
#     4  11  22  40  63  99 138 174 225 278 344 418
#     4  11  24  44  70 101 132 175 232 288 346 416
#     4  12  20  39  68 102 140 175 210 285 360 409
#     4  11  20  39  68 102 141 168 219 281 351 413
#     4  11  23  44  67  96 136 179 226 285 339 402
#     4  12  27  49  70  92 137 192 237 285 336 398
#     4  11  23  39  65  99 138 179 222 277 349 422
#
# _framework density 21.183007
#
# number of rings (size 3 to 8) (size 9 to 14) (size 15 to 20)
#    0.000    0.750    5.000    2.625    0.000    6.500 
#    2.250    0.000    0.000    0.000    0.000    0.000 
#    0.000    0.000    0.000    0.000    0.000    0.000 
#
# Total GULP energy -89296.295737 kJ/mol
# GULP energy per Si atom -5581.018484 kJ/mol
# Density = 2.113479 g / cm^3
# Si number density = 21.183007 Si / 1000 Ang^3
#
#
#
# Elastic Constant Matrix: (Units=GPa)
#
#
# Indices 1 2 3 4 5 6 
#
# 1 74.1433 41.0328 34.9645 13.8021 -15.3856 -24.3960
# 2 41.0328 98.1623 43.3848 23.9953 -7.9315 -31.0156
# 3 34.9645 43.3848 110.4043 32.9977 -5.5910 -16.3148
# 4 13.8021 23.9953 32.9977 45.6986 -3.1542 1.0271
# 5 -15.3856 -7.9315 -5.5910 -3.1542 35.4873 2.6508
# 6 -24.3960 -31.0156 -16.3148 1.0271 2.6508 41.1072
#
#
#
# Elastic Compliance Matrix: (Units=1/GPa)
#
#
# Indices 1 2 3 4 5 6 
#
# 1 0.021776 -0.004093 -0.003171 -0.001820 0.007256 0.008154
# 2 -0.004093 0.017777 -0.002125 -0.006760 0.000495 0.010277
# 3 -0.003171 -0.002125 0.013498 -0.007759 -0.000570 0.002102
# 4 -0.001820 -0.006760 -0.007759 0.031815 0.000057 -0.010059
# 5 0.007256 0.000495 -0.000570 0.000057 0.031168 0.002442
# 6 0.008154 0.010277 0.002102 -0.010059 0.002442 0.037848
#
#
# Mechanical properties :
#
#
# Convention : Reuss Voigt Hill
#
# Bulk Modulus (GPa) = 29.17916 57.94159 43.56037
# Shear Modulus (GPa) = 27.16127 35.34713 31.25420
#
# Velocity S-wave (km/s) = 3.58469 4.08935 3.84531
# Velocity P-wave (km/s) = 5.56220 7.05048 6.35009
#
# Compressibility (1/GPa) = 0.03427104
#
# Stress axis : x y z
#
# Youngs Moduli (GPa) = 45.92294 56.25137 74.08493
#
# Poissons Ratio (x) = 0.23026 0.23496
# Poissons Ratio (y) = 0.18798 0.15744
# Poissons Ratio (z) = 0.14564 0.11954
#
# Static dielectric constant tensor:
#      x y z
#    x 1.912400 -0.032040 0.027930 
#    y -0.032040 1.912700 0.073150 
#    z 0.027930 0.073150 1.789410 
# 
# From -- ./inp_files/504515.got.cif
#   From: 2010.05.17/outbox.cif.g08.bks.cpg/sg2_253_cif.got.tgz:504515.got - 2010.06.03 11:33:40.
