data_PCOD9053193
_publ_section_title
;
Structure prediction by ZEFSAII (Michael W. Deem and Ramdas Pophale) SiO2 
 PCOD9053193
Probable space group: P -1
;
_chemical_formula_sum "Si O2"
_cell_formula_units_Z 16
_cell_length_a 9.496534
_cell_length_b 13.592888
_cell_length_c 13.947708
_cell_angle_alpha 74.529845
_cell_angle_beta 145.281474
_cell_angle_gamma 121.255021
_cell_volume 828.090063
_symmetry_space_group_name_H-M "P -1"
_symmetry_group_IT_number 2
_symmetry_cell_setting 'triclinic'
loop_
_space_group_symop_operation_xyz
x,y,z
-x,-y,-z
loop_
_atom_site_type_symbol
_atom_site_label
_atom_site_fract_x
_atom_site_fract_y
_atom_site_fract_z
Si Si1 0.061452 0.472196 0.933689
Si Si2 0.151384 0.709548 0.854443
Si Si3 0.794228 0.944370 0.183533
Si Si4 0.875889 0.708589 0.892772
Si Si5 0.566085 0.215931 0.700907
Si Si6 0.918181 0.137536 0.367964
Si Si7 0.637330 0.026023 0.438483
Si Si8 0.139278 0.069029 0.159887
O O1 0.248904 0.412433 0.080267
O O2 0.760600 0.359227 0.748691
O O3 0.171771 0.591744 0.902959
O O4 0.000000 0.500000 0.000000
O O5 0.074066 0.747857 0.702068
O O6 0.471056 0.825695 0.030206
O O7 0.910093 0.688748 0.805269
O O8 0.042731 0.914995 0.351311
O O9 0.825991 0.039308 0.256710
O O10 0.889829 0.011190 0.117186
O O11 0.216562 0.788310 0.100296
O O12 0.745042 0.789283 0.817872
O O13 0.248174 0.177051 0.571585
O O14 0.504578 0.119195 0.609780
O O15 0.705377 0.075481 0.354435
O O16 0.403483 0.052700 0.340795
O O17 0.000000 0.000000 0.000000
#
# Coordination Sequence:
#
# PCOD9053193 Si02
#       8
#     2   2   2   2   2   2   2   2
#     4   8  18  31  55  78 106 145 179 227 266 316
#     4  11  19  33  56  83 106 143 188 221 272 312
#     4  11  23  35  56  81 118 140 180 228 274 324
#     4   9  18  35  52  78 109 141 180 221 265 328
#     4   9  18  35  52  79 109 140 181 221 275 308
#     4  11  21  33  58  83 115 138 179 238 265 317
#     4  11  22  36  55  82 116 146 174 222 283 322
#     4  12  21  35  57  82 111 146 180 223 272 337
#
# _framework density 19.321570000000001
#
# number of rings (size 3 to 8) (size 9 to 14) (size 15 to 20)
#    0.750    1.000    2.500    4.500    0.000    0.500 
#    0.000    0.000    0.000    7.500    0.000    0.000 
#    0.000    0.000    0.000    0.000    0.000    0.000 
#
# Total GULP energy -89160.096801 kJ/mol
# GULP energy per Si atom -5572.506050 kJ/mol
# Density = 1.927759 g / cm^3
# Si number density = 19.321570 Si / 1000 Ang^3
#
#
#
# Elastic Constant Matrix: (Units=GPa)
#
#
# Indices 1 2 3 4 5 6 
#
# 1 50.3023 19.3671 -3.2908 -8.1206 1.7226 5.9218
# 2 19.3671 118.8341 8.2631 -13.4298 10.9404 -12.2986
# 3 -3.2908 8.2631 46.7728 -10.5349 8.0113 -2.7004
# 4 -8.1206 -13.4298 -10.5349 20.8128 -0.6132 3.9666
# 5 1.7226 10.9404 8.0113 -0.6132 21.5949 -8.4570
# 6 5.9218 -12.2986 -2.7004 3.9666 -8.4570 25.0272
#
#
#
# Elastic Compliance Matrix: (Units=1/GPa)
#
#
# Indices 1 2 3 4 5 6 
#
# 1 0.025180 -0.003696 0.005604 0.012231 -0.006264 -0.011225
# 2 -0.003696 0.010212 -0.000399 0.004057 -0.002969 0.004203
# 3 0.005604 -0.000399 0.027278 0.016377 -0.011939 -0.005209
# 4 0.012231 0.004057 0.016377 0.065998 -0.012666 -0.013873
# 5 -0.006264 -0.002969 -0.011939 -0.012666 0.060705 0.021255
# 6 -0.011225 0.004203 -0.005209 -0.013873 0.021255 0.053497
#
#
# Mechanical properties :
#
#
# Convention : Reuss Voigt Hill
#
# Bulk Modulus (GPa) = 15.22360 29.39867 22.31114
# Shear Modulus (GPa) = 19.10237 26.25830 22.68034
#
# Velocity S-wave (km/s) = 3.14770 3.69048 3.42984
# Velocity P-wave (km/s) = 4.59422 5.77997 5.22087
#
# Compressibility (1/GPa) = 0.06568749
#
# Stress axis : x y z
#
# Youngs Moduli (GPa) = 39.71419 97.92295 36.65990
#
# Poissons Ratio (x) = 0.36194 -0.20545
# Poissons Ratio (y) = 0.14679 0.01463
# Poissons Ratio (z) = -0.22257 0.03909
#
# Static dielectric constant tensor:
#      x y z
#    x 1.679470 -0.006690 -0.024690 
#    y -0.006690 1.720070 -0.040640 
#    z -0.024690 -0.040640 1.691230 
# 
# From -- ./inp_files/502931.got.cif
#   From: 2010.05.17/outbox.cif.g08.bks.cpg/sg2_252_cif.got.tgz:502931.got - 2010.06.03 11:33:40.
