data_PCOD9053816
_publ_section_title
;
Structure prediction by ZEFSAII (Michael W. Deem and Ramdas Pophale) SiO2 
 PCOD9053816
Probable space group: P -1
;
_chemical_formula_sum "Si O2"
_cell_formula_units_Z 16
_cell_length_a 14.060053
_cell_length_b 8.009986
_cell_length_c 9.738543
_cell_angle_alpha 125.056989
_cell_angle_beta 64.689705
_cell_angle_gamma 80.543023
_cell_volume 675.742065
_symmetry_space_group_name_H-M "P -1"
_symmetry_group_IT_number 2
_symmetry_cell_setting 'triclinic'
loop_
_space_group_symop_operation_xyz
x,y,z
-x,-y,-z
loop_
_atom_site_type_symbol
_atom_site_label
_atom_site_fract_x
_atom_site_fract_y
_atom_site_fract_z
Si Si1 0.598057 0.925378 0.606599
Si Si2 0.043932 0.147147 0.753306
Si Si3 0.811458 0.424047 0.531295
Si Si4 0.395616 0.687684 0.046432
Si Si5 0.188996 0.559750 0.152057
Si Si6 0.860872 0.538945 0.271706
Si Si7 0.423953 0.530108 0.422913
Si Si8 0.351169 0.025071 0.704928
O O1 0.713165 0.642669 0.387297
O O2 0.592155 0.037254 0.513823
O O3 0.627762 0.054299 0.769004
O O4 0.460633 0.971745 0.720599
O O5 0.942688 0.234061 0.734653
O O6 0.129735 0.239321 0.685438
O O7 0.962251 0.308569 0.011029
O O8 0.117850 0.865389 0.615159
O O9 0.811795 0.516686 0.726915
O O10 0.879428 0.476676 0.392515
O O11 0.667656 0.541842 0.623011
O O12 0.279752 0.657842 0.124915
O O13 0.500000 0.500000 0.000000
O O14 0.460517 0.592638 0.815065
O O15 0.243505 0.307696 0.916597
O O16 0.500000 0.500000 0.500000
O O17 0.319157 0.824755 0.643996
#
# Coordination Sequence:
#
# PCOD9053816 Si02
#       8
#     2   2   2   2   2   2   2   2
#     4  11  20  38  70  96 132 180 226 281 346 408
#     4  11  26  46  72 100 135 192 238 282 348 412
#     4  12  26  47  71 104 144 180 234 298 341 409
#     4  12  21  42  68 101 139 183 222 282 353 416
#     4  12  24  42  72 102 139 185 234 280 353 420
#     4  11  25  45  71 100 137 182 242 290 341 409
#     4  12  26  41  66 105 141 178 230 288 354 416
#     4  11  20  37  66  99 134 177 226 279 345 419
#
# _framework density 23.677675000000001
#
# number of rings (size 3 to 8) (size 9 to 14) (size 15 to 20)
#    0.000    0.500    5.000    3.750    3.500    1.500 
#    0.000    2.500    0.000    0.000    0.000    0.000 
#    0.000    0.000    0.000    0.000    0.000    0.000 
#
# Total GULP energy -89283.396720 kJ/mol
# GULP energy per Si atom -5580.212295 kJ/mol
# Density = 2.362378 g / cm^3
# Si number density = 23.677675 Si / 1000 Ang^3
#
#
#
# Elastic Constant Matrix: (Units=GPa)
#
#
# Indices 1 2 3 4 5 6 
#
# 1 107.1538 9.1181 21.3378 -14.2628 3.1875 -24.9506
# 2 9.1181 69.3448 35.8373 -12.3445 11.7503 -4.0353
# 3 21.3378 35.8373 134.4234 -18.6894 29.2348 -10.7751
# 4 -14.2628 -12.3445 -18.6894 50.1674 -10.7002 15.9291
# 5 3.1875 11.7503 29.2348 -10.7002 39.6090 7.4297
# 6 -24.9506 -4.0353 -10.7751 15.9291 7.4297 22.6014
#
#
#
# Elastic Compliance Matrix: (Units=1/GPa)
#
#
# Indices 1 2 3 4 5 6 
#
# 1 0.013525 -0.000454 0.000287 -0.003538 -0.005755 0.019371
# 2 -0.000454 0.017143 -0.003900 0.002554 -0.001358 -0.000654
# 3 0.000287 -0.003900 0.010879 -0.001549 -0.008974 0.008848
# 4 -0.003538 0.002554 -0.001549 0.032502 0.015488 -0.032186
# 5 -0.005755 -0.001358 -0.008974 0.015488 0.043702 -0.036155
# 6 0.019371 -0.000654 0.008848 -0.032186 -0.036155 0.104301
#
#
# Mechanical properties :
#
#
# Convention : Reuss Voigt Hill
#
# Bulk Modulus (GPa) = 29.93000 49.27872 39.60436
# Shear Modulus (GPa) = 20.71909 38.78415 29.75162
#
# Velocity S-wave (km/s) = 2.96133 4.05162 3.54860
# Velocity P-wave (km/s) = 4.93565 6.53796 5.79248
#
# Compressibility (1/GPa) = 0.03341130
#
# Stress axis : x y z
#
# Youngs Moduli (GPa) = 73.93848 58.33390 91.91997
#
# Poissons Ratio (x) = 0.02648 -0.02634
# Poissons Ratio (y) = 0.03356 0.35851
# Poissons Ratio (z) = -0.02119 0.22751
#
# Static dielectric constant tensor:
#      x y z
#    x 2.039440 0.121700 -0.054570 
#    y 0.121700 2.086440 -0.036490 
#    z -0.054570 -0.036490 1.955800 
# 
# From -- ./inp_files/299440.got.cif
#   From: 2010.05.17/outbox.cif.g08.bks.cpg/sg2_150_cif.got.tgz:299440.got - 2010.06.03 11:33:40.
