data_PCOD9053927
_publ_section_title
;
Structure prediction by ZEFSAII (Michael W. Deem and Ramdas Pophale) SiO2 
 PCOD9053927
Probable space group: P -1
;
_chemical_formula_sum "Si O2"
_cell_formula_units_Z 16
_cell_length_a 9.964383
_cell_length_b 22.640651
_cell_length_c 18.693618
_cell_angle_alpha 17.197252
_cell_angle_beta 36.568952
_cell_angle_gamma 37.125158
_cell_volume 731.970217
_symmetry_space_group_name_H-M "P -1"
_symmetry_group_IT_number 2
_symmetry_cell_setting 'triclinic'
loop_
_space_group_symop_operation_xyz
x,y,z
-x,-y,-z
loop_
_atom_site_type_symbol
_atom_site_label
_atom_site_fract_x
_atom_site_fract_y
_atom_site_fract_z
Si Si1 0.455950 0.089406 0.180746
Si Si2 0.584027 0.384870 0.023826
Si Si3 0.150569 0.689212 0.298909
Si Si4 0.816603 0.746126 0.495815
Si Si5 0.729234 0.557216 0.045562
Si Si6 0.670344 0.146951 0.616113
Si Si7 0.083229 0.006027 0.706448
Si Si8 0.180571 0.218402 0.802213
O O1 0.610222 0.895599 0.374500
O O2 0.297453 0.007742 0.285136
O O3 0.626364 0.217559 0.920855
O O4 0.336212 0.233683 0.126164
O O5 0.772824 0.520298 0.763218
O O6 0.382877 0.415172 0.016495
O O7 0.500000 0.500000 0.000000
O O8 0.715959 0.153448 0.232333
O O9 0.194825 0.446906 0.556101
O O10 0.044755 0.762501 0.335568
O O11 0.964841 0.763571 0.230170
O O12 0.827081 0.820278 0.486683
O O13 0.631052 0.375082 0.337888
O O14 0.000000 0.500000 0.000000
O O15 0.440619 0.116230 0.791883
O O16 0.892949 0.105784 0.617149
O O17 0.955874 0.886340 0.958776
#
# Coordination Sequence:
#
# PCOD9053927 Si02
#       8
#     2   2   2   2   2   2   2   2
#     4  12  23  44  74 103 135 183 229 275 343 414
#     4  12  28  49  72 101 136 181 237 287 334 403
#     4  11  20  38  76 103 134 181 226 274 341 418
#     4  12  23  44  74 103 135 183 229 275 343 414
#     4  12  28  49  72 101 136 181 237 287 334 403
#     4  12  27  45  70 105 144 178 224 284 346 409
#     4  12  27  45  70 105 144 178 224 284 346 409
#     4  11  20  41  70 104 143 176 218 281 345 410
#
# _framework density 21.858813000000001
#
# number of rings (size 3 to 8) (size 9 to 14) (size 15 to 20)
#    0.000    0.250    7.500    1.500    3.500    2.000 
#    0.000    1.250    0.000    0.000    0.000    0.000 
#    0.000    0.000    0.000    0.000    0.000    0.000 
#
# Total GULP energy -89580.006038 kJ/mol
# GULP energy per Si atom -5598.750377 kJ/mol
# Density = 2.180906 g / cm^3
# Si number density = 21.858813 Si / 1000 Ang^3
#
#
#
# Elastic Constant Matrix: (Units=GPa)
#
#
# Indices 1 2 3 4 5 6 
#
# 1 110.9543 28.0675 5.9957 -11.0629 -0.9294 20.3622
# 2 28.0675 106.4053 -7.4328 -11.7139 2.9552 21.4451
# 3 5.9957 -7.4328 46.3557 -16.9736 -9.2541 7.6144
# 4 -11.0629 -11.7139 -16.9736 31.4600 6.2503 -11.6387
# 5 -0.9294 2.9552 -9.2541 6.2503 29.0039 -5.6444
# 6 20.3622 21.4451 7.6144 -11.6387 -5.6444 32.4000
#
#
#
# Elastic Compliance Matrix: (Units=1/GPa)
#
#
# Indices 1 2 3 4 5 6 
#
# 1 0.010501 -0.001627 -0.000567 0.001049 -0.000911 -0.005171
# 2 -0.001627 0.012025 0.004359 0.004146 -0.002111 -0.006840
# 3 -0.000567 0.004359 0.029406 0.015129 0.005052 -0.003124
# 4 0.001049 0.004146 0.015129 0.045885 -0.003723 0.008875
# 5 -0.000911 -0.002111 0.005052 -0.003723 0.038268 0.006112
# 6 -0.005171 -0.006840 -0.003124 0.008875 0.006112 0.043629
#
#
# Mechanical properties :
#
#
# Convention : Reuss Voigt Hill
#
# Bulk Modulus (GPa) = 17.77409 35.21957 26.49683
# Shear Modulus (GPa) = 25.75496 34.37843 30.06670
#
# Velocity S-wave (km/s) = 3.43628 3.97009 3.71279
# Velocity P-wave (km/s) = 4.88804 6.09613 5.52520
#
# Compressibility (1/GPa) = 0.05626166
#
# Stress axis : x y z
#
# Youngs Moduli (GPa) = 95.23062 83.15912 34.00655
#
# Poissons Ratio (x) = 0.13526 0.01930
# Poissons Ratio (y) = 0.15489 -0.14823
# Poissons Ratio (z) = 0.05404 -0.36247
#
# Static dielectric constant tensor:
#      x y z
#    x 1.740550 0.026960 0.000660 
#    y 0.026960 1.814690 0.032580 
#    z 0.000660 0.032580 1.851250 
# 
# From -- ./inp_files/202238.got.cif
#   From: 2010.05.17/outbox.cif.g08.bks.cpg/sg2_102_cif.got.tgz:202238.got - 2010.06.03 11:33:40.
