data_PCOD9053656
_publ_section_title
;
Structure prediction by ZEFSAII (Michael W. Deem and Ramdas Pophale) SiO2 
 PCOD9053656
Probable space group: P -1
;
_chemical_formula_sum "Si O2"
_cell_formula_units_Z 16
_cell_length_a 15.004185
_cell_length_b 14.171732
_cell_length_c 9.222151
_cell_angle_alpha 141.289075
_cell_angle_beta 136.730955
_cell_angle_gamma 40.261638
_cell_volume 748.647114
_symmetry_space_group_name_H-M "P -1"
_symmetry_group_IT_number 2
_symmetry_cell_setting 'triclinic'
loop_
_space_group_symop_operation_xyz
x,y,z
-x,-y,-z
loop_
_atom_site_type_symbol
_atom_site_label
_atom_site_fract_x
_atom_site_fract_y
_atom_site_fract_z
Si Si1 0.610778 0.740393 0.885444
Si Si2 0.824427 0.441506 0.953516
Si Si3 0.186781 0.054613 0.079015
Si Si4 0.789028 0.628796 0.421848
Si Si5 0.361891 0.935644 0.613101
Si Si6 0.460397 0.845898 0.300319
Si Si7 0.857578 0.667160 0.855361
Si Si8 0.079125 0.939855 0.366866
O O1 0.463179 0.800637 0.691265
O O2 0.743282 0.683458 0.859573
O O3 0.674187 0.585029 0.885064
O O4 0.597325 0.909024 0.150142
O O5 0.825653 0.262433 0.753405
O O6 0.856335 0.497998 0.216092
O O7 0.181482 0.204518 0.359822
O O8 0.971624 0.405909 0.994549
O O9 0.195895 0.141846 0.042926
O O10 0.328684 0.883690 0.079848
O O11 0.043875 0.029400 0.862833
O O12 0.616311 0.686635 0.279388
O O13 0.839516 0.570976 0.576442
O O14 0.400411 0.857174 0.404975
O O15 0.192124 0.008613 0.538741
O O16 0.500000 0.000000 0.500000
O O17 0.000000 0.000000 0.500000
#
# Coordination Sequence:
#
# PCOD9053656 Si02
#       8
#     2   2   2   2   2   2   2   2
#     4  11  21  38  63  92 118 159 212 257 294 355
#     4  11  22  37  63  91 119 162 205 248 305 368
#     4   8  18  34  60  83 121 159 198 241 310 351
#     4   9  18  34  61  88 114 154 208 247 295 348
#     4  11  23  38  62  91 126 159 205 253 304 364
#     4  10  17  35  61  89 118 153 203 255 298 352
#     4   9  18  33  56  88 118 148 202 258 295 338
#     4  11  25  42  59  85 131 164 195 251 319 367
#
# _framework density 21.371886
#
# number of rings (size 3 to 8) (size 9 to 14) (size 15 to 20)
#    0.750    1.250    1.250    3.750    0.000    4.000 
#    0.000    0.625    2.750    0.000    0.000    0.000 
#    0.000    0.000    0.000    0.000    0.000    0.000 
#
# Total GULP energy -89194.786580 kJ/mol
# GULP energy per Si atom -5574.674161 kJ/mol
# Density = 2.132324 g / cm^3
# Si number density = 21.371886 Si / 1000 Ang^3
#
#
#
# Elastic Constant Matrix: (Units=GPa)
#
#
# Indices 1 2 3 4 5 6 
#
# 1 66.4332 -8.5431 14.8206 -11.2433 -3.3451 -20.5631
# 2 -8.5431 96.1839 19.0240 -31.3861 11.1076 -16.8580
# 3 14.8206 19.0240 55.5586 -11.4156 3.6085 -6.7764
# 4 -11.2433 -31.3861 -11.4156 28.0723 -12.6243 2.4019
# 5 -3.3451 11.1076 3.6085 -12.6243 27.7664 -3.9676
# 6 -20.5631 -16.8580 -6.7764 2.4019 -3.9676 23.2337
#
#
#
# Elastic Compliance Matrix: (Units=1/GPa)
#
#
# Indices 1 2 3 4 5 6 
#
# 1 0.068950 0.048133 -0.008011 0.090204 0.044229 0.091840
# 2 0.048133 0.053124 -0.006463 0.085282 0.035084 0.076436
# 3 -0.008011 -0.006463 0.021286 -0.002727 -0.003220 -0.005840
# 4 0.090204 0.085282 -0.002727 0.192086 0.083783 0.135369
# 5 0.044229 0.035084 -0.003220 0.083783 0.075522 0.067897
# 6 0.091840 0.076436 -0.005840 0.135369 0.067897 0.175682
#
#
# Mechanical properties :
#
#
# Convention : Reuss Voigt Hill
#
# Bulk Modulus (GPa) = 4.74661 29.86430 17.30545
# Shear Modulus (GPa) = 8.48091 28.67276 18.57683
#
# Velocity S-wave (km/s) = 1.99421 3.66677 2.95145
# Velocity P-wave (km/s) = 2.74377 5.65075 4.44180
#
# Compressibility (1/GPa) = 0.21067664
#
# Stress axis : x y z
#
# Youngs Moduli (GPa) = 14.50319 18.82385 46.98009
#
# Poissons Ratio (x) = -0.90604 0.37636
# Poissons Ratio (y) = -0.69808 0.30364
# Poissons Ratio (z) = 0.11619 0.12166
#
# Static dielectric constant tensor:
#      x y z
#    x 1.781430 0.002080 -0.004700 
#    y 0.002080 1.807400 -0.013060 
#    z -0.004700 -0.013060 1.800610 
# 
# From -- ./inp_files/314293.got.cif
#   From: 2010.05.17/outbox.cif.g08.bks.cpg/sg2_158_cif.got.tgz:314293.got - 2010.06.03 11:33:40.
