data_PCOD9053133
_publ_section_title
;
Structure prediction by ZEFSAII (Michael W. Deem and Ramdas Pophale) SiO2 
 PCOD9053133
Probable space group: P -1
;
_chemical_formula_sum "Si O2"
_cell_formula_units_Z 16
_cell_length_a 12.096256
_cell_length_b 24.229023
_cell_length_c 6.639847
_cell_angle_alpha 134.520093
_cell_angle_beta 137.083587
_cell_angle_gamma 27.116559
_cell_volume 596.310863
_symmetry_space_group_name_H-M "P -1"
_symmetry_group_IT_number 2
_symmetry_cell_setting 'triclinic'
loop_
_space_group_symop_operation_xyz
x,y,z
-x,-y,-z
loop_
_atom_site_type_symbol
_atom_site_label
_atom_site_fract_x
_atom_site_fract_y
_atom_site_fract_z
Si Si1 0.064766 0.634446 0.781707
Si Si2 0.620645 0.647654 0.961264
Si Si3 0.523194 0.110704 0.016255
Si Si4 0.089152 0.379636 0.089990
Si Si5 0.123353 0.038557 0.226644
Si Si6 0.881821 0.867992 0.125496
Si Si7 0.503766 0.543609 0.409425
Si Si8 0.730024 0.184382 0.722353
O O1 0.216343 0.557721 0.583669
O O2 0.961544 0.598842 0.678559
O O3 0.297532 0.578059 0.086040
O O4 0.879107 0.776189 0.863564
O O5 0.715689 0.655858 0.908095
O O6 0.415022 0.662717 0.643189
O O7 0.498302 0.735440 0.212817
O O8 0.833233 0.511893 0.995405
O O9 0.221236 0.244991 0.940544
O O10 0.674964 0.128511 0.369512
O O11 0.643693 0.995891 0.013074
O O12 0.599089 0.072449 0.787247
O O13 0.131902 0.089460 0.561274
O O14 0.959430 0.118529 0.015338
O O15 0.000000 0.000000 0.000000
O O16 0.172909 0.786180 0.229129
O O17 0.500000 0.500000 0.500000
#
# Coordination Sequence:
#
# PCOD9053133 Si02
#       8
#     2   2   2   2   2   2   2   2
#     4  11  26  44  72 101 139 179 229 280 344 410
#     4  11  25  45  75  98 138 183 227 287 349 398
#     4  11  24  40  65 100 142 178 227 276 337 414
#     4  11  27  47  65 104 141 184 229 274 349 420
#     4  11  18  39  66 100 135 173 227 287 331 389
#     4  11  23  41  70 103 134 182 226 287 341 395
#     4  11  23  47  73 103 136 175 233 290 333 403
#     4  11  22  38  70 105 131 172 234 287 336 396
#
# _framework density 26.831641000000001
#
# number of rings (size 3 to 8) (size 9 to 14) (size 15 to 20)
#    0.000    1.000    3.750    3.000    3.500    4.500 
#    0.000    0.625    0.000    0.000    0.000    0.000 
#    0.000    0.000    0.000    0.000    0.000    0.000 
#
# Total GULP energy -89103.437913 kJ/mol
# GULP energy per Si atom -5568.964870 kJ/mol
# Density = 2.677057 g / cm^3
# Si number density = 26.831641 Si / 1000 Ang^3
#
#
#
# Elastic Constant Matrix: (Units=GPa)
#
#
# Indices 1 2 3 4 5 6 
#
# 1 171.0630 33.8024 46.9280 16.2811 -38.3542 14.8869
# 2 33.8024 113.9576 16.6463 -7.0720 -17.6357 18.7400
# 3 46.9280 16.6463 132.9445 17.2512 -21.7237 4.5169
# 4 16.2811 -7.0720 17.2512 33.5365 -1.7761 -6.2624
# 5 -38.3542 -17.6357 -21.7237 -1.7761 45.2299 6.9247
# 6 14.8869 18.7400 4.5169 -6.2624 6.9247 44.3064
#
#
#
# Elastic Compliance Matrix: (Units=1/GPa)
#
#
# Indices 1 2 3 4 5 6 
#
# 1 0.008632 -0.000925 -0.001124 -0.004202 0.006877 -0.004063
# 2 -0.000925 0.010589 -0.000523 0.002336 0.003857 -0.004387
# 3 -0.001124 -0.000523 0.009137 -0.004364 0.003283 -0.001462
# 4 -0.004202 0.002336 -0.004364 0.035593 -0.004358 0.006581
# 5 0.006877 0.003857 0.003283 -0.004358 0.032374 -0.009952
# 6 -0.004063 -0.004387 -0.001462 0.006581 -0.009952 0.028426
#
#
# Mechanical properties :
#
#
# Convention : Reuss Voigt Hill
#
# Bulk Modulus (GPa) = 43.07808 68.07985 55.57896
# Shear Modulus (GPa) = 36.32817 45.98712 41.15764
#
# Velocity S-wave (km/s) = 3.68357 4.14444 3.92078
# Velocity P-wave (km/s) = 5.84649 6.95197 6.42305
#
# Compressibility (1/GPa) = 0.02321366
#
# Stress axis : x y z
#
# Youngs Moduli (GPa) = 115.84386 94.43516 109.44763
#
# Poissons Ratio (x) = 0.08732 0.12306
# Poissons Ratio (y) = 0.10711 0.05728
# Poissons Ratio (z) = 0.13025 0.04942
#
# Static dielectric constant tensor:
#      x y z
#    x 2.326370 0.050990 -0.139640 
#    y 0.050990 2.335280 -0.128300 
#    z -0.139640 -0.128300 2.198520 
# 
# From -- ./inp_files/84549.got.cif
#   From: 2010.05.17/outbox.cif.g08.bks.cpg/sg2_43_cif.got.tgz:84549.got - 2010.06.03 11:33:40.
