data_PCOD9053339
_publ_section_title
;
Structure prediction by ZEFSAII (Michael W. Deem and Ramdas Pophale) SiO2 
 PCOD9053339
Probable space group: P -1
;
_chemical_formula_sum "Si O2"
_cell_formula_units_Z 16
_cell_length_a 6.560753
_cell_length_b 11.434510
_cell_length_c 21.102852
_cell_angle_alpha 38.045383
_cell_angle_beta 43.214406
_cell_angle_gamma 54.548932
_cell_volume 667.988625
_symmetry_space_group_name_H-M "P -1"
_symmetry_group_IT_number 2
_symmetry_cell_setting 'triclinic'
loop_
_space_group_symop_operation_xyz
x,y,z
-x,-y,-z
loop_
_atom_site_type_symbol
_atom_site_label
_atom_site_fract_x
_atom_site_fract_y
_atom_site_fract_z
Si Si1 0.293488 0.715509 0.812004
Si Si2 0.731480 0.323202 0.019178
Si Si3 0.740267 0.267079 0.619375
Si Si4 0.343509 0.483631 0.354098
Si Si5 0.694289 0.899257 0.869158
Si Si6 0.331847 0.944137 0.391759
Si Si7 0.268622 0.857646 0.580637
Si Si8 0.394126 0.322264 0.894087
O O1 0.272209 0.743339 0.879779
O O2 0.494365 0.894924 0.676987
O O3 0.409385 0.507970 0.857136
O O4 0.957782 0.752882 0.850275
O O5 0.601972 0.165294 0.070596
O O6 0.500000 0.500000 0.000000
O O7 0.080563 0.343443 0.918863
O O8 0.598908 0.427284 0.628100
O O9 0.043499 0.359765 0.482928
O O10 0.792743 0.097928 0.731433
O O11 0.554683 0.186689 0.635926
O O12 0.609836 0.340038 0.335542
O O13 0.347539 0.645522 0.229766
O O14 0.630158 0.857556 0.976026
O O15 0.058129 0.054505 0.372324
O O16 0.251332 0.821757 0.523606
O O17 0.500000 0.000000 0.500000
#
# Coordination Sequence:
#
# PCOD9053339 Si02
#       8
#     2   2   2   2   2   2   2   2
#     4  11  21  34  66 106 132 169 225 281 342 400
#     4  11  19  37  62 100 136 175 216 280 345 400
#     4  11  25  47  69  97 137 191 227 271 349 411
#     4  11  26  46  69  98 142 181 227 285 339 405
#     4  11  22  42  69  96 139 180 223 283 337 406
#     4  11  24  38  71 103 132 178 230 271 348 411
#     4  11  23  42  66 100 136 173 221 286 336 397
#     4  11  24  38  67 105 135 176 231 279 344 399
#
# _framework density 23.952503
#
# number of rings (size 3 to 8) (size 9 to 14) (size 15 to 20)
#    0.000    1.000    5.000    2.250    5.250    1.000 
#    0.000    0.625    0.000    0.000    0.000    0.000 
#    0.000    0.000    0.000    0.000    0.000    0.000 
#
# Total GULP energy -89155.257314 kJ/mol
# GULP energy per Si atom -5572.203582 kJ/mol
# Density = 2.389799 g / cm^3
# Si number density = 23.952503 Si / 1000 Ang^3
#
#
#
# Elastic Constant Matrix: (Units=GPa)
#
#
# Indices 1 2 3 4 5 6 
#
# 1 95.9131 13.8906 37.4853 5.4100 -10.1206 16.1295
# 2 13.8906 44.8709 14.1008 3.2180 0.2364 18.0569
# 3 37.4853 14.1008 140.9565 9.0145 13.2996 -0.9581
# 4 5.4100 3.2180 9.0145 16.7672 2.3139 6.5503
# 5 -10.1206 0.2364 13.2996 2.3139 34.5792 -3.1618
# 6 16.1295 18.0569 -0.9581 6.5503 -3.1618 20.9578
#
#
#
# Elastic Compliance Matrix: (Units=1/GPa)
#
#
# Indices 1 2 3 4 5 6 
#
# 1 0.014578 0.002099 -0.004747 0.001919 0.004749 -0.013128
# 2 0.002099 0.037666 -0.005036 0.009744 -0.001798 -0.037615
# 3 -0.004747 -0.005036 0.009666 -0.005978 -0.003783 0.009731
# 4 0.001919 0.009744 -0.005978 0.074468 -0.005318 -0.034222
# 5 0.004749 -0.001798 -0.003783 -0.005318 0.032524 0.004290
# 6 -0.013128 -0.037615 0.009731 -0.034222 0.004290 0.102016
#
#
# Mechanical properties :
#
#
# Convention : Reuss Voigt Hill
#
# Bulk Modulus (GPa) = 21.48495 45.85488 33.66991
# Shear Modulus (GPa) = 16.56730 28.87841 22.72285
#
# Velocity S-wave (km/s) = 2.63282 3.47602 3.08338
# Velocity P-wave (km/s) = 4.26985 5.94104 5.17337
#
# Compressibility (1/GPa) = 0.04654422
#
# Stress axis : x y z
#
# Youngs Moduli (GPa) = 68.59684 26.54882 103.45695
#
# Poissons Ratio (x) = -0.05574 0.49109
# Poissons Ratio (y) = -0.14401 0.52096
# Poissons Ratio (z) = 0.32562 0.13369
#
# Static dielectric constant tensor:
#      x y z
#    x 1.932600 -0.019960 -0.020400 
#    y -0.019960 1.934360 0.023900 
#    z -0.020400 0.023900 2.438240 
# 
# From -- ./inp_files/583250.got.cif
#   From: 2010.05.17/outbox.cif.g08.bks.cpg/sg2_292_cif.got.tgz:583250.got - 2010.06.03 11:33:40.
