data_PCOD9053046
_publ_section_title
;
Structure prediction by ZEFSAII (Michael W. Deem and Ramdas Pophale) SiO2 
 PCOD9053046
Probable space group: P -1
;
_chemical_formula_sum "Si O2"
_cell_formula_units_Z 16
_cell_length_a 11.368916
_cell_length_b 20.066527
_cell_length_c 11.745254
_cell_angle_alpha 33.512861
_cell_angle_beta 112.386908
_cell_angle_gamma 134.543431
_cell_volume 901.684677
_symmetry_space_group_name_H-M "P -1"
_symmetry_group_IT_number 2
_symmetry_cell_setting 'triclinic'
loop_
_space_group_symop_operation_xyz
x,y,z
-x,-y,-z
loop_
_atom_site_type_symbol
_atom_site_label
_atom_site_fract_x
_atom_site_fract_y
_atom_site_fract_z
Si Si1 0.101104 0.227719 0.905181
Si Si2 0.363292 0.019142 0.417207
Si Si3 0.966553 0.617093 0.801746
Si Si4 0.442018 0.631777 0.875038
Si Si5 0.830534 0.632888 0.510077
Si Si6 0.395181 0.509711 0.783979
Si Si7 0.607968 0.775095 0.067311
Si Si8 0.263765 0.172605 0.711232
O O1 0.099028 0.309025 0.675968
O O2 0.190193 0.356885 0.862850
O O3 0.252280 0.228228 0.928220
O O4 0.893499 0.018951 0.139069
O O5 0.432452 0.164484 0.329735
O O6 0.500000 0.000000 0.500000
O O7 0.385786 0.105672 0.182303
O O8 0.143383 0.818741 0.631157
O O9 0.949891 0.634617 0.636622
O O10 0.762641 0.507619 0.937484
O O11 0.000000 0.500000 0.000000
O O12 0.405216 0.596375 0.777617
O O13 0.547451 0.584849 0.021473
O O14 0.607818 0.432170 0.713951
O O15 0.833334 0.769785 0.368972
O O16 0.552485 0.666419 0.527264
O O17 0.675213 0.844635 0.122303
#
# Coordination Sequence:
#
# PCOD9053046 Si02
#       8
#     2   2   2   2   2   2   2   2
#     4  11  19  32  55  84 115 149 184 235 289 339
#     4  12  22  38  60  86 113 148 192 241 283 335
#     4  12  22  38  60  86 113 148 192 241 283 335
#     4  11  24  39  56  87 116 156 193 225 290 342
#     4  11  18  33  55  85 116 143 187 241 290 328
#     4  11  22  38  57  82 127 152 182 236 281 353
#     4  11  18  33  55  85 116 143 187 241 290 328
#     4  11  19  32  55  84 115 149 184 235 289 339
#
# _framework density 17.744561999999998
#
# number of rings (size 3 to 8) (size 9 to 14) (size 15 to 20)
#    0.000    0.750    7.500    3.750    0.000    1.000 
#    0.000    2.500    0.000    1.500    0.000    0.000 
#    0.000    0.000    0.000    0.000    0.000    0.000 
#
# Total GULP energy -89393.822727 kJ/mol
# GULP energy per Si atom -5587.113920 kJ/mol
# Density = 1.770417 g / cm^3
# Si number density = 17.744562 Si / 1000 Ang^3
#
#
#
# Elastic Constant Matrix: (Units=GPa)
#
#
# Indices 1 2 3 4 5 6 
#
# 1 20.8968 26.9193 13.7569 2.8773 14.2651 -6.1748
# 2 26.9193 159.4474 61.7578 -10.7946 10.2810 -16.3839
# 3 13.7569 61.7578 89.2775 -10.6301 17.2699 -8.4779
# 4 2.8773 -10.7946 -10.6301 54.9969 8.8978 -1.3100
# 5 14.2651 10.2810 17.2699 8.8978 17.7251 3.5913
# 6 -6.1748 -16.3839 -8.4779 -1.3100 3.5913 26.4659
#
#
#
# Elastic Compliance Matrix: (Units=1/GPa)
#
#
# Indices 1 2 3 4 5 6 
#
# 1 0.322956 -0.041036 0.061561 0.045227 -0.342788 0.118420
# 2 -0.041036 0.014153 -0.013285 -0.004765 0.042392 -0.011056
# 3 0.061561 -0.013285 0.032227 0.015117 -0.086697 0.028975
# 4 0.045227 -0.004765 0.015117 0.029316 -0.067759 0.023091
# 5 -0.342788 0.042392 -0.086697 -0.067759 0.455915 -0.146725
# 6 0.118420 -0.011056 0.028975 0.023091 -0.146725 0.088903
#
#
# Mechanical properties :
#
#
# Convention : Reuss Voigt Hill
#
# Bulk Modulus (GPa) = 2.60540 52.72106 27.66323
# Shear Modulus (GPa) = 4.73069 30.98344 17.85707
#
# Velocity S-wave (km/s) = 1.63456 4.18315 3.17573
# Velocity P-wave (km/s) = 2.24362 7.28747 5.39171
#
# Compressibility (1/GPa) = 0.38381792
#
# Stress axis : x y z
#
# Youngs Moduli (GPa) = 3.09639 70.65568 31.02997
#
# Poissons Ratio (x) = 2.89942 -1.91025
# Poissons Ratio (y) = 0.12706 0.41222
# Poissons Ratio (z) = -0.19062 0.93864
#
# Static dielectric constant tensor:
#      x y z
#    x 1.565540 0.003730 -0.002870 
#    y 0.003730 1.634460 -0.001020 
#    z -0.002870 -0.001020 1.611280 
# 
# From -- ./inp_files/422881.got.cif
#   From: 2010.05.17/outbox.cif.g08.bks.cpg/sg2_212_cif.got.tgz:422881.got - 2010.06.03 11:33:40.
