data_PCOD9053460
_publ_section_title
;
Structure prediction by ZEFSAII (Michael W. Deem and Ramdas Pophale) SiO2 
 PCOD9053460
Probable space group: P -1
;
_chemical_formula_sum "Si O2"
_cell_formula_units_Z 12
_cell_length_a 8.994127
_cell_length_b 8.696715
_cell_length_c 10.806411
_cell_angle_alpha 58.257569
_cell_angle_beta 82.351252
_cell_angle_gamma 116.383114
_cell_volume 564.374046
_symmetry_space_group_name_H-M "P -1"
_symmetry_group_IT_number 2
_symmetry_cell_setting 'triclinic'
loop_
_space_group_symop_operation_xyz
x,y,z
-x,-y,-z
loop_
_atom_site_type_symbol
_atom_site_label
_atom_site_fract_x
_atom_site_fract_y
_atom_site_fract_z
Si Si1 0.716523 0.095939 0.631398
Si Si2 0.338338 0.536055 0.502041
Si Si3 0.787495 0.799998 0.145483
Si Si4 0.876548 0.601754 0.672346
Si Si5 0.281351 0.886273 0.078973
Si Si6 0.444413 0.395954 0.185553
O O1 0.630709 0.233565 0.560687
O O2 0.753361 0.094754 0.777467
O O3 0.910743 0.220819 0.477123
O O4 0.580076 0.836645 0.711813
O O5 0.500000 0.500000 0.500000
O O6 0.189844 0.327215 0.694610
O O7 0.252438 0.492279 0.395731
O O8 0.619205 0.589861 0.169620
O O9 0.724465 0.961867 0.088755
O O10 0.000000 0.000000 0.000000
O O11 0.846663 0.380794 0.826588
O O12 0.763109 0.668656 0.735182
O O13 0.500000 0.000000 0.000000
O O14 0.500000 0.500000 0.000000
#
# Coordination Sequence:
#
# PCOD9053460 Si02
#       6
#     2   2   2   2   2   2
#     4  11  23  40  66  95 132 171 219 265 323 388
#     4  11  22  41  66  97 130 168 214 268 325 383
#     4  12  23  40  65  96 128 165 218 267 326 380
#     4  11  22  42  66  97 125 177 223 260 316 397
#     4  11  19  40  67  93 127 174 222 258 311 400
#     4  12  24  42  66  98 132 172 217 274 326 382
#
# _framework density 21.262492000000002
#
# number of rings (size 3 to 8) (size 9 to 14) (size 15 to 20)
#    0.000    0.667    5.000    5.500    0.000    0.667 
#    0.000    0.000    0.000    4.000    0.000    0.000 
#    0.000    0.000    0.000    0.000    0.000    0.000 
#
# Total GULP energy -66807.135030 kJ/mol
# GULP energy per Si atom -5567.261252 kJ/mol
# Density = 2.121410 g / cm^3
# Si number density = 21.262492 Si / 1000 Ang^3
#
#
#
# Elastic Constant Matrix: (Units=GPa)
#
#
# Indices 1 2 3 4 5 6 
#
# 1 101.8901 29.3150 24.8311 -18.3040 -7.8246 -21.5474
# 2 29.3150 51.8089 52.5291 -23.3360 2.4565 -26.5421
# 3 24.8311 52.5291 130.6324 -28.1557 -3.4172 -25.6101
# 4 -18.3040 -23.3360 -28.1557 43.4228 -9.2414 5.7192
# 5 -7.8246 2.4565 -3.4172 -9.2414 52.6240 -9.7741
# 6 -21.5474 -26.5421 -25.6101 5.7192 -9.7741 29.7971
#
#
#
# Elastic Compliance Matrix: (Units=1/GPa)
#
#
# Indices 1 2 3 4 5 6 
#
# 1 0.013424 -0.001683 0.001373 0.005386 0.004964 0.009983
# 2 -0.001683 0.065059 -0.012046 0.022282 0.008161 0.044782
# 3 0.001373 -0.012046 0.013348 0.003038 0.002535 0.001984
# 4 0.005386 0.022282 0.003038 0.038602 0.010921 0.022528
# 5 0.004964 0.008161 0.002535 0.010921 0.024998 0.019142
# 6 0.009983 0.044782 0.001984 0.022528 0.019142 0.084330
#
#
# Mechanical properties :
#
#
# Convention : Reuss Voigt Hill
#
# Bulk Modulus (GPa) = 14.89875 55.29797 35.09836
# Shear Modulus (GPa) = 17.43109 37.01254 27.22182
#
# Velocity S-wave (km/s) = 2.86633 4.17675 3.58197
# Velocity P-wave (km/s) = 4.23990 7.02311 5.80090
#
# Compressibility (1/GPa) = 0.06711974
#
# Stress axis : x y z
#
# Youngs Moduli (GPa) = 74.49379 15.37071 74.91811
#
# Poissons Ratio (x) = 0.02586 -0.10284
# Poissons Ratio (y) = 0.12534 0.90244
# Poissons Ratio (z) = -0.10226 0.18515
#
# Static dielectric constant tensor:
#      x y z
#    x 1.783880 -0.082350 -0.044140 
#    y -0.082350 1.788880 0.002590 
#    z -0.044140 0.002590 1.736360 
# 
# From -- ./inp_files/144732.got.cif
#   From: 2010.05.17/outbox.cif.g08.bks.cpg/sg2_73_cif.got.tgz:144732.got - 2010.06.03 11:33:40.
