data_PCOD9053449
_publ_section_title
;
Structure prediction by ZEFSAII (Michael W. Deem and Ramdas Pophale) SiO2 
 PCOD9053449
Probable space group: P -1
;
_chemical_formula_sum "Si O2"
_cell_formula_units_Z 16
_cell_length_a 11.552464
_cell_length_b 13.317472
_cell_length_c 9.338677
_cell_angle_alpha 34.083685
_cell_angle_beta 110.123729
_cell_angle_gamma 127.191283
_cell_volume 600.655367
_symmetry_space_group_name_H-M "P -1"
_symmetry_group_IT_number 2
_symmetry_cell_setting 'triclinic'
loop_
_space_group_symop_operation_xyz
x,y,z
-x,-y,-z
loop_
_atom_site_type_symbol
_atom_site_label
_atom_site_fract_x
_atom_site_fract_y
_atom_site_fract_z
Si Si1 0.002473 0.261339 0.838285
Si Si2 0.755917 0.781492 0.332830
Si Si3 0.797023 0.961970 0.566101
Si Si4 0.375920 0.246996 0.996125
Si Si5 0.109369 0.361853 0.080183
Si Si6 0.466365 0.244413 0.502473
Si Si7 0.252657 0.685018 0.304073
Si Si8 0.318951 0.670425 0.034733
O O1 0.849916 0.244128 0.761981
O O2 0.132493 0.412885 0.597718
O O3 0.070826 0.383759 0.875791
O O4 0.932030 0.003613 0.135293
O O5 0.672853 0.728513 0.209015
O O6 0.657684 0.821931 0.348629
O O7 0.736097 0.573325 0.641878
O O8 0.813115 0.767972 0.749760
O O9 0.638097 0.903429 0.501671
O O10 0.767729 0.938078 0.750264
O O11 0.948715 0.190553 0.298969
O O12 0.451448 0.492193 0.809386
O O13 0.503713 0.205767 0.079994
O O14 0.215261 0.593869 0.938722
O O15 0.596994 0.231177 0.638918
O O16 0.292297 0.752514 0.074712
#
# Coordination Sequence:
#
# PCOD9053449 Si02
#       8
#     2   2   2   2   2   2   2   2
#     4  11  26  43  61  89 126 170 203 245 311 372
#     4  11  20  40  63  94 122 154 207 261 304 355
#     4  11  22  36  61  98 125 159 198 259 312 358
#     4  11  21  35  62  99 123 154 202 261 310 352
#     4  11  22  40  59  90 131 160 201 249 311 368
#     4  11  19  40  62  90 125 158 205 254 305 358
#     4  11  25  43  64  89 123 166 209 249 305 369
#     4  11  22  39  65  94 125 156 205 260 307 354
#
# _framework density 26.637571999999999
#
# number of rings (size 3 to 8) (size 9 to 14) (size 15 to 20)
#    0.000    1.000    6.250    2.625    3.500    1.500 
#    0.000    0.000    0.000    1.500    0.000    0.000 
#    0.000    0.000    0.000    0.000    0.000    0.000 
#
# Total GULP energy -89736.897823 kJ/mol
# GULP energy per Si atom -5608.556114 kJ/mol
# Density = 2.657694 g / cm^3
# Si number density = 26.637572 Si / 1000 Ang^3
#
#
#
# Elastic Constant Matrix: (Units=GPa)
#
#
# Indices 1 2 3 4 5 6 
#
# 1 113.4023 25.0701 20.4722 -2.4254 -7.7761 15.2488
# 2 25.0701 77.8794 -2.5263 0.9290 -0.8250 13.3330
# 3 20.4722 -2.5263 79.2308 0.8777 -26.1982 -0.2838
# 4 -2.4254 0.9290 0.8777 36.6404 2.5215 4.8348
# 5 -7.7761 -0.8250 -26.1982 2.5215 45.1106 4.2552
# 6 15.2488 13.3330 -0.2838 4.8348 4.2552 38.8139
#
#
#
# Elastic Compliance Matrix: (Units=1/GPa)
#
#
# Indices 1 2 3 4 5 6 
#
# 1 0.010444 -0.002888 -0.002670 0.001238 0.000442 -0.003333
# 2 -0.002888 0.014506 0.001541 -0.000149 0.001042 -0.003933
# 3 -0.002670 0.001541 0.016411 -0.001213 0.009187 -0.000216
# 4 0.001238 -0.000149 -0.001213 0.028019 -0.001706 -0.003747
# 5 0.000442 0.001042 0.009187 -0.001706 0.028007 -0.003322
# 6 -0.003333 -0.003933 -0.000216 -0.003747 -0.003322 0.029254
#
#
# Mechanical properties :
#
#
# Convention : Reuss Voigt Hill
#
# Bulk Modulus (GPa) = 30.00687 39.61605 34.81146
# Shear Modulus (GPa) = 34.29746 39.27941 36.78844
#
# Velocity S-wave (km/s) = 3.59215 3.84420 3.72031
# Velocity P-wave (km/s) = 5.33798 5.88289 5.61705
#
# Compressibility (1/GPa) = 0.03332570
#
# Stress axis : x y z
#
# Youngs Moduli (GPa) = 95.75236 68.93649 60.93583
#
# Poissons Ratio (x) = 0.19909 0.16270
# Poissons Ratio (y) = 0.27653 -0.09388
# Poissons Ratio (z) = 0.25567 -0.10621
#
# Static dielectric constant tensor:
#      x y z
#    x 2.088500 -0.043730 0.127740 
#    y -0.043730 2.109300 -0.071050 
#    z 0.127740 -0.071050 2.115510 
# 
# From -- ./inp_files/175345.got.cif
#   From: 2010.05.17/outbox.cif.g08.bks.cpg/sg2_88_cif.got.tgz:175345.got - 2010.06.03 11:33:40.
