data_PCOD9053745
_publ_section_title
;
Structure prediction by ZEFSAII (Michael W. Deem and Ramdas Pophale) SiO2 
 PCOD9053745
Probable space group: P -1
;
_chemical_formula_sum "Si O2"
_cell_formula_units_Z 14
_cell_length_a 24.560468
_cell_length_b 9.648916
_cell_length_c 18.028453
_cell_angle_alpha 36.888950
_cell_angle_beta 159.896268
_cell_angle_gamma 151.863332
_cell_volume 681.884409
_symmetry_space_group_name_H-M "P -1"
_symmetry_group_IT_number 2
_symmetry_cell_setting 'triclinic'
loop_
_space_group_symop_operation_xyz
x,y,z
-x,-y,-z
loop_
_atom_site_type_symbol
_atom_site_label
_atom_site_fract_x
_atom_site_fract_y
_atom_site_fract_z
Si Si1 0.888769 0.907401 0.041362
Si Si2 0.665468 0.853665 0.544278
Si Si3 0.890888 0.311552 0.770218
Si Si4 0.558883 0.887433 0.054895
Si Si5 0.306832 0.629403 0.083844
Si Si6 0.104548 0.144387 0.491536
Si Si7 0.119752 0.368563 0.696814
O O1 0.863673 0.777478 0.146236
O O2 0.727862 0.625471 0.902841
O O3 0.119989 0.043296 0.256693
O O4 0.860763 0.150538 0.878979
O O5 0.500000 0.500000 0.500000
O O6 0.528984 0.859805 0.306273
O O7 0.733085 0.060664 0.614592
O O8 0.889112 0.584889 0.642828
O O9 0.120657 0.453345 0.978200
O O10 0.666705 0.746274 0.268739
O O11 0.348368 0.643688 0.849472
O O12 0.500000 0.000000 0.000000
O O13 0.718078 0.177603 0.085049
O O14 0.000000 0.000000 0.500000
O O15 0.983445 0.876362 0.393214
O O16 0.000000 0.500000 0.500000
#
# Coordination Sequence:
#
# PCOD9053745 Si02
#       7
#     2   2   2   2   2   2   2
#     4  11  22  40  66 100 141 177 230 287 336 412
#     4  11  20  36  68 102 133 181 231 271 343 414
#     4  11  24  42  63 102 145 176 222 291 350 397
#     4  12  24  44  75 101 133 184 237 283 340 416
#     4  11  20  39  68 102 135 177 232 283 331 412
#     4  12  28  48  67 104 147 179 227 296 348 406
#     4  12  26  46  73 102 135 189 234 281 347 413
#
# _framework density 20.531338000000002
#
# number of rings (size 3 to 8) (size 9 to 14) (size 15 to 20)
#    0.000    0.571    7.143    1.714    4.000    2.286 
#    0.000    0.714    0.000    0.000    0.000    0.000 
#    0.000    0.000    0.000    0.000    0.000    0.000 
#
# Total GULP energy -78089.869990 kJ/mol
# GULP energy per Si atom -5577.847856 kJ/mol
# Density = 2.048461 g / cm^3
# Si number density = 20.531338 Si / 1000 Ang^3
#
#
#
# Elastic Constant Matrix: (Units=GPa)
#
#
# Indices 1 2 3 4 5 6 
#
# 1 72.6301 51.9560 32.6648 -18.4193 -15.8762 5.5976
# 2 51.9560 144.2514 49.4249 -14.0447 -16.9099 1.2084
# 3 32.6648 49.4249 119.8731 1.1977 -14.6865 -13.3778
# 4 -18.4193 -14.0447 1.1977 51.3312 5.7451 -9.7338
# 5 -15.8762 -16.9099 -14.6865 5.7451 23.9807 -1.3058
# 6 5.5976 1.2084 -13.3778 -9.7338 -1.3058 38.7316
#
#
#
# Elastic Compliance Matrix: (Units=1/GPa)
#
#
# Indices 1 2 3 4 5 6 
#
# 1 0.022353 -0.005529 -0.003233 0.005248 0.007521 -0.002602
# 2 -0.005529 0.010023 -0.002431 0.000589 0.001769 -0.000146
# 3 -0.003233 -0.002431 0.011139 -0.001714 0.003600 0.004081
# 4 0.005248 0.000589 -0.001714 0.022633 -0.002351 0.004240
# 5 0.007521 0.001769 0.003600 -0.002351 0.050761 0.001222
# 6 -0.002602 -0.000146 0.004081 0.004240 0.001222 0.028716
#
#
# Mechanical properties :
#
#
# Convention : Reuss Voigt Hill
#
# Bulk Modulus (GPa) = 47.32858 67.20511 57.26685
# Shear Modulus (GPa) = 28.56262 36.32264 32.44263
#
# Velocity S-wave (km/s) = 3.73389 4.21067 3.97942
# Velocity P-wave (km/s) = 6.45687 7.51290 7.00481
#
# Compressibility (1/GPa) = 0.02112888
#
# Stress axis : x y z
#
# Youngs Moduli (GPa) = 44.73665 99.77301 89.77312
#
# Poissons Ratio (x) = 0.55164 0.29022
# Poissons Ratio (y) = 0.24735 0.21826
# Poissons Ratio (z) = 0.14463 0.24258
#
# Static dielectric constant tensor:
#      x y z
#    x 1.698480 0.070270 0.009850 
#    y 0.070270 1.683210 -0.110960 
#    z 0.009850 -0.110960 1.713030 
# 
# From -- ./inp_files/200102.got.cif
#   From: 2010.05.17/outbox.cif.g08.bks.cpg/sg2_101_cif.got.tgz:200102.got - 2010.06.03 11:33:40.
