data_PCOD9053255
_publ_section_title
;
Structure prediction by ZEFSAII (Michael W. Deem and Ramdas Pophale) SiO2 
 PCOD9053255
Probable space group: P -1
;
_chemical_formula_sum "Si O2"
_cell_formula_units_Z 16
_cell_length_a 11.527341
_cell_length_b 10.456878
_cell_length_c 16.628140
_cell_angle_alpha 44.884764
_cell_angle_beta 134.012488
_cell_angle_gamma 101.152541
_cell_volume 822.152697
_symmetry_space_group_name_H-M "P -1"
_symmetry_group_IT_number 2
_symmetry_cell_setting 'triclinic'
loop_
_space_group_symop_operation_xyz
x,y,z
-x,-y,-z
loop_
_atom_site_type_symbol
_atom_site_label
_atom_site_fract_x
_atom_site_fract_y
_atom_site_fract_z
Si Si1 0.393477 0.008679 0.055623
Si Si2 0.097399 0.445800 0.314672
Si Si3 0.854755 0.934084 0.932938
Si Si4 0.416444 0.487397 0.674546
Si Si5 0.499813 0.335339 0.508600
Si Si6 0.506403 0.354802 0.956372
Si Si7 0.147985 0.750110 0.717350
Si Si8 0.991483 0.361579 0.629962
O O1 0.295991 0.019570 0.088620
O O2 0.544308 0.748792 0.224583
O O3 0.479416 0.154469 0.032698
O O4 0.209266 0.131604 0.849540
O O5 0.328758 0.311135 0.464736
O O6 0.060515 0.520552 0.358583
O O7 0.994260 0.325432 0.299802
O O8 0.991241 0.668647 0.109773
O O9 0.713581 0.096362 0.722044
O O10 0.000000 0.000000 0.000000
O O11 0.530130 0.547343 0.643213
O O12 0.484301 0.452377 0.813946
O O13 0.180786 0.664293 0.466142
O O14 0.500000 0.500000 0.500000
O O15 0.318375 0.562209 0.822278
O O16 0.716712 0.265011 0.138051
O O17 0.000000 0.000000 0.500000
O O18 0.000000 0.500000 0.500000
#
# Coordination Sequence:
#
# PCOD9053255 Si02
#       8
#     2   2   2   2   2   2   2   2
#     4  11  21  35  61  92 129 162 193 262 320 372
#     4  11  22  39  58  90 122 160 217 254 301 371
#     4  11  19  35  57  89 128 158 199 244 308 373
#     4  12  23  38  60  97 135 157 200 261 322 382
#     4  12  21  34  61  91 125 169 199 241 312 389
#     4  11  25  42  61  95 123 164 217 260 315 368
#     4  11  26  44  68  86 121 172 219 262 302 371
#     4  11  20  32  56  90 128 156 196 247 327 368
#
# _framework density 19.461103000000001
#
# number of rings (size 3 to 8) (size 9 to 14) (size 15 to 20)
#    0.000    0.750    7.500    1.125    3.500    1.000 
#    0.000    0.625    0.000    1.500    0.000    0.000 
#    0.000    0.000    0.000    0.000    0.000    0.000 
#
# Total GULP energy -89363.612169 kJ/mol
# GULP energy per Si atom -5585.225761 kJ/mol
# Density = 1.941681 g / cm^3
# Si number density = 19.461103 Si / 1000 Ang^3
#
#
#
# Elastic Constant Matrix: (Units=GPa)
#
#
# Indices 1 2 3 4 5 6 
#
# 1 109.5343 34.3120 39.4725 19.9240 -12.6592 25.0518
# 2 34.3120 70.5035 63.0329 11.3169 0.9706 27.6273
# 3 39.4725 63.0329 146.9893 9.2264 -2.6012 21.7826
# 4 19.9240 11.3169 9.2264 34.2773 5.6154 -0.1824
# 5 -12.6592 0.9706 -2.6012 5.6154 36.5488 4.9711
# 6 25.0518 27.6273 21.7826 -0.1824 4.9711 30.0190
#
#
#
# Elastic Compliance Matrix: (Units=1/GPa)
#
#
# Indices 1 2 3 4 5 6 
#
# 1 0.015607 0.001144 -0.001742 -0.010501 0.008815 -0.014337
# 2 0.001144 0.035044 -0.010769 -0.010097 0.003798 -0.026083
# 3 -0.001742 -0.010769 0.011313 0.001571 -0.000188 0.003196
# 4 -0.010501 -0.010097 0.001571 0.040264 -0.012049 0.019156
# 5 0.008815 0.003798 -0.000188 -0.012049 0.034393 -0.016484
# 6 -0.014337 -0.026083 0.003196 0.019156 -0.016484 0.069808
#
#
# Mechanical properties :
#
#
# Convention : Reuss Voigt Hill
#
# Bulk Modulus (GPa) = 25.49011 66.74021 46.11516
# Shear Modulus (GPa) = 20.64078 32.84966 26.74522
#
# Velocity S-wave (km/s) = 3.26025 4.11294 3.71117
# Velocity P-wave (km/s) = 5.22481 7.54478 6.48931
#
# Compressibility (1/GPa) = 0.03923090
#
# Stress axis : x y z
#
# Youngs Moduli (GPa) = 64.07538 28.53579 88.39083
#
# Poissons Ratio (x) = -0.03265 0.15398
# Poissons Ratio (y) = -0.07332 0.95185
# Poissons Ratio (z) = 0.11162 0.30729
#
# Static dielectric constant tensor:
#      x y z
#    x 1.669230 -0.032330 -0.006900 
#    y -0.032330 1.666240 -0.013480 
#    z -0.006900 -0.013480 1.712430 
# 
# From -- ./inp_files/471943.got.cif
#   From: 2010.05.17/outbox.cif.g08.bks.cpg/sg2_236_cif.got.tgz:471943.got - 2010.06.03 11:33:40.
