data_PCOD9053524
_publ_section_title
;
Structure prediction by ZEFSAII (Michael W. Deem and Ramdas Pophale) SiO2 
 PCOD9053524
Probable space group: P -1
;
_chemical_formula_sum "Si O2"
_cell_formula_units_Z 14
_cell_length_a 9.133893
_cell_length_b 7.940170
_cell_length_c 16.664812
_cell_angle_alpha 145.723118
_cell_angle_beta 97.837519
_cell_angle_gamma 83.559274
_cell_volume 674.321565
_symmetry_space_group_name_H-M "P -1"
_symmetry_group_IT_number 2
_symmetry_cell_setting 'triclinic'
loop_
_space_group_symop_operation_xyz
x,y,z
-x,-y,-z
loop_
_atom_site_type_symbol
_atom_site_label
_atom_site_fract_x
_atom_site_fract_y
_atom_site_fract_z
Si Si1 0.376136 0.623436 0.979071
Si Si2 0.705162 0.753628 0.394311
Si Si3 0.115300 0.292389 0.764037
Si Si4 0.374135 0.125132 0.283422
Si Si5 0.772868 0.214804 0.717749
Si Si6 0.671202 0.203508 0.434791
Si Si7 0.517166 0.656021 0.838277
O O1 0.210628 0.495820 0.912348
O O2 0.435913 0.519154 0.857191
O O3 0.500000 0.500000 0.000000
O O4 0.373912 0.975931 0.137036
O O5 0.837847 0.646729 0.302303
O O6 0.590337 0.481923 0.292269
O O7 0.756896 0.924331 0.544494
O O8 0.630931 0.020904 0.440958
O O9 0.942777 0.308588 0.769850
O O10 0.181988 0.959756 0.649843
O O11 0.538365 0.161565 0.345878
O O12 0.305341 0.451763 0.409150
O O13 0.287082 0.895704 0.244212
O O14 0.674373 0.491794 0.786868
O O15 0.500000 0.000000 0.000000
#
# Coordination Sequence:
#
# PCOD9053524 Si02
#       7
#     2   2   2   2   2   2   2
#     4  11  19  43  57  78 119 155 184 227 291 337
#     4   9  20  42  56  80 114 154 182 235 283 335
#     4   9  21  38  60  80 117 151 182 234 293 328
#     4  11  21  34  62  87 109 151 189 234 275 340
#     4  12  21  37  60  87 114 144 196 237 279 327
#     4   9  20  38  58  85 109 152 189 222 292 333
#     4  11  24  37  60  87 109 151 196 234 270 338
#
# _framework density 20.761607999999999
#
# number of rings (size 3 to 8) (size 9 to 14) (size 15 to 20)
#    0.857    0.857    4.286    0.857    2.000    2.286 
#    0.000    4.286    0.000    0.000    0.000    0.000 
#    0.000    0.000    0.000    0.000    0.000    0.000 
#
# Total GULP energy -77993.941118 kJ/mol
# GULP energy per Si atom -5570.995794 kJ/mol
# Density = 2.071435 g / cm^3
# Si number density = 20.761608 Si / 1000 Ang^3
#
#
#
# Elastic Constant Matrix: (Units=GPa)
#
#
# Indices 1 2 3 4 5 6 
#
# 1 147.4514 6.4451 46.7323 9.1183 9.9305 -17.3951
# 2 6.4451 17.9546 3.1706 4.3171 0.3214 -2.2917
# 3 46.7323 3.1706 132.2848 11.4865 12.9962 -13.7893
# 4 9.1183 4.3171 11.4865 42.3828 -1.1883 -3.8124
# 5 9.9305 0.3214 12.9962 -1.1883 25.0051 -5.7893
# 6 -17.3951 -2.2917 -13.7893 -3.8124 -5.7893 13.5821
#
#
#
# Elastic Compliance Matrix: (Units=1/GPa)
#
#
# Indices 1 2 3 4 5 6 
#
# 1 0.008526 -0.001539 -0.002035 -0.000389 -0.000402 0.008313
# 2 -0.001539 0.058306 0.000212 -0.004986 0.001178 0.007185
# 3 -0.002035 0.000212 0.009237 -0.001710 -0.002898 0.005092
# 4 -0.000389 -0.004986 -0.001710 0.025249 0.003590 0.005541
# 5 -0.000402 0.001178 -0.002898 0.003590 0.045813 0.017277
# 6 0.008313 0.007185 0.005092 0.005541 0.017277 0.099575
#
#
# Mechanical properties :
#
#
# Convention : Reuss Voigt Hill
#
# Bulk Modulus (GPa) = 14.42061 45.59854 30.00957
# Shear Modulus (GPa) = 18.08020 32.28352 25.18186
#
# Velocity S-wave (km/s) = 2.95421 3.94758 3.48646
# Velocity P-wave (km/s) = 4.31247 6.54129 5.54012
#
# Compressibility (1/GPa) = 0.06934518
#
# Stress axis : x y z
#
# Youngs Moduli (GPa) = 117.28731 17.15093 108.25585
#
# Poissons Ratio (x) = 0.02640 0.22033
# Poissons Ratio (y) = 0.18054 -0.02300
# Poissons Ratio (z) = 0.23871 -0.00364
#
# Static dielectric constant tensor:
#      x y z
#    x 1.764890 0.061250 0.027820 
#    y 0.061250 1.823960 0.014070 
#    z 0.027820 0.014070 1.788940 
# 
# From -- ./inp_files/239393.got.cif
#   From: 2010.05.17/outbox.cif.g08.bks.cpg/sg2_120_cif.got.tgz:239393.got - 2010.06.03 11:33:40.
