data_PCOD9053187
_publ_section_title
;
Structure prediction by ZEFSAII (Michael W. Deem and Ramdas Pophale) SiO2 
 PCOD9053187
Probable space group: P -1
;
_chemical_formula_sum "Si O2"
_cell_formula_units_Z 16
_cell_length_a 9.115461
_cell_length_b 12.910283
_cell_length_c 7.901765
_cell_angle_alpha 47.217148
_cell_angle_beta 84.323205
_cell_angle_gamma 64.249607
_cell_volume 587.022489
_symmetry_space_group_name_H-M "P -1"
_symmetry_group_IT_number 2
_symmetry_cell_setting 'triclinic'
loop_
_space_group_symop_operation_xyz
x,y,z
-x,-y,-z
loop_
_atom_site_type_symbol
_atom_site_label
_atom_site_fract_x
_atom_site_fract_y
_atom_site_fract_z
Si Si1 0.242538 0.880989 0.424915
Si Si2 0.274610 0.156589 0.960330
Si Si3 0.013430 0.335809 0.243267
Si Si4 0.464282 0.222812 0.133372
Si Si5 0.089077 0.821335 0.822335
Si Si6 0.907164 0.394788 0.672616
Si Si7 0.663821 0.447999 0.341569
Si Si8 0.640880 0.854587 0.411816
O O1 0.226203 0.836479 0.671799
O O2 0.350680 0.712923 0.495232
O O3 0.037039 0.000533 0.275395
O O4 0.326064 0.987914 0.238626
O O5 0.368902 0.158743 0.776318
O O6 0.082468 0.220743 0.849186
O O7 0.299628 0.258701 0.993014
O O8 0.156679 0.261598 0.449345
O O9 0.048392 0.195316 0.262003
O O10 0.825409 0.391541 0.263735
O O11 0.000000 0.500000 0.000000
O O12 0.427849 0.208701 0.350898
O O13 0.593696 0.040661 0.253972
O O14 0.480848 0.376827 0.902361
O O15 0.162433 0.646738 0.101455
O O16 0.748125 0.447697 0.510325
O O17 0.000000 0.500000 0.500000
#
# Coordination Sequence:
#
# PCOD9053187 Si02
#       8
#     2   2   2   2   2   2   2   2
#     4   9  21  38  55  85 125 164 196 247 307 365
#     4  11  22  39  61  87 124 164 203 249 305 365
#     4  11  19  34  62  92 117 150 200 250 299 355
#     4  11  24  41  62  90 124 156 204 259 304 359
#     4   9  20  35  54  88 131 157 190 255 314 354
#     4  11  19  32  59  92 124 150 201 255 307 350
#     4  11  21  37  59  91 122 151 204 254 298 359
#     4  11  23  39  63  92 121 161 200 250 316 360
#
# _framework density 27.256195999999999
#
# number of rings (size 3 to 8) (size 9 to 14) (size 15 to 20)
#    0.000    1.500    3.750    2.625    0.000    2.000 
#    4.500    0.625    0.000    6.750    0.000    0.000 
#    0.000    0.000    0.000    0.000    0.000    0.000 
#
# Total GULP energy -89134.434116 kJ/mol
# GULP energy per Si atom -5570.902132 kJ/mol
# Density = 2.719416 g / cm^3
# Si number density = 27.256196 Si / 1000 Ang^3
#
#
#
# Elastic Constant Matrix: (Units=GPa)
#
#
# Indices 1 2 3 4 5 6 
#
# 1 47.7696 15.2946 22.4506 11.3583 -27.4414 -11.6029
# 2 15.2946 84.4811 63.0748 0.0671 -13.8273 3.1885
# 3 22.4506 63.0748 231.4609 4.8491 -10.4511 26.9265
# 4 11.3583 0.0671 4.8491 53.7323 6.3990 -3.9925
# 5 -27.4414 -13.8273 -10.4511 6.3990 49.2784 -4.0387
# 6 -11.6029 3.1885 26.9265 -3.9925 -4.0387 29.2685
#
#
#
# Elastic Compliance Matrix: (Units=1/GPa)
#
#
# Indices 1 2 3 4 5 6 
#
# 1 0.052639 -0.000374 -0.006794 -0.012078 0.031786 0.029897
# 2 -0.000374 0.015643 -0.004390 0.000246 0.003439 0.002694
# 3 -0.006794 -0.004390 0.007036 0.000642 -0.004360 -0.009202
# 4 -0.012078 0.000246 0.000642 0.021980 -0.009681 -0.003743
# 5 0.031786 0.003439 -0.004360 -0.009681 0.040977 0.020571
# 6 0.029897 0.002694 -0.009202 -0.003743 0.020571 0.056518
#
#
# Mechanical properties :
#
#
# Convention : Reuss Voigt Hill
#
# Bulk Modulus (GPa) = 19.15592 62.81683 40.98638
# Shear Modulus (GPa) = 21.24860 43.98198 32.61529
#
# Velocity S-wave (km/s) = 2.79514 4.02138 3.46297
# Velocity P-wave (km/s) = 4.17857 6.68273 5.57312
#
# Compressibility (1/GPa) = 0.05220318
#
# Stress axis : x y z
#
# Youngs Moduli (GPa) = 18.99724 63.92535 142.13121
#
# Poissons Ratio (x) = 0.02391 0.96558
# Poissons Ratio (y) = 0.00710 0.62395
# Poissons Ratio (z) = 0.12906 0.28063
#
# Static dielectric constant tensor:
#      x y z
#    x 2.373450 0.027800 0.000440 
#    y 0.027800 2.307400 0.015160 
#    z 0.000440 0.015160 2.232880 
# 
# From -- ./inp_files/271541.got.cif
#   From: 2010.05.17/outbox.cif.g08.bks.cpg/sg2_136_cif.got.tgz:271541.got - 2010.06.03 11:33:40.
