data_PCOD9053386
_publ_section_title
;
Structure prediction by ZEFSAII (Michael W. Deem and Ramdas Pophale) SiO2 
 PCOD9053386
Probable space group: P -1
;
_chemical_formula_sum "Si O2"
_cell_formula_units_Z 16
_cell_length_a 20.735122
_cell_length_b 9.722142
_cell_length_c 8.651747
_cell_angle_alpha 77.695910
_cell_angle_beta 119.139112
_cell_angle_gamma 49.933905
_cell_volume 718.249740
_symmetry_space_group_name_H-M "P -1"
_symmetry_group_IT_number 2
_symmetry_cell_setting 'triclinic'
loop_
_space_group_symop_operation_xyz
x,y,z
-x,-y,-z
loop_
_atom_site_type_symbol
_atom_site_label
_atom_site_fract_x
_atom_site_fract_y
_atom_site_fract_z
Si Si1 0.760827 0.459250 0.693533
Si Si2 0.285959 0.040124 0.790955
Si Si3 0.454859 0.963471 0.821284
Si Si4 0.309172 0.445853 0.087395
Si Si5 0.968910 0.619652 0.100808
Si Si6 0.817999 0.641022 0.114300
Si Si7 0.100599 0.986233 0.242592
Si Si8 0.849787 0.018074 0.345816
O O1 0.699934 0.710095 0.505436
O O2 0.772458 0.333736 0.593600
O O3 0.656230 0.583368 0.684746
O O4 0.936720 0.182107 0.019627
O O5 0.418737 0.873303 0.875469
O O6 0.285769 0.135464 0.920203
O O7 0.123561 0.346466 0.445496
O O8 0.276258 0.891588 0.854093
O O9 0.500000 0.000000 0.000000
O O10 0.567219 0.760809 0.855708
O O11 0.246616 0.391064 0.030338
O O12 0.189396 0.765832 0.821622
O O13 0.844375 0.729392 0.012566
O O14 0.000000 0.500000 0.000000
O O15 0.918078 0.862687 0.945957
O O16 0.988294 0.310744 0.448122
O O17 0.136843 0.988722 0.451497
#
# Coordination Sequence:
#
# PCOD9053386 Si02
#       8
#     2   2   2   2   2   2   2   2
#     4  11  25  40  65  98 129 168 214 268 321 375
#     4  11  24  40  66  95 129 172 213 260 327 376
#     4  12  25  46  66  87 129 180 219 255 310 394
#     4  12  25  42  66  93 134 172 215 259 312 390
#     4  11  19  38  64  97 131 162 205 267 326 376
#     4  11  23  38  65  98 130 168 209 263 324 381
#     4  11  22  38  67  99 132 161 208 271 329 376
#     4  11  23  40  66 101 130 163 207 273 326 374
#
# _framework density 22.276374000000001
#
# number of rings (size 3 to 8) (size 9 to 14) (size 15 to 20)
#    0.000    0.750    6.250    3.000    3.500    0.500 
#    0.000    0.000    0.000    2.250    0.000    0.000 
#    0.000    0.000    0.000    0.000    0.000    0.000 
#
# Total GULP energy -89442.848656 kJ/mol
# GULP energy per Si atom -5590.178041 kJ/mol
# Density = 2.222567 g / cm^3
# Si number density = 22.276374 Si / 1000 Ang^3
#
#
#
# Elastic Constant Matrix: (Units=GPa)
#
#
# Indices 1 2 3 4 5 6 
#
# 1 104.1521 23.6762 -2.9546 -7.7187 -0.6896 -14.6124
# 2 23.6762 92.8795 3.3606 1.7321 5.8893 -16.6544
# 3 -2.9546 3.3606 24.5148 0.7341 -9.6006 0.1421
# 4 -7.7187 1.7321 0.7341 22.4944 1.6846 -2.4002
# 5 -0.6896 5.8893 -9.6006 1.6846 27.7165 -4.5913
# 6 -14.6124 -16.6544 0.1421 -2.4002 -4.5913 38.7313
#
#
#
# Elastic Compliance Matrix: (Units=1/GPa)
#
#
# Indices 1 2 3 4 5 6 
#
# 1 0.011047 -0.002454 0.002278 0.004144 0.001928 0.003590
# 2 -0.002454 0.012442 -0.003203 -0.001037 -0.003088 0.004005
# 3 0.002278 -0.003203 0.048552 -0.001755 0.017879 0.001315
# 4 0.004144 -0.001037 -0.001755 0.046598 -0.002501 0.003715
# 5 0.001928 -0.003088 0.017879 -0.002501 0.043854 0.004378
# 6 0.003590 0.004005 0.001315 0.003715 0.004378 0.029640
#
#
# Mechanical properties :
#
#
# Convention : Reuss Voigt Hill
#
# Bulk Modulus (GPa) = 15.31786 29.96786 22.64286
# Shear Modulus (GPa) = 22.66010 30.95273 26.80641
#
# Velocity S-wave (km/s) = 3.19286 3.73163 3.47271
# Velocity P-wave (km/s) = 4.52589 5.66115 5.12505
#
# Compressibility (1/GPa) = 0.06528328
#
# Stress axis : x y z
#
# Youngs Moduli (GPa) = 90.51894 80.37614 20.59637
#
# Poissons Ratio (x) = 0.19728 -0.04692
# Poissons Ratio (y) = 0.22217 0.06596
# Poissons Ratio (z) = -0.20622 0.25742
#
# Static dielectric constant tensor:
#      x y z
#    x 1.837210 -0.003690 0.013490 
#    y -0.003690 1.804050 0.000840 
#    z 0.013490 0.000840 1.833350 
# 
# From -- ./inp_files/239978.got.cif
#   From: 2010.05.17/outbox.cif.g08.bks.cpg/sg2_120_cif.got.tgz:239978.got - 2010.06.03 11:33:40.
