data_PCOD9053772
_publ_section_title
;
Structure prediction by ZEFSAII (Michael W. Deem and Ramdas Pophale) SiO2 
 PCOD9053772
Probable space group: P -1
;
_chemical_formula_sum "Si O2"
_cell_formula_units_Z 12
_cell_length_a 13.110875
_cell_length_b 10.662474
_cell_length_c 23.558953
_cell_angle_alpha 156.688743
_cell_angle_beta 22.999056
_cell_angle_gamma 146.619859
_cell_volume 508.077391
_symmetry_space_group_name_H-M "P -1"
_symmetry_group_IT_number 2
_symmetry_cell_setting 'triclinic'
loop_
_space_group_symop_operation_xyz
x,y,z
-x,-y,-z
loop_
_atom_site_type_symbol
_atom_site_label
_atom_site_fract_x
_atom_site_fract_y
_atom_site_fract_z
Si Si1 0.843556 0.362709 0.271864
Si Si2 0.240075 0.579327 0.452146
Si Si3 0.714336 0.410651 0.797247
Si Si4 0.257491 0.182290 0.388292
Si Si5 0.196160 0.336896 0.985058
Si Si6 0.213140 0.241309 0.805054
O O1 0.119046 0.322295 0.149322
O O2 0.679780 0.579957 0.491879
O O3 0.946406 0.486284 0.209950
O O4 0.747114 0.020268 0.169204
O O5 0.324577 0.311177 0.345473
O O6 0.495523 0.663239 0.320644
O O7 0.000000 0.500000 0.500000
O O8 0.168530 0.896811 0.658144
O O9 0.462943 0.503790 0.928213
O O10 0.938282 0.212926 0.564091
O O11 0.662390 0.166981 0.774094
O O12 0.167561 0.268488 0.906186
O O13 0.000000 0.500000 0.000000
#
# Coordination Sequence:
#
# PCOD9053772 Si02
#       6
#     2   2   2   2   2   2
#     4   9  20  35  57  90 119 148 196 258 307 376
#     4  11  24  46  68  91 132 177 215 266 315 383
#     4   9  19  36  59  89 120 154 196 258 315 377
#     4   9  19  40  57  91 121 150 209 252 312 376
#     4  11  20  37  61  87 122 161 199 254 323 366
#     4  11  26  45  64  97 130 172 223 265 312 385
#
# _framework density 23.618449999999999
#
# number of rings (size 3 to 8) (size 9 to 14) (size 15 to 20)
#    1.000    1.000    1.667    1.500    0.000    5.333 
#    6.000    0.000    0.000    0.000    0.000    0.000 
#    0.000    0.000    0.000    0.000    0.000    0.000 
#
# Total GULP energy -66876.138593 kJ/mol
# GULP energy per Si atom -5573.011549 kJ/mol
# Density = 2.356469 g / cm^3
# Si number density = 23.618450 Si / 1000 Ang^3
#
#
#
# Elastic Constant Matrix: (Units=GPa)
#
#
# Indices 1 2 3 4 5 6 
#
# 1 136.1278 51.0268 47.0699 -7.2245 29.5579 -2.3002
# 2 51.0268 71.6429 5.0110 -0.0605 3.7701 -1.9188
# 3 47.0699 5.0110 54.3320 -5.1438 6.9668 3.9506
# 4 -7.2245 -0.0605 -5.1438 32.1675 -0.2966 7.4125
# 5 29.5579 3.7701 6.9668 -0.2966 35.3858 -2.1973
# 6 -2.3002 -1.9188 3.9506 7.4125 -2.1973 41.4074
#
#
#
# Elastic Compliance Matrix: (Units=1/GPa)
#
#
# Indices 1 2 3 4 5 6 
#
# 1 0.019649 -0.012331 -0.014213 0.001795 -0.012229 0.000906
# 2 -0.012331 0.021868 0.007682 -0.001487 0.006458 0.000204
# 3 -0.014213 0.007682 0.029853 0.002438 0.004982 -0.003454
# 4 0.001795 -0.001487 0.002438 0.033304 -0.001931 -0.006266
# 5 -0.012229 0.006458 0.004982 -0.001931 0.036880 0.001447
# 6 0.000906 0.000204 -0.003454 -0.006266 0.001447 0.025738
#
#
# Mechanical properties :
#
#
# Convention : Reuss Voigt Hill
#
# Bulk Modulus (GPa) = 29.72101 52.03535 40.87818
# Shear Modulus (GPa) = 23.12344 32.39181 27.75762
#
# Velocity S-wave (km/s) = 3.13236 3.70734 3.43191
# Velocity P-wave (km/s) = 5.06886 6.35652 5.74886
#
# Compressibility (1/GPa) = 0.03364623
#
# Stress axis : x y z
#
# Youngs Moduli (GPa) = 50.89355 45.72914 33.49723
#
# Poissons Ratio (x) = 0.56390 0.47610
# Poissons Ratio (y) = 0.62758 -0.25734
# Poissons Ratio (z) = 0.72335 -0.35131
#
# Static dielectric constant tensor:
#      x y z
#    x 1.885190 0.069900 -0.034730 
#    y 0.069900 1.872780 -0.027490 
#    z -0.034730 -0.027490 1.973800 
# 
# From -- ./inp_files/593862.got.cif
#   From: 2010.05.17/outbox.cif.g08.bks.cpg/sg2_297_cif.got.tgz:593862.got - 2010.06.03 11:33:40.
