data_PCOD9053399
_publ_section_title
;
Structure prediction by ZEFSAII (Michael W. Deem and Ramdas Pophale) SiO2 
 PCOD9053399
Probable space group: P -1
;
_chemical_formula_sum "Si O2"
_cell_formula_units_Z 16
_cell_length_a 14.202630
_cell_length_b 8.164272
_cell_length_c 7.443079
_cell_angle_alpha 125.017649
_cell_angle_beta 100.184295
_cell_angle_gamma 105.318796
_cell_volume 619.990621
_symmetry_space_group_name_H-M "P -1"
_symmetry_group_IT_number 2
_symmetry_cell_setting 'triclinic'
loop_
_space_group_symop_operation_xyz
x,y,z
-x,-y,-z
loop_
_atom_site_type_symbol
_atom_site_label
_atom_site_fract_x
_atom_site_fract_y
_atom_site_fract_z
Si Si1 0.304563 0.002447 0.374803
Si Si2 0.387515 0.830822 0.768840
Si Si3 0.527455 0.371956 0.594651
Si Si4 0.995663 0.036098 0.302682
Si Si5 0.188840 0.860992 0.630805
Si Si6 0.227884 0.330320 0.519079
Si Si7 0.932203 0.569575 0.880291
Si Si8 0.284028 0.523132 0.045435
O O1 0.421005 0.213958 0.566860
O O2 0.247012 0.125426 0.321532
O O3 0.234920 0.930300 0.487720
O O4 0.314355 0.784412 0.167921
O O5 0.427381 0.799380 0.567675
O O6 0.296967 0.911790 0.804819
O O7 0.316948 0.567151 0.625791
O O8 0.500000 0.000000 0.000000
O O9 0.500000 0.500000 0.500000
O O10 0.623592 0.517501 0.851359
O O11 0.882704 0.037362 0.243883
O O12 0.101943 0.255978 0.420930
O O13 0.000000 0.000000 0.500000
O O14 0.998161 0.835409 0.063036
O O15 0.103099 0.600550 0.404286
O O16 0.250923 0.371426 0.764360
O O17 0.819326 0.538448 0.905234
O O18 0.000000 0.500000 0.000000
#
# Coordination Sequence:
#
# PCOD9053399 Si02
#       8
#     2   2   2   2   2   2   2   2
#     4  11  22  40  72  97 136 183 237 280 353 414
#     4  12  28  49  68 102 150 186 235 296 355 415
#     4  12  25  45  66  98 142 185 236 293 347 417
#     4  12  21  40  70 107 139 177 239 290 345 423
#     4  11  24  44  71 103 141 188 230 291 354 419
#     4  12  25  44  71 108 140 185 238 288 354 424
#     4  11  19  38  70 101 136 175 229 292 346 405
#     4  11  23  41  69  99 137 183 237 283 349 422
#
# _framework density 25.806840999999999
#
# number of rings (size 3 to 8) (size 9 to 14) (size 15 to 20)
#    0.000    0.500    7.500    1.875    1.750    3.000 
#    0.000    0.625    0.000    0.000    0.000    0.000 
#    0.000    0.000    0.000    0.000    0.000    0.000 
#
# Total GULP energy -89368.140593 kJ/mol
# GULP energy per Si atom -5585.508787 kJ/mol
# Density = 2.574810 g / cm^3
# Si number density = 25.806841 Si / 1000 Ang^3
#
#
#
# Elastic Constant Matrix: (Units=GPa)
#
#
# Indices 1 2 3 4 5 6 
#
# 1 164.8745 42.1964 44.7316 17.1924 38.0919 -26.1653
# 2 42.1964 102.8201 45.0357 33.9738 14.9935 -11.7391
# 3 44.7316 45.0357 107.6943 21.5957 22.2724 -19.0057
# 4 17.1924 33.9738 21.5957 32.3696 0.9546 4.3241
# 5 38.0919 14.9935 22.2724 0.9546 58.1831 5.8260
# 6 -26.1653 -11.7391 -19.0057 4.3241 5.8260 41.9778
#
#
#
# Elastic Compliance Matrix: (Units=1/GPa)
#
#
# Indices 1 2 3 4 5 6 
#
# 1 0.009423 -0.000201 -0.000031 -0.005551 -0.006746 0.007311
# 2 -0.000201 0.018015 -0.001719 -0.018414 -0.004214 0.006616
# 3 -0.000031 -0.001719 0.014225 -0.008519 -0.005603 0.007595
# 4 -0.005551 -0.018414 -0.008519 0.061221 0.012692 -0.020534
# 5 -0.006746 -0.004214 -0.005603 0.012692 0.025910 -0.012823
# 6 0.007311 0.006616 0.007595 -0.020534 -0.012823 0.037563
#
#
# Mechanical properties :
#
#
# Convention : Reuss Voigt Hill
#
# Bulk Modulus (GPa) = 26.48209 71.03515 48.75862
# Shear Modulus (GPa) = 27.34556 42.73445 35.04000
#
# Velocity S-wave (km/s) = 3.25872 4.07373 3.68880
# Velocity P-wave (km/s) = 4.94398 7.05071 6.08915
#
# Compressibility (1/GPa) = 0.03776137
#
# Stress axis : x y z
#
# Youngs Moduli (GPa) = 106.12555 55.50880 70.30073
#
# Poissons Ratio (x) = 0.01114 0.00220
# Poissons Ratio (y) = 0.02130 0.12082
# Poissons Ratio (z) = 0.00332 0.09540
#
# Static dielectric constant tensor:
#      x y z
#    x 2.073500 -0.038290 0.095650 
#    y -0.038290 2.309430 0.014370 
#    z 0.095650 0.014370 2.141800 
# 
# From -- ./inp_files/299790.got.cif
#   From: 2010.05.17/outbox.cif.g08.bks.cpg/sg2_150_cif.got.tgz:299790.got - 2010.06.03 11:33:40.
