data_PCOD9053686
_publ_section_title
;
Structure prediction by ZEFSAII (Michael W. Deem and Ramdas Pophale) SiO2 
 PCOD9053686
Probable space group: P -1
;
_chemical_formula_sum "Si O2"
_cell_formula_units_Z 16
_cell_length_a 9.706176
_cell_length_b 30.520018
_cell_length_c 11.811725
_cell_angle_alpha 149.181180
_cell_angle_beta 49.900544
_cell_angle_gamma 150.412972
_cell_volume 808.882839
_symmetry_space_group_name_H-M "P -1"
_symmetry_group_IT_number 2
_symmetry_cell_setting 'triclinic'
loop_
_space_group_symop_operation_xyz
x,y,z
-x,-y,-z
loop_
_atom_site_type_symbol
_atom_site_label
_atom_site_fract_x
_atom_site_fract_y
_atom_site_fract_z
Si Si1 0.341122 0.609041 0.099076
Si Si2 0.208143 0.784918 0.757407
Si Si3 0.263780 0.895601 0.746315
Si Si4 0.640423 0.882611 0.425900
Si Si5 0.785931 0.838307 0.792154
Si Si6 0.765839 0.403214 0.624792
Si Si7 0.373048 0.375018 0.213903
Si Si8 0.448704 0.721916 0.950578
O O1 0.515640 0.762374 0.311225
O O2 0.346207 0.592876 0.193311
O O3 0.467540 0.581707 0.893393
O O4 0.000000 0.500000 0.000000
O O5 0.121076 0.789764 0.692500
O O6 0.171011 0.669850 0.529330
O O7 0.982136 0.740743 0.869522
O O8 0.547346 0.949812 0.964908
O O9 0.506438 0.922212 0.624293
O O10 0.998361 0.835355 0.679215
O O11 0.511597 0.819020 0.225909
O O12 0.000000 0.000000 0.500000
O O13 0.501220 0.709392 0.574754
O O14 0.638776 0.802193 0.912949
O O15 0.000000 0.000000 0.000000
O O16 0.086966 0.567070 0.778413
O O17 0.500000 0.500000 0.500000
O O18 0.427099 0.312055 0.120821
#
# Coordination Sequence:
#
# PCOD9053686 Si02
#       8
#     2   2   2   2   2   2   2   2
#     4  11  21  38  65 101 132 166 214 279 332 382
#     4  11  21  38  66  99 126 169 223 276 323 387
#     4  11  23  40  66  98 129 172 226 269 329 391
#     4  11  24  40  69 100 135 166 218 283 334 389
#     4  12  27  45  66  94 137 182 224 268 331 403
#     4  12  23  44  68  97 137 174 216 274 336 396
#     4  11  20  35  66 102 129 158 216 276 329 384
#     4  11  24  43  65  96 135 177 217 271 339 391
#
# _framework density 19.780366999999998
#
# number of rings (size 3 to 8) (size 9 to 14) (size 15 to 20)
#    0.000    0.750    7.500    1.875    3.500    0.000 
#    0.000    2.500    0.000    0.000    0.000    0.000 
#    0.000    0.000    0.000    0.000    0.000    0.000 
#
# Total GULP energy -89321.272766 kJ/mol
# GULP energy per Si atom -5582.579548 kJ/mol
# Density = 1.973535 g / cm^3
# Si number density = 19.780367 Si / 1000 Ang^3
#
#
#
# Elastic Constant Matrix: (Units=GPa)
#
#
# Indices 1 2 3 4 5 6 
#
# 1 59.0958 32.6542 16.8782 0.5074 8.0469 10.9900
# 2 32.6542 144.4107 42.8427 -2.8955 -0.9001 -1.9669
# 3 16.8782 42.8427 79.3669 -1.3516 0.6198 -0.6419
# 4 0.5074 -2.8955 -1.3516 47.6129 3.6282 4.6274
# 5 8.0469 -0.9001 0.6198 3.6282 26.9952 -2.4079
# 6 10.9900 -1.9669 -0.6419 4.6274 -2.4079 31.2831
#
#
#
# Elastic Compliance Matrix: (Units=1/GPa)
#
#
# Indices 1 2 3 4 5 6 
#
# 1 0.022921 -0.004636 -0.002369 0.000893 -0.007867 -0.009130
# 2 -0.004636 0.009197 -0.003974 0.000127 0.001964 0.002258
# 3 -0.002369 -0.003974 0.015256 0.000107 0.000290 0.000902
# 4 0.000893 0.000127 0.000107 0.021638 -0.003509 -0.003775
# 5 -0.007867 0.001964 0.000290 -0.003509 0.040502 0.006530
# 6 -0.009130 0.002258 0.000902 -0.003775 0.006530 0.036395
#
#
# Mechanical properties :
#
#
# Convention : Reuss Voigt Hill
#
# Bulk Modulus (GPa) = 39.34430 51.95817 45.65123
# Shear Modulus (GPa) = 28.35449 33.87814 31.11632
#
# Velocity S-wave (km/s) = 3.79022 4.14299 3.97052
# Velocity P-wave (km/s) = 6.25205 7.01501 6.64449
#
# Compressibility (1/GPa) = 0.02541664
#
# Stress axis : x y z
#
# Youngs Moduli (GPa) = 43.62754 108.72679 65.54980
#
# Poissons Ratio (x) = 0.50401 0.15531
# Poissons Ratio (y) = 0.20224 0.26049
# Poissons Ratio (z) = 0.10337 0.43207
#
# Static dielectric constant tensor:
#      x y z
#    x 1.668390 0.014960 0.009810 
#    y 0.014960 1.583940 -0.017040 
#    z 0.009810 -0.017040 1.755360 
# 
# From -- ./inp_files/281840.got.cif
#   From: 2010.05.17/outbox.cif.g08.bks.cpg/sg2_141_cif.got.tgz:281840.got - 2010.06.03 11:33:40.
