data_PCOD9053645
_publ_section_title
;
Structure prediction by ZEFSAII (Michael W. Deem and Ramdas Pophale) SiO2 
 PCOD9053645
Probable space group: P -1
;
_chemical_formula_sum "Si O2"
_cell_formula_units_Z 14
_cell_length_a 15.659267
_cell_length_b 15.082021
_cell_length_c 11.234352
_cell_angle_alpha 81.700272
_cell_angle_beta 87.722018
_cell_angle_gamma 161.431383
_cell_volume 692.438219
_symmetry_space_group_name_H-M "P -1"
_symmetry_group_IT_number 2
_symmetry_cell_setting 'triclinic'
loop_
_space_group_symop_operation_xyz
x,y,z
-x,-y,-z
loop_
_atom_site_type_symbol
_atom_site_label
_atom_site_fract_x
_atom_site_fract_y
_atom_site_fract_z
Si Si1 0.683703 0.368549 0.940484
Si Si2 0.869730 0.210881 0.724789
Si Si3 0.125937 0.283733 0.746148
Si Si4 0.572751 0.631740 0.804116
Si Si5 0.538967 0.668353 0.055406
Si Si6 0.459139 0.915179 0.646753
Si Si7 0.264289 0.841285 0.879649
O O1 0.652490 0.436991 0.878259
O O2 0.046030 0.705267 0.882029
O O3 0.516352 0.127201 0.909720
O O4 0.461654 0.143176 0.115569
O O5 0.111143 0.513915 0.733758
O O6 0.068041 0.319076 0.677343
O O7 0.742562 0.133787 0.630066
O O8 0.950831 0.029243 0.729667
O O9 0.901783 0.064355 0.920854
O O10 0.460743 0.585732 0.716814
O O11 0.475570 0.430364 0.836815
O O12 0.419972 0.510147 0.963339
O O13 0.447084 0.980085 0.733557
O O14 0.500000 0.000000 0.500000
O O15 0.000000 0.500000 0.000000
#
# Coordination Sequence:
#
# PCOD9053645 Si02
#       7
#     2   2   2   2   2   2   2
#     4  11  21  32  54  79 106 141 174 216 257 317
#     4  11  20  35  55  78 104 137 176 221 260 310
#     4   9  17  26  45  69  98 136 168 202 250 309
#     4   9  16  26  42  68 106 144 159 196 256 317
#     4   8  19  25  44  68 109 138 164 199 258 310
#     4  12  25  39  55  75 106 140 179 225 265 306
#     4  12  22  36  55  76 104 137 182 216 263 315
#
# _framework density 20.218409000000001
#
# number of rings (size 3 to 8) (size 9 to 14) (size 15 to 20)
#    0.857    0.857    2.857    3.000    4.000    0.000 
#    0.000    0.000    0.000    0.000    0.000    0.000 
#    0.000   22.857    0.000    0.000    0.000    0.000 
#
# Total GULP energy -78014.749118 kJ/mol
# GULP energy per Si atom -5572.482080 kJ/mol
# Density = 2.017239 g / cm^3
# Si number density = 20.218409 Si / 1000 Ang^3
#
#
#
# Elastic Constant Matrix: (Units=GPa)
#
#
# Indices 1 2 3 4 5 6 
#
# 1 97.0015 12.7119 15.2219 11.0578 17.3528 9.2395
# 2 12.7119 65.2607 -3.1160 10.5869 11.0968 25.5478
# 3 15.2219 -3.1160 24.8999 13.9442 7.4101 1.1659
# 4 11.0578 10.5869 13.9442 18.0844 7.3128 4.8367
# 5 17.3528 11.0968 7.4101 7.3128 9.2900 6.2533
# 6 9.2395 25.5478 1.1659 4.8367 6.2533 31.4049
#
#
#
# Elastic Compliance Matrix: (Units=1/GPa)
#
#
# Indices 1 2 3 4 5 6 
#
# 1 0.015927 0.001927 -0.001771 0.004236 -0.033916 -0.000087
# 2 0.001927 0.032486 0.026020 -0.021717 -0.034059 -0.017834
# 3 -0.001771 0.026020 0.097690 -0.068584 -0.049053 -0.003943
# 4 0.004236 -0.021717 -0.068584 0.130435 -0.033703 0.005589
# 5 -0.033916 -0.034059 -0.049053 -0.033703 0.285515 -0.012154
# 6 -0.000087 -0.017834 -0.003943 0.005589 -0.012154 0.048081
#
#
# Mechanical properties :
#
#
# Convention : Reuss Voigt Hill
#
# Bulk Modulus (GPa) = 5.03894 26.31088 15.67491
# Shear Modulus (GPa) = 8.01367 22.57882 15.29625
#
# Velocity S-wave (km/s) = 1.99303 3.34540 2.75353
# Velocity P-wave (km/s) = 2.79175 5.28809 4.22834
#
# Compressibility (1/GPa) = 0.19845439
#
# Stress axis : x y z
#
# Youngs Moduli (GPa) = 62.78630 30.78264 10.23648
#
# Poissons Ratio (x) = -0.05931 0.01813
# Poissons Ratio (y) = -0.12097 -0.26635
# Poissons Ratio (z) = 0.11117 -0.80096
#
# Static dielectric constant tensor:
#      x y z
#    x 1.773370 -0.002870 0.033720 
#    y -0.002870 1.740550 -0.008740 
#    z 0.033720 -0.008740 1.726750 
# 
# From -- ./inp_files/453789.got.cif
#   From: 2010.05.17/outbox.cif.g08.bks.cpg/sg2_227_cif.got.tgz:453789.got - 2010.06.03 11:33:40.
