data_PCOD9053497
_publ_section_title
;
Structure prediction by ZEFSAII (Michael W. Deem and Ramdas Pophale) SiO2 
 PCOD9053497
Probable space group: P -1
;
_chemical_formula_sum "Si O2"
_cell_formula_units_Z 16
_cell_length_a 18.577587
_cell_length_b 21.536022
_cell_length_c 11.829925
_cell_angle_alpha 152.859151
_cell_angle_beta 148.724122
_cell_angle_gamma 19.203276
_cell_volume 706.937285
_symmetry_space_group_name_H-M "P -1"
_symmetry_group_IT_number 2
_symmetry_cell_setting 'triclinic'
loop_
_space_group_symop_operation_xyz
x,y,z
-x,-y,-z
loop_
_atom_site_type_symbol
_atom_site_label
_atom_site_fract_x
_atom_site_fract_y
_atom_site_fract_z
Si Si1 0.144277 0.235310 0.886639
Si Si2 0.472955 0.397795 0.127995
Si Si3 0.133770 0.536182 0.450580
Si Si4 0.673300 0.532669 0.630729
Si Si5 0.659891 0.959181 0.396600
Si Si6 0.989305 0.846586 0.243067
Si Si7 0.370760 0.940307 0.050415
Si Si8 0.570642 0.582987 0.165928
O O1 0.313795 0.116466 0.819020
O O2 0.908067 0.406300 0.785518
O O3 0.156318 0.093405 0.749949
O O4 0.146468 0.363747 0.178388
O O5 0.626524 0.408531 0.383737
O O6 0.233016 0.601921 0.191181
O O7 0.580002 0.176678 0.957275
O O8 0.427764 0.438304 0.000057
O O9 0.307865 0.456102 0.460081
O O10 0.205134 0.537717 0.669535
O O11 0.891364 0.765576 0.457926
O O12 0.494548 0.751667 0.816810
O O13 0.596717 0.164016 0.631335
O O14 0.479262 0.005561 0.292775
O O15 0.000000 0.000000 0.500000
O O16 0.878875 0.873182 0.024161
O O17 0.500000 0.500000 0.000000
#
# Coordination Sequence:
#
# PCOD9053497 Si02
#       8
#     2   2   2   2   2   2   2   2
#     4  11  22  42  73 110 134 168 234 295 345 389
#     4  12  26  47  63  99 152 178 223 280 336 417
#     4  11  22  45  72 103 137 171 229 292 339 398
#     4  11  19  41  71  99 139 169 214 296 343 387
#     4  11  25  44  74 103 134 182 231 287 341 401
#     4  12  25  37  67 105 135 180 221 280 350 402
#     4  12  23  43  71 104 133 176 230 285 352 392
#     4  12  29  47  66  98 142 192 227 271 337 423
#
# _framework density 22.632840999999999
#
# number of rings (size 3 to 8) (size 9 to 14) (size 15 to 20)
#    0.000    0.500    6.250    2.625    3.500    3.000 
#    0.000    4.375    0.000    0.000    0.000    0.000 
#    0.000    0.000    0.000    0.000    0.000    0.000 
#
# Total GULP energy -89555.356520 kJ/mol
# GULP energy per Si atom -5597.209783 kJ/mol
# Density = 2.258133 g / cm^3
# Si number density = 22.632841 Si / 1000 Ang^3
#
#
#
# Elastic Constant Matrix: (Units=GPa)
#
#
# Indices 1 2 3 4 5 6 
#
# 1 102.4718 0.9911 34.1804 -9.0850 16.9745 21.1269
# 2 0.9911 61.5821 22.1642 -11.1905 13.2229 12.4614
# 3 34.1804 22.1642 116.9704 -11.7445 18.8760 8.5678
# 4 -9.0850 -11.1905 -11.7445 35.8752 10.7729 1.8190
# 5 16.9745 13.2229 18.8760 10.7729 42.3052 -1.6469
# 6 21.1269 12.4614 8.5678 1.8190 -1.6469 26.6962
#
#
#
# Elastic Compliance Matrix: (Units=1/GPa)
#
#
# Indices 1 2 3 4 5 6 
#
# 1 0.017288 0.008955 -0.002299 0.011041 -0.012247 -0.018631
# 2 0.008955 0.027592 -0.002026 0.016183 -0.016268 -0.021423
# 3 -0.002299 -0.002026 0.010733 0.003622 -0.004202 -0.001186
# 4 0.011041 0.016183 0.003622 0.045054 -0.023432 -0.021969
# 5 -0.012247 -0.016268 -0.004202 -0.023432 0.042368 0.022844
# 6 -0.018631 -0.021423 -0.001186 -0.021969 0.022844 0.065490
#
#
# Mechanical properties :
#
#
# Convention : Reuss Voigt Hill
#
# Bulk Modulus (GPa) = 15.41442 43.96620 29.69031
# Shear Modulus (GPa) = 22.63579 35.88790 29.26184
#
# Velocity S-wave (km/s) = 3.16591 3.98635 3.59958
# Velocity P-wave (km/s) = 4.49327 6.37620 5.51568
#
# Compressibility (1/GPa) = 0.06487433
#
# Stress axis : x y z
#
# Youngs Moduli (GPa) = 57.84401 36.24190 93.16720
#
# Poissons Ratio (x) = -0.32456 0.21420
# Poissons Ratio (y) = -0.51801 0.18875
# Poissons Ratio (z) = 0.13299 0.07342
#
# Static dielectric constant tensor:
#      x y z
#    x 1.869430 0.007320 -0.020120 
#    y 0.007320 1.870470 -0.014600 
#    z -0.020120 -0.014600 1.810830 
# 
# From -- ./inp_files/333657.got.cif
#   From: 2010.05.17/outbox.cif.g08.bks.cpg/sg2_167_cif.got.tgz:333657.got - 2010.06.03 11:33:40.
