data_PCOD9053025
_publ_section_title
;
Structure prediction by ZEFSAII (Michael W. Deem and Ramdas Pophale) SiO2 
 PCOD9053025
Probable space group: P -1
;
_chemical_formula_sum "Si O2"
_cell_formula_units_Z 14
_cell_length_a 18.342715
_cell_length_b 14.633596
_cell_length_c 6.997495
_cell_angle_alpha 130.232376
_cell_angle_beta 46.834342
_cell_angle_gamma 157.926146
_cell_volume 514.348507
_symmetry_space_group_name_H-M "P -1"
_symmetry_group_IT_number 2
_symmetry_cell_setting 'triclinic'
loop_
_space_group_symop_operation_xyz
x,y,z
-x,-y,-z
loop_
_atom_site_type_symbol
_atom_site_label
_atom_site_fract_x
_atom_site_fract_y
_atom_site_fract_z
Si Si1 0.678969 0.376699 0.026187
Si Si2 0.722710 0.752856 0.026217
Si Si3 0.676565 0.275144 0.481485
Si Si4 0.842366 0.801484 0.281835
Si Si5 0.668809 0.949371 0.328584
Si Si6 0.281996 0.067168 0.206376
Si Si7 0.981797 0.393437 0.107009
O O1 0.773294 0.603291 0.223348
O O2 0.438727 0.149223 0.155343
O O3 0.731895 0.407845 0.749552
O O4 0.785438 0.377725 0.944533
O O5 0.775629 0.727894 0.079693
O O6 0.733488 0.904140 0.276533
O O7 0.500000 0.500000 0.000000
O O8 0.913875 0.933225 0.786295
O O9 0.549019 0.216731 0.474227
O O10 0.866347 0.391126 0.241222
O O11 0.500000 0.000000 0.500000
O O12 0.739294 0.816712 0.552798
O O13 0.855600 0.230099 0.312913
O O14 0.635073 0.852981 0.050733
O O15 0.076377 0.777652 0.159890
#
# Coordination Sequence:
#
# PCOD9053025 Si02
#       7
#     2   2   2   2   2   2   2
#     4  11  18  31  55  81 109 139 172 215 268 308
#     4  11  22  37  53  74 108 147 178 214 257 312
#     4   9  16  31  51  78 110 135 169 224 259 304
#     4  11  23  35  52  82 110 139 179 210 261 323
#     4   8  17  34  53  76 105 136 171 214 260 300
#     4   9  20  34  51  79 115 135 168 221 260 312
#     4   9  18  31  53  81 107 135 173 215 266 309
#
# _framework density 27.218899
#
# number of rings (size 3 to 8) (size 9 to 14) (size 15 to 20)
#    0.857    1.429    2.857    2.571    0.000    3.429 
#    0.000    0.000    0.000    0.857    0.000   10.000 
#    0.000    0.000    0.000    0.000    0.000    0.000 
#
# Total GULP energy -78231.784228 kJ/mol
# GULP energy per Si atom -5587.984588 kJ/mol
# Density = 2.715695 g / cm^3
# Si number density = 27.218899 Si / 1000 Ang^3
#
#
#
# Elastic Constant Matrix: (Units=GPa)
#
#
# Indices 1 2 3 4 5 6 
#
# 1 129.2005 35.5971 0.0004 -6.6829 -38.1411 27.2297
# 2 35.5971 96.2579 15.0429 -9.4971 -7.3391 31.7357
# 3 0.0004 15.0429 119.7014 -11.5987 -28.7019 11.7766
# 4 -6.6829 -9.4971 -11.5987 38.8591 5.2593 -15.2785
# 5 -38.1411 -7.3391 -28.7019 5.2593 40.4816 -8.0487
# 6 27.2297 31.7357 11.7766 -15.2785 -8.0487 54.5314
#
#
#
# Elastic Compliance Matrix: (Units=1/GPa)
#
#
# Indices 1 2 3 4 5 6 
#
# 1 0.013823 -0.003462 0.004284 -0.000693 0.014762 -0.003828
# 2 -0.003462 0.013821 -0.001909 0.000174 -0.003396 -0.006355
# 3 0.004284 -0.001909 0.011636 0.001647 0.011450 -0.001390
# 4 -0.000693 0.000174 0.001647 0.029486 -0.001714 0.007898
# 5 0.014762 -0.003396 0.011450 -0.001714 0.046027 -0.001555
# 6 -0.003828 -0.006355 -0.001390 0.007898 -0.001555 0.026231
#
#
# Mechanical properties :
#
#
# Convention : Reuss Voigt Hill
#
# Bulk Modulus (GPa) = 26.95041 49.60451 38.27746
# Shear Modulus (GPa) = 32.14061 46.40904 39.27482
#
# Velocity S-wave (km/s) = 3.44003 4.13368 3.80271
# Velocity P-wave (km/s) = 5.06964 6.40679 5.77703
#
# Compressibility (1/GPa) = 0.03710519
#
# Stress axis : x y z
#
# Youngs Moduli (GPa) = 72.34528 72.35480 85.94156
#
# Poissons Ratio (x) = 0.25050 -0.36819
# Poissons Ratio (y) = 0.25046 0.16407
# Poissons Ratio (z) = -0.30994 0.13813
#
# Static dielectric constant tensor:
#      x y z
#    x 2.213560 -0.019230 0.084470 
#    y -0.019230 2.103610 -0.008800 
#    z 0.084470 -0.008800 2.168010 
# 
# From -- ./inp_files/348659.got.cif
#   From: 2010.05.17/outbox.cif.g08.bks.cpg/sg2_175_cif.got.tgz:348659.got - 2010.06.03 11:33:40.
