data_PCOD9053315
_publ_section_title
;
Structure prediction by ZEFSAII (Michael W. Deem and Ramdas Pophale) SiO2 
 PCOD9053315
Probable space group: P -1
;
_chemical_formula_sum "Si O2"
_cell_formula_units_Z 14
_cell_length_a 10.963402
_cell_length_b 8.349333
_cell_length_c 8.742750
_cell_angle_alpha 69.063186
_cell_angle_beta 87.596613
_cell_angle_gamma 55.856794
_cell_volume 605.449694
_symmetry_space_group_name_H-M "P -1"
_symmetry_group_IT_number 2
_symmetry_cell_setting 'triclinic'
loop_
_space_group_symop_operation_xyz
x,y,z
-x,-y,-z
loop_
_atom_site_type_symbol
_atom_site_label
_atom_site_fract_x
_atom_site_fract_y
_atom_site_fract_z
Si Si1 0.862304 0.077953 0.869209
Si Si2 0.434811 0.204273 0.325138
Si Si3 0.826211 0.097440 0.437728
Si Si4 0.291298 0.901818 0.856180
Si Si5 0.851874 0.765185 0.747923
Si Si6 0.719172 0.446407 0.539592
Si Si7 0.892230 0.598024 0.323037
O O1 0.869317 0.897990 0.830031
O O2 0.849658 0.255728 0.703326
O O3 0.714847 0.178539 0.950256
O O4 0.000000 0.000000 0.000000
O O5 0.285812 0.253931 0.230576
O O6 0.393008 0.385697 0.387738
O O7 0.500000 0.000000 0.500000
O O8 0.552531 0.172539 0.203770
O O9 0.703110 0.299850 0.475967
O O10 0.789942 0.153266 0.244566
O O11 0.814257 0.909195 0.548795
O O12 0.000000 0.000000 0.500000
O O13 0.188632 0.156663 0.784705
O O14 0.006613 0.541647 0.778353
O O15 0.769188 0.557397 0.387943
O O16 0.000000 0.500000 0.500000
#
# Coordination Sequence:
#
# PCOD9053315 Si02
#       7
#     2   2   2   2   2   2   2
#     4  11  27  45  64 100 138 170 212 278 335 384
#     4  12  23  44  68  99 129 174 224 269 317 394
#     4  11  19  36  66  97 126 169 222 275 317 372
#     4  12  25  42  67  94 136 174 219 267 325 392
#     4  11  23  40  70  97 133 169 221 273 327 382
#     4  11  23  39  69  97 132 169 219 273 328 382
#     4  12  18  38  71  99 119 171 230 274 308 376
#
# _framework density 23.123308000000002
#
# number of rings (size 3 to 8) (size 9 to 14) (size 15 to 20)
#    0.000    0.571    7.143    2.571    0.000    2.286 
#    0.000    0.000    0.000    0.000    0.000    0.000 
#    0.000    0.000    0.000    0.000    0.000    0.000 
#
# Total GULP energy -78223.646876 kJ/mol
# GULP energy per Si atom -5587.403348 kJ/mol
# Density = 2.307068 g / cm^3
# Si number density = 23.123308 Si / 1000 Ang^3
#
#
#
# Elastic Constant Matrix: (Units=GPa)
#
#
# Indices 1 2 3 4 5 6 
#
# 1 116.6609 26.4778 10.7336 18.5342 -11.3447 -14.8189
# 2 26.4778 161.2377 20.7566 31.1725 0.5232 1.7859
# 3 10.7336 20.7566 61.3092 19.9003 -5.8563 -3.1256
# 4 18.5342 31.1725 19.9003 40.7475 0.0194 -9.7509
# 5 -11.3447 0.5232 -5.8563 0.0194 31.5898 12.2114
# 6 -14.8189 1.7859 -3.1256 -9.7509 12.2114 23.5810
#
#
#
# Elastic Compliance Matrix: (Units=1/GPa)
#
#
# Indices 1 2 3 4 5 6 
#
# 1 0.009991 -0.001186 -0.000116 -0.002552 0.001925 0.004301
# 2 -0.001186 0.007706 -0.000519 -0.006187 0.001104 -0.004528
# 3 -0.000116 -0.000519 0.020209 -0.010508 0.005472 -0.004534
# 4 -0.002552 -0.006187 -0.010508 0.040223 -0.010301 0.019439
# 5 0.001925 0.001104 0.005472 -0.010301 0.042860 -0.024603
# 6 0.004301 -0.004528 -0.004534 0.019439 -0.024603 0.065630
#
#
# Mechanical properties :
#
#
# Convention : Reuss Voigt Hill
#
# Bulk Modulus (GPa) = 29.18499 50.57155 39.87827
# Shear Modulus (GPa) = 24.79140 37.93298 31.36219
#
# Velocity S-wave (km/s) = 3.27791 4.05466 3.68680
# Velocity P-wave (km/s) = 5.19375 6.62104 5.95035
#
# Compressibility (1/GPa) = 0.03426419
#
# Stress axis : x y z
#
# Youngs Moduli (GPa) = 100.09315 129.76540 49.48318
#
# Poissons Ratio (x) = 0.15393 0.00574
# Poissons Ratio (y) = 0.11873 0.02566
# Poissons Ratio (z) = 0.01161 0.06729
#
# Static dielectric constant tensor:
#      x y z
#    x 1.927820 -0.024650 -0.005310 
#    y -0.024650 1.896470 0.028440 
#    z -0.005310 0.028440 1.879250 
# 
# From -- ./inp_files/237635.got.cif
#   From: 2010.05.17/outbox.cif.g08.bks.cpg/sg2_119_cif.got.tgz:237635.got - 2010.06.03 11:33:40.
