data_PCOD9053760
_publ_section_title
;
Structure prediction by ZEFSAII (Michael W. Deem and Ramdas Pophale) SiO2 
 PCOD9053760
Probable space group: P -1
;
_chemical_formula_sum "Si O2"
_cell_formula_units_Z 16
_cell_length_a 12.467994
_cell_length_b 13.316463
_cell_length_c 9.583161
_cell_angle_alpha 76.645686
_cell_angle_beta 145.144905
_cell_angle_gamma 125.178061
_cell_volume 635.926633
_symmetry_space_group_name_H-M "P -1"
_symmetry_group_IT_number 2
_symmetry_cell_setting 'triclinic'
loop_
_space_group_symop_operation_xyz
x,y,z
-x,-y,-z
loop_
_atom_site_type_symbol
_atom_site_label
_atom_site_fract_x
_atom_site_fract_y
_atom_site_fract_z
Si Si1 0.212837 0.135363 0.374001
Si Si2 0.801198 0.788492 0.365336
Si Si3 0.709598 0.989881 0.729101
Si Si4 0.488456 0.779033 0.803687
Si Si5 0.561157 0.419775 0.505835
Si Si6 0.987139 0.516657 0.731076
Si Si7 0.310092 0.453951 0.014481
Si Si8 0.868522 0.247450 0.381063
O O1 0.193262 0.137396 0.517067
O O2 0.214441 0.024900 0.336897
O O3 0.471355 0.290559 0.544870
O O4 0.975624 0.110508 0.059814
O O5 0.072344 0.834237 0.611522
O O6 0.706877 0.812570 0.121272
O O7 0.580323 0.616041 0.216495
O O8 0.580361 0.849403 0.728167
O O9 0.500000 0.000000 0.500000
O O10 0.248291 0.608549 0.583327
O O11 0.371035 0.832488 0.743989
O O12 0.500000 0.500000 0.500000
O O13 0.847077 0.510470 0.718380
O O14 0.379401 0.374474 0.190898
O O15 0.150346 0.665608 0.776641
O O16 0.146285 0.471531 0.929650
O O17 0.127141 0.363333 0.715848
#
# Coordination Sequence:
#
# PCOD9053760 Si02
#       8
#     2   2   2   2   2   2   2   2
#     4  11  27  47  69  99 133 177 230 278 334 395
#     4  12  22  41  67 101 140 170 216 282 332 399
#     4  11  28  52  72  90 127 181 238 284 327 393
#     4  11  23  41  69  96 127 176 228 275 327 385
#     4  12  23  38  63 100 139 176 210 267 344 400
#     4  11  20  37  60 100 137 176 218 260 324 407
#     4  11  21  34  60  98 140 177 209 258 327 403
#     4  11  21  35  65 104 139 174 214 262 338 404
#
# _framework density 25.160136000000001
#
# number of rings (size 3 to 8) (size 9 to 14) (size 15 to 20)
#    0.000    0.750    6.250    1.875    3.500    3.000 
#    2.250    1.250    0.000    0.000    0.000    0.000 
#    0.000    0.000    0.000    0.000    0.000    0.000 
#
# Total GULP energy -89632.385209 kJ/mol
# GULP energy per Si atom -5602.024076 kJ/mol
# Density = 2.510287 g / cm^3
# Si number density = 25.160136 Si / 1000 Ang^3
#
#
#
# Elastic Constant Matrix: (Units=GPa)
#
#
# Indices 1 2 3 4 5 6 
#
# 1 185.1959 6.2094 23.9817 -13.3003 9.1197 -25.3313
# 2 6.2094 44.9961 14.7792 -12.1401 -4.6426 -2.3596
# 3 23.9817 14.7792 68.3343 -18.2646 -1.6125 -19.4626
# 4 -13.3003 -12.1401 -18.2646 37.8617 -3.7346 9.7260
# 5 9.1197 -4.6426 -1.6125 -3.7346 41.3463 -1.1505
# 6 -25.3313 -2.3596 -19.4626 9.7260 -1.1505 19.0948
#
#
#
# Elastic Compliance Matrix: (Units=1/GPa)
#
#
# Indices 1 2 3 4 5 6 
#
# 1 0.006681 -0.000743 0.000332 -0.000207 -0.001309 0.009136
# 2 -0.000743 0.026093 -0.005169 0.007678 0.003398 -0.006735
# 3 0.000332 -0.005169 0.022738 0.004170 0.001192 0.020925
# 4 -0.000207 0.007678 0.004170 0.034362 0.003831 -0.012347
# 5 -0.001309 0.003398 0.001192 0.003831 0.025234 -0.000531
# 6 0.009136 -0.006735 0.020925 -0.012347 -0.000531 0.091243
#
#
# Mechanical properties :
#
#
# Convention : Reuss Voigt Hill
#
# Bulk Modulus (GPa) = 22.54646 43.16299 32.85473
# Shear Modulus (GPa) = 21.52439 36.56430 29.04434
#
# Velocity S-wave (km/s) = 2.92806 3.81630 3.40130
# Velocity P-wave (km/s) = 4.51797 6.05074 5.33964
#
# Compressibility (1/GPa) = 0.04435287
#
# Stress axis : x y z
#
# Youngs Moduli (GPa) = 149.68257 38.32416 43.97928
#
# Poissons Ratio (x) = 0.02847 -0.01459
# Poissons Ratio (y) = 0.11118 0.22731
# Poissons Ratio (z) = -0.04967 0.19808
#
# Static dielectric constant tensor:
#      x y z
#    x 2.017700 -0.019280 -0.029770 
#    y -0.019280 2.003230 0.057050 
#    z -0.029770 0.057050 1.993490 
# 
# From -- ./inp_files/273034.got.cif
#   From: 2010.05.17/outbox.cif.g08.bks.cpg/sg2_137_cif.got.tgz:273034.got - 2010.06.03 11:33:40.
