data_PCOD9053888
_publ_section_title
;
Structure prediction by ZEFSAII (Michael W. Deem and Ramdas Pophale) SiO2 
 PCOD9053888
Probable space group: P -1
;
_chemical_formula_sum "Si O2"
_cell_formula_units_Z 16
_cell_length_a 12.199470
_cell_length_b 9.904090
_cell_length_c 16.486429
_cell_angle_alpha 102.362557
_cell_angle_beta 26.186797
_cell_angle_gamma 92.808243
_cell_volume 809.955534
_symmetry_space_group_name_H-M "P -1"
_symmetry_group_IT_number 2
_symmetry_cell_setting 'triclinic'
loop_
_space_group_symop_operation_xyz
x,y,z
-x,-y,-z
loop_
_atom_site_type_symbol
_atom_site_label
_atom_site_fract_x
_atom_site_fract_y
_atom_site_fract_z
Si Si1 0.492164 0.828936 0.392317
Si Si2 0.358152 0.206991 0.897357
Si Si3 0.817949 0.675911 0.444397
Si Si4 0.889992 0.856477 0.268355
Si Si5 0.648321 0.335601 0.850114
Si Si6 0.367761 0.172905 0.123053
Si Si7 0.446268 0.869846 0.836409
Si Si8 0.103446 0.664199 0.664032
O O1 0.600285 0.790438 0.225220
O O2 0.718083 0.838715 0.303830
O O3 0.356888 0.713735 0.498256
O O4 0.263643 0.987674 0.567318
O O5 0.534781 0.288256 0.837772
O O6 0.431569 0.037451 0.854070
O O7 0.063478 0.284929 0.136218
O O8 0.888378 0.733171 0.319035
O O9 0.546410 0.780729 0.676101
O O10 0.830648 0.508664 0.411196
O O11 0.046792 0.686974 0.353944
O O12 0.168452 0.860713 0.051074
O O13 0.500000 0.500000 0.000000
O O14 0.577395 0.238036 0.953295
O O15 0.353599 0.197245 0.231243
O O16 0.099311 0.248508 0.261390
O O17 0.500000 0.000000 0.000000
#
# Coordination Sequence:
#
# PCOD9053888 Si02
#       8
#     2   2   2   2   2   2   2   2
#     4  11  25  45  73  96 128 181 234 274 329 393
#     4  11  23  42  69 101 130 176 221 273 328 400
#     4  12  26  42  67 103 138 176 216 276 348 390
#     4  11  25  46  69  99 134 173 231 286 318 396
#     4  11  22  41  67  98 140 174 211 275 334 397
#     4  11  20  38  66  95 133 172 214 274 322 393
#     4  12  24  40  69 102 133 176 225 272 333 400
#     4  11  25  44  65 101 141 172 214 281 338 391
#
# _framework density 19.754169999999998
#
# number of rings (size 3 to 8) (size 9 to 14) (size 15 to 20)
#    0.000    0.750    8.750    0.000    1.750    5.000 
#    0.000    1.250    0.000    0.000    0.000    0.000 
#    0.000    0.000    0.000    0.000    0.000    0.000 
#
# Total GULP energy -89387.411535 kJ/mol
# GULP energy per Si atom -5586.713221 kJ/mol
# Density = 1.970921 g / cm^3
# Si number density = 19.754170 Si / 1000 Ang^3
#
#
#
# Elastic Constant Matrix: (Units=GPa)
#
#
# Indices 1 2 3 4 5 6 
#
# 1 70.4915 39.3397 54.6345 -5.2709 19.5214 11.1454
# 2 39.3397 150.3070 39.7954 6.2936 9.5355 17.4975
# 3 54.6345 39.7954 114.7169 -4.5615 21.2499 8.8125
# 4 -5.2709 6.2936 -4.5615 28.0778 0.0154 -2.6447
# 5 19.5214 9.5355 21.2499 0.0154 30.1433 0.6908
# 6 11.1454 17.4975 8.8125 -2.6447 0.6908 17.8427
#
#
#
# Elastic Compliance Matrix: (Units=1/GPa)
#
#
# Indices 1 2 3 4 5 6 
#
# 1 0.027710 -0.003285 -0.009389 0.003616 -0.010094 -0.008523
# 2 -0.003285 0.008682 -0.001152 -0.003353 0.000342 -0.006403
# 3 -0.009389 -0.001152 0.014277 0.000837 -0.003625 0.000207
# 4 0.003616 -0.003353 0.000837 0.037776 -0.002034 0.006295
# 5 -0.010094 0.000342 -0.003625 -0.002034 0.042027 0.005832
# 6 -0.008523 -0.006403 0.000207 0.006295 0.005832 0.068253
#
#
# Mechanical properties :
#
#
# Convention : Reuss Voigt Hill
#
# Bulk Modulus (GPa) = 43.44737 67.00608 55.22673
# Shear Modulus (GPa) = 21.36304 28.66249 25.01277
#
# Velocity S-wave (km/s) = 3.29210 3.81328 3.56223
# Velocity P-wave (km/s) = 6.04089 7.30628 6.70351
#
# Compressibility (1/GPa) = 0.02301635
#
# Stress axis : x y z
#
# Youngs Moduli (GPa) = 36.08832 115.18023 70.04234
#
# Poissons Ratio (x) = 0.37842 0.65762
# Poissons Ratio (y) = 0.11857 0.08068
# Poissons Ratio (z) = 0.33883 0.13267
#
# Static dielectric constant tensor:
#      x y z
#    x 1.710510 -0.005000 -0.012270 
#    y -0.005000 1.672780 0.010190 
#    z -0.012270 0.010190 1.695300 
# 
# From -- ./inp_files/515735.got.cif
#   From: 2010.05.17/outbox.cif.g08.bks.cpg/sg2_258_cif.got.tgz:515735.got - 2010.06.03 11:33:40.
