data_PCOD9053180
_publ_section_title
;
Structure prediction by ZEFSAII (Michael W. Deem and Ramdas Pophale) SiO2 
 PCOD9053180
Probable space group: P -1
;
_chemical_formula_sum "Si O2"
_cell_formula_units_Z 16
_cell_length_a 9.053597
_cell_length_b 8.242481
_cell_length_c 15.354127
_cell_angle_alpha 44.791061
_cell_angle_beta 76.763308
_cell_angle_gamma 61.178198
_cell_volume 695.251759
_symmetry_space_group_name_H-M "P -1"
_symmetry_group_IT_number 2
_symmetry_cell_setting 'triclinic'
loop_
_space_group_symop_operation_xyz
x,y,z
-x,-y,-z
loop_
_atom_site_type_symbol
_atom_site_label
_atom_site_fract_x
_atom_site_fract_y
_atom_site_fract_z
Si Si1 0.545732 0.700755 0.590683
Si Si2 0.413024 0.105536 0.189722
Si Si3 0.781183 0.311460 0.278071
Si Si4 0.857232 0.170130 0.793908
Si Si5 0.337380 0.404153 0.582781
Si Si6 0.305946 0.163639 0.993637
Si Si7 0.841623 0.012958 0.651690
Si Si8 0.774191 0.003379 0.225331
O O1 0.385303 0.666510 0.659556
O O2 0.721691 0.477056 0.695232
O O3 0.575156 0.655719 0.500705
O O4 0.500000 0.000000 0.500000
O O5 0.273377 0.138643 0.269659
O O6 0.575696 0.157452 0.161591
O O7 0.519974 0.786031 0.295131
O O8 0.316021 0.236970 0.065080
O O9 0.771283 0.586747 0.151125
O O10 0.780942 0.163822 0.245591
O O11 0.971161 0.147817 0.351914
O O12 0.854678 0.079897 0.727335
O O13 0.057039 0.070511 0.826175
O O14 0.786197 0.015852 0.922223
O O15 0.755003 0.290652 0.510930
O O16 0.208845 0.278576 0.644329
O O17 0.500000 0.000000 0.000000
#
# Coordination Sequence:
#
# PCOD9053180 Si02
#       8
#     2   2   2   2   2   2   2   2
#     4  11  19  32  57  88 123 147 187 241 291 342
#     4   9  20  38  60  83 114 159 190 237 290 337
#     4  11  22  36  60  91 113 157 194 236 287 333
#     4   9  20  35  58  85 111 156 195 233 281 342
#     4   9  19  35  58  84 123 146 194 233 293 342
#     4  11  22  41  61  80 120 153 200 236 279 353
#     4   9  19  34  59  87 113 154 194 236 279 348
#     4   9  20  36  58  89 111 148 196 234 294 330
#
# _framework density 23.013245000000001
#
# number of rings (size 3 to 8) (size 9 to 14) (size 15 to 20)
#    0.750    1.500    2.500    0.375    1.750    6.500 
#    0.000    1.250    5.500    0.000    0.000    0.000 
#    0.000    0.000    0.000    0.000    0.000    0.000 
#
# Total GULP energy -89226.886043 kJ/mol
# GULP energy per Si atom -5576.680378 kJ/mol
# Density = 2.296087 g / cm^3
# Si number density = 23.013245 Si / 1000 Ang^3
#
#
#
# Elastic Constant Matrix: (Units=GPa)
#
#
# Indices 1 2 3 4 5 6 
#
# 1 -199.2807 31.7813 -66.3846 -135.5221 -6.0664 5.3106
# 2 31.7813 81.4389 22.9888 -4.9451 -8.3781 -23.6093
# 3 -66.3846 22.9888 59.7554 -40.7126 -15.1289 7.9171
# 4 -135.5221 -4.9451 -40.7126 -36.1954 -0.5464 11.2477
# 5 -6.0664 -8.3781 -15.1289 -0.5464 34.4323 7.4907
# 6 5.3106 -23.6093 7.9171 11.2477 7.4907 26.1945
#
#
#
# Elastic Compliance Matrix: (Units=1/GPa)
#
#
# Indices 1 2 3 4 5 6 
#
# 1 0.005164 0.000015 -0.004280 -0.012510 -0.002549 0.006360
# 2 0.000015 0.018170 -0.004344 0.006977 -0.000608 0.014865
# 3 -0.004280 -0.004344 0.014646 -0.002507 0.006373 -0.008220
# 4 -0.012510 0.006977 -0.002507 0.021357 -0.001449 0.000826
# 5 -0.002549 -0.000608 0.006373 -0.001449 0.033603 -0.010944
# 6 0.006360 0.014865 -0.008220 0.000826 -0.010944 0.055543
#
#
# Mechanical properties :
#
#
# Convention : Reuss Voigt Hill
#
# Bulk Modulus (GPa) = 48.16294 -9.03504 19.56395
# Shear Modulus (GPa) = 28.96494 1.78815 15.37654
#
# Velocity S-wave (km/s) = 3.55155 0.88244 2.58768
# Velocity P-wave (km/s) = 6.14751 1.70185 4.17705
#
# Compressibility (1/GPa) = 0.02076285
#
# Stress axis : x y z
#
# Youngs Moduli (GPa) = 193.63335 55.03574 68.27841
#
# Poissons Ratio (x) = -0.00081 0.29220
# Poissons Ratio (y) = -0.00284 0.29659
# Poissons Ratio (z) = 0.82867 0.23906
#
# Static dielectric constant tensor:
#      x y z
#    x 1.976320 0.025400 0.045560 
#    y 0.025400 1.910250 0.056030 
#    z 0.045560 0.056030 1.904420 
# 
# From -- ./inp_files/588848.got.cif
#   From: 2010.05.17/outbox.cif.g08.bks.cpg/sg2_295_cif.got.tgz:588848.got - 2010.06.03 11:33:40.
