data_PCOD9053625
_publ_section_title
;
Structure prediction by ZEFSAII (Michael W. Deem and Ramdas Pophale) SiO2 
 PCOD9053625
Probable space group: P -1
;
_chemical_formula_sum "Si O2"
_cell_formula_units_Z 16
_cell_length_a 7.549433
_cell_length_b 16.895513
_cell_length_c 7.303432
_cell_angle_alpha 131.508239
_cell_angle_beta 71.186602
_cell_angle_gamma 85.898741
_cell_volume 604.518756
_symmetry_space_group_name_H-M "P -1"
_symmetry_group_IT_number 2
_symmetry_cell_setting 'triclinic'
loop_
_space_group_symop_operation_xyz
x,y,z
-x,-y,-z
loop_
_atom_site_type_symbol
_atom_site_label
_atom_site_fract_x
_atom_site_fract_y
_atom_site_fract_z
Si Si1 0.718461 0.713168 0.992418
Si Si2 0.701704 0.508919 0.840256
Si Si3 0.161555 0.093973 0.823081
Si Si4 0.723802 0.154855 0.559985
Si Si5 0.532518 0.599136 0.401454
Si Si6 0.296575 0.860696 0.898083
Si Si7 0.816738 0.886308 0.708313
Si Si8 0.876904 0.652659 0.439955
O O1 0.814169 0.592594 0.879057
O O2 0.807663 0.689147 0.724748
O O3 0.767829 0.822941 0.192942
O O4 0.476109 0.747329 0.139284
O O5 0.605841 0.473556 0.636720
O O6 0.878593 0.398804 0.706865
O O7 0.531765 0.587271 0.162113
O O8 0.279822 0.961297 0.531177
O O9 0.183559 0.101567 0.049523
O O10 0.923586 0.121835 0.924454
O O11 0.702235 0.148086 0.337113
O O12 0.952215 0.147582 0.493622
O O13 0.435130 0.729316 0.705605
O O14 0.771985 0.563966 0.298129
O O15 0.317598 0.982436 0.115445
O O16 0.782666 0.767743 0.520023
#
# Coordination Sequence:
#
# PCOD9053625 Si02
#       8
#     2   2   2   2   2   2   2   2
#     4  11  20  34  58  87 120 156 193 244 294 348
#     4  11  24  41  61  85 118 158 202 242 286 345
#     4   8  16  29  55  88 118 151 192 240 288 347
#     4   9  15  30  57  88 117 154 195 232 291 351
#     4  11  23  40  65  86 115 157 203 243 283 352
#     4   9  16  34  58  87 112 155 197 234 293 347
#     4   8  17  32  58  84 119 149 190 245 286 348
#     4  11  24  40  60  91 121 151 195 248 296 340
#
# _framework density 26.467333
#
# number of rings (size 3 to 8) (size 9 to 14) (size 15 to 20)
#    0.000    2.250    1.250    4.875    1.750    1.000 
#    0.000    0.000    0.000    1.500    0.000    0.000 
#    0.000    0.000    0.000    0.000    0.000    0.000 
#
# Total GULP energy -89216.685718 kJ/mol
# GULP energy per Si atom -5576.042857 kJ/mol
# Density = 2.640709 g / cm^3
# Si number density = 26.467333 Si / 1000 Ang^3
#
#
#
# Elastic Constant Matrix: (Units=GPa)
#
#
# Indices 1 2 3 4 5 6 
#
# 1 89.1760 -13.4767 21.7216 21.0542 -13.3798 14.4655
# 2 -13.4767 59.5642 17.4900 17.1335 6.6661 7.1825
# 3 21.7216 17.4900 83.3258 12.1896 -25.7063 -6.8875
# 4 21.0542 17.1335 12.1896 42.3522 7.7016 11.2534
# 5 -13.3798 6.6661 -25.7063 7.7016 27.0018 1.4174
# 6 14.4655 7.1825 -6.8875 11.2534 1.4174 27.5215
#
#
#
# Elastic Compliance Matrix: (Units=1/GPa)
#
#
# Indices 1 2 3 4 5 6 
#
# 1 0.018318 0.008487 -0.003609 -0.010420 0.006982 -0.008845
# 2 0.008487 0.026219 -0.010483 -0.007281 -0.009622 -0.010454
# 3 -0.003609 -0.010483 0.026619 -0.010551 0.028408 0.014146
# 4 -0.010420 -0.007281 -0.010551 0.042295 -0.024882 -0.011276
# 5 0.006982 -0.009622 0.028408 -0.024882 0.076372 0.012192
# 6 -0.008845 -0.010454 0.014146 -0.011276 0.012192 0.051235
#
#
# Mechanical properties :
#
#
# Convention : Reuss Voigt Hill
#
# Bulk Modulus (GPa) = 16.68191 31.50398 24.09295
# Shear Modulus (GPa) = 18.36541 33.13049 25.74795
#
# Velocity S-wave (km/s) = 2.63704 3.54185 3.12239
# Velocity P-wave (km/s) = 3.94822 5.35304 4.70338
#
# Compressibility (1/GPa) = 0.05994516
#
# Stress axis : x y z
#
# Youngs Moduli (GPa) = 54.59084 38.14058 37.56695
#
# Poissons Ratio (x) = -0.32370 0.13559
# Poissons Ratio (y) = -0.46331 0.39381
# Poissons Ratio (z) = 0.19704 0.39983
#
# Static dielectric constant tensor:
#      x y z
#    x 2.230980 0.140870 0.089840 
#    y 0.140870 2.238550 0.090520 
#    z 0.089840 0.090520 2.109860 
# 
# From -- ./inp_files/186541.got.cif
#   From: 2010.05.17/outbox.cif.g08.bks.cpg/sg2_94_cif.got.tgz:186541.got - 2010.06.03 11:33:40.
