data_PCOD9053893
_publ_section_title
;
Structure prediction by ZEFSAII (Michael W. Deem and Ramdas Pophale) SiO2 
 PCOD9053893
Probable space group: P -1
;
_chemical_formula_sum "Si O2"
_cell_formula_units_Z 14
_cell_length_a 10.991980
_cell_length_b 9.713462
_cell_length_c 11.251519
_cell_angle_alpha 123.265946
_cell_angle_beta 135.737311
_cell_angle_gamma 89.162701
_cell_volume 533.907552
_symmetry_space_group_name_H-M "P -1"
_symmetry_group_IT_number 2
_symmetry_cell_setting 'triclinic'
loop_
_space_group_symop_operation_xyz
x,y,z
-x,-y,-z
loop_
_atom_site_type_symbol
_atom_site_label
_atom_site_fract_x
_atom_site_fract_y
_atom_site_fract_z
Si Si1 0.517440 0.251918 0.930376
Si Si2 0.856133 0.215335 0.283425
Si Si3 0.838787 0.230045 0.547020
Si Si4 0.235512 0.674816 0.110173
Si Si5 0.317532 0.416880 0.608165
Si Si6 0.418016 0.224647 0.219099
Si Si7 0.699377 0.918103 0.675901
O O1 0.640327 0.305593 0.915624
O O2 0.269717 0.016385 0.626667
O O3 0.656823 0.213801 0.098953
O O4 0.543052 0.437640 0.109231
O O5 0.932631 0.286998 0.505082
O O6 0.075024 0.361762 0.420852
O O7 0.747058 0.968764 0.079411
O O8 0.629370 0.230897 0.395550
O O9 0.027608 0.420122 0.857069
O O10 0.430278 0.790473 0.401368
O O11 0.172264 0.828827 0.122626
O O12 0.472039 0.555344 0.667787
O O13 0.247006 0.185018 0.433693
O O14 0.283031 0.149583 0.212955
#
# Coordination Sequence:
#
# PCOD9053893 Si02
#       7
#     2   2   2   2   2   2   2
#     4  11  20  40  68  98 123 162 218 264 310 373
#     4  11  20  38  67 103 122 162 210 263 327 361
#     4  11  20  39  71  96 118 171 216 261 308 369
#     4  11  24  47  64  85 133 174 222 243 306 395
#     4  12  23  40  68  97 133 156 209 275 320 360
#     4  11  22  41  65  97 132 158 211 261 321 384
#     4  11  27  45  59  95 132 178 203 255 318 383
#
# _framework density 26.221771
#
# number of rings (size 3 to 8) (size 9 to 14) (size 15 to 20)
#    0.000    0.857    7.143    2.571    0.000    1.714 
#    2.571    0.714    0.000    0.000    0.000    0.000 
#    0.000    0.000    0.000    0.000    0.000    0.000 
#
# Total GULP energy -78353.273717 kJ/mol
# GULP energy per Si atom -5596.662408 kJ/mol
# Density = 2.616209 g / cm^3
# Si number density = 26.221771 Si / 1000 Ang^3
#
#
#
# Elastic Constant Matrix: (Units=GPa)
#
#
# Indices 1 2 3 4 5 6 
#
# 1 53.4340 59.0264 24.2016 31.7387 -20.1991 -3.7991
# 2 59.0264 36.8928 28.4725 -5.0697 -22.1362 12.2782
# 3 24.2016 28.4725 153.1952 31.5279 -18.4435 2.9264
# 4 31.7387 -5.0697 31.5279 33.4914 -3.4577 -8.8666
# 5 -20.1991 -22.1362 -18.4435 -3.4577 44.9806 11.4212
# 6 -3.7991 12.2782 2.9264 -8.8666 11.4212 27.5231
#
#
#
# Elastic Compliance Matrix: (Units=1/GPa)
#
#
# Indices 1 2 3 4 5 6 
#
# 1 -0.004326 0.020374 -0.003472 0.008657 0.010042 -0.010695
# 2 0.020374 -0.004364 0.003796 -0.024538 0.008465 -0.007062
# 3 -0.003472 0.003796 0.008140 -0.005068 0.004967 -0.006732
# 4 0.008657 -0.024538 -0.005068 0.028609 -0.015232 0.028217
# 5 0.010042 0.008465 0.004967 -0.015232 0.037736 -0.023484
# 6 -0.010695 -0.007062 -0.006732 0.028217 -0.023484 0.057558
#
#
# Mechanical properties :
#
#
# Convention : Reuss Voigt Hill
#
# Bulk Modulus (GPa) = 24.48097 51.88037 38.18067
# Shear Modulus (GPa) = 52.31653 29.98712 41.15182
#
# Velocity S-wave (km/s) = 4.47156 3.38538 3.96583
# Velocity P-wave (km/s) = 6.00135 5.92530 5.96345
#
# Compressibility (1/GPa) = 0.04084806
#
# Stress axis : x y z
#
# Youngs Moduli (GPa) = -231.18684 -229.15672 122.85124
#
# Poissons Ratio (x) = 4.66883 0.42649
# Poissons Ratio (y) = 4.71019 -0.46639
# Poissons Ratio (z) = -0.80259 0.86997
#
# Static dielectric constant tensor:
#      x y z
#    x 2.074070 -0.021540 0.021290 
#    y -0.021540 2.075270 0.029030 
#    z 0.021290 0.029030 2.045980 
# 
# From -- ./inp_files/426731.got.cif
#   From: 2010.05.17/outbox.cif.g08.bks.cpg/sg2_214_cif.got.tgz:426731.got - 2010.06.03 11:33:40.
