data_PCOD9053391
_publ_section_title
;
Structure prediction by ZEFSAII (Michael W. Deem and Ramdas Pophale) SiO2 
 PCOD9053391
Probable space group: P -1
;
_chemical_formula_sum "Si O2"
_cell_formula_units_Z 10
_cell_length_a 6.868131
_cell_length_b 8.689139
_cell_length_c 9.713118
_cell_angle_alpha 69.689375
_cell_angle_beta 49.092364
_cell_angle_gamma 79.428497
_cell_volume 410.063136
_symmetry_space_group_name_H-M "P -1"
_symmetry_group_IT_number 2
_symmetry_cell_setting 'triclinic'
loop_
_space_group_symop_operation_xyz
x,y,z
-x,-y,-z
loop_
_atom_site_type_symbol
_atom_site_label
_atom_site_fract_x
_atom_site_fract_y
_atom_site_fract_z
Si Si1 0.106738 0.698206 0.735614
Si Si2 0.384035 0.936562 0.217715
Si Si3 0.342028 0.388232 0.825434
Si Si4 0.788563 0.600519 0.642369
Si Si5 0.239959 0.066373 0.509374
O O1 0.262808 0.533115 0.716573
O O2 0.919951 0.678202 0.694694
O O3 0.252198 0.880098 0.617081
O O4 0.917877 0.684036 0.959234
O O5 0.502109 0.763723 0.252447
O O6 0.074204 0.928380 0.355123
O O7 0.421000 0.056949 0.292467
O O8 0.500000 0.000000 0.000000
O O9 0.535577 0.480650 0.816987
O O10 0.711074 0.744956 0.530002
O O11 0.000000 0.500000 0.500000
#
# Coordination Sequence:
#
# PCOD9053391 Si02
#       5
#     2   2   2   2   2
#     4  11  23  43  62  94 127 163 214 250 314 377
#     4  11  19  38  65  89 123 169 203 252 318 368
#     4  11  24  39  67  93 125 165 206 266 306 365
#     4  12  22  39  63  93 124 164 208 258 312 366
#     4  11  21  39  63  92 123 165 211 250 311 382
#
# _framework density 24.386488
#
# number of rings (size 3 to 8) (size 9 to 14) (size 15 to 20)
#    0.000    0.800    8.000    0.600    0.000    4.000 
#    0.000    0.000    0.000    6.000    0.000    0.000 
#    0.000    0.000    0.000    0.000    0.000    0.000 
#
# Total GULP energy -55745.836928 kJ/mol
# GULP energy per Si atom -5574.583693 kJ/mol
# Density = 2.433098 g / cm^3
# Si number density = 24.386488 Si / 1000 Ang^3
#
#
#
# Elastic Constant Matrix: (Units=GPa)
#
#
# Indices 1 2 3 4 5 6 
#
# 1 48.1692 32.9065 2.3835 3.0370 16.8133 -28.5915
# 2 32.9065 239.3643 51.0463 -0.1305 6.8193 -56.5099
# 3 2.3835 51.0463 122.5624 -7.1177 3.5135 -6.3014
# 4 3.0370 -0.1305 -7.1177 37.7273 -10.3869 -8.5281
# 5 16.8133 6.8193 3.5135 -10.3869 -1.4920 2.7077
# 6 -28.5915 -56.5099 -6.3014 -8.5281 2.7077 52.7123
#
#
#
# Elastic Compliance Matrix: (Units=1/GPa)
#
#
# Indices 1 2 3 4 5 6 
#
# 1 0.009951 -0.001703 0.000204 0.010462 0.038052 0.003334
# 2 -0.001703 0.006120 -0.002204 0.001624 0.002303 0.005518
# 3 0.000204 -0.002204 0.009104 0.001640 0.000565 -0.000927
# 4 0.010462 0.001624 0.001640 0.024181 -0.016696 0.012381
# 5 0.038052 0.002303 0.000565 -0.016696 -0.069684 0.024055
# 6 0.003334 0.005518 -0.000927 0.012381 0.024055 0.027352
#
#
# Mechanical properties :
#
#
# Convention : Reuss Voigt Hill
#
# Bulk Modulus (GPa) = 56.27584 64.75204 60.51394
# Shear Modulus (GPa) = 245.67745 39.37350 142.52547
#
# Velocity S-wave (km/s) = 10.04798 4.02252 7.65319
# Velocity P-wave (km/s) = 12.55957 6.94149 10.14709
#
# Compressibility (1/GPa) = 0.01776962
#
# Stress axis : x y z
#
# Youngs Moduli (GPa) = 100.49494 163.40505 109.83799
#
# Poissons Ratio (x) = 0.27822 -0.02238
# Poissons Ratio (y) = 0.17111 0.24205
# Poissons Ratio (z) = -0.02048 0.36010
#
# Static dielectric constant tensor:
#      x y z
#    x 2.137380 -0.059460 0.057500 
#    y -0.059460 1.935920 -0.069230 
#    z 0.057500 -0.069230 1.915620 
# 
# From -- ./inp_files/242335.got.cif
#   From: 2010.05.17/outbox.cif.g08.bks.cpg/sg2_122_cif.got.tgz:242335.got - 2010.06.03 11:33:40.
