data_PCOD9053577
_publ_section_title
;
Structure prediction by ZEFSAII (Michael W. Deem and Ramdas Pophale) SiO2 
 PCOD9053577
Probable space group: P -1
;
_chemical_formula_sum "Si O2"
_cell_formula_units_Z 12
_cell_length_a 9.372409
_cell_length_b 8.680793
_cell_length_c 10.207914
_cell_angle_alpha 135.460427
_cell_angle_beta 78.002562
_cell_angle_gamma 122.869021
_cell_volume 466.147839
_symmetry_space_group_name_H-M "P -1"
_symmetry_group_IT_number 2
_symmetry_cell_setting 'triclinic'
loop_
_space_group_symop_operation_xyz
x,y,z
-x,-y,-z
loop_
_atom_site_type_symbol
_atom_site_label
_atom_site_fract_x
_atom_site_fract_y
_atom_site_fract_z
Si Si1 0.495138 0.211237 0.416958
Si Si2 0.519257 0.723825 0.825533
Si Si3 0.787348 0.159674 0.449970
Si Si4 0.832972 0.964202 0.073449
Si Si5 0.076778 0.833872 0.324070
Si Si6 0.261486 0.377655 0.883498
O O1 0.539628 0.491681 0.630043
O O2 0.549188 0.226367 0.263858
O O3 0.617115 0.156614 0.446805
O O4 0.279649 0.004441 0.336719
O O5 0.711661 0.958438 0.981159
O O6 0.395855 0.628965 0.920433
O O7 0.912370 0.321567 0.647453
O O8 0.717423 0.853960 0.315872
O O9 0.884515 0.181058 0.308744
O O10 0.725090 0.674432 0.997660
O O11 0.000000 0.000000 0.000000
O O12 0.931514 0.684743 0.146927
O O13 0.000000 0.000000 0.500000
#
# Coordination Sequence:
#
# PCOD9053577 Si02
#       6
#     2   2   2   2   2   2
#     4  11  21  36  59  89 112 149 188 233 280 330
#     4  11  22  34  60  85 118 144 189 234 285 328
#     4   9  21  35  63  82 112 151 191 226 277 338
#     4  10  21  38  61  80 112 156 189 224 286 342
#     4  10  17  35  61  83 111 150 188 223 280 342
#     4   9  20  37  60  84 111 151 189 228 279 335
#
# _framework density 25.742906000000001
#
# number of rings (size 3 to 8) (size 9 to 14) (size 15 to 20)
#    1.000    1.000    3.333    2.000    0.000    0.667 
#    0.000    3.333    0.000    3.000    0.000    0.000 
#    0.000    0.000    0.000    0.000    0.000    0.000 
#
# Total GULP energy -66927.308413 kJ/mol
# GULP energy per Si atom -5577.275701 kJ/mol
# Density = 2.568431 g / cm^3
# Si number density = 25.742906 Si / 1000 Ang^3
#
#
#
# Elastic Constant Matrix: (Units=GPa)
#
#
# Indices 1 2 3 4 5 6 
#
# 1 202.5188 31.2945 39.4505 -0.8786 11.1606 -17.8070
# 2 31.2945 65.8257 25.1058 -26.8182 -9.6668 -5.2392
# 3 39.4505 25.1058 71.4514 -18.0376 12.9356 -10.9301
# 4 -0.8786 -26.8182 -18.0376 34.5201 -11.8809 -0.2119
# 5 11.1606 -9.6668 12.9356 -11.8809 41.2183 -16.1659
# 6 -17.8070 -5.2392 -10.9301 -0.2119 -16.1659 41.8689
#
#
#
# Elastic Compliance Matrix: (Units=1/GPa)
#
#
# Indices 1 2 3 4 5 6 
#
# 1 0.006523 -0.005737 -0.002659 -0.007242 -0.004531 -0.000424
# 2 -0.005737 0.040991 -0.004575 0.039372 0.029009 0.012895
# 3 -0.002659 -0.004575 0.019385 0.005033 -0.004312 0.001718
# 4 -0.007242 0.039372 0.005033 0.075393 0.038578 0.018437
# 5 -0.004531 0.029009 -0.004312 0.038578 0.053110 0.021279
# 6 -0.000424 0.012895 0.001718 0.018437 0.021279 0.034075
#
#
# Mechanical properties :
#
#
# Convention : Reuss Voigt Hill
#
# Bulk Modulus (GPa) = 24.41551 59.05530 41.73540
# Shear Modulus (GPa) = 18.58237 39.78446 29.18342
#
# Velocity S-wave (km/s) = 2.68963 3.93549 3.37062
# Velocity P-wave (km/s) = 4.37612 6.60613 5.60319
#
# Compressibility (1/GPa) = 0.04095757
#
# Stress axis : x y z
#
# Youngs Moduli (GPa) = 153.29766 24.39543 51.58559
#
# Poissons Ratio (x) = 0.13996 0.13715
# Poissons Ratio (y) = 0.87946 0.23603
# Poissons Ratio (z) = 0.40757 0.11162
#
# Static dielectric constant tensor:
#      x y z
#    x 1.939890 -0.001850 -0.029480 
#    y -0.001850 2.140830 0.042910 
#    z -0.029480 0.042910 2.121650 
# 
# From -- ./inp_files/295684.got.cif
#   From: 2010.05.17/outbox.cif.g08.bks.cpg/sg2_148_cif.got.tgz:295684.got - 2010.06.03 11:33:40.
