data_PCOD9053844
_publ_section_title
;
Structure prediction by ZEFSAII (Michael W. Deem and Ramdas Pophale) SiO2 
 PCOD9053844
Probable space group: P -1
;
_chemical_formula_sum "Si O2"
_cell_formula_units_Z 16
_cell_length_a 9.742968
_cell_length_b 10.057198
_cell_length_c 8.195031
_cell_angle_alpha 64.997264
_cell_angle_beta 53.892784
_cell_angle_gamma 73.415085
_cell_volume 587.238803
_symmetry_space_group_name_H-M "P -1"
_symmetry_group_IT_number 2
_symmetry_cell_setting 'triclinic'
loop_
_space_group_symop_operation_xyz
x,y,z
-x,-y,-z
loop_
_atom_site_type_symbol
_atom_site_label
_atom_site_fract_x
_atom_site_fract_y
_atom_site_fract_z
Si Si1 0.225229 0.603479 0.094696
Si Si2 0.899921 0.894475 0.508857
Si Si3 0.172627 0.408096 0.552651
Si Si4 0.022172 0.769800 0.968978
Si Si5 0.263223 0.084202 0.709689
Si Si6 0.235679 0.708922 0.363571
Si Si7 0.496098 0.892911 0.211655
Si Si8 0.247950 0.314137 0.039924
O O1 0.163119 0.475664 0.345143
O O2 0.215092 0.749761 0.894997
O O3 0.285839 0.474789 0.989702
O O4 0.996060 0.642210 0.202808
O O5 0.821543 0.974678 0.363732
O O6 0.761970 0.807997 0.748536
O O7 0.047295 0.774261 0.413682
O O8 0.000000 0.000000 0.500000
O O9 0.282158 0.256633 0.557734
O O10 0.233680 0.549846 0.530660
O O11 0.322200 0.686236 0.136552
O O12 0.889858 0.898305 0.055440
O O13 0.940792 0.699891 0.904146
O O14 0.431379 0.036260 0.713563
O O15 0.314766 0.824502 0.367118
O O16 0.622282 0.752392 0.150559
O O17 0.500000 0.000000 0.000000
#
# Coordination Sequence:
#
# PCOD9053844 Si02
#       8
#     2   2   2   2   2   2   2   2
#     4   9  17  31  64  90 125 140 200 259 314 346
#     4  12  22  38  66  94 114 165 229 250 284 376
#     4   8  16  33  65  92 118 148 197 263 310 359
#     4   7  16  32  59  89 122 149 184 247 331 350
#     4   8  19  42  62  85 124 168 198 252 322 357
#     4  12  20  38  64  98 119 164 205 251 313 378
#     4  11  26  45  59  82 135 178 201 245 311 377
#     4  11  20  38  59  91 126 159 194 261 317 350
#
# _framework density 27.246158999999999
#
# number of rings (size 3 to 8) (size 9 to 14) (size 15 to 20)
#    1.500    0.500    3.750    2.250    0.000    1.000 
#    2.250    4.375    0.000    0.000    0.000    0.000 
#    0.000    0.000    0.000    0.000    0.000    0.000 
#
# Total GULP energy -89077.506909 kJ/mol
# GULP energy per Si atom -5567.344182 kJ/mol
# Density = 2.718415 g / cm^3
# Si number density = 27.246159 Si / 1000 Ang^3
#
#
#
# Elastic Constant Matrix: (Units=GPa)
#
#
# Indices 1 2 3 4 5 6 
#
# 1 126.9818 27.5306 25.0660 8.7141 28.2305 16.7641
# 2 27.5306 56.2902 4.7811 19.3064 3.6307 28.3818
# 3 25.0660 4.7811 46.0804 0.2163 24.1908 3.3260
# 4 8.7141 19.3064 0.2163 42.5331 3.2188 6.4007
# 5 28.2305 3.6307 24.1908 3.2188 45.0144 4.7552
# 6 16.7641 28.3818 3.3260 6.4007 4.7552 42.7259
#
#
#
# Elastic Compliance Matrix: (Units=1/GPa)
#
#
# Indices 1 2 3 4 5 6 
#
# 1 0.010467 -0.004467 -0.002724 0.000322 -0.004716 -0.000451
# 2 -0.004467 0.033427 -0.001615 -0.011679 0.003816 -0.019002
# 3 -0.002724 -0.001615 0.031254 0.002121 -0.015224 0.001085
# 4 0.000322 -0.011679 0.002121 0.028418 -0.002804 0.003522
# 5 -0.004716 0.003816 -0.015224 -0.002804 0.033544 -0.002812
# 6 -0.000451 -0.019002 0.001085 0.003522 -0.002812 0.035905
#
#
# Mechanical properties :
#
#
# Convention : Reuss Voigt Hill
#
# Bulk Modulus (GPa) = 17.38001 38.23420 27.80711
# Shear Modulus (GPa) = 23.83162 37.51966 30.67564
#
# Velocity S-wave (km/s) = 2.96070 3.71491 3.35904
# Velocity P-wave (km/s) = 4.25211 5.69772 5.02715
#
# Compressibility (1/GPa) = 0.05753736
#
# Stress axis : x y z
#
# Youngs Moduli (GPa) = 95.53775 29.91586 31.99573
#
# Poissons Ratio (x) = 0.13362 0.08714
# Poissons Ratio (y) = 0.42673 0.05168
# Poissons Ratio (z) = 0.26020 0.04832
#
# Static dielectric constant tensor:
#      x y z
#    x 2.241680 0.052770 -0.105310 
#    y 0.052770 2.301250 -0.004140 
#    z -0.105310 -0.004140 2.245850 
# 
# From -- ./inp_files/176086.got.cif
#   From: 2010.05.17/outbox.cif.g08.bks.cpg/sg2_89_cif.got.tgz:176086.got - 2010.06.03 11:33:40.
