data_PCOD9053092
_publ_section_title
;
Structure prediction by ZEFSAII (Michael W. Deem and Ramdas Pophale) SiO2 
 PCOD9053092
Probable space group: P -1
;
_chemical_formula_sum "Si O2"
_cell_formula_units_Z 14
_cell_length_a 10.276961
_cell_length_b 17.703322
_cell_length_c 11.512666
_cell_angle_alpha 145.137503
_cell_angle_beta 26.495177
_cell_angle_gamma 143.969997
_cell_volume 510.918059
_symmetry_space_group_name_H-M "P -1"
_symmetry_group_IT_number 2
_symmetry_cell_setting 'triclinic'
loop_
_space_group_symop_operation_xyz
x,y,z
-x,-y,-z
loop_
_atom_site_type_symbol
_atom_site_label
_atom_site_fract_x
_atom_site_fract_y
_atom_site_fract_z
Si Si1 0.209092 0.681704 0.386955
Si Si2 0.384277 0.255894 0.083427
Si Si3 0.471713 0.595604 0.536736
Si Si4 0.108599 0.824686 0.303716
Si Si5 0.087373 0.761426 0.995592
Si Si6 0.588511 0.343466 0.586308
Si Si7 0.565580 0.020470 0.337645
O O1 0.465350 0.702639 0.111107
O O2 0.230192 0.581010 0.348892
O O3 0.270608 0.818868 0.591568
O O4 0.884876 0.679446 0.588747
O O5 0.678225 0.272561 0.951578
O O6 0.253678 0.087939 0.980770
O O7 0.500000 0.500000 0.500000
O O8 0.477458 0.563757 0.352312
O O9 0.758678 0.737201 0.494310
O O10 0.146013 0.626226 0.839297
O O11 0.157509 0.864284 0.178420
O O12 0.250227 0.957754 0.439147
O O13 0.745265 0.731888 0.193784
O O14 0.293765 0.764983 0.723664
O O15 0.500000 0.000000 0.500000
#
# Coordination Sequence:
#
# PCOD9053092 Si02
#       7
#     2   2   2   2   2   2   2
#     4  11  18  36  52  81 115 151 181 218 269 329
#     4   9  21  30  57  78 111 146 185 222 266 309
#     4   9  20  38  61  81 105 143 184 234 281 325
#     4   9  19  34  56  86 112 138 190 236 262 320
#     4   9  19  36  54  79 108 137 184 231 275 318
#     4   9  20  33  56  80 109 146 182 220 277 330
#     4   8  18  33  53  84 112 150 189 215 266 319
#
# _framework density 27.401655000000002
#
# number of rings (size 3 to 8) (size 9 to 14) (size 15 to 20)
#    1.714    1.143    0.000    1.286    2.000    2.286 
#    2.571    3.571    0.000    1.714    0.000    0.000 
#    0.000    0.000    0.000    0.000    0.000    0.000 
#
# Total GULP energy -77975.686594 kJ/mol
# GULP energy per Si atom -5569.691900 kJ/mol
# Density = 2.733929 g / cm^3
# Si number density = 27.401655 Si / 1000 Ang^3
#
#
#
# Elastic Constant Matrix: (Units=GPa)
#
#
# Indices 1 2 3 4 5 6 
#
# 1 154.8128 -23.5654 13.2530 -7.9501 0.5837 -4.9245
# 2 -23.5654 45.2535 9.1587 2.4035 11.9300 8.0144
# 3 13.2530 9.1587 124.4125 -13.5584 -5.8438 8.9625
# 4 -7.9501 2.4035 -13.5584 29.7245 5.5876 6.0040
# 5 0.5837 11.9300 -5.8438 5.5876 39.6055 -2.4462
# 6 -4.9245 8.0144 8.9625 6.0040 -2.4462 21.6968
#
#
#
# Elastic Compliance Matrix: (Units=1/GPa)
#
#
# Indices 1 2 3 4 5 6 
#
# 1 0.007300 0.004439 -0.001011 0.001512 -0.001819 -0.000188
# 2 0.004439 0.029285 -0.002135 0.001887 -0.010122 -0.010591
# 3 -0.001011 -0.002135 0.009196 0.004795 0.001064 -0.004446
# 4 0.001512 0.001887 0.004795 0.040151 -0.006423 -0.014169
# 5 -0.001819 -0.010122 0.001064 -0.006423 0.029884 0.008033
# 6 -0.000188 -0.010591 -0.004446 -0.014169 0.008033 0.056623
#
#
# Mechanical properties :
#
#
# Convention : Reuss Voigt Hill
#
# Bulk Modulus (GPa) = 20.67621 35.79681 28.23651
# Shear Modulus (GPa) = 26.88512 39.91419 33.39966
#
# Velocity S-wave (km/s) = 3.13573 3.82073 3.49505
# Velocity P-wave (km/s) = 4.54669 5.70579 5.15890
#
# Compressibility (1/GPa) = 0.04836477
#
# Stress axis : x y z
#
# Youngs Moduli (GPa) = 136.98273 34.14666 108.74875
#
# Poissons Ratio (x) = -0.15157 0.11000
# Poissons Ratio (y) = -0.60804 0.23223
# Poissons Ratio (z) = 0.13855 0.07292
#
# Static dielectric constant tensor:
#      x y z
#    x 2.382490 -0.034420 -0.085000 
#    y -0.034420 2.271150 0.128510 
#    z -0.085000 0.128510 2.156580 
# 
# From -- ./inp_files/404839.got.cif
#   From: 2010.05.17/outbox.cif.g08.bks.cpg/sg2_203_cif.got.tgz:404839.got - 2010.06.03 11:33:40.
