data_PCOD9053651
_publ_section_title
;
Structure prediction by ZEFSAII (Michael W. Deem and Ramdas Pophale) SiO2 
 PCOD9053651
Probable space group: P -1
;
_chemical_formula_sum "Si O2"
_cell_formula_units_Z 16
_cell_length_a 15.335346
_cell_length_b 18.632654
_cell_length_c 12.895033
_cell_angle_alpha 43.782652
_cell_angle_beta 135.650964
_cell_angle_gamma 159.817404
_cell_volume 868.705636
_symmetry_space_group_name_H-M "P -1"
_symmetry_group_IT_number 2
_symmetry_cell_setting 'triclinic'
loop_
_space_group_symop_operation_xyz
x,y,z
-x,-y,-z
loop_
_atom_site_type_symbol
_atom_site_label
_atom_site_fract_x
_atom_site_fract_y
_atom_site_fract_z
Si Si1 0.394430 0.860504 0.453718
Si Si2 0.379900 0.486034 0.269327
Si Si3 0.096692 0.954526 0.602524
Si Si4 0.043518 0.185472 0.815966
Si Si5 0.910020 0.155137 0.506594
Si Si6 0.580328 0.728128 0.981279
Si Si7 0.851335 0.535508 0.272038
Si Si8 0.416256 0.589606 0.425282
O O1 0.278003 0.665767 0.593447
O O2 0.158434 0.741758 0.315856
O O3 0.500000 0.000000 0.500000
O O4 0.637209 0.011334 0.431883
O O5 0.437679 0.575738 0.337254
O O6 0.495310 0.452933 0.397521
O O7 0.498456 0.641233 0.118766
O O8 0.073178 0.245002 0.263511
O O9 0.397844 0.180105 0.638006
O O10 0.054184 0.894859 0.508679
O O11 0.000000 0.000000 0.500000
O O12 0.166299 0.383828 0.744799
O O13 0.954791 0.128449 0.680579
O O14 0.256888 0.252226 0.942169
O O15 0.787859 0.970759 0.887997
O O16 0.131451 0.400258 0.420457
O O17 0.318350 0.554695 0.876479
#
# Coordination Sequence:
#
# PCOD9053651 Si02
#       8
#     2   2   2   2   2   2   2   2
#     4  11  23  40  62  83 120 159 209 254 285 349
#     4   9  18  33  52  80 112 156 189 239 286 348
#     4   9  20  33  55  86 115 152 202 242 294 353
#     4  11  23  37  55  91 129 161 191 239 308 368
#     4  11  20  35  58  86 120 150 195 248 297 343
#     4  11  22  37  57  86 133 161 193 238 303 368
#     4  11  23  39  57  86 120 163 207 235 296 365
#     4   9  18  33  53  78 113 150 199 237 291 337
#
# _framework density 18.418206000000001
#
# number of rings (size 3 to 8) (size 9 to 14) (size 15 to 20)
#    0.000    1.750    3.750    1.125    1.750    1.000 
#    6.750    0.000    0.000    3.000    0.000   15.750 
#    0.000    0.000    0.000    0.000    0.000    0.000 
#
# Total GULP energy -89130.514878 kJ/mol
# GULP energy per Si atom -5570.657180 kJ/mol
# Density = 1.837629 g / cm^3
# Si number density = 18.418206 Si / 1000 Ang^3
#
#
#
# Elastic Constant Matrix: (Units=GPa)
#
#
# Indices 1 2 3 4 5 6 
#
# 1 55.3678 36.4219 33.2949 -12.0030 -4.1096 4.7316
# 2 36.4219 143.8184 46.2186 -7.6217 -7.9170 13.7618
# 3 33.2949 46.2186 73.7150 0.9764 -13.6597 11.6831
# 4 -12.0030 -7.6217 0.9764 30.5825 12.0665 6.9678
# 5 -4.1096 -7.9170 -13.6597 12.0665 27.1755 -5.1076
# 6 4.7316 13.7618 11.6831 6.9678 -5.1076 37.3109
#
#
#
# Elastic Compliance Matrix: (Units=1/GPa)
#
#
# Indices 1 2 3 4 5 6 
#
# 1 0.031894 -0.002791 -0.014540 0.017714 -0.011800 -0.003386
# 2 -0.002791 0.009411 -0.004588 0.002555 -0.001567 -0.002372
# 3 -0.014540 -0.004588 0.026102 -0.013948 0.015803 0.000131
# 4 0.017714 0.002555 -0.013948 0.056057 -0.031023 -0.013537
# 5 -0.011800 -0.001567 0.015803 -0.031023 0.058324 0.010904
# 6 -0.003386 -0.002372 0.000131 -0.013537 0.010904 0.032086
#
#
# Mechanical properties :
#
#
# Convention : Reuss Voigt Hill
#
# Bulk Modulus (GPa) = 42.43022 56.08578 49.25800
# Shear Modulus (GPa) = 18.82749 29.47816 24.15282
#
# Velocity S-wave (km/s) = 3.20069 4.00495 3.62519
# Velocity P-wave (km/s) = 6.06188 7.20441 6.65770
#
# Compressibility (1/GPa) = 0.02356811
#
# Stress axis : x y z
#
# Youngs Moduli (GPa) = 31.35342 106.26279 38.31125
#
# Poissons Ratio (x) = 0.29662 0.55706
# Poissons Ratio (y) = 0.08752 0.17577
# Poissons Ratio (z) = 0.45589 0.48752
#
# Static dielectric constant tensor:
#      x y z
#    x 1.642390 0.018930 0.013030 
#    y 0.018930 1.719170 0.017490 
#    z 0.013030 0.017490 1.626060 
# 
# From -- ./inp_files/456717.got.cif
#   From: 2010.05.17/outbox.cif.g08.bks.cpg/sg2_229_cif.got.tgz:456717.got - 2010.06.03 11:33:40.
