data_PCOD9053654
_publ_section_title
;
Structure prediction by ZEFSAII (Michael W. Deem and Ramdas Pophale) SiO2 
 PCOD9053654
Probable space group: P -1
;
_chemical_formula_sum "Si O2"
_cell_formula_units_Z 16
_cell_length_a 17.733335
_cell_length_b 21.233363
_cell_length_c 12.247956
_cell_angle_alpha 141.371946
_cell_angle_beta 150.179569
_cell_angle_gamma 19.314717
_cell_volume 738.529087
_symmetry_space_group_name_H-M "P -1"
_symmetry_group_IT_number 2
_symmetry_cell_setting 'triclinic'
loop_
_space_group_symop_operation_xyz
x,y,z
-x,-y,-z
loop_
_atom_site_type_symbol
_atom_site_label
_atom_site_fract_x
_atom_site_fract_y
_atom_site_fract_z
Si Si1 0.696641 0.567975 0.621978
Si Si2 0.304991 0.210375 0.010529
Si Si3 0.333732 0.013880 0.030461
Si Si4 0.803807 0.490849 0.407127
Si Si5 0.329935 0.623583 0.343569
Si Si6 0.520812 0.836036 0.244977
Si Si7 0.304723 0.486839 0.932883
Si Si8 0.372572 0.185380 0.419848
O O1 0.691630 0.693027 0.777585
O O2 0.747186 0.492813 0.463140
O O3 0.411517 0.686803 0.484995
O O4 0.968565 0.380583 0.787654
O O5 0.443876 0.170882 0.017326
O O6 0.500000 0.000000 0.000000
O O7 0.014726 0.195010 0.822931
O O8 0.460682 0.054234 0.263182
O O9 0.311476 0.982668 0.081632
O O10 0.697851 0.486260 0.163089
O O11 0.635353 0.694021 0.458134
O O12 0.150100 0.318530 0.589430
O O13 0.500000 0.500000 0.500000
O O14 0.404471 0.508352 0.178474
O O15 0.525345 0.714547 0.107859
O O16 0.454285 0.924417 0.397653
O O17 0.965403 0.651487 0.756743
#
# Coordination Sequence:
#
# PCOD9053654 Si02
#       8
#     2   2   2   2   2   2   2   2
#     4  11  24  41  63  87 124 161 199 250 301 360
#     4  11  24  41  62  91 116 157 207 251 299 351
#     4  11  20  35  59  85 117 153 198 248 290 356
#     4   9  16  35  60  87 114 153 200 241 299 350
#     4  11  25  41  57  85 121 162 199 244 302 361
#     4   9  16  31  58  92 113 145 197 247 295 343
#     4   8  18  34  59  84 118 155 193 243 293 360
#     4   8  16  30  58  89 118 146 190 253 293 343
#
# _framework density 21.664684999999999
#
# number of rings (size 3 to 8) (size 9 to 14) (size 15 to 20)
#    0.000    2.250    1.250    3.375    1.750    3.000 
#    2.250    0.000    0.000    1.500    0.000    0.000 
#    0.000    0.000    0.000    0.000    0.000    0.000 
#
# Total GULP energy -89233.235908 kJ/mol
# GULP energy per Si atom -5577.077244 kJ/mol
# Density = 2.161538 g / cm^3
# Si number density = 21.664685 Si / 1000 Ang^3
#
#
#
# Elastic Constant Matrix: (Units=GPa)
#
#
# Indices 1 2 3 4 5 6 
#
# 1 66.0280 -4.1847 29.3765 3.7220 -18.9480 -0.9915
# 2 -4.1847 57.8820 16.1362 2.4277 -8.3227 8.7579
# 3 29.3765 16.1362 87.9657 5.3782 -33.6874 0.4979
# 4 3.7220 2.4277 5.3782 23.8258 1.1404 -9.4563
# 5 -18.9480 -8.3227 -33.6874 1.1404 32.1546 3.3540
# 6 -0.9915 8.7579 0.4979 -9.4563 3.3540 34.7578
#
#
#
# Elastic Compliance Matrix: (Units=1/GPa)
#
#
# Indices 1 2 3 4 5 6 
#
# 1 0.019945 0.004370 -0.003496 -0.004253 0.009641 -0.002569
# 2 0.004370 0.020460 -0.002474 -0.005298 0.006200 -0.007035
# 3 -0.003496 -0.002474 0.021003 -0.006241 0.019879 -0.003393
# 4 -0.004253 -0.005298 -0.006241 0.051914 -0.014007 0.016779
# 5 0.009641 0.006200 0.019879 -0.014007 0.060883 -0.011258
# 6 -0.002569 -0.007035 -0.003393 0.016779 -0.011258 0.036170
#
#
# Mechanical properties :
#
#
# Convention : Reuss Voigt Hill
#
# Bulk Modulus (GPa) = 17.17971 32.72576 24.95273
# Shear Modulus (GPa) = 21.46118 29.51749 25.48934
#
# Velocity S-wave (km/s) = 3.15080 3.69517 3.43379
# Velocity P-wave (km/s) = 4.60259 5.77443 5.22149
#
# Compressibility (1/GPa) = 0.05820821
#
# Stress axis : x y z
#
# Youngs Moduli (GPa) = 50.13764 48.87485 47.61215
#
# Poissons Ratio (x) = -0.21358 0.16644
# Poissons Ratio (y) = -0.21910 0.11781
# Poissons Ratio (z) = 0.17527 0.12093
#
# Static dielectric constant tensor:
#      x y z
#    x 1.806630 0.040550 -0.023280 
#    y 0.040550 1.807990 0.037600 
#    z -0.023280 0.037600 1.805300 
# 
# From -- ./inp_files/467144.got.cif
#   From: 2010.05.17/outbox.cif.g08.bks.cpg/sg2_234_cif.got.tgz:467144.got - 2010.06.03 11:33:40.
