data_PCOD9053401
_publ_section_title
;
Structure prediction by ZEFSAII (Michael W. Deem and Ramdas Pophale) SiO2 
 PCOD9053401
Probable space group: P -1
;
_chemical_formula_sum "Si O2"
_cell_formula_units_Z 14
_cell_length_a 7.297341
_cell_length_b 9.260090
_cell_length_c 16.393919
_cell_angle_alpha 145.696670
_cell_angle_beta 54.175736
_cell_angle_gamma 124.331834
_cell_volume 498.301504
_symmetry_space_group_name_H-M "P -1"
_symmetry_group_IT_number 2
_symmetry_cell_setting 'triclinic'
loop_
_space_group_symop_operation_xyz
x,y,z
-x,-y,-z
loop_
_atom_site_type_symbol
_atom_site_label
_atom_site_fract_x
_atom_site_fract_y
_atom_site_fract_z
Si Si1 0.038118 0.911154 0.356863
Si Si2 0.512371 0.691103 0.774767
Si Si3 0.018208 0.158958 0.222365
Si Si4 0.719719 0.278379 0.584256
Si Si5 0.541894 0.210797 0.337001
Si Si6 0.125674 0.369699 0.046825
Si Si7 0.460060 0.498756 0.875337
O O1 0.992994 0.602757 0.212342
O O2 0.303080 0.015255 0.315895
O O3 0.000000 0.000000 0.500000
O O4 0.858544 0.055478 0.423423
O O5 0.561790 0.392905 0.612720
O O6 0.382506 0.778034 0.773068
O O7 0.449244 0.682696 0.883938
O O8 0.774469 0.852306 0.774763
O O9 0.751216 0.139087 0.299931
O O10 0.092991 0.463196 0.320337
O O11 0.021089 0.916623 0.049613
O O12 0.555645 0.255684 0.695222
O O13 0.500000 0.500000 0.500000
O O14 0.340399 0.381772 0.057766
O O15 0.233101 0.429789 0.955933
#
# Coordination Sequence:
#
# PCOD9053401 Si02
#       7
#     2   2   2   2   2   2   2
#     4  12  23  40  62 103 135 175 226 292 333 401
#     4   8  21  43  66  99 142 168 229 297 326 394
#     4   9  22  40  68 101 127 183 229 274 337 409
#     4   8  19  41  62  92 140 172 215 288 336 379
#     4  12  22  41  74 101 130 186 234 271 345 420
#     4  11  19  38  71  97 137 184 229 266 353 412
#     4   8  18  37  63  97 135 182 215 290 335 394
#
# _framework density 28.09544
#
# number of rings (size 3 to 8) (size 9 to 14) (size 15 to 20)
#    1.714    0.286    2.857    1.714    0.000    4.571 
#    0.000    5.000    0.000    6.857    0.000    4.000 
#    0.000    0.000    0.000    0.000    0.000    0.000 
#
# Total GULP energy -78251.455382 kJ/mol
# GULP energy per Si atom -5589.389670 kJ/mol
# Density = 2.803149 g / cm^3
# Si number density = 28.095440 Si / 1000 Ang^3
#
#
#
# Elastic Constant Matrix: (Units=GPa)
#
#
# Indices 1 2 3 4 5 6 
#
# 1 96.4986 44.3005 28.3362 -0.7973 -0.7945 -7.0388
# 2 44.3005 127.1450 55.6500 -6.4714 14.3541 0.5930
# 3 28.3362 55.6500 145.8403 12.3145 -29.4756 -9.0455
# 4 -0.7973 -6.4714 12.3145 70.4990 -7.2982 8.9624
# 5 -0.7945 14.3541 -29.4756 -7.2982 45.0381 1.8689
# 6 -7.0388 0.5930 -9.0455 8.9624 1.8689 40.7153
#
#
#
# Elastic Compliance Matrix: (Units=1/GPa)
#
#
# Indices 1 2 3 4 5 6 
#
# 1 0.012667 -0.004430 -0.000351 -0.000351 0.001258 0.002196
# 2 -0.004430 0.012975 -0.005936 0.001668 -0.007733 -0.002286
# 3 -0.000351 -0.005936 0.011303 -0.001930 0.008864 0.002555
# 4 -0.000351 0.001668 -0.001930 0.015254 0.000833 -0.003910
# 5 0.001258 -0.007733 0.008864 0.000833 0.030597 0.000712
# 6 0.002196 -0.002286 0.002555 -0.003910 0.000712 0.026369
#
#
# Mechanical properties :
#
#
# Convention : Reuss Voigt Hill
#
# Bulk Modulus (GPa) = 64.46618 69.56192 67.01405
# Shear Modulus (GPa) = 36.82688 47.33030 42.07859
#
# Velocity S-wave (km/s) = 3.62439 4.10887 3.87421
# Velocity P-wave (km/s) = 6.36476 6.87920 6.62697
#
# Compressibility (1/GPa) = 0.01551201
#
# Stress axis : x y z
#
# Youngs Moduli (GPa) = 78.94348 77.06923 88.47234
#
# Poissons Ratio (x) = 0.34144 0.03102
# Poissons Ratio (y) = 0.34974 0.52517
# Poissons Ratio (z) = 0.02768 0.45748
#
# Static dielectric constant tensor:
#      x y z
#    x 2.194280 -0.019970 -0.020030 
#    y -0.019970 2.246160 -0.014240 
#    z -0.020030 -0.014240 2.187680 
# 
# From -- ./inp_files/559358.got.cif
#   From: 2010.05.17/outbox.cif.g08.bks.cpg/sg2_280_cif.got.tgz:559358.got - 2010.06.03 11:33:40.
