data_PCOD9053121
_publ_section_title
;
Structure prediction by ZEFSAII (Michael W. Deem and Ramdas Pophale) SiO2 
 PCOD9053121
Probable space group: P -1
;
_chemical_formula_sum "Si O2"
_cell_formula_units_Z 16
_cell_length_a 9.164963
_cell_length_b 8.821303
_cell_length_c 28.504001
_cell_angle_alpha 35.862705
_cell_angle_beta 41.474456
_cell_angle_gamma 66.303948
_cell_volume 758.664638
_symmetry_space_group_name_H-M "P -1"
_symmetry_group_IT_number 2
_symmetry_cell_setting 'triclinic'
loop_
_space_group_symop_operation_xyz
x,y,z
-x,-y,-z
loop_
_atom_site_type_symbol
_atom_site_label
_atom_site_fract_x
_atom_site_fract_y
_atom_site_fract_z
Si Si1 0.735830 0.331253 0.481323
Si Si2 0.626502 0.801486 0.009927
Si Si3 0.639353 0.693844 0.496556
Si Si4 0.491054 0.163056 0.728967
Si Si5 0.703138 0.142812 0.245408
Si Si6 0.107257 0.961566 0.213785
Si Si7 0.211297 0.131472 0.247630
Si Si8 0.011711 0.851212 0.986691
O O1 0.692147 0.498889 0.494342
O O2 0.583248 0.283350 0.481246
O O3 0.025682 0.608183 0.328901
O O4 0.574803 0.990974 0.627828
O O5 0.406947 0.444071 0.147859
O O6 0.829862 0.856329 0.988040
O O7 0.500000 0.000000 0.000000
O O8 0.762769 0.905924 0.900252
O O9 0.553870 0.491406 0.614704
O O10 0.909911 0.008595 0.359393
O O11 0.338620 0.937196 0.779112
O O12 0.739830 0.134891 0.682063
O O13 0.303307 0.029419 0.851939
O O14 0.844148 0.973128 0.273766
O O15 0.899691 0.499230 0.113190
O O16 0.259023 0.155824 0.173998
O O17 0.000000 0.000000 0.000000
#
# Coordination Sequence:
#
# PCOD9053121 Si02
#       8
#     2   2   2   2   2   2   2   2
#     4   9  15  32  62  93 114 144 194 243 288 345
#     4  12  27  42  56  85 125 158 195 245 292 348
#     4   9  16  32  59  94 118 143 187 247 296 338
#     4  11  20  39  64  89 117 150 198 248 287 346
#     4  11  18  38  66  86 116 148 199 244 285 349
#     4  11  20  39  66  91 115 155 197 239 294 348
#     4  11  22  36  62  96 119 149 192 244 301 344
#     4  12  27  41  59  84 118 164 201 239 291 345
#
# _framework density 21.089689
#
# number of rings (size 3 to 8) (size 9 to 14) (size 15 to 20)
#    0.000    1.250    7.500    1.875    3.500    0.000 
#    0.000    1.250    0.000    4.500    0.000    0.000 
#    0.000    0.000    0.000    0.000    0.000    0.000 
#
# Total GULP energy -89177.339014 kJ/mol
# GULP energy per Si atom -5573.583688 kJ/mol
# Density = 2.104169 g / cm^3
# Si number density = 21.089689 Si / 1000 Ang^3
#
#
#
# Elastic Constant Matrix: (Units=GPa)
#
#
# Indices 1 2 3 4 5 6 
#
# 1 46.8495 18.2791 -13.5186 -0.0120 -3.3088 10.3875
# 2 18.2791 41.5494 25.9656 -2.4429 3.9254 13.4766
# 3 -13.5186 25.9656 113.0689 1.9901 16.8911 6.5604
# 4 -0.0120 -2.4429 1.9901 -11.1965 2.6856 1.7664
# 5 -3.3088 3.9254 16.8911 2.6856 33.9156 0.9640
# 6 10.3875 13.4766 6.5604 1.7664 0.9640 24.3563
#
#
#
# Elastic Compliance Matrix: (Units=1/GPa)
#
#
# Indices 1 2 3 4 5 6 
#
# 1 0.031511 -0.016312 0.007687 0.004057 0.001006 -0.006818
# 2 -0.016312 0.040895 -0.010460 -0.012596 0.000222 -0.011949
# 3 0.007687 -0.010460 0.012865 0.003279 -0.004678 -0.001009
# 4 0.004057 -0.012596 0.003279 -0.082835 0.006492 0.010106
# 5 0.001006 0.000222 -0.004678 0.006492 0.031402 -0.001006
# 6 -0.006818 -0.011949 -0.001009 0.010106 -0.001006 0.050155
#
#
# Mechanical properties :
#
#
# Convention : Reuss Voigt Hill
#
# Bulk Modulus (GPa) = 21.23052 29.21332 25.22192
# Shear Modulus (GPa) = 36.26829 20.79786 28.53308
#
# Velocity S-wave (km/s) = 4.15145 3.14373 3.68222
# Velocity P-wave (km/s) = 5.75048 5.20186 5.48304
#
# Compressibility (1/GPa) = 0.04710201
#
# Stress axis : x y z
#
# Youngs Moduli (GPa) = 31.73452 24.45308 77.73116
#
# Poissons Ratio (x) = 0.39888 -0.59755
# Poissons Ratio (y) = 0.51766 0.81304
# Poissons Ratio (z) = -0.24396 0.25577
#
# Static dielectric constant tensor:
#      x y z
#    x 1.821060 -0.040340 0.014660 
#    y -0.040340 1.750840 0.011190 
#    z 0.014660 0.011190 1.845770 
# 
# From -- ./inp_files/616622.got.cif
#   From: 2010.05.17/outbox.cif.g08.bks.cpg/sg2_309_cif.got.tgz:616622.got - 2010.06.03 11:33:40.
