data_PCOD9053483
_publ_section_title
;
Structure prediction by ZEFSAII (Michael W. Deem and Ramdas Pophale) SiO2 
 PCOD9053483
Probable space group: P -1
;
_chemical_formula_sum "Si O2"
_cell_formula_units_Z 16
_cell_length_a 15.314908
_cell_length_b 13.589476
_cell_length_c 9.236013
_cell_angle_alpha 133.108203
_cell_angle_beta 37.706218
_cell_angle_gamma 133.247480
_cell_volume 812.119979
_symmetry_space_group_name_H-M "P -1"
_symmetry_group_IT_number 2
_symmetry_cell_setting 'triclinic'
loop_
_space_group_symop_operation_xyz
x,y,z
-x,-y,-z
loop_
_atom_site_type_symbol
_atom_site_label
_atom_site_fract_x
_atom_site_fract_y
_atom_site_fract_z
Si Si1 0.868465 0.794939 0.517898
Si Si2 0.175888 0.825709 0.319167
Si Si3 0.386824 0.829345 0.800024
Si Si4 0.917456 0.781754 0.111461
Si Si5 0.717339 0.917172 0.353007
Si Si6 0.751368 0.004429 0.074756
Si Si7 0.838663 0.482084 0.274182
Si Si8 0.962720 0.491348 0.707500
O O1 0.871992 0.825911 0.373434
O O2 0.796172 0.624157 0.450953
O O3 0.037314 0.825626 0.394387
O O4 0.790778 0.887405 0.805601
O O5 0.137705 0.665898 0.269479
O O6 0.195199 0.932559 0.534297
O O7 0.327276 0.871800 0.071679
O O8 0.561331 0.849859 0.575133
O O9 0.345116 0.921973 0.820543
O O10 0.284813 0.664123 0.753157
O O11 0.825041 0.823250 0.146683
O O12 0.895848 0.614958 0.965749
O O13 0.093377 0.871963 0.963183
O O14 0.686051 0.935742 0.244571
O O15 0.880587 0.475693 0.379495
O O16 0.000000 0.500000 0.000000
O O17 0.000000 0.500000 0.500000
#
# Coordination Sequence:
#
# PCOD9053483 Si02
#       8
#     2   2   2   2   2   2   2   2
#     4  11  21  38  69  95 114 161 220 258 297 365
#     4  11  21  41  64  94 125 162 209 255 307 371
#     4  12  23  45  64  87 129 172 205 246 313 384
#     4  12  21  41  64  95 122 162 214 257 303 364
#     4  12  28  38  59  98 133 161 200 263 318 358
#     4  12  23  41  63  90 127 165 212 254 304 366
#     4  11  19  41  68  91 116 163 212 249 300 373
#     4  11  22  36  67  98 121 151 211 266 305 350
#
# _framework density 19.701523000000002
#
# number of rings (size 3 to 8) (size 9 to 14) (size 15 to 20)
#    0.000    0.500    7.500    3.000    3.500    0.000 
#    0.000    4.375    0.000    0.000    0.000    0.000 
#    0.000    0.000    0.000    0.000    0.000    0.000 
#
# Total GULP energy -89424.388096 kJ/mol
# GULP energy per Si atom -5589.024256 kJ/mol
# Density = 1.965668 g / cm^3
# Si number density = 19.701523 Si / 1000 Ang^3
#
#
#
# Elastic Constant Matrix: (Units=GPa)
#
#
# Indices 1 2 3 4 5 6 
#
# 1 35.7735 12.0526 9.2684 -4.1237 13.7938 -11.1156
# 2 12.0526 91.9187 19.9241 24.1469 -1.1550 -3.4530
# 3 9.2684 19.9241 40.1529 1.4133 9.0898 1.6998
# 4 -4.1237 24.1469 1.4133 31.4078 -9.2048 2.5816
# 5 13.7938 -1.1550 9.0898 -9.2048 35.4121 -3.2720
# 6 -11.1156 -3.4530 1.6998 2.5816 -3.2720 26.2425
#
#
#
# Elastic Compliance Matrix: (Units=1/GPa)
#
#
# Indices 1 2 3 4 5 6 
#
# 1 0.040855 -0.005119 -0.004926 0.004713 -0.012209 0.014965
# 2 -0.005119 0.016511 -0.006892 -0.012879 0.001125 0.001858
# 3 -0.004926 -0.006892 0.031086 0.001884 -0.006348 -0.005984
# 4 0.004713 -0.012879 0.001884 0.045081 0.008685 -0.003173
# 5 -0.012209 0.001125 -0.006348 0.008685 0.036838 -0.000873
# 6 0.014965 0.001858 -0.005984 -0.003173 -0.000873 0.045280
#
#
# Mechanical properties :
#
#
# Convention : Reuss Voigt Hill
#
# Bulk Modulus (GPa) = 18.32194 27.81504 23.06849
# Shear Modulus (GPa) = 18.67640 27.05246 22.86443
#
# Velocity S-wave (km/s) = 3.08225 3.70958 3.41037
# Velocity P-wave (km/s) = 4.68902 5.70060 5.21938
#
# Compressibility (1/GPa) = 0.05457938
#
# Stress axis : x y z
#
# Youngs Moduli (GPa) = 24.47674 60.56395 32.16905
#
# Poissons Ratio (x) = 0.31000 0.15847
# Poissons Ratio (y) = 0.12529 0.22170
# Poissons Ratio (z) = 0.12058 0.41739
#
# Static dielectric constant tensor:
#      x y z
#    x 1.685350 -0.017980 0.022600 
#    y -0.017980 1.706720 0.009560 
#    z 0.022600 0.009560 1.703600 
# 
# From -- ./inp_files/259389.got.cif
#   From: 2010.05.17/outbox.cif.g08.bks.cpg/sg2_130_cif.got.tgz:259389.got - 2010.06.03 11:33:40.
