data_PCOD9053262
_publ_section_title
;
Structure prediction by ZEFSAII (Michael W. Deem and Ramdas Pophale) SiO2 
 PCOD9053262
Probable space group: P -1
;
_chemical_formula_sum "Si O2"
_cell_formula_units_Z 16
_cell_length_a 9.050479
_cell_length_b 14.139067
_cell_length_c 11.247093
_cell_angle_alpha 95.525339
_cell_angle_beta 79.086078
_cell_angle_gamma 149.219396
_cell_volume 716.873661
_symmetry_space_group_name_H-M "P -1"
_symmetry_group_IT_number 2
_symmetry_cell_setting 'triclinic'
loop_
_space_group_symop_operation_xyz
x,y,z
-x,-y,-z
loop_
_atom_site_type_symbol
_atom_site_label
_atom_site_fract_x
_atom_site_fract_y
_atom_site_fract_z
Si Si1 0.837761 0.229530 0.243788
Si Si2 0.375041 0.881492 0.122478
Si Si3 0.123695 0.459440 0.984853
Si Si4 0.435918 0.766209 0.568083
Si Si5 0.691800 0.873438 0.989952
Si Si6 0.076039 0.972563 0.266021
Si Si7 0.100782 0.921784 0.640176
Si Si8 0.625611 0.669313 0.473377
O O1 0.819883 0.311001 0.342469
O O2 0.962144 0.207561 0.294288
O O3 0.009974 0.350002 0.111409
O O4 0.509437 0.013503 0.227487
O O5 0.527240 0.859060 0.099018
O O6 0.028920 0.676934 0.120337
O O7 0.500000 0.000000 0.000000
O O8 0.471410 0.667694 0.963515
O O9 0.000000 0.500000 0.000000
O O10 0.407372 0.640939 0.517395
O O11 0.578993 0.899216 0.450269
O O12 0.675514 0.891879 0.653807
O O13 0.770958 0.975110 0.871265
O O14 0.000000 0.000000 0.000000
O O15 0.793900 0.764149 0.333504
O O16 0.955338 0.013723 0.268974
O O17 0.879857 0.817159 0.551432
O O18 0.500000 0.500000 0.500000
#
# Coordination Sequence:
#
# PCOD9053262 Si02
#       8
#     2   2   2   2   2   2   2   2
#     4  11  19  35  59  84 115 154 194 249 295 333
#     4   9  19  36  56  79 112 153 195 237 289 352
#     4   9  20  37  55  81 120 159 199 240 286 356
#     4   9  18  35  59  80 108 155 191 225 293 367
#     4  11  21  36  57  85 115 155 202 243 286 338
#     4   9  18  36  57  76 112 158 187 232 294 343
#     4   9  19  34  54  84 113 144 190 241 291 344
#     4   9  19  37  58  83 113 146 193 239 289 361
#
# _framework density 22.319134999999999
#
# number of rings (size 3 to 8) (size 9 to 14) (size 15 to 20)
#    0.000    2.500    0.000    4.875    0.000    1.000 
#    0.000   26.250    0.000    0.000    0.000    2.625 
#    0.000    0.000    0.000    0.000    0.000    0.000 
#
# Total GULP energy -89205.253842 kJ/mol
# GULP energy per Si atom -5575.328365 kJ/mol
# Density = 2.226834 g / cm^3
# Si number density = 22.319135 Si / 1000 Ang^3
#
#
#
# Elastic Constant Matrix: (Units=GPa)
#
#
# Indices 1 2 3 4 5 6 
#
# 1 99.9503 20.0198 33.5013 -17.1493 12.1220 -13.1549
# 2 20.0198 93.6671 9.9362 -7.4894 -10.1024 -0.8504
# 3 33.5013 9.9362 84.0137 -11.0561 0.6859 -11.3583
# 4 -17.1493 -7.4894 -11.0561 18.4481 -5.1640 6.9691
# 5 12.1220 -10.1024 0.6859 -5.1640 34.4703 2.1215
# 6 -13.1549 -0.8504 -11.3583 6.9691 2.1215 33.9151
#
#
#
# Elastic Compliance Matrix: (Units=1/GPa)
#
#
# Indices 1 2 3 4 5 6 
#
# 1 0.014000 -0.002471 -0.003907 0.007289 -0.004653 0.002853
# 2 -0.002471 0.012153 -0.000137 0.004792 0.005275 -0.002014
# 3 -0.003907 -0.000137 0.014364 0.004508 0.001584 0.002266
# 4 0.007289 0.004792 0.004508 0.072727 0.010332 -0.011134
# 5 -0.004653 0.005275 0.001584 0.010332 0.034041 -0.005395
# 6 0.002853 -0.002014 0.002266 -0.011134 -0.005395 0.033926
#
#
# Mechanical properties :
#
#
# Convention : Reuss Voigt Hill
#
# Bulk Modulus (GPa) = 36.38187 44.94951 40.66569
# Shear Modulus (GPa) = 24.58175 31.64497 28.11336
#
# Velocity S-wave (km/s) = 3.32230 3.76951 3.55295
# Velocity P-wave (km/s) = 5.57252 6.25530 5.92376
#
# Compressibility (1/GPa) = 0.02748622
#
# Stress axis : x y z
#
# Youngs Moduli (GPa) = 71.42792 82.28717 69.61954
#
# Poissons Ratio (x) = 0.20333 0.27204
# Poissons Ratio (y) = 0.17649 0.00952
# Poissons Ratio (z) = 0.27910 0.01125
#
# Static dielectric constant tensor:
#      x y z
#    x 1.878780 0.003220 -0.050050 
#    y 0.003220 1.918770 0.026590 
#    z -0.050050 0.026590 1.864280 
# 
# From -- ./inp_files/328425.got.cif
#   From: 2010.05.17/outbox.cif.g08.bks.cpg/sg2_165_cif.got.tgz:328425.got - 2010.06.03 11:33:40.
