data_PCOD9053459
_publ_section_title
;
Structure prediction by ZEFSAII (Michael W. Deem and Ramdas Pophale) SiO2 
 PCOD9053459
Probable space group: P -1
;
_chemical_formula_sum "Si O2"
_cell_formula_units_Z 14
_cell_length_a 25.752594
_cell_length_b 10.694947
_cell_length_c 17.507302
_cell_angle_alpha 149.306840
_cell_angle_beta 159.111131
_cell_angle_gamma 22.205369
_cell_volume 649.304033
_symmetry_space_group_name_H-M "P -1"
_symmetry_group_IT_number 2
_symmetry_cell_setting 'triclinic'
loop_
_space_group_symop_operation_xyz
x,y,z
-x,-y,-z
loop_
_atom_site_type_symbol
_atom_site_label
_atom_site_fract_x
_atom_site_fract_y
_atom_site_fract_z
Si Si1 0.801356 0.652245 0.518387
Si Si2 0.664269 0.351705 0.464174
Si Si3 0.957732 0.306739 0.391105
Si Si4 0.731992 0.247395 0.675607
Si Si5 0.048451 0.506838 0.910966
Si Si6 0.394430 0.027868 0.242769
Si Si7 0.287042 0.796226 0.099913
O O1 0.842305 0.494269 0.409084
O O2 0.962915 0.424809 0.686309
O O3 0.816822 0.929500 0.673346
O O4 0.586189 0.833478 0.351115
O O5 0.746991 0.182788 0.572008
O O6 0.641548 0.669745 0.607013
O O7 0.445984 0.507344 0.225696
O O8 0.836117 0.055204 0.491728
O O9 0.000000 0.500000 0.500000
O O10 0.834242 0.266490 0.145941
O O11 0.500000 0.500000 0.500000
O O12 0.824792 0.406855 0.902235
O O13 0.197071 0.208290 0.016904
O O14 0.865042 0.844437 0.879859
O O15 0.413032 0.803724 0.214976
#
# Coordination Sequence:
#
# PCOD9053459 Si02
#       7
#     2   2   2   2   2   2   2
#     4  12  24  41  65 100 139 169 220 277 335 392
#     4  11  23  42  69  99 128 176 221 279 322 390
#     4  12  27  45  63 100 142 175 219 274 334 405
#     4  11  19  40  66  99 130 162 231 279 317 385
#     4  11  22  39  71  98 125 180 220 277 327 382
#     4  11  24  43  72 102 129 171 234 281 311 403
#     4  12  24  44  73  97 131 180 229 266 338 389
#
# _framework density 21.561546
#
# number of rings (size 3 to 8) (size 9 to 14) (size 15 to 20)
#    0.000    0.571    8.571    1.286    0.000    3.429 
#    0.000    1.429    0.000    0.000    0.000    0.000 
#    0.000    0.000    0.000    0.000    0.000    0.000 
#
# Total GULP energy -78235.331187 kJ/mol
# GULP energy per Si atom -5588.237942 kJ/mol
# Density = 2.151247 g / cm^3
# Si number density = 21.561546 Si / 1000 Ang^3
#
#
#
# Elastic Constant Matrix: (Units=GPa)
#
#
# Indices 1 2 3 4 5 6 
#
# 1 80.9235 25.7691 38.2001 6.4215 8.0051 -11.3418
# 2 25.7691 60.7678 28.8139 -14.2730 4.1323 -26.3130
# 3 38.2001 28.8139 96.4136 -25.0474 -25.3441 -12.0030
# 4 6.4215 -14.2730 -25.0474 28.3260 2.5550 -7.7770
# 5 8.0051 4.1323 -25.3441 2.5550 39.8454 -6.6177
# 6 -11.3418 -26.3130 -12.0030 -7.7770 -6.6177 16.7394
#
#
#
# Elastic Compliance Matrix: (Units=1/GPa)
#
#
# Indices 1 2 3 4 5 6 
#
# 1 0.012229 0.014039 -0.000836 0.013462 0.000720 0.036293
# 2 0.014039 -0.006871 -0.027748 -0.042943 -0.025511 -0.051222
# 3 -0.000836 -0.027748 0.009690 -0.017643 0.002991 -0.044250
# 4 0.013462 -0.042943 -0.017643 -0.028557 -0.023164 -0.093457
# 5 0.000720 -0.025511 0.002991 -0.023164 0.024590 -0.038508
# 6 0.036293 -0.051222 -0.044250 -0.093457 -0.038508 -0.086559
#
#
# Mechanical properties :
#
#
# Convention : Reuss Voigt Hill
#
# Bulk Modulus (GPa) = -71.21105 47.07456 -12.06824
# Shear Modulus (GPa) = -97.90509 26.67027 -35.61741
#
# Velocity S-wave (km/s) = -6.74580 3.52083 -4.06876
# Velocity P-wave (km/s) = 9.68365 6.19745 5.26140
#
# Compressibility (1/GPa) = -0.01404277
#
# Stress axis : x y z
#
# Youngs Moduli (GPa) = 81.77539 -145.53654 103.20170
#
# Poissons Ratio (x) = 2.04315 0.08626
# Poissons Ratio (y) = -1.14802 2.86363
# Poissons Ratio (z) = 0.06835 -4.03833
#
# Static dielectric constant tensor:
#      x y z
#    x 1.915660 -0.043900 -0.002000 
#    y -0.043900 1.791980 -0.005000 
#    z -0.002000 -0.005000 1.780550 
# 
# From -- ./inp_files/471736.got.cif
#   From: 2010.05.17/outbox.cif.g08.bks.cpg/sg2_236_cif.got.tgz:471736.got - 2010.06.03 11:33:40.
