data_PCOD9053000
_publ_section_title
;
Structure prediction by ZEFSAII (Michael W. Deem and Ramdas Pophale) SiO2 
 PCOD9053000
Probable space group: P -1
;
_chemical_formula_sum "Si O2"
_cell_formula_units_Z 16
_cell_length_a 9.936853
_cell_length_b 12.716085
_cell_length_c 12.282625
_cell_angle_alpha 134.828558
_cell_angle_beta 95.560439
_cell_angle_gamma 117.828403
_cell_volume 714.428560
_symmetry_space_group_name_H-M "P -1"
_symmetry_group_IT_number 2
_symmetry_cell_setting 'triclinic'
loop_
_space_group_symop_operation_xyz
x,y,z
-x,-y,-z
loop_
_atom_site_type_symbol
_atom_site_label
_atom_site_fract_x
_atom_site_fract_y
_atom_site_fract_z
Si Si1 0.677351 0.662832 0.725140
Si Si2 0.316710 0.466699 0.943092
Si Si3 0.848640 0.480348 0.639251
Si Si4 0.454921 0.796295 0.383040
Si Si5 0.120053 0.000526 0.350327
Si Si6 0.625130 0.221773 0.243267
Si Si7 0.333488 0.483814 0.709665
Si Si8 0.197487 0.941546 0.081311
O O1 0.500000 0.500000 0.500000
O O2 0.793455 0.604570 0.693395
O O3 0.554282 0.590738 0.774769
O O4 0.806935 0.916754 0.892144
O O5 0.332554 0.537725 0.872530
O O6 0.500000 0.500000 0.000000
O O7 0.350964 0.621124 0.147923
O O8 0.090675 0.205251 0.751554
O O9 0.705280 0.329049 0.620748
O O10 0.803386 0.336424 0.428537
O O11 0.086466 0.702124 0.853305
O O12 0.672016 0.895523 0.503399
O O13 0.500000 0.000000 0.500000
O O14 0.166344 0.212898 0.490315
O O15 0.101408 0.907302 0.163294
O O16 0.689116 0.406659 0.301570
O O17 0.442493 0.120229 0.238510
O O18 0.500000 0.000000 0.000000
#
# Coordination Sequence:
#
# PCOD9053000 Si02
#       8
#     2   2   2   2   2   2   2   2
#     4  11  17  38  67  98 129 167 212 275 339 401
#     4  12  26  45  70 107 138 182 236 290 352 407
#     4  12  21  43  65  97 131 166 230 273 335 417
#     4  12  27  45  69 100 138 188 236 288 345 418
#     4  12  22  46  72  99 137 178 235 290 343 412
#     4  11  25  45  66  95 143 179 219 286 347 412
#     4  11  22  41  67 100 135 176 223 285 347 403
#     4  11  22  38  71 101 125 175 222 279 344 409
#
# _framework density 22.395524000000002
#
# number of rings (size 3 to 8) (size 9 to 14) (size 15 to 20)
#    0.000    0.500    8.750    0.750    1.750    1.000 
#    4.500    0.000    0.000    0.000    0.000    0.000 
#    0.000    0.000    0.000    0.000    0.000    0.000 
#
# Total GULP energy -89436.357258 kJ/mol
# GULP energy per Si atom -5589.772329 kJ/mol
# Density = 2.234455 g / cm^3
# Si number density = 22.395524 Si / 1000 Ang^3
#
#
#
# Elastic Constant Matrix: (Units=GPa)
#
#
# Indices 1 2 3 4 5 6 
#
# 1 38.8526 21.5056 12.5157 11.1598 7.4172 12.0990
# 2 21.5056 138.5445 70.1030 -2.0525 3.2254 19.6902
# 3 12.5157 70.1030 166.4648 2.4542 -12.1329 5.3001
# 4 11.1598 -2.0525 2.4542 32.8099 11.6430 -13.0493
# 5 7.4172 3.2254 -12.1329 11.6430 38.1923 8.4661
# 6 12.0990 19.6902 5.3001 -13.0493 8.4661 30.6025
#
#
#
# Elastic Compliance Matrix: (Units=1/GPa)
#
#
# Indices 1 2 3 4 5 6 
#
# 1 0.044016 -0.003141 -0.000042 -0.029810 0.007475 -0.030153
# 2 -0.003141 0.010401 -0.004076 0.000617 -0.000808 -0.004258
# 3 -0.000042 -0.004076 0.008084 -0.002628 0.003937 -0.000970
# 4 -0.029810 0.000617 -0.002628 0.070243 -0.027460 0.049393
# 5 0.007475 -0.000808 0.003937 -0.027460 0.040172 -0.025940
# 6 -0.030153 -0.004258 -0.000970 0.049393 -0.025940 0.075744
#
#
# Mechanical properties :
#
#
# Convention : Reuss Voigt Hill
#
# Bulk Modulus (GPa) = 20.84157 61.34563 41.09360
# Shear Modulus (GPa) = 17.91006 36.30345 27.10676
#
# Velocity S-wave (km/s) = 2.83099 4.03055 3.48280
# Velocity P-wave (km/s) = 4.47352 7.00798 5.87895
#
# Compressibility (1/GPa) = 0.04798103
#
# Stress axis : x y z
#
# Youngs Moduli (GPa) = 22.71910 96.14204 123.70494
#
# Poissons Ratio (x) = 0.30202 0.00520
# Poissons Ratio (y) = 0.07137 0.50428
# Poissons Ratio (z) = 0.00096 0.39192
#
# Static dielectric constant tensor:
#      x y z
#    x 1.884660 0.024310 -0.005160 
#    y 0.024310 1.791190 -0.029500 
#    z -0.005160 -0.029500 1.873450 
# 
# From -- ./inp_files/428943.got.cif
#   From: 2010.05.17/outbox.cif.g08.bks.cpg/sg2_215_cif.got.tgz:428943.got - 2010.06.03 11:33:40.
