data_PCOD9053299
_publ_section_title
;
Structure prediction by ZEFSAII (Michael W. Deem and Ramdas Pophale) SiO2 
 PCOD9053299
Probable space group: P -1
;
_chemical_formula_sum "Si O2"
_cell_formula_units_Z 10
_cell_length_a 11.100345
_cell_length_b 11.264293
_cell_length_c 12.209062
_cell_angle_alpha 34.542076
_cell_angle_beta 141.840702
_cell_angle_gamma 143.877470
_cell_volume 475.710380
_symmetry_space_group_name_H-M "P -1"
_symmetry_group_IT_number 2
_symmetry_cell_setting 'triclinic'
loop_
_space_group_symop_operation_xyz
x,y,z
-x,-y,-z
loop_
_atom_site_type_symbol
_atom_site_label
_atom_site_fract_x
_atom_site_fract_y
_atom_site_fract_z
Si Si1 0.780750 0.931598 0.144608
Si Si2 0.958690 0.355597 0.470230
Si Si3 0.624178 0.150759 0.214550
Si Si4 0.079732 0.535176 0.187818
Si Si5 0.744140 0.805185 0.457081
O O1 0.959408 0.842889 0.313051
O O2 0.680746 0.822925 0.273316
O O3 0.597409 0.853120 0.979588
O O4 0.879642 0.211793 0.013226
O O5 0.096398 0.526525 0.338826
O O6 0.000000 0.500000 0.500000
O O7 0.712529 0.234322 0.336563
O O8 0.825890 0.339783 0.140784
O O9 0.617530 0.899025 0.375318
O O10 0.240366 0.435689 0.331074
O O11 0.000000 0.000000 0.500000
#
# Coordination Sequence:
#
# PCOD9053299 Si02
#       5
#     2   2   2   2   2
#     4  11  19  36  60  76 110 144 173 218 269 318
#     4   9  21  41  53  76 114 134 181 238 249 306
#     4   9  20  37  53  83 108 141 178 212 269 318
#     4   8  20  36  54  83 107 139 180 211 269 319
#     4   9  17  36  52  82 117 133 171 223 259 319
#
# _framework density 21.021194999999999
#
# number of rings (size 3 to 8) (size 9 to 14) (size 15 to 20)
#    1.200    1.600    2.000    0.600    0.000    5.600 
#    7.200    1.000    0.000    0.000    0.000    0.000 
#    0.000    0.000    0.000    0.000    0.000    0.000 
#
# Total GULP energy -55743.669992 kJ/mol
# GULP energy per Si atom -5574.366999 kJ/mol
# Density = 2.097335 g / cm^3
# Si number density = 21.021195 Si / 1000 Ang^3
#
#
#
# Elastic Constant Matrix: (Units=GPa)
#
#
# Indices 1 2 3 4 5 6 
#
# 1 25.8843 25.2272 12.7832 -1.2497 -6.8769 -13.8364
# 2 25.2272 93.4088 42.8864 3.2040 -5.5512 -18.9069
# 3 12.7832 42.8864 102.1335 -3.5670 1.2732 -3.7280
# 4 -1.2497 3.2040 -3.5670 56.9631 -0.1449 -7.6788
# 5 -6.8769 -5.5512 1.2732 -0.1449 5.9396 4.3616
# 6 -13.8364 -18.9069 -3.7280 -7.6788 4.3616 41.3455
#
#
#
# Elastic Compliance Matrix: (Units=1/GPa)
#
#
# Indices 1 2 3 4 5 6 
#
# 1 0.079842 -0.012301 -0.005075 0.004171 0.071989 0.013817
# 2 -0.012301 0.017340 -0.005687 -0.001198 0.000968 0.002975
# 3 -0.005075 -0.005687 0.012940 0.000764 -0.012737 -0.001647
# 4 0.004171 -0.001198 0.000764 0.018334 0.000889 0.004229
# 5 0.071989 0.000968 -0.012737 0.000889 0.258065 -0.003673
# 6 0.013817 0.002975 -0.001647 0.004229 -0.003673 0.031195
#
#
# Mechanical properties :
#
#
# Convention : Reuss Voigt Hill
#
# Bulk Modulus (GPa) = 15.62620 42.58002 29.10311
# Shear Modulus (GPa) = 10.30558 30.21828 20.26193
#
# Velocity S-wave (km/s) = 2.21655 3.79557 3.10801
# Velocity P-wave (km/s) = 3.74172 6.28556 5.17246
#
# Compressibility (1/GPa) = 0.06399509
#
# Stress axis : x y z
#
# Youngs Moduli (GPa) = 12.52471 57.67146 77.28233
#
# Poissons Ratio (x) = 0.70943 0.39223
# Poissons Ratio (y) = 0.15407 0.43948
# Poissons Ratio (z) = 0.06357 0.32796
#
# Static dielectric constant tensor:
#      x y z
#    x 1.752890 0.023930 -0.002660 
#    y 0.023930 1.827980 0.017650 
#    z -0.002660 0.017650 1.758670 
# 
# From -- ./inp_files/20627.got.cif
#   From: 2010.05.17/outbox.cif.g08.bks.cpg/sg2_11_cif.got.tgz:20627.got - 2010.06.03 11:33:40.
