data_PCOD9053913
_publ_section_title
;
Structure prediction by ZEFSAII (Michael W. Deem and Ramdas Pophale) SiO2 
 PCOD9053913
Probable space group: P -1
;
_chemical_formula_sum "Si O2"
_cell_formula_units_Z 16
_cell_length_a 14.165933
_cell_length_b 8.068580
_cell_length_c 12.266269
_cell_angle_alpha 66.516417
_cell_angle_beta 150.366645
_cell_angle_gamma 115.953487
_cell_volume 622.798709
_symmetry_space_group_name_H-M "P -1"
_symmetry_group_IT_number 2
_symmetry_cell_setting 'triclinic'
loop_
_space_group_symop_operation_xyz
x,y,z
-x,-y,-z
loop_
_atom_site_type_symbol
_atom_site_label
_atom_site_fract_x
_atom_site_fract_y
_atom_site_fract_z
Si Si1 0.457266 0.469842 0.592975
Si Si2 0.652693 0.820848 0.839162
Si Si3 0.263007 0.925594 0.491953
Si Si4 0.726594 0.592823 0.181188
Si Si5 0.249917 0.751516 0.976081
Si Si6 0.884373 0.222897 0.388956
Si Si7 0.924858 0.414771 0.758695
Si Si8 0.027259 0.857377 0.934266
O O1 0.500000 0.500000 0.500000
O O2 0.560109 0.658351 0.707648
O O3 0.233670 0.465322 0.399069
O O4 0.544156 0.299055 0.772227
O O5 0.485728 0.926998 0.685141
O O6 0.725431 0.727659 0.042605
O O7 0.829139 0.959673 0.923410
O O8 0.198764 0.903881 0.558799
O O9 0.156531 0.736078 0.374433
O O10 0.177111 0.092504 0.313222
O O11 0.812246 0.412557 0.290299
O O12 0.878703 0.713906 0.387896
O O13 0.500000 0.500000 0.000000
O O14 0.218305 0.855577 0.806075
O O15 0.145758 0.827784 0.952071
O O16 0.114977 0.550442 0.874285
O O17 0.973549 0.310122 0.942470
#
# Coordination Sequence:
#
# PCOD9053913 Si02
#       8
#     2   2   2   2   2   2   2   2
#     4  11  24  44  70  98 133 177 234 281 339 400
#     4  11  24  43  69 102 137 175 233 280 346 405
#     4  11  24  44  69 102 133 183 226 281 349 406
#     4  11  20  38  70 101 131 175 229 283 330 404
#     4  12  26  44  70 103 139 183 232 287 342 409
#     4  11  23  40  72 100 137 176 233 283 336 410
#     4  11  25  46  71  98 133 185 237 281 338 411
#     4  12  26  45  65 101 144 184 224 285 349 409
#
# _framework density 25.690483
#
# number of rings (size 3 to 8) (size 9 to 14) (size 15 to 20)
#    0.000    0.750    5.000    3.000    1.750    4.500 
#    0.000    0.625    0.000    0.000    0.000    0.000 
#    0.000    0.000    0.000    0.000    0.000    0.000 
#
# Total GULP energy -89729.318780 kJ/mol
# GULP energy per Si atom -5608.082424 kJ/mol
# Density = 2.563201 g / cm^3
# Si number density = 25.690483 Si / 1000 Ang^3
#
#
#
# Elastic Constant Matrix: (Units=GPa)
#
#
# Indices 1 2 3 4 5 6 
#
# 1 108.4553 2.4905 64.8078 -16.1885 -10.9578 2.4130
# 2 2.4905 58.7031 22.2193 -10.8094 3.4239 1.8914
# 3 64.8078 22.2193 167.9080 -25.3297 10.4427 4.5104
# 4 -16.1885 -10.8094 -25.3297 33.9031 0.0354 4.0062
# 5 -10.9578 3.4239 10.4427 0.0354 66.7071 -1.0543
# 6 2.4130 1.8914 4.5104 4.0062 -1.0543 40.4261
#
#
#
# Elastic Compliance Matrix: (Units=1/GPa)
#
#
# Indices 1 2 3 4 5 6 
#
# 1 0.012852 0.001728 -0.004879 0.003103 0.002776 -0.000539
# 2 0.001728 0.018867 -0.002315 0.005260 -0.000345 -0.001258
# 3 -0.004879 -0.002315 0.008856 0.003669 -0.002087 -0.001007
# 4 0.003103 0.005260 0.003669 0.035918 -0.000423 -0.004411
# 5 0.002776 -0.000345 -0.002087 -0.000423 0.015800 0.000537
# 6 -0.000539 -0.001258 -0.001007 -0.004411 0.000537 0.025391
#
#
# Mechanical properties :
#
#
# Convention : Reuss Voigt Hill
#
# Bulk Modulus (GPa) = 33.73502 57.12241 45.42871
# Shear Modulus (GPa) = 36.10205 44.57718 40.33961
#
# Velocity S-wave (km/s) = 3.75276 4.17005 3.96689
# Velocity P-wave (km/s) = 5.65132 6.74306 6.22119
#
# Compressibility (1/GPa) = 0.02964279
#
# Stress axis : x y z
#
# Youngs Moduli (GPa) = 77.80891 53.00252 112.92246
#
# Poissons Ratio (x) = -0.09161 0.55098
# Poissons Ratio (y) = -0.13449 0.26142
# Poissons Ratio (z) = 0.37965 0.12270
#
# Static dielectric constant tensor:
#      x y z
#    x 1.987450 -0.052170 -0.021590 
#    y -0.052170 2.030970 0.040490 
#    z -0.021590 0.040490 2.082340 
# 
# From -- ./inp_files/447279.got.cif
#   From: 2010.05.17/outbox.cif.g08.bks.cpg/sg2_224_cif.got.tgz:447279.got - 2010.06.03 11:33:40.
