data_PCOD9053541
_publ_section_title
;
Structure prediction by ZEFSAII (Michael W. Deem and Ramdas Pophale) SiO2 
 PCOD9053541
Probable space group: P -1
;
_chemical_formula_sum "Si O2"
_cell_formula_units_Z 14
_cell_length_a 19.512837
_cell_length_b 15.162331
_cell_length_c 11.491237
_cell_angle_alpha 29.492400
_cell_angle_beta 150.910248
_cell_angle_gamma 159.813435
_cell_volume 544.208728
_symmetry_space_group_name_H-M "P -1"
_symmetry_group_IT_number 2
_symmetry_cell_setting 'triclinic'
loop_
_space_group_symop_operation_xyz
x,y,z
-x,-y,-z
loop_
_atom_site_type_symbol
_atom_site_label
_atom_site_fract_x
_atom_site_fract_y
_atom_site_fract_z
Si Si1 0.099727 0.126038 0.626260
Si Si2 0.215573 0.369988 0.897907
Si Si3 0.187222 0.827770 0.410210
Si Si4 0.693331 0.201994 0.143629
Si Si5 0.307437 0.379059 0.271012
Si Si6 0.853306 0.524806 0.565974
Si Si7 0.375974 0.050707 0.181761
O O1 0.182397 0.403743 0.450003
O O2 0.265897 0.126855 0.888931
O O3 0.000000 0.000000 0.500000
O O4 0.903258 0.917248 0.660802
O O5 0.204610 0.379390 0.729605
O O6 0.379213 0.695507 0.776589
O O7 0.971510 0.156061 0.819179
O O8 0.318682 0.356835 0.173744
O O9 0.325515 0.921773 0.620638
O O10 0.000000 0.500000 0.500000
O O11 0.314724 0.988063 0.299020
O O12 0.908525 0.323303 0.270578
O O13 0.722186 0.437108 0.954712
O O14 0.500000 0.000000 0.000000
O O15 0.500000 0.500000 0.500000
O O16 0.721052 0.218979 0.706605
#
# Coordination Sequence:
#
# PCOD9053541 Si02
#       7
#     2   2   2   2   2   2   2
#     4  12  27  48  68 104 155 191 244 312 365 443
#     4  11  23  44  78 111 142 195 253 300 372 441
#     4  11  19  44  75 106 149 188 244 306 362 439
#     4  11  22  43  71 111 144 193 251 296 372 444
#     4  12  23  46  69 104 157 191 239 314 367 432
#     4  11  24  46  76 108 141 199 251 296 379 440
#     4  12  23  47  77 107 151 188 245 313 364 440
#
# _framework density 25.725424
#
# number of rings (size 3 to 8) (size 9 to 14) (size 15 to 20)
#    0.000    0.571    7.143    2.143    0.000    1.714 
#    7.714    0.000    3.143    0.000    0.000    0.000 
#    0.000    0.000    0.000    0.000    0.000    0.000 
#
# Total GULP energy -78252.098233 kJ/mol
# GULP energy per Si atom -5589.435588 kJ/mol
# Density = 2.566687 g / cm^3
# Si number density = 25.725424 Si / 1000 Ang^3
#
#
#
# Elastic Constant Matrix: (Units=GPa)
#
#
# Indices 1 2 3 4 5 6 
#
# 1 99.1693 66.2866 46.1738 3.2776 -1.1121 -10.3148
# 2 66.2866 143.8383 39.9934 23.0267 -8.3430 -9.8381
# 3 46.1738 39.9934 130.8935 30.8992 12.1615 -13.5967
# 4 3.2776 23.0267 30.8992 49.3023 -11.5809 -0.6356
# 5 -1.1121 -8.3430 12.1615 -11.5809 43.0881 -7.2699
# 6 -10.3148 -9.8381 -13.5967 -0.6356 -7.2699 56.2025
#
#
#
# Elastic Compliance Matrix: (Units=1/GPa)
#
#
# Indices 1 2 3 4 5 6 
#
# 1 0.017477 -0.007313 -0.005552 0.006325 0.002467 0.000975
# 2 -0.007313 0.011080 0.000312 -0.004705 0.000724 0.000713
# 3 -0.005552 0.000312 0.012219 -0.008756 -0.005690 0.001157
# 4 0.006325 -0.004705 -0.008756 0.029826 0.009708 -0.000188
# 5 0.002467 0.000724 -0.005690 0.009708 0.028125 0.002951
# 6 0.000975 0.000713 0.001157 -0.000188 0.002951 0.018756
#
#
# Mechanical properties :
#
#
# Convention : Reuss Voigt Hill
#
# Bulk Modulus (GPa) = 63.81919 75.42320 69.62120
# Shear Modulus (GPa) = 33.82678 44.48173 39.15426
#
# Velocity S-wave (km/s) = 3.63011 4.16275 3.90552
# Velocity P-wave (km/s) = 6.51398 7.24478 6.88908
#
# Compressibility (1/GPa) = 0.01566927
#
# Stress axis : x y z
#
# Youngs Moduli (GPa) = 57.21778 90.25426 81.84185
#
# Poissons Ratio (x) = 0.66006 0.45436
# Poissons Ratio (y) = 0.41846 -0.02553
# Poissons Ratio (z) = 0.31766 -0.02815
#
# Static dielectric constant tensor:
#      x y z
#    x 2.906900 -0.237180 0.521760 
#    y -0.237180 2.104530 -0.183610 
#    z 0.521760 -0.183610 2.405570 
# 
# From -- ./inp_files/471879.got.cif
#   From: 2010.05.17/outbox.cif.g08.bks.cpg/sg2_236_cif.got.tgz:471879.got - 2010.06.03 11:33:40.
