data_PCOD9053639
_publ_section_title
;
Structure prediction by ZEFSAII (Michael W. Deem and Ramdas Pophale) SiO2 
 PCOD9053639
Probable space group: P -1
;
_chemical_formula_sum "Si O2"
_cell_formula_units_Z 16
_cell_length_a 12.095915
_cell_length_b 20.349676
_cell_length_c 19.108406
_cell_angle_alpha 20.185467
_cell_angle_beta 34.525324
_cell_angle_gamma 25.607151
_cell_volume 693.412199
_symmetry_space_group_name_H-M "P -1"
_symmetry_group_IT_number 2
_symmetry_cell_setting 'triclinic'
loop_
_space_group_symop_operation_xyz
x,y,z
-x,-y,-z
loop_
_atom_site_type_symbol
_atom_site_label
_atom_site_fract_x
_atom_site_fract_y
_atom_site_fract_z
Si Si1 0.260407 0.083694 0.920641
Si Si2 0.916832 0.845273 0.674212
Si Si3 0.963573 0.797965 0.226366
Si Si4 0.916417 0.649422 0.553194
Si Si5 0.171200 0.376036 0.927164
Si Si6 0.455406 0.323460 0.366650
Si Si7 0.839108 0.087876 0.209131
Si Si8 0.712685 0.464618 0.014429
O O1 0.244480 0.108607 0.819511
O O2 0.159335 0.353173 0.730731
O O3 0.050157 0.061608 0.076986
O O4 0.547362 0.839670 0.035953
O O5 0.128307 0.609757 0.749854
O O6 0.652797 0.040512 0.573326
O O7 0.862852 0.749183 0.865329
O O8 0.000000 0.000000 0.500000
O O9 0.218919 0.523523 0.341017
O O10 0.915063 0.762335 0.366222
O O11 0.000000 0.000000 0.000000
O O12 0.674158 0.661842 0.653858
O O13 0.901479 0.824310 0.443036
O O14 0.932261 0.477182 0.900732
O O15 0.609767 0.421431 0.179622
O O16 0.832691 0.217025 0.153277
O O17 0.549752 0.286683 0.130187
#
# Coordination Sequence:
#
# PCOD9053639 Si02
#       8
#     2   2   2   2   2   2   2   2
#     4  11  23  41  62  96 123 169 212 260 324 382
#     4  11  23  39  64  96 130 168 206 253 327 389
#     4  11  20  34  65  93 127 161 202 268 325 371
#     4  11  21  40  64  95 124 163 213 269 317 368
#     4  11  25  42  64  93 136 166 203 265 323 382
#     4  11  21  39  64  94 126 164 215 257 317 385
#     4  11  24  44  67  90 126 169 223 267 304 373
#     4  11  23  45  65  92 129 171 216 263 313 376
#
# _framework density 23.074297999999999
#
# number of rings (size 3 to 8) (size 9 to 14) (size 15 to 20)
#    0.000    1.000    5.000    3.750    1.750    3.000 
#    2.250    0.625    0.000    0.000    0.000    0.000 
#    0.000    0.000    0.000    0.000    0.000    0.000 
#
# Total GULP energy -89499.129821 kJ/mol
# GULP energy per Si atom -5593.695614 kJ/mol
# Density = 2.302178 g / cm^3
# Si number density = 23.074298 Si / 1000 Ang^3
#
#
#
# Elastic Constant Matrix: (Units=GPa)
#
#
# Indices 1 2 3 4 5 6 
#
# 1 59.6057 37.7285 22.1582 -12.1698 -28.5897 -13.2475
# 2 37.7285 103.6942 30.4387 -6.9690 -9.9319 -21.5061
# 3 22.1582 30.4387 110.5807 -19.7326 -37.0396 -9.1280
# 4 -12.1698 -6.9690 -19.7326 33.4226 15.0819 2.7620
# 5 -28.5897 -9.9319 -37.0396 15.0819 42.6520 -3.5142
# 6 -13.2475 -21.5061 -9.1280 2.7620 -3.5142 25.9301
#
#
#
# Elastic Compliance Matrix: (Units=1/GPa)
#
#
# Indices 1 2 3 4 5 6 
#
# 1 0.039969 -0.009495 0.007057 0.000678 0.032060 0.019302
# 2 -0.009495 0.014725 -0.003624 -0.000510 -0.005457 0.005401
# 3 0.007057 -0.003624 0.015475 0.002574 0.017082 0.008089
# 4 0.000678 -0.000510 0.002574 0.036846 -0.010834 -0.004563
# 5 0.032060 -0.005457 0.017082 -0.010834 0.064618 0.027778
# 6 0.019302 0.005401 0.008089 -0.004563 0.027778 0.060005
#
#
# Mechanical properties :
#
#
# Convention : Reuss Voigt Hill
#
# Bulk Modulus (GPa) = 17.22721 50.50347 33.86534
# Shear Modulus (GPa) = 19.00353 32.63797 25.82075
#
# Velocity S-wave (km/s) = 2.87292 3.76503 3.34881
# Velocity P-wave (km/s) = 4.29966 6.39026 5.44621
#
# Compressibility (1/GPa) = 0.05804770
#
# Stress axis : x y z
#
# Youngs Moduli (GPa) = 25.01944 67.91028 64.61964
#
# Poissons Ratio (x) = 0.64478 -0.45605
# Poissons Ratio (y) = 0.23755 0.23417
# Poissons Ratio (z) = -0.17657 0.24609
#
# Static dielectric constant tensor:
#      x y z
#    x 1.915590 0.007350 0.002510 
#    y 0.007350 1.882480 0.030780 
#    z 0.002510 0.030780 1.864000 
# 
# From -- ./inp_files/595161.got.cif
#   From: 2010.05.17/outbox.cif.g08.bks.cpg/sg2_298_cif.got.tgz:595161.got - 2010.06.03 11:33:40.
