data_PCOD9053489
_publ_section_title
;
Structure prediction by ZEFSAII (Michael W. Deem and Ramdas Pophale) SiO2 
 PCOD9053489
Probable space group: P -1
;
_chemical_formula_sum "Si O2"
_cell_formula_units_Z 16
_cell_length_a 14.536228
_cell_length_b 24.470899
_cell_length_c 17.663017
_cell_angle_alpha 20.491073
_cell_angle_beta 160.739449
_cell_angle_gamma 149.616297
_cell_volume 712.662282
_symmetry_space_group_name_H-M "P -1"
_symmetry_group_IT_number 2
_symmetry_cell_setting 'triclinic'
loop_
_space_group_symop_operation_xyz
x,y,z
-x,-y,-z
loop_
_atom_site_type_symbol
_atom_site_label
_atom_site_fract_x
_atom_site_fract_y
_atom_site_fract_z
Si Si1 0.813900 0.128822 0.132661
Si Si2 0.310467 0.920120 0.212179
Si Si3 0.272133 0.158870 0.121454
Si Si4 0.833795 0.422372 0.861603
Si Si5 0.211953 0.260629 0.771132
Si Si6 0.403974 0.664660 0.752991
Si Si7 0.253855 0.018230 0.886290
Si Si8 0.818783 0.322030 0.150590
O O1 0.844425 0.083344 0.126817
O O2 0.879308 0.297675 0.990307
O O3 0.482619 0.121566 0.900296
O O4 0.000000 0.000000 0.500000
O O5 0.397920 0.802462 0.504109
O O6 0.003755 0.884105 0.001381
O O7 0.286359 0.101080 0.986223
O O8 0.426027 0.917616 0.219640
O O9 0.366218 0.299182 0.057004
O O10 0.500000 0.000000 0.500000
O O11 0.218559 0.206634 0.932453
O O12 0.500000 0.500000 0.500000
O O13 0.035040 0.552913 0.851635
O O14 0.888519 0.334151 0.099783
O O15 0.877609 0.335455 0.413582
O O16 0.476123 0.350337 0.851087
O O17 0.500000 0.500000 0.000000
O O18 0.974484 0.147160 0.524908
#
# Coordination Sequence:
#
# PCOD9053489 Si02
#       8
#     2   2   2   2   2   2   2   2
#     4  11  23  44  67  97 137 183 222 279 342 398
#     4  11  23  40  71 102 126 177 235 270 323 411
#     4  11  19  41  69  96 125 173 221 266 327 399
#     4  11  23  44  67  97 137 183 222 279 342 398
#     4  11  23  40  71 102 126 177 235 270 323 411
#     4  11  25  45  69  99 145 175 209 285 352 390
#     4  11  24  40  71 100 131 178 232 280 331 400
#     4  11  24  40  71 100 131 178 232 280 331 400
#
# _framework density 22.451025999999999
#
# number of rings (size 3 to 8) (size 9 to 14) (size 15 to 20)
#    0.000    1.000    5.000    2.250    0.000    2.000 
#    0.000    7.500    0.000    0.000    0.000    0.000 
#    0.000    0.000    0.000    0.000    0.000    0.000 
#
# Total GULP energy -89283.623801 kJ/mol
# GULP energy per Si atom -5580.226488 kJ/mol
# Density = 2.239993 g / cm^3
# Si number density = 22.451026 Si / 1000 Ang^3
#
#
#
# Elastic Constant Matrix: (Units=GPa)
#
#
# Indices 1 2 3 4 5 6 
#
# 1 80.3143 29.6811 1.0966 -9.4848 -11.0561 -12.3955
# 2 29.6811 170.9459 14.5928 0.5306 21.4304 -25.6936
# 3 1.0966 14.5928 39.4980 0.1983 -1.4612 -9.0192
# 4 -9.4848 0.5306 0.1983 28.7504 -6.2424 9.7846
# 5 -11.0561 21.4304 -1.4612 -6.2424 21.3920 3.2881
# 6 -12.3955 -25.6936 -9.0192 9.7846 3.2881 46.4926
#
#
#
# Elastic Compliance Matrix: (Units=1/GPa)
#
#
# Indices 1 2 3 4 5 6 
#
# 1 0.018289 -0.006021 0.001979 0.010843 0.019044 -0.001696
# 2 -0.006021 0.010227 -0.002736 -0.007991 -0.016858 0.006390
# 3 0.001979 -0.002736 0.027351 0.000301 0.005121 0.003896
# 4 0.010843 -0.007991 0.000301 0.049901 0.030362 -0.014116
# 5 0.019044 -0.016858 0.005121 0.030362 0.085094 -0.015654
# 6 -0.001696 0.006390 0.003896 -0.014116 -0.015654 0.029422
#
#
# Mechanical properties :
#
#
# Convention : Reuss Voigt Hill
#
# Bulk Modulus (GPa) = 23.63277 42.38880 33.01078
# Shear Modulus (GPa) = 20.16592 35.68619 27.92605
#
# Velocity S-wave (km/s) = 3.00028 3.99119 3.53067
# Velocity P-wave (km/s) = 4.74884 6.33728 5.59967
#
# Compressibility (1/GPa) = 0.04231413
#
# Stress axis : x y z
#
# Youngs Moduli (GPa) = 54.67636 97.77684 36.56152
#
# Poissons Ratio (x) = 0.58867 -0.07237
# Poissons Ratio (y) = 0.32918 0.10002
# Poissons Ratio (z) = -0.10822 0.26749
#
# Static dielectric constant tensor:
#      x y z
#    x 1.847310 0.000790 -0.086370 
#    y 0.000790 1.757460 -0.036810 
#    z -0.086370 -0.036810 1.774180 
# 
# From -- ./inp_files/574411.got.cif
#   From: 2010.05.17/outbox.cif.g08.bks.cpg/sg2_288_cif.got.tgz:574411.got - 2010.06.03 11:33:40.
