data_PCOD9053753
_publ_section_title
;
Structure prediction by ZEFSAII (Michael W. Deem and Ramdas Pophale) SiO2 
 PCOD9053753
Probable space group: P -1
;
_chemical_formula_sum "Si O2"
_cell_formula_units_Z 10
_cell_length_a 10.415568
_cell_length_b 7.769674
_cell_length_c 12.060986
_cell_angle_alpha 100.910072
_cell_angle_beta 155.620359
_cell_angle_gamma 83.585578
_cell_volume 391.152094
_symmetry_space_group_name_H-M "P -1"
_symmetry_group_IT_number 2
_symmetry_cell_setting 'triclinic'
loop_
_space_group_symop_operation_xyz
x,y,z
-x,-y,-z
loop_
_atom_site_type_symbol
_atom_site_label
_atom_site_fract_x
_atom_site_fract_y
_atom_site_fract_z
Si Si1 0.012632 0.675906 0.101216
Si Si2 0.592621 0.324081 0.997549
Si Si3 0.171304 0.168513 0.443899
Si Si4 0.541011 0.894204 0.672698
Si Si5 0.627587 0.831098 0.969586
O O1 0.765335 0.659243 0.008346
O O2 0.340703 0.742330 0.425241
O O3 0.882197 0.833421 0.947840
O O4 0.000000 0.500000 0.000000
O O5 0.339496 0.255365 0.696387
O O6 0.543976 0.201040 0.054586
O O7 0.500000 0.500000 0.000000
O O8 0.950771 0.307105 0.240004
O O9 0.454066 0.085930 0.594309
O O10 0.918804 0.988437 0.226154
O O11 0.431575 0.879914 0.715529
#
# Coordination Sequence:
#
# PCOD9053753 Si02
#       5
#     2   2   2   2   2
#     4   9  17  30  49  80 106 118 160 223 258 282
#     4  12  24  33  49  77 108 138 167 208 253 293
#     4  11  20  37  51  72 104 141 171 207 240 309
#     4   9  18  30  52  77  96 132 170 198 255 298
#     4   9  21  32  56  74 102 135 178 195 253 303
#
# _framework density 25.565501000000001
#
# number of rings (size 3 to 8) (size 9 to 14) (size 15 to 20)
#    1.200    0.800    2.000    2.400    5.600    0.000 
#    0.000    0.000    0.000    0.000    0.000   19.600 
#    0.000    0.000    0.000    0.000    0.000    0.000 
#
# Total GULP energy -55718.393814 kJ/mol
# GULP energy per Si atom -5571.839381 kJ/mol
# Density = 2.550731 g / cm^3
# Si number density = 25.565501 Si / 1000 Ang^3
#
#
#
# Elastic Constant Matrix: (Units=GPa)
#
#
# Indices 1 2 3 4 5 6 
#
# 1 40.0190 7.1167 30.3889 7.2556 7.7183 -10.9473
# 2 7.1167 172.0935 77.2728 1.6195 -1.8261 -47.3751
# 3 30.3889 77.2728 221.6358 8.2920 -21.8347 -27.8033
# 4 7.2556 1.6195 8.2920 55.7606 -24.3664 -10.8565
# 5 7.7183 -1.8261 -21.8347 -24.3664 12.4940 -8.8470
# 6 -10.9473 -47.3751 -27.8033 -10.8565 -8.8470 37.8241
#
#
#
# Elastic Compliance Matrix: (Units=1/GPa)
#
#
# Indices 1 2 3 4 5 6 
#
# 1 0.023747 0.005538 -0.000449 0.011650 0.023955 0.022426
# 2 0.005538 0.009321 -0.003823 -0.002811 -0.008847 0.007591
# 3 -0.000449 -0.003823 0.004004 -0.007516 -0.013026 -0.007180
# 4 0.011650 -0.002811 -0.007516 -0.007282 -0.048469 -0.019100
# 5 0.023955 -0.008847 -0.013026 -0.048469 -0.087385 -0.048074
# 6 0.022426 0.007591 -0.007180 -0.019100 -0.048074 0.020432
#
#
# Mechanical properties :
#
#
# Convention : Reuss Voigt Hill
#
# Bulk Modulus (GPa) = 25.25125 73.70057 49.47591
# Shear Modulus (GPa) = -188.72915 42.48039 -73.12438
#
# Velocity S-wave (km/s) = -8.60128 4.08073 -5.35396
# Velocity P-wave (km/s) = 9.42042 7.14800 4.33880
#
# Compressibility (1/GPa) = 0.03960200
#
# Stress axis : x y z
#
# Youngs Moduli (GPa) = 42.11086 107.28881 249.77034
#
# Poissons Ratio (x) = -0.59416 0.11225
# Poissons Ratio (y) = -0.23321 0.95489
# Poissons Ratio (z) = 0.01892 0.41017
#
# Static dielectric constant tensor:
#      x y z
#    x 2.168760 0.022400 0.033710 
#    y 0.022400 2.128420 -0.109450 
#    z 0.033710 -0.109450 1.948420 
# 
# From -- ./inp_files/19237.got.cif
#   From: 2010.05.17/outbox.cif.g08.bks.cpg/sg2_10_cif.got.tgz:19237.got - 2010.06.03 11:33:40.
