data_PCOD9053432
_publ_section_title
;
Structure prediction by ZEFSAII (Michael W. Deem and Ramdas Pophale) SiO2 
 PCOD9053432
Probable space group: P -1
;
_chemical_formula_sum "Si O2"
_cell_formula_units_Z 14
_cell_length_a 5.411291
_cell_length_b 13.202622
_cell_length_c 9.090355
_cell_angle_alpha 92.136908
_cell_angle_beta 108.694207
_cell_angle_gamma 112.516824
_cell_volume 558.699729
_symmetry_space_group_name_H-M "P -1"
_symmetry_group_IT_number 2
_symmetry_cell_setting 'triclinic'
loop_
_space_group_symop_operation_xyz
x,y,z
-x,-y,-z
loop_
_atom_site_type_symbol
_atom_site_label
_atom_site_fract_x
_atom_site_fract_y
_atom_site_fract_z
Si Si1 0.772715 0.785130 0.118715
Si Si2 0.216613 0.387193 0.447694
Si Si3 0.275072 0.969390 0.089134
Si Si4 0.562839 0.269172 0.522138
Si Si5 0.891273 0.585894 0.248163
Si Si6 0.683950 0.938473 0.366741
Si Si7 0.685611 0.335252 0.202640
O O1 0.765431 0.670182 0.173531
O O2 0.735667 0.865740 0.238933
O O3 0.076298 0.842877 0.094081
O O4 0.519427 0.755237 0.950432
O O5 0.500000 0.500000 0.500000
O O6 0.263457 0.278321 0.485443
O O7 0.086783 0.410972 0.571006
O O8 0.022370 0.362879 0.266582
O O9 0.509101 0.006510 0.270575
O O10 0.500000 0.000000 0.000000
O O11 0.000000 0.000000 0.000000
O O12 0.523531 0.148408 0.557466
O O13 0.602573 0.295722 0.354472
O O14 0.762555 0.353217 0.694645
O O15 0.703798 0.457331 0.171896
O O16 0.000000 0.000000 0.500000
#
# Coordination Sequence:
#
# PCOD9053432 Si02
#       7
#     2   2   2   2   2   2   2
#     4  12  27  48  74 114 157 199 262 326 400 469
#     4  11  19  39  69 103 151 201 252 299 376 472
#     4  12  28  55  84 114 158 203 267 340 411 470
#     4  11  22  43  71 105 146 196 253 311 381 465
#     4  11  21  43  68 108 149 196 248 305 375 477
#     4  12  29  52  82 112 150 208 274 337 398 473
#     4  11  25  39  73 112 156 201 247 310 395 468
#
# _framework density 25.058181999999999
#
# number of rings (size 3 to 8) (size 9 to 14) (size 15 to 20)
#    0.000    0.571    7.143    1.286    2.000    2.857 
#    0.000    1.429    0.000    0.000    0.000    0.000 
#    0.000    0.000    0.000    0.000    0.000    0.000 
#
# Total GULP energy -77938.361573 kJ/mol
# GULP energy per Si atom -5567.025827 kJ/mol
# Density = 2.500115 g / cm^3
# Si number density = 25.058182 Si / 1000 Ang^3
#
#
#
# Elastic Constant Matrix: (Units=GPa)
#
#
# Indices 1 2 3 4 5 6 
#
# 1 94.0621 30.6072 57.2723 -1.5249 23.2054 0.7467
# 2 30.6072 83.1188 67.6701 -16.2013 -2.2740 4.6880
# 3 57.2723 67.6701 162.8024 22.5362 31.7256 8.3220
# 4 -1.5249 -16.2013 22.5362 53.4057 -1.0043 15.0899
# 5 23.2054 -2.2740 31.7256 -1.0043 42.8323 -3.3461
# 6 0.7467 4.6880 8.3220 15.0899 -3.3461 34.5674
#
#
#
# Elastic Compliance Matrix: (Units=1/GPa)
#
#
# Indices 1 2 3 4 5 6 
#
# 1 0.014921 -0.003441 -0.002644 0.000378 -0.006299 0.000006
# 2 -0.003441 0.032677 -0.018032 0.019716 0.016871 -0.006990
# 3 -0.002644 -0.018032 0.019147 -0.014728 -0.013819 0.002985
# 4 0.000378 0.019716 -0.014728 0.034893 0.011534 -0.013252
# 5 -0.006299 0.016871 -0.013819 0.011534 0.038148 -0.000168
# 6 0.000006 -0.006990 0.002985 -0.013252 -0.000168 0.034927
#
#
# Mechanical properties :
#
#
# Convention : Reuss Voigt Hill
#
# Bulk Modulus (GPa) = 54.02035 72.34250 63.18142
# Shear Modulus (GPa) = 21.82303 38.45666 30.13985
#
# Velocity S-wave (km/s) = 2.95429 3.92177 3.47190
# Velocity P-wave (km/s) = 5.76558 7.03132 6.42967
#
# Compressibility (1/GPa) = 0.01851154
#
# Stress axis : x y z
#
# Youngs Moduli (GPa) = 67.02109 30.60239 52.22830
#
# Poissons Ratio (x) = 0.10530 0.13809
# Poissons Ratio (y) = 0.23061 0.94177
# Poissons Ratio (z) = 0.17720 0.55181
#
# Static dielectric constant tensor:
#      x y z
#    x 2.102000 -0.139480 0.025850 
#    y -0.139480 1.853430 -0.061870 
#    z 0.025850 -0.061870 2.006580 
# 
# From -- ./inp_files/36940.got.cif
#   From: 2010.05.17/outbox.cif.g08.bks.cpg/sg2_19_cif.got.tgz:36940.got - 2010.06.03 11:33:40.
