data_PCOD9053246
_publ_section_title
;
Structure prediction by ZEFSAII (Michael W. Deem and Ramdas Pophale) SiO2 
 PCOD9053246
Probable space group: P -1
;
_chemical_formula_sum "Si O2"
_cell_formula_units_Z 14
_cell_length_a 10.720404
_cell_length_b 21.864660
_cell_length_c 5.309726
_cell_angle_alpha 120.544037
_cell_angle_beta 96.521089
_cell_angle_gamma 44.798408
_cell_volume 689.849468
_symmetry_space_group_name_H-M "P -1"
_symmetry_group_IT_number 2
_symmetry_cell_setting 'triclinic'
loop_
_space_group_symop_operation_xyz
x,y,z
-x,-y,-z
loop_
_atom_site_type_symbol
_atom_site_label
_atom_site_fract_x
_atom_site_fract_y
_atom_site_fract_z
Si Si1 0.405495 0.942185 0.126278
Si Si2 0.862841 0.021819 0.216403
Si Si3 0.796284 0.186584 0.805450
Si Si4 0.447628 0.275030 0.120717
Si Si5 0.066229 0.186320 0.690407
Si Si6 0.802805 0.628460 0.245305
Si Si7 0.166816 0.221260 0.275846
O O1 0.455756 0.845317 0.069467
O O2 0.263441 0.053924 0.484906
O O3 0.275962 0.975578 0.929178
O O4 0.605246 0.888617 0.962531
O O5 0.743098 0.140725 0.532147
O O6 0.009782 0.922569 0.234988
O O7 0.000000 0.000000 0.000000
O O8 0.610962 0.265994 0.108730
O O9 0.874786 0.219878 0.741992
O O10 0.311578 0.328430 0.955184
O O11 0.326007 0.341710 0.485327
O O12 0.088240 0.210400 0.470256
O O13 0.064714 0.243243 0.037281
O O14 0.847910 0.690729 0.458611
O O15 0.000000 0.500000 0.000000
#
# Coordination Sequence:
#
# PCOD9053246 Si02
#       7
#     2   2   2   2   2   2   2
#     4  11  21  38  58  89 131 169 207 242 286 349
#     4  11  19  35  54  84 128 173 218 243 271 336
#     4  11  22  34  56  89 127 170 207 244 296 345
#     4  11  23  39  68  95 118 155 211 259 298 363
#     4  12  24  37  57  88 139 171 190 232 290 380
#     4  11  25  47  71  90 112 147 207 280 324 347
#     4  11  25  39  59  88 120 166 209 242 302 372
#
# _framework density 20.294283
#
# number of rings (size 3 to 8) (size 9 to 14) (size 15 to 20)
#    0.000    0.857    2.857    6.429    0.000    3.429 
#    0.000    0.000    0.000    5.143    0.000    0.000 
#    0.000    0.000    0.000    0.000    0.000    0.000 
#
# Total GULP energy -78205.422989 kJ/mol
# GULP energy per Si atom -5586.101642 kJ/mol
# Density = 2.024809 g / cm^3
# Si number density = 20.294283 Si / 1000 Ang^3
#
#
#
# Elastic Constant Matrix: (Units=GPa)
#
#
# Indices 1 2 3 4 5 6 
#
# 1 120.1970 14.4071 40.3542 -12.1479 -19.6100 12.6412
# 2 14.4071 56.9131 29.3910 -3.6093 -1.6940 -6.8988
# 3 40.3542 29.3910 92.0764 -7.9922 -13.9353 5.0032
# 4 -12.1479 -3.6093 -7.9922 36.9211 0.0165 -4.0531
# 5 -19.6100 -1.6940 -13.9353 0.0165 40.9191 -21.0374
# 6 12.6412 -6.8988 5.0032 -4.0531 -21.0374 23.4457
#
#
#
# Elastic Compliance Matrix: (Units=1/GPa)
#
#
# Indices 1 2 3 4 5 6 
#
# 1 0.010550 -0.000888 -0.003627 0.002317 0.002465 -0.002563
# 2 -0.000888 0.023302 -0.006812 0.002046 0.005418 0.014005
# 3 -0.003627 -0.006812 0.015214 0.001388 0.002951 -0.000408
# 4 0.002317 0.002046 0.001388 0.029494 0.007040 0.010472
# 5 0.002465 0.005418 0.002951 0.007040 0.050650 0.046299
# 6 -0.002563 0.014005 -0.000408 0.010472 0.046299 0.091595
#
#
# Mechanical properties :
#
#
# Convention : Reuss Voigt Hill
#
# Bulk Modulus (GPa) = 37.86213 48.61012 43.23612
# Shear Modulus (GPa) = 19.82067 32.59280 26.20673
#
# Velocity S-wave (km/s) = 3.12855 4.01185 3.59741
# Velocity P-wave (km/s) = 5.63449 6.74274 6.21337
#
# Compressibility (1/GPa) = 0.02641161
#
# Stress axis : x y z
#
# Youngs Moduli (GPa) = 94.79028 42.91483 65.73039
#
# Poissons Ratio (x) = 0.03811 0.23838
# Poissons Ratio (y) = 0.08418 0.44777
# Poissons Ratio (z) = 0.34377 0.29234
#
# Static dielectric constant tensor:
#      x y z
#    x 1.728750 -0.007320 0.015180 
#    y -0.007320 1.710130 0.018230 
#    z 0.015180 0.018230 1.715920 
# 
# From -- ./inp_files/82787.got.cif
#   From: 2010.05.17/outbox.cif.g08.bks.cpg/sg2_42_cif.got.tgz:82787.got - 2010.06.03 11:33:40.
