data_PCOD9053767
_publ_section_title
;
Structure prediction by ZEFSAII (Michael W. Deem and Ramdas Pophale) SiO2 
 PCOD9053767
Probable space group: P -1
;
_chemical_formula_sum "Si O2"
_cell_formula_units_Z 14
_cell_length_a 16.178941
_cell_length_b 5.188766
_cell_length_c 21.362217
_cell_angle_alpha 47.562018
_cell_angle_beta 150.715622
_cell_angle_gamma 128.711497
_cell_volume 643.998901
_symmetry_space_group_name_H-M "P -1"
_symmetry_group_IT_number 2
_symmetry_cell_setting 'triclinic'
loop_
_space_group_symop_operation_xyz
x,y,z
-x,-y,-z
loop_
_atom_site_type_symbol
_atom_site_label
_atom_site_fract_x
_atom_site_fract_y
_atom_site_fract_z
Si Si1 0.207476 0.742730 0.526420
Si Si2 0.993630 0.074473 0.241982
Si Si3 0.506136 0.537296 0.901124
Si Si4 0.550547 0.372004 0.817333
Si Si5 0.154872 0.716963 0.633804
Si Si6 0.808687 0.322463 0.201895
Si Si7 0.928978 0.605224 0.002267
O O1 0.379523 0.559818 0.660591
O O2 0.199985 0.901962 0.566431
O O3 0.033754 0.477504 0.457287
O O4 0.172881 0.993121 0.404517
O O5 0.897844 0.196911 0.220031
O O6 0.989333 0.356686 0.138126
O O7 0.899040 0.713318 0.211422
O O8 0.575186 0.419652 0.900037
O O9 0.303546 0.455660 0.779215
O O10 0.534020 0.960616 0.856350
O O11 0.612074 0.353992 0.052611
O O12 0.723768 0.552480 0.872638
O O13 0.173865 0.888494 0.687390
O O14 0.000000 0.500000 0.000000
O O15 0.000000 0.000000 0.000000
#
# Coordination Sequence:
#
# PCOD9053767 Si02
#       7
#     2   2   2   2   2   2   2
#     4   9  22  42  60  92 136 172 208 240 306 363
#     4  11  23  41  65  90 126 165 200 263 317 365
#     4  11  20  37  60  92 133 166 216 247 296 351
#     4  11  23  41  65  90 126 165 200 263 317 365
#     4   9  21  35  60  93 130 181 210 243 276 365
#     4  11  20  37  60  92 133 166 216 247 296 351
#     4  12  24  44  70  95 114 151 212 266 326 384
#
# _framework density 21.739170000000001
#
# number of rings (size 3 to 8) (size 9 to 14) (size 15 to 20)
#    0.000    1.429    2.857    2.143    0.000   11.429 
#    0.000    8.571    0.000    0.000    0.000    0.000 
#    0.000    0.000    0.000    0.000    0.000    0.000 
#
# Total GULP energy -78261.184042 kJ/mol
# GULP energy per Si atom -5590.084574 kJ/mol
# Density = 2.168969 g / cm^3
# Si number density = 21.739170 Si / 1000 Ang^3
#
#
#
# Elastic Constant Matrix: (Units=GPa)
#
#
# Indices 1 2 3 4 5 6 
#
# 1 164.9097 67.0370 59.4888 6.9555 -5.5437 -13.0518
# 2 67.0370 126.8017 44.3268 1.8820 -0.7329 -3.7922
# 3 59.4888 44.3268 174.8723 -4.4408 -3.8906 8.3800
# 4 6.9555 1.8820 -4.4408 31.7422 9.1561 -4.5422
# 5 -5.5437 -0.7329 -3.8906 9.1561 41.5565 3.0201
# 6 -13.0518 -3.7922 8.3800 -4.5422 3.0201 40.1875
#
#
#
# Elastic Compliance Matrix: (Units=1/GPa)
#
#
# Indices 1 2 3 4 5 6 
#
# 1 0.008682 -0.003722 -0.002160 -0.001935 0.001127 0.002616
# 2 -0.003722 0.010328 -0.001364 0.000168 -0.000487 0.000106
# 3 -0.002160 -0.001364 0.006937 0.001145 0.000242 -0.002165
# 4 -0.001935 0.000168 0.001145 0.034950 -0.008118 0.003709
# 5 0.001127 -0.000487 0.000242 -0.008118 0.026207 -0.002618
# 6 0.002616 0.000106 -0.002165 0.003709 -0.002618 0.026810
#
#
# Mechanical properties :
#
#
# Convention : Reuss Voigt Hill
#
# Bulk Modulus (GPa) = 87.27627 89.80986 88.54307
# Shear Modulus (GPa) = 37.81437 42.41264 40.11351
#
# Velocity S-wave (km/s) = 4.17521 4.42178 4.30026
# Velocity P-wave (km/s) = 7.96726 8.21411 8.09163
#
# Compressibility (1/GPa) = 0.01145787
#
# Stress axis : x y z
#
# Youngs Moduli (GPa) = 115.17562 96.81954 144.15424
#
# Poissons Ratio (x) = 0.36034 0.31132
# Poissons Ratio (y) = 0.42866 0.19657
# Poissons Ratio (z) = 0.24874 0.13203
#
# Static dielectric constant tensor:
#      x y z
#    x 1.806030 -0.069300 -0.000540 
#    y -0.069300 1.838160 -0.001910 
#    z -0.000540 -0.001910 1.881550 
# 
# From -- ./inp_files/596617.got.cif
#   From: 2010.05.17/outbox.cif.g08.bks.cpg/sg2_299_cif.got.tgz:596617.got - 2010.06.03 11:33:40.
