data_PCOD9053899
_publ_section_title
;
Structure prediction by ZEFSAII (Michael W. Deem and Ramdas Pophale) SiO2 
 PCOD9053899
Probable space group: P -1
;
_chemical_formula_sum "Si O2"
_cell_formula_units_Z 16
_cell_length_a 18.883807
_cell_length_b 19.548481
_cell_length_c 8.519968
_cell_angle_alpha 128.284383
_cell_angle_beta 42.392759
_cell_angle_gamma 158.390711
_cell_volume 751.893350
_symmetry_space_group_name_H-M "P -1"
_symmetry_group_IT_number 2
_symmetry_cell_setting 'triclinic'
loop_
_space_group_symop_operation_xyz
x,y,z
-x,-y,-z
loop_
_atom_site_type_symbol
_atom_site_label
_atom_site_fract_x
_atom_site_fract_y
_atom_site_fract_z
Si Si1 0.527526 0.645711 0.236881
Si Si2 0.694652 0.126013 0.489598
Si Si3 0.531672 0.426119 0.413254
Si Si4 0.159913 0.036062 0.324280
Si Si5 0.899946 0.797780 0.728018
Si Si6 0.930512 0.210631 0.964040
Si Si7 0.626436 0.904687 0.490868
Si Si8 0.524514 0.939180 0.995791
O O1 0.581192 0.663220 0.356441
O O2 0.295914 0.421657 0.254106
O O3 0.490589 0.720835 0.388971
O O4 0.749633 0.773867 0.962530
O O5 0.622889 0.987327 0.508055
O O6 0.500000 0.000000 0.500000
O O7 0.681525 0.196565 0.733776
O O8 0.909419 0.256943 0.216190
O O9 0.500000 0.500000 0.500000
O O10 0.407057 0.261837 0.276868
O O11 0.799778 0.600876 0.246528
O O12 0.162304 0.956952 0.088653
O O13 0.000000 0.000000 0.500000
O O14 0.033590 0.902171 0.493419
O O15 0.106610 0.930055 0.697028
O O16 0.762197 0.118091 0.965461
O O17 0.534120 0.863188 0.757205
O O18 0.500000 0.000000 0.000000
#
# Coordination Sequence:
#
# PCOD9053899 Si02
#       8
#     2   2   2   2   2   2   2   2
#     4  11  23  37  58  93 131 158 216 246 305 382
#     4   9  22  39  67  94 121 163 210 267 322 370
#     4  12  23  37  59  90 132 173 202 251 310 381
#     4  12  23  38  60  89 130 171 210 248 313 382
#     4  11  23  38  58  93 128 167 205 256 300 381
#     4  11  21  40  62  92 129 166 203 257 319 370
#     4  11  20  38  68  89 122 166 204 258 320 365
#     4   9  18  39  67  91 117 163 210 264 320 364
#
# _framework density 21.279615
#
# number of rings (size 3 to 8) (size 9 to 14) (size 15 to 20)
#    0.000    1.250    5.000    0.375    3.500    0.000 
#    0.000    0.000    0.000   60.000    0.000    0.000 
#    0.000    0.000    0.000    0.000    0.000    0.000 
#
# Total GULP energy -89242.309837 kJ/mol
# GULP energy per Si atom -5577.644365 kJ/mol
# Density = 2.123118 g / cm^3
# Si number density = 21.279615 Si / 1000 Ang^3
#
#
#
# Elastic Constant Matrix: (Units=GPa)
#
#
# Indices 1 2 3 4 5 6 
#
# 1 78.2561 3.7287 6.2263 -11.0903 -15.2969 -0.8480
# 2 3.7287 84.6783 22.1108 9.4945 -18.9732 7.0501
# 3 6.2263 22.1108 118.8764 9.3684 -10.7701 1.2107
# 4 -11.0903 9.4945 9.3684 17.5977 -1.2976 0.7871
# 5 -15.2969 -18.9732 -10.7701 -1.2976 27.0832 2.1725
# 6 -0.8480 7.0501 1.2107 0.7871 2.1725 18.3385
#
#
#
# Elastic Compliance Matrix: (Units=1/GPa)
#
#
# Indices 1 2 3 4 5 6 
#
# 1 0.016343 0.000563 -0.000944 0.011274 0.009874 -0.001052
# 2 0.000563 0.015966 -0.001410 -0.006366 0.011204 -0.007073
# 3 -0.000944 -0.001410 0.009266 -0.004616 0.001954 -0.000147
# 4 0.011274 -0.006366 -0.004616 0.070083 0.003441 -0.000142
# 5 0.009874 0.011204 0.001954 0.003441 0.052118 -0.010302
# 6 -0.001052 -0.007073 -0.000147 -0.000142 -0.010302 0.058437
#
#
# Mechanical properties :
#
#
# Convention : Reuss Voigt Hill
#
# Bulk Modulus (GPa) = 26.32072 38.43802 32.37937
# Shear Modulus (GPa) = 20.96788 29.25355 25.11071
#
# Velocity S-wave (km/s) = 3.14243 3.71175 3.43889
# Velocity P-wave (km/s) = 5.05592 6.03920 5.56930
#
# Compressibility (1/GPa) = 0.03799288
#
# Stress axis : x y z
#
# Youngs Moduli (GPa) = 61.18718 62.63301 107.91904
#
# Poissons Ratio (x) = -0.03525 0.10186
# Poissons Ratio (y) = -0.03443 0.15220
# Poissons Ratio (z) = 0.05775 0.08833
#
# Static dielectric constant tensor:
#      x y z
#    x 1.767060 -0.012090 0.020330 
#    y -0.012090 1.748350 0.068950 
#    z 0.020330 0.068950 1.829760 
# 
# From -- ./inp_files/349526.got.cif
#   From: 2010.05.17/outbox.cif.g08.bks.cpg/sg2_175_cif.got.tgz:349526.got - 2010.06.03 11:33:40.
