data_PCOD9053507
_publ_section_title
;
Structure prediction by ZEFSAII (Michael W. Deem and Ramdas Pophale) SiO2 
 PCOD9053507
Probable space group: P -1
;
_chemical_formula_sum "Si O2"
_cell_formula_units_Z 14
_cell_length_a 12.395413
_cell_length_b 14.072540
_cell_length_c 24.131791
_cell_angle_alpha 19.752895
_cell_angle_beta 22.915776
_cell_angle_gamma 29.856524
_cell_volume 553.940139
_symmetry_space_group_name_H-M "P -1"
_symmetry_group_IT_number 2
_symmetry_cell_setting 'triclinic'
loop_
_space_group_symop_operation_xyz
x,y,z
-x,-y,-z
loop_
_atom_site_type_symbol
_atom_site_label
_atom_site_fract_x
_atom_site_fract_y
_atom_site_fract_z
Si Si1 0.686839 0.431335 0.239383
Si Si2 0.970465 0.844496 0.693212
Si Si3 0.217641 0.544080 0.575311
Si Si4 0.211981 0.626914 0.047509
Si Si5 0.791868 0.156220 0.229451
Si Si6 0.521286 0.331783 0.900393
Si Si7 0.856943 0.804017 0.297112
O O1 0.495794 0.624435 0.182524
O O2 0.727051 0.240345 0.380065
O O3 0.768423 0.191487 0.286709
O O4 0.925298 0.667788 0.011485
O O5 0.909451 0.606998 0.807564
O O6 0.915992 0.147761 0.526855
O O7 0.738762 0.828777 0.861188
O O8 0.500000 0.500000 0.500000
O O9 0.245884 0.463069 0.541773
O O10 0.992260 0.342198 0.820839
O O11 0.500000 0.500000 0.000000
O O12 0.231497 0.918463 0.846022
O O13 0.537881 0.353220 0.221529
O O14 0.784046 0.857587 0.367163
O O15 0.809552 0.213962 0.848549
#
# Coordination Sequence:
#
# PCOD9053507 Si02
#       7
#     2   2   2   2   2   2   2
#     4   8  15  37  62  94 129 165 213 256 316 407
#     4  11  19  42  63  90 134 170 203 277 335 367
#     4  12  28  43  58 100 136 165 222 283 324 371
#     4  12  24  44  70  90 121 182 232 263 315 391
#     4   8  16  35  60  94 125 160 216 254 312 383
#     4   9  18  37  68  95 125 167 220 256 308 410
#     4  12  22  39  67  93 123 173 221 267 316 384
#
# _framework density 25.273488
#
# number of rings (size 3 to 8) (size 9 to 14) (size 15 to 20)
#    0.857    0.857    4.286    3.429    0.000    0.571 
#    0.000    1.429    0.000    0.000    0.000    0.000 
#    0.000    0.000    0.000    0.000    0.000    0.000 
#
# Total GULP energy -78059.964831 kJ/mol
# GULP energy per Si atom -5575.711774 kJ/mol
# Density = 2.521596 g / cm^3
# Si number density = 25.273488 Si / 1000 Ang^3
#
#
#
# Elastic Constant Matrix: (Units=GPa)
#
#
# Indices 1 2 3 4 5 6 
#
# 1 127.9335 36.8081 15.3614 -6.8468 -17.1704 -16.1888
# 2 36.8081 79.3905 2.4813 7.4487 -2.9862 -10.5406
# 3 15.3614 2.4813 71.7247 -13.5471 15.9064 -0.2348
# 4 -6.8468 7.4487 -13.5471 37.7744 5.6968 -6.3016
# 5 -17.1704 -2.9862 15.9064 5.6968 48.9396 -10.6329
# 6 -16.1888 -10.5406 -0.2348 -6.3016 -10.6329 50.1141
#
#
#
# Elastic Compliance Matrix: (Units=1/GPa)
#
#
# Indices 1 2 3 4 5 6 
#
# 1 0.010655 -0.004302 -0.002945 0.001592 0.005073 0.003800
# 2 -0.004302 0.015142 -0.000355 -0.003702 0.000262 0.001384
# 3 -0.002945 -0.000355 0.017620 0.006758 -0.007956 -0.001782
# 4 0.001592 -0.003702 0.006758 0.031095 -0.004911 0.002636
# 5 0.005073 0.000262 -0.007956 -0.004911 0.026850 0.006736
# 6 0.003800 0.001384 -0.001782 0.002636 0.006736 0.023225
#
#
# Mechanical properties :
#
#
# Convention : Reuss Voigt Hill
#
# Bulk Modulus (GPa) = 35.44449 43.15004 39.29727
# Shear Modulus (GPa) = 33.51279 42.32548 37.91914
#
# Velocity S-wave (km/s) = 3.64539 4.09675 3.87764
# Velocity P-wave (km/s) = 5.63678 6.28396 5.96914
#
# Compressibility (1/GPa) = 0.02821313
#
# Stress axis : x y z
#
# Youngs Moduli (GPa) = 93.85392 66.03953 56.75327
#
# Poissons Ratio (x) = 0.28410 0.16714
# Poissons Ratio (y) = 0.40376 0.02016
# Poissons Ratio (z) = 0.27640 0.02345
#
# Static dielectric constant tensor:
#      x y z
#    x 1.989350 0.060680 0.067200 
#    y 0.060680 2.071590 0.146640 
#    z 0.067200 0.146640 2.070370 
# 
# From -- ./inp_files/618523.got.cif
#   From: 2010.05.17/outbox.cif.g08.bks.cpg/sg2_310_cif.got.tgz:618523.got - 2010.06.03 11:33:40.
