data_PCOD9053257
_publ_section_title
;
Structure prediction by ZEFSAII (Michael W. Deem and Ramdas Pophale) SiO2 
 PCOD9053257
Probable space group: P -1
;
_chemical_formula_sum "Si O2"
_cell_formula_units_Z 14
_cell_length_a 9.090683
_cell_length_b 14.756204
_cell_length_c 9.247985
_cell_angle_alpha 128.821065
_cell_angle_beta 62.583007
_cell_angle_gamma 88.578179
_cell_volume 764.775346
_symmetry_space_group_name_H-M "P -1"
_symmetry_group_IT_number 2
_symmetry_cell_setting 'triclinic'
loop_
_space_group_symop_operation_xyz
x,y,z
-x,-y,-z
loop_
_atom_site_type_symbol
_atom_site_label
_atom_site_fract_x
_atom_site_fract_y
_atom_site_fract_z
Si Si1 0.787675 0.339732 0.266720
Si Si2 0.998110 0.238705 0.343917
Si Si3 0.769574 0.614529 0.534055
Si Si4 0.634390 0.239617 0.988810
Si Si5 0.509476 0.711662 0.505232
Si Si6 0.325056 0.970055 0.031680
Si Si7 0.395808 0.657310 0.215029
O O1 0.827522 0.462862 0.364649
O O2 0.591094 0.373192 0.470528
O O3 0.941789 0.236698 0.200218
O O4 0.758523 0.291635 0.075976
O O5 0.086400 0.337870 0.425645
O O6 0.807962 0.293696 0.574937
O O7 0.146873 0.098689 0.192622
O O8 0.706228 0.661315 0.444791
O O9 0.577672 0.686780 0.783123
O O10 0.702278 0.092608 0.869391
O O11 0.627902 0.273469 0.858862
O O12 0.507375 0.700009 0.323770
O O13 0.382597 0.855943 0.770715
O O14 0.500000 0.000000 0.000000
O O15 0.500000 0.500000 0.000000
#
# Coordination Sequence:
#
# PCOD9053257 Si02
#       7
#     2   2   2   2   2   2   2
#     4   9  18  31  54  87 108 146 201 227 274 340
#     4  11  21  35  61  85 115 151 188 243 282 331
#     4  10  17  35  60  83 109 152 198 237 274 331
#     4  10  20  36  60  80 115 156 184 238 284 335
#     4   9  19  35  62  81 114 155 186 235 290 330
#     4  10  19  40  63  83 111 146 205 240 273 330
#     4  11  23  39  55  89 125 150 183 231 298 347
#
# _framework density 18.306028999999999
#
# number of rings (size 3 to 8) (size 9 to 14) (size 15 to 20)
#    0.000    2.286    2.857    4.714    0.000    5.714 
#    0.000    5.000    0.000    0.000    0.000    0.000 
#    0.000    0.000    0.000    0.000    0.000    0.000 
#
# Total GULP energy -78048.617391 kJ/mol
# GULP energy per Si atom -5574.901242 kJ/mol
# Density = 1.826436 g / cm^3
# Si number density = 18.306029 Si / 1000 Ang^3
#
#
#
# Elastic Constant Matrix: (Units=GPa)
#
#
# Indices 1 2 3 4 5 6 
#
# 1 99.3718 31.6704 25.1045 -15.3438 18.5614 -17.3528
# 2 31.6704 91.6808 37.4556 2.7785 17.6181 -16.2022
# 3 25.1045 37.4556 59.6841 1.1971 7.0514 -16.6735
# 4 -15.3438 2.7785 1.1971 28.5530 -14.0121 8.2062
# 5 18.5614 17.6181 7.0514 -14.0121 33.4542 -0.1742
# 6 -17.3528 -16.2022 -16.6735 8.2062 -0.1742 35.2581
#
#
#
# Elastic Compliance Matrix: (Units=1/GPa)
#
#
# Indices 1 2 3 4 5 6 
#
# 1 0.013546 -0.002405 -0.003075 0.005120 -0.003442 0.002899
# 2 -0.002405 0.018086 -0.007228 -0.009699 -0.010699 0.005914
# 3 -0.003075 -0.007228 0.025270 -0.005412 -0.002037 0.008365
# 4 0.005120 -0.009699 -0.005412 0.057487 0.027393 -0.017741
# 5 -0.003442 -0.010699 -0.002037 0.027393 0.049267 -0.013706
# 6 0.002899 0.005914 0.008365 -0.017741 -0.013706 0.040524
#
#
# Mechanical properties :
#
#
# Convention : Reuss Voigt Hill
#
# Bulk Modulus (GPa) = 31.75855 48.79976 40.27915
# Shear Modulus (GPa) = 20.82537 29.88679 25.35608
#
# Velocity S-wave (km/s) = 3.37653 4.04495 3.72576
# Velocity P-wave (km/s) = 5.70855 6.96643 6.36862
#
# Compressibility (1/GPa) = 0.03148758
#
# Stress axis : x y z
#
# Youngs Moduli (GPa) = 73.82188 55.29119 39.57187
#
# Poissons Ratio (x) = 0.13295 0.12168
# Poissons Ratio (y) = 0.17751 0.28603
# Poissons Ratio (z) = 0.22700 0.39965
#
# Static dielectric constant tensor:
#      x y z
#    x 1.644280 -0.019870 0.017850 
#    y -0.019870 1.673330 0.010440 
#    z 0.017850 0.010440 1.624520 
# 
# From -- ./inp_files/172672.got.cif
#   From: 2010.05.17/outbox.cif.g08.bks.cpg/sg2_87_cif.got.tgz:172672.got - 2010.06.03 11:33:40.
