data_PCOD9053090
_publ_section_title
;
Structure prediction by ZEFSAII (Michael W. Deem and Ramdas Pophale) SiO2 
 PCOD9053090
Probable space group: P -1
;
_chemical_formula_sum "Si O2"
_cell_formula_units_Z 10
_cell_length_a 5.684442
_cell_length_b 14.988609
_cell_length_c 8.947631
_cell_angle_alpha 42.919227
_cell_angle_beta 87.420386
_cell_angle_gamma 105.603504
_cell_volume 464.729892
_symmetry_space_group_name_H-M "P -1"
_symmetry_group_IT_number 2
_symmetry_cell_setting 'triclinic'
loop_
_space_group_symop_operation_xyz
x,y,z
-x,-y,-z
loop_
_atom_site_type_symbol
_atom_site_label
_atom_site_fract_x
_atom_site_fract_y
_atom_site_fract_z
Si Si1 0.296924 0.819675 0.386189
Si Si2 0.728667 0.980580 0.607949
Si Si3 0.831032 0.047508 0.054000
Si Si4 0.319391 0.284243 0.897442
Si Si5 0.233768 0.557904 0.547902
O O1 0.185243 0.647721 0.574260
O O2 0.185337 0.896864 0.412072
O O3 0.606506 0.904369 0.308699
O O4 0.279487 0.871167 0.154943
O O5 0.500000 0.000000 0.500000
O O6 0.591885 0.814027 0.880791
O O7 0.000000 0.000000 0.500000
O O8 0.024220 0.167667 0.011084
O O9 0.000000 0.000000 0.000000
O O10 0.294256 0.428610 0.769499
O O11 0.504131 0.335886 0.682151
O O12 0.000000 0.500000 0.500000
#
# Coordination Sequence:
#
# PCOD9053090 Si02
#       5
#     2   2   2   2   2
#     4  11  22  38  65 101 132 172 229 279 343 396
#     4  12  28  46  70  93 136 194 240 273 311 404
#     4  11  18  35  69  98 131 163 219 299 341 388
#     4  11  23  41  66 104 136 170 223 280 355 404
#     4  11  23  38  69 106 138 163 205 301 366 401
#
# _framework density 21.517873999999999
#
# number of rings (size 3 to 8) (size 9 to 14) (size 15 to 20)
#    0.000    0.800    6.000    2.400    2.800    0.000 
#    0.000    2.000    0.000    0.000    0.000    0.000 
#    0.000    0.000    0.000    0.000    0.000    0.000 
#
# Total GULP energy -55743.582723 kJ/mol
# GULP energy per Si atom -5574.358272 kJ/mol
# Density = 2.146890 g / cm^3
# Si number density = 21.517874 Si / 1000 Ang^3
#
#
#
# Elastic Constant Matrix: (Units=GPa)
#
#
# Indices 1 2 3 4 5 6 
#
# 1 103.5393 49.8302 39.9266 -9.3546 10.5928 -8.9417
# 2 49.8302 121.6408 46.8895 -24.9500 10.7098 -27.5267
# 3 39.9266 46.8895 104.7603 -19.4936 34.3157 -8.2152
# 4 -9.3546 -24.9500 -19.4936 30.0962 -7.0397 11.6653
# 5 10.5928 10.7098 34.3157 -7.0397 51.3665 -1.5695
# 6 -8.9417 -27.5267 -8.2152 11.6653 -1.5695 54.3692
#
#
#
# Elastic Compliance Matrix: (Units=1/GPa)
#
#
# Indices 1 2 3 4 5 6 
#
# 1 0.012870 -0.004402 -0.003351 -0.001658 0.000267 -0.000255
# 2 -0.004402 0.013418 -0.003235 0.006303 0.001266 0.004265
# 3 -0.003351 -0.003235 0.015945 0.005013 -0.008633 -0.001105
# 4 -0.001658 0.006303 0.005013 0.043729 0.001499 -0.005663
# 5 0.000267 0.001266 -0.008633 0.001499 0.025115 -0.000216
# 6 -0.000255 0.004265 -0.001105 -0.005663 -0.000216 0.021552
#
#
# Mechanical properties :
#
#
# Convention : Reuss Voigt Hill
#
# Bulk Modulus (GPa) = 49.36701 67.02591 58.19646
# Shear Modulus (GPa) = 30.98738 40.05264 35.52001
#
# Velocity S-wave (km/s) = 3.79895 4.31904 4.06731
# Velocity P-wave (km/s) = 6.49883 7.48924 7.01154
#
# Compressibility (1/GPa) = 0.02025644
#
# Stress axis : x y z
#
# Youngs Moduli (GPa) = 77.70307 74.52899 62.71603
#
# Poissons Ratio (x) = 0.32805 0.21015
# Poissons Ratio (y) = 0.34202 0.20291
# Poissons Ratio (z) = 0.26037 0.24113
#
# Static dielectric constant tensor:
#      x y z
#    x 1.884450 0.013640 0.054140 
#    y 0.013640 1.868300 0.001020 
#    z 0.054140 0.001020 1.854790 
# 
# From -- ./inp_files/15851.got.cif
#   From: 2010.05.17/outbox.cif.g08.bks.cpg/sg2_8_cif.got.tgz:15851.got - 2010.06.03 11:33:40.
