data_PCOD9053613
_publ_section_title
;
Structure prediction by ZEFSAII (Michael W. Deem and Ramdas Pophale) SiO2 
 PCOD9053613
Probable space group: P -1
;
_chemical_formula_sum "Si O2"
_cell_formula_units_Z 14
_cell_length_a 9.464172
_cell_length_b 7.820800
_cell_length_c 13.522942
_cell_angle_alpha 95.996273
_cell_angle_beta 133.986883
_cell_angle_gamma 63.341496
_cell_volume 609.305304
_symmetry_space_group_name_H-M "P -1"
_symmetry_group_IT_number 2
_symmetry_cell_setting 'triclinic'
loop_
_space_group_symop_operation_xyz
x,y,z
-x,-y,-z
loop_
_atom_site_type_symbol
_atom_site_label
_atom_site_fract_x
_atom_site_fract_y
_atom_site_fract_z
Si Si1 0.170691 0.293937 0.506615
Si Si2 0.645530 0.708328 0.882871
Si Si3 0.916603 0.295064 0.870695
Si Si4 0.224959 0.730396 0.626997
Si Si5 0.904581 0.377063 0.641694
Si Si6 0.585493 0.779533 0.070289
Si Si7 0.566743 0.251897 0.807398
O O1 0.206389 0.387097 0.428830
O O2 0.415292 0.175938 0.673668
O O3 0.000000 0.500000 0.500000
O O4 0.011867 0.196847 0.423610
O O5 0.779911 0.520822 0.863363
O O6 0.376041 0.829499 0.729041
O O7 0.639955 0.645762 0.990633
O O8 0.815462 0.794574 0.977401
O O9 0.871335 0.324760 0.733182
O O10 0.799125 0.186823 0.858299
O O11 0.171935 0.722076 0.485365
O O12 0.402505 0.496102 0.728931
O O13 0.175801 0.293336 0.763240
O O14 0.416834 0.779701 0.069293
O O15 0.500000 0.000000 0.000000
#
# Coordination Sequence:
#
# PCOD9053613 Si02
#       7
#     2   2   2   2   2   2   2
#     4   8  13  26  50  77  96 117 160 209 236 282
#     4   9  20  32  44  77 103 125 160 197 254 281
#     4   9  18  31  49  75 106 126 147 206 254 294
#     4   9  15  29  54  75 101 119 157 215 242 281
#     4   9  16  32  51  75  98 128 163 189 252 295
#     4  11  20  34  51  68  96 137 173 196 227 291
#     4   9  16  30  50  75  94 126 166 195 246 283
#
# _framework density 22.976987000000001
#
# number of rings (size 3 to 8) (size 9 to 14) (size 15 to 20)
#    0.000    3.143    4.286    0.000    0.000    7.429 
#    2.571    3.571    0.000    0.000    0.000    6.000 
#    0.000    0.000    0.000    0.000    0.000    0.000 
#
# Total GULP energy -77985.591229 kJ/mol
# GULP energy per Si atom -5570.399374 kJ/mol
# Density = 2.292469 g / cm^3
# Si number density = 22.976987 Si / 1000 Ang^3
#
#
#
# Elastic Constant Matrix: (Units=GPa)
#
#
# Indices 1 2 3 4 5 6 
#
# 1 186.4915 -0.4474 73.9481 12.3984 6.3106 26.1691
# 2 -0.4474 35.0368 2.5897 -3.6788 -6.3347 9.9974
# 3 73.9481 2.5897 146.1914 8.6535 8.3696 21.8978
# 4 12.3984 -3.6788 8.6535 13.2988 6.6166 -0.5065
# 5 6.3106 -6.3347 8.3696 6.6166 53.8648 4.6230
# 6 26.1691 9.9974 21.8978 -0.5065 4.6230 16.4359
#
#
#
# Elastic Compliance Matrix: (Units=1/GPa)
#
#
# Indices 1 2 3 4 5 6 
#
# 1 0.008527 0.003847 -0.001968 -0.007049 0.001829 -0.014026
# 2 0.003847 0.039783 0.002128 0.001348 0.006737 -0.035013
# 3 -0.001968 0.002128 0.009757 -0.004617 0.000515 -0.011448
# 4 -0.007049 0.001348 -0.004617 0.091731 -0.011507 0.022618
# 5 0.001829 0.006737 0.000515 -0.011507 0.021691 -0.014151
# 6 -0.014026 -0.035013 -0.011448 0.022618 -0.014151 0.124400
#
#
# Mechanical properties :
#
#
# Convention : Reuss Voigt Hill
#
# Bulk Modulus (GPa) = 15.13275 57.76672 36.44973
# Shear Modulus (GPa) = 16.13422 36.16184 26.14803
#
# Velocity S-wave (km/s) = 2.65276 3.97145 3.37710
# Velocity P-wave (km/s) = 3.99790 6.79894 5.57713
#
# Compressibility (1/GPa) = 0.06608185
#
# Stress axis : x y z
#
# Youngs Moduli (GPa) = 117.28106 25.13614 102.49555
#
# Poissons Ratio (x) = -0.09670 0.20168
# Poissons Ratio (y) = -0.45118 -0.21815
# Poissons Ratio (z) = 0.23077 -0.05350
#
# Static dielectric constant tensor:
#      x y z
#    x 1.964160 0.060910 0.025490 
#    y 0.060910 1.921900 0.024480 
#    z 0.025490 0.024480 1.927290 
# 
# From -- ./inp_files/252088.got.cif
#   From: 2010.05.17/outbox.cif.g08.bks.cpg/sg2_127_cif.got.tgz:252088.got - 2010.06.03 11:33:40.
