data_PCOD9053965
_publ_section_title
;
Structure prediction by ZEFSAII (Michael W. Deem and Ramdas Pophale) SiO2 
 PCOD9053965
Probable space group: P -1
;
_chemical_formula_sum "Si O2"
_cell_formula_units_Z 16
_cell_length_a 14.320889
_cell_length_b 9.045780
_cell_length_c 9.393478
_cell_angle_alpha 101.361078
_cell_angle_beta 56.333511
_cell_angle_gamma 67.638588
_cell_volume 794.277317
_symmetry_space_group_name_H-M "P -1"
_symmetry_group_IT_number 2
_symmetry_cell_setting 'triclinic'
loop_
_space_group_symop_operation_xyz
x,y,z
-x,-y,-z
loop_
_atom_site_type_symbol
_atom_site_label
_atom_site_fract_x
_atom_site_fract_y
_atom_site_fract_z
Si Si1 0.559168 0.879865 0.782955
Si Si2 0.995955 0.404263 0.341878
Si Si3 0.982004 0.643659 0.163397
Si Si4 0.311525 0.034770 0.568836
Si Si5 0.300987 0.150120 0.907943
Si Si6 0.726868 0.484289 0.972893
Si Si7 0.468212 0.597316 0.391574
Si Si8 0.735388 0.443920 0.630053
O O1 0.631990 0.933342 0.617073
O O2 0.659681 0.664265 0.702750
O O3 0.417677 0.945038 0.832375
O O4 0.500000 0.000000 0.000000
O O5 0.896014 0.342191 0.430527
O O6 0.000000 0.500000 0.500000
O O7 0.933181 0.576273 0.319640
O O8 0.147749 0.239562 0.118295
O O9 0.855584 0.860274 0.282569
O O10 0.125583 0.608084 0.086094
O O11 0.000000 0.500000 0.000000
O O12 0.314044 0.141140 0.724889
O O13 0.403989 0.817079 0.491224
O O14 0.327942 0.300017 0.961393
O O15 0.614240 0.487039 0.161485
O O16 0.737350 0.409725 0.790888
O O17 0.500000 0.500000 0.500000
O O18 0.352768 0.600193 0.397893
#
# Coordination Sequence:
#
# PCOD9053965 Si02
#       8
#     2   2   2   2   2   2   2   2
#     4  12  22  37  67 102 124 165 225 279 319 385
#     4  11  20  39  66 103 128 164 213 276 332 384
#     4  11  22  38  72 100 129 163 218 282 332 373
#     4  12  24  42  65  99 134 171 221 273 331 390
#     4  11  22  37  65  99 133 158 220 278 326 371
#     4  11  23  44  65  97 134 172 216 273 334 386
#     4  12  29  45  64  92 137 186 217 263 335 404
#     4  12  24  43  68  96 138 172 214 271 335 397
#
# _framework density 20.144098
#
# number of rings (size 3 to 8) (size 9 to 14) (size 15 to 20)
#    0.000    0.500    8.750    1.500    3.500    0.000 
#    0.000    4.375    0.000    0.000    0.000    0.000 
#    0.000    0.000    0.000    0.000    0.000    0.000 
#
# Total GULP energy -89242.633054 kJ/mol
# GULP energy per Si atom -5577.664566 kJ/mol
# Density = 2.009825 g / cm^3
# Si number density = 20.144098 Si / 1000 Ang^3
#
#
#
# Elastic Constant Matrix: (Units=GPa)
#
#
# Indices 1 2 3 4 5 6 
#
# 1 120.5988 7.2519 61.5895 -14.6932 -5.4049 -7.1261
# 2 7.2519 53.7890 34.7256 -6.3835 -4.2594 -18.3607
# 3 61.5895 34.7256 140.4267 -24.7042 -8.1909 -3.5315
# 4 -14.6932 -6.3835 -24.7042 32.2110 -6.7463 -2.2669
# 5 -5.4049 -4.2594 -8.1909 -6.7463 47.5287 0.0135
# 6 -7.1261 -18.3607 -3.5315 -2.2669 0.0135 34.4502
#
#
#
# Elastic Compliance Matrix: (Units=1/GPa)
#
#
# Indices 1 2 3 4 5 6 
#
# 1 0.011332 0.003553 -0.005287 0.002303 0.001022 0.003847
# 2 0.003553 0.028884 -0.007660 0.003003 0.002094 0.015541
# 3 -0.005287 -0.007660 0.012329 0.005619 0.001636 -0.003543
# 4 0.002303 0.003003 0.005619 0.038835 0.007010 0.005205
# 5 0.001022 0.002094 0.001636 0.007010 0.022620 0.001948
# 6 0.003847 0.015541 -0.003543 0.005205 0.001948 0.038084
#
#
# Mechanical properties :
#
#
# Convention : Reuss Voigt Hill
#
# Bulk Modulus (GPa) = 29.62324 57.99427 43.80876
# Shear Modulus (GPa) = 27.45357 36.92114 32.18736
#
# Velocity S-wave (km/s) = 3.69570 4.28583 4.00165
# Velocity P-wave (km/s) = 5.74008 7.30365 6.56855
#
# Compressibility (1/GPa) = 0.03375728
#
# Stress axis : x y z
#
# Youngs Moduli (GPa) = 88.24416 34.62104 81.10906
#
# Poissons Ratio (x) = -0.12301 0.42885
# Poissons Ratio (y) = -0.31352 0.62127
# Poissons Ratio (z) = 0.46657 0.26519
#
# Static dielectric constant tensor:
#      x y z
#    x 1.775410 -0.027400 -0.016610 
#    y -0.027400 1.703400 0.015250 
#    z -0.016610 0.015250 1.718260 
# 
# From -- ./inp_files/298702.got.cif
#   From: 2010.05.17/outbox.cif.g08.bks.cpg/sg2_150_cif.got.tgz:298702.got - 2010.06.03 11:33:40.
