data_PCOD9053612
_publ_section_title
;
Structure prediction by ZEFSAII (Michael W. Deem and Ramdas Pophale) SiO2 
 PCOD9053612
Probable space group: P -1
;
_chemical_formula_sum "Si O2"
_cell_formula_units_Z 16
_cell_length_a 8.512090
_cell_length_b 11.816149
_cell_length_c 14.929811
_cell_angle_alpha 57.318803
_cell_angle_beta 141.548311
_cell_angle_gamma 107.207758
_cell_volume 762.473198
_symmetry_space_group_name_H-M "P -1"
_symmetry_group_IT_number 2
_symmetry_cell_setting 'triclinic'
loop_
_space_group_symop_operation_xyz
x,y,z
-x,-y,-z
loop_
_atom_site_type_symbol
_atom_site_label
_atom_site_fract_x
_atom_site_fract_y
_atom_site_fract_z
Si Si1 0.088285 0.596964 0.121864
Si Si2 0.145279 0.753362 0.258033
Si Si3 0.519395 0.385124 0.830085
Si Si4 0.852607 0.530765 0.517512
Si Si5 0.747824 0.695942 0.581209
Si Si6 0.146468 0.870757 0.678325
Si Si7 0.577728 0.886756 0.006085
Si Si8 0.506967 0.400265 0.131321
O O1 0.119443 0.708268 0.163665
O O2 0.179150 0.628552 0.049741
O O3 0.217528 0.440130 0.282440
O O4 0.783756 0.607614 0.978832
O O5 0.133932 0.616716 0.368853
O O6 0.439328 0.769892 0.400371
O O7 0.877539 0.866393 0.115643
O O8 0.425131 0.399827 0.679767
O O9 0.446793 0.259135 0.900642
O O10 0.405961 0.520460 0.780565
O O11 0.865305 0.631892 0.563966
O O12 0.000000 0.500000 0.500000
O O13 0.926308 0.796940 0.650599
O O14 0.321689 0.750259 0.747637
O O15 0.352074 0.914229 0.818455
O O16 0.000000 0.000000 0.500000
O O17 0.500000 0.000000 0.000000
O O18 0.500000 0.500000 0.000000
#
# Coordination Sequence:
#
# PCOD9053612 Si02
#       8
#     2   2   2   2   2   2   2   2
#     4  11  20  39  70 107 138 173 233 294 355 411
#     4  11  21  42  69 101 143 177 225 296 357 416
#     4  12  22  39  70 106 137 174 239 292 352 413
#     4  11  20  33  66 108 135 174 223 285 352 414
#     4  11  22  42  69 104 144 177 228 294 351 422
#     4  12  28  48  70  99 145 195 234 282 368 422
#     4  12  28  48  70  99 141 192 243 292 347 434
#     4  12  22  43  72 100 137 184 234 298 348 416
#
# _framework density 20.984344
#
# number of rings (size 3 to 8) (size 9 to 14) (size 15 to 20)
#    0.000    0.500    7.500    1.875    1.750    1.000 
#    2.250    1.875    0.000    0.000    0.000    0.000 
#    0.000    0.000    0.000    0.000    0.000    0.000 
#
# Total GULP energy -89241.738593 kJ/mol
# GULP energy per Si atom -5577.608662 kJ/mol
# Density = 2.093658 g / cm^3
# Si number density = 20.984344 Si / 1000 Ang^3
#
#
#
# Elastic Constant Matrix: (Units=GPa)
#
#
# Indices 1 2 3 4 5 6 
#
# 1 117.5289 23.8648 20.5760 -1.9981 30.6282 -11.6920
# 2 23.8648 67.3487 43.5970 5.3313 21.0067 -21.4699
# 3 20.5760 43.5970 112.5235 3.7376 21.1459 -12.2092
# 4 -1.9981 5.3313 3.7376 32.9543 -0.3378 2.9175
# 5 30.6282 21.0067 21.1459 -0.3378 40.7616 4.7752
# 6 -11.6920 -21.4699 -12.2092 2.9175 4.7752 31.4071
#
#
#
# Elastic Compliance Matrix: (Units=1/GPa)
#
#
# Indices 1 2 3 4 5 6 
#
# 1 0.011553 0.001149 0.000068 -0.000186 -0.010090 0.006664
# 2 0.001149 0.031549 -0.006715 -0.006429 -0.016323 0.022463
# 3 0.000068 -0.006715 0.012111 -0.000369 -0.002949 0.000625
# 4 -0.000186 -0.006429 -0.000369 0.032204 0.004889 -0.008342
# 5 -0.010090 -0.016323 -0.002949 0.004889 0.044831 -0.023332
# 6 0.006664 0.022463 0.000625 -0.008342 -0.023332 0.054242
#
#
# Mechanical properties :
#
#
# Convention : Reuss Voigt Hill
#
# Bulk Modulus (GPa) = 22.61668 52.60851 37.61259
# Shear Modulus (GPa) = 23.55984 34.98217 29.27101
#
# Velocity S-wave (km/s) = 3.35436 4.08739 3.73888
# Velocity P-wave (km/s) = 5.07972 6.88480 6.04996
#
# Compressibility (1/GPa) = 0.04421516
#
# Stress axis : x y z
#
# Youngs Moduli (GPa) = 86.56036 31.69626 82.57104
#
# Poissons Ratio (x) = -0.03641 -0.00560
# Poissons Ratio (y) = -0.09943 0.55450
# Poissons Ratio (z) = -0.00587 0.21285
#
# Static dielectric constant tensor:
#      x y z
#    x 1.764000 -0.022040 -0.132950 
#    y -0.022040 1.684890 -0.127490 
#    z -0.132950 -0.127490 1.192680 
# 
# From -- ./inp_files/500215.got.cif
#   From: 2010.05.17/outbox.cif.g08.bks.cpg/sg2_251_cif.got.tgz:500215.got - 2010.06.03 11:33:40.
