data_PCOD9053506
_publ_section_title
;
Structure prediction by ZEFSAII (Michael W. Deem and Ramdas Pophale) SiO2 
 PCOD9053506
Probable space group: P -1
;
_chemical_formula_sum "Si O2"
_cell_formula_units_Z 15
_cell_length_a 10.140897
_cell_length_b 10.386857
_cell_length_c 8.973769
_cell_angle_alpha 44.435415
_cell_angle_beta 92.479978
_cell_angle_gamma 109.880346
_cell_volume 593.048178
_symmetry_space_group_name_H-M "P -1"
_symmetry_group_IT_number 2
_symmetry_cell_setting 'triclinic'
loop_
_space_group_symop_operation_xyz
x,y,z
-x,-y,-z
loop_
_atom_site_type_symbol
_atom_site_label
_atom_site_fract_x
_atom_site_fract_y
_atom_site_fract_z
Si Si1 0.623214 0.225839 0.779083
Si Si2 0.462117 0.175464 0.546060
Si Si3 0.623983 0.889507 0.726597
Si Si4 0.133408 0.863748 0.835096
Si Si5 0.928219 0.259913 0.731286
Si Si6 0.500000 0.500000 0.000000
Si Si7 0.030824 0.892682 0.437273
Si Si8 0.225034 0.528456 0.118725
O O1 0.560114 0.312127 0.571333
O O2 0.756001 0.186400 0.752661
O O3 0.689948 0.364405 0.812156
O O4 0.500000 0.000000 0.000000
O O5 0.451257 0.253592 0.313580
O O6 0.532036 0.015462 0.650196
O O7 0.295066 0.056101 0.692392
O O8 0.583603 0.688255 0.984709
O O9 0.794743 0.024836 0.592901
O O10 0.030254 0.939804 0.680203
O O11 0.063383 0.782251 0.060203
O O12 0.169406 0.686612 0.915839
O O13 0.000000 0.500000 0.500000
O O14 0.983850 0.145765 0.712114
O O15 0.666787 0.510964 0.951178
O O16 0.916711 0.673142 0.673249
#
# Coordination Sequence:
#
# PCOD9053506 Si02
#       8
#     2   2   2   2   2   1   2   2
#     4  11  19  41  79 101 139 190 234 298 361 421
#     4  11  22  45  73 103 140 192 245 292 360 427
#     4  11  26  45  73 102 144 194 240 300 352 433
#     4  11  23  43  71 105 144 191 237 293 362 430
#     4  11  21  41  73 108 148 182 237 299 364 429
#     4  12  24  50  68 104 146 184 244 294 358 432
#     4  12  25  47  72 109 149 188 240 295 363 439
#     4  11  25  45  76 107 145 190 240 303 362 425
#
# _framework density 25.293054000000001
#
# number of rings (size 3 to 8) (size 9 to 14) (size 15 to 20)
#    0.000    0.800    8.000    1.200    0.000    2.133 
#    7.200    4.000    0.000    0.000    0.000    0.000 
#    0.000    0.133    0.000    0.000    0.000    0.000 
#
# Total GULP energy -83754.936656 kJ/mol
# GULP energy per Si atom -5583.662444 kJ/mol
# Density = 2.523549 g / cm^3
# Si number density = 25.293054 Si / 1000 Ang^3
#
#
#
# Elastic Constant Matrix: (Units=GPa)
#
#
# Indices 1 2 3 4 5 6 
#
# 1 152.5997 47.6187 73.9145 -11.3661 -2.7350 -5.7575
# 2 47.6187 90.2846 20.0773 -14.9232 3.8572 3.1714
# 3 73.9145 20.0773 132.5361 -4.8601 -13.7388 9.7944
# 4 -11.3661 -14.9232 -4.8601 32.7333 4.2191 3.1092
# 5 -2.7350 3.8572 -13.7388 4.2191 62.6014 3.5217
# 6 -5.7575 3.1714 9.7944 3.1092 3.5217 48.6523
#
#
#
# Elastic Compliance Matrix: (Units=1/GPa)
#
#
# Indices 1 2 3 4 5 6 
#
# 1 0.010770 -0.004380 -0.005585 0.000747 -0.000687 0.002686
# 2 -0.004380 0.014286 0.000482 0.005393 -0.001228 -0.001802
# 3 -0.005585 0.000482 0.011053 -0.000086 0.002331 -0.003081
# 4 0.000747 0.005393 -0.000086 0.033785 -0.002470 -0.002226
# 5 -0.000687 -0.001228 0.002331 -0.002470 0.016784 -0.001528
# 6 0.002686 -0.001802 -0.003081 -0.002226 -0.001528 0.021862
#
#
# Mechanical properties :
#
#
# Convention : Reuss Voigt Hill
#
# Bulk Modulus (GPa) = 58.33153 73.18239 65.75696
# Shear Modulus (GPa) = 37.53186 44.38472 40.95829
#
# Velocity S-wave (km/s) = 3.85630 4.19360 4.02848
# Velocity P-wave (km/s) = 6.55289 7.24189 6.90599
#
# Compressibility (1/GPa) = 0.01714339
#
# Stress axis : x y z
#
# Youngs Moduli (GPa) = 92.85299 69.99781 90.47348
#
# Poissons Ratio (x) = 0.30658 0.50530
# Poissons Ratio (y) = 0.40668 -0.04362
# Poissons Ratio (z) = 0.51859 -0.03375
#
# Static dielectric constant tensor:
#      x y z
#    x 1.971830 0.030060 0.077140 
#    y 0.030060 2.161050 0.029190 
#    z 0.077140 0.029190 2.100850 
# 
# From -- ./inp_files/319595.got.cif
#   From: 2010.05.17/outbox.cif.g08.bks.cpg/sg2_160_cif.got.tgz:319595.got - 2010.06.03 11:33:40.
