data_PCOD9053798
_publ_section_title
;
Structure prediction by ZEFSAII (Michael W. Deem and Ramdas Pophale) SiO2 
 PCOD9053798
Probable space group: P -1
;
_chemical_formula_sum "Si O2"
_cell_formula_units_Z 14
_cell_length_a 9.014666
_cell_length_b 11.827987
_cell_length_c 12.158270
_cell_angle_alpha 137.581153
_cell_angle_beta 132.257599
_cell_angle_gamma 56.185382
_cell_volume 642.516047
_symmetry_space_group_name_H-M "P -1"
_symmetry_group_IT_number 2
_symmetry_cell_setting 'triclinic'
loop_
_space_group_symop_operation_xyz
x,y,z
-x,-y,-z
loop_
_atom_site_type_symbol
_atom_site_label
_atom_site_fract_x
_atom_site_fract_y
_atom_site_fract_z
Si Si1 0.057947 0.124728 0.023187
Si Si2 0.608214 0.752252 0.574788
Si Si3 0.188877 0.325863 0.610008
Si Si4 0.668221 0.910611 0.304744
Si Si5 0.737884 0.385637 0.385915
Si Si6 0.681692 0.333447 0.063957
Si Si7 0.716852 0.027598 0.178478
O O1 0.256086 0.196585 0.220078
O O2 0.864581 0.263595 0.025019
O O3 0.114813 0.034356 0.872198
O O4 0.000000 0.000000 0.000000
O O5 0.736571 0.750990 0.524860
O O6 0.583344 0.555446 0.438147
O O7 0.424198 0.898678 0.574897
O O8 0.189158 0.181703 0.597895
O O9 0.339284 0.463675 0.815248
O O10 0.965012 0.422323 0.551887
O O11 0.755379 0.926558 0.238041
O O12 0.488582 0.790691 0.122605
O O13 0.737263 0.321413 0.213359
O O14 0.701368 0.228933 0.330494
O O15 0.500000 0.000000 0.000000
#
# Coordination Sequence:
#
# PCOD9053798 Si02
#       7
#     2   2   2   2   2   2   2
#     4  12  18  37  68  91 111 161 224 244 284 364
#     4  11  20  37  64  92 116 162 208 253 294 363
#     4  11  23  39  63  98 126 157 203 263 310 354
#     4  12  25  40  61  95 134 160 196 257 319 359
#     4  11  21  38  67  91 120 159 214 253 300 360
#     4  11  20  40  68  91 116 169 214 248 289 376
#     4  12  23  40  63  90 126 164 208 251 304 373
#
# _framework density 21.789338999999998
#
# number of rings (size 3 to 8) (size 9 to 14) (size 15 to 20)
#    0.000    0.571    8.571    1.714    0.000    1.143 
#    0.000    0.714    0.000    0.000    0.000    0.000 
#    0.000    0.000    0.000    0.000    0.000    0.000 
#
# Total GULP energy -78215.897963 kJ/mol
# GULP energy per Si atom -5586.849855 kJ/mol
# Density = 2.173975 g / cm^3
# Si number density = 21.789339 Si / 1000 Ang^3
#
#
#
# Elastic Constant Matrix: (Units=GPa)
#
#
# Indices 1 2 3 4 5 6 
#
# 1 78.7383 39.6253 11.7736 12.7440 -20.0953 8.6740
# 2 39.6253 126.9763 25.8291 16.0684 -22.3789 20.3618
# 3 11.7736 25.8291 59.6224 14.4959 -4.3545 -5.9364
# 4 12.7440 16.0684 14.4959 27.8367 -2.4546 -2.4178
# 5 -20.0953 -22.3789 -4.3545 -2.4546 30.5119 2.7287
# 6 8.6740 20.3618 -5.9364 -2.4178 2.7287 31.0258
#
#
#
# Elastic Compliance Matrix: (Units=1/GPa)
#
#
# Indices 1 2 3 4 5 6 
#
# 1 0.018052 -0.001994 -0.000983 -0.006158 0.010266 -0.005309
# 2 -0.001994 0.012992 -0.004570 -0.004352 0.008099 -0.009895
# 3 -0.000983 -0.004570 0.021328 -0.007608 -0.002189 0.006955
# 4 -0.006158 -0.004352 -0.007608 0.045367 -0.005321 0.007126
# 5 0.010266 0.008099 -0.002189 -0.005321 0.045903 -0.013056
# 6 -0.005309 -0.009895 0.006955 0.007126 -0.013056 0.043244
#
#
# Mechanical properties :
#
#
# Convention : Reuss Voigt Hill
#
# Bulk Modulus (GPa) = 26.82442 46.64364 36.73403
# Shear Modulus (GPa) = 23.32031 30.41550 26.86790
#
# Velocity S-wave (km/s) = 3.27504 3.74021 3.51533
# Velocity P-wave (km/s) = 5.16127 6.33288 5.77685
#
# Compressibility (1/GPa) = 0.03727947
#
# Stress axis : x y z
#
# Youngs Moduli (GPa) = 55.39491 76.96949 46.88588
#
# Poissons Ratio (x) = 0.15344 0.04608
# Poissons Ratio (y) = 0.11043 0.21428
# Poissons Ratio (z) = 0.05444 0.35177
#
# Static dielectric constant tensor:
#      x y z
#    x 1.806970 -0.007960 0.023260 
#    y -0.007960 1.839430 0.016560 
#    z 0.023260 0.016560 1.816700 
# 
# From -- ./inp_files/160187.got.cif
#   From: 2010.05.17/outbox.cif.g08.bks.cpg/sg2_81_cif.got.tgz:160187.got - 2010.06.03 11:33:40.
