data_PCOD9053644
_publ_section_title
;
Structure prediction by ZEFSAII (Michael W. Deem and Ramdas Pophale) SiO2 
 PCOD9053644
Probable space group: P -1
;
_chemical_formula_sum "Si O2"
_cell_formula_units_Z 16
_cell_length_a 15.798077
_cell_length_b 15.826437
_cell_length_c 11.893042
_cell_angle_alpha 155.755285
_cell_angle_beta 41.100230
_cell_angle_gamma 142.688015
_cell_volume 735.328519
_symmetry_space_group_name_H-M "P -1"
_symmetry_group_IT_number 2
_symmetry_cell_setting 'triclinic'
loop_
_space_group_symop_operation_xyz
x,y,z
-x,-y,-z
loop_
_atom_site_type_symbol
_atom_site_label
_atom_site_fract_x
_atom_site_fract_y
_atom_site_fract_z
Si Si1 0.409058 0.690009 0.722287
Si Si2 0.309151 0.543304 0.283172
Si Si3 0.871444 0.198296 0.160085
Si Si4 0.672972 0.992014 0.691683
Si Si5 0.769371 0.942880 0.178170
Si Si6 0.382676 0.217104 0.159001
Si Si7 0.446424 0.968382 0.369608
Si Si8 0.834155 0.783068 0.146730
O O1 0.518655 0.809795 0.659302
O O2 0.340706 0.427305 0.450748
O O3 0.513590 0.738881 0.785058
O O4 0.304945 0.810733 0.001670
O O5 0.446810 0.769557 0.429511
O O6 0.178572 0.601283 0.523990
O O7 0.303508 0.326441 0.094036
O O8 0.283606 0.447207 0.064532
O O9 0.858917 0.076678 0.146438
O O10 0.752983 0.013732 0.978606
O O11 0.024157 0.253932 0.025865
O O12 0.656312 0.082545 0.696418
O O13 0.780330 0.875266 0.420018
O O14 0.651735 0.042500 0.440398
O O15 0.850103 0.945921 0.218865
O O16 0.467596 0.182587 0.924929
#
# Coordination Sequence:
#
# PCOD9053644 Si02
#       8
#     2   2   2   2   2   2   2   2
#     4   9  18  35  52  77  93 123 170 215 269 282
#     4   9  20  31  51  75 108 133 165 202 237 304
#     4  11  20  35  50  73 107 141 164 199 244 297
#     4   9  18  32  57  71  99 131 160 215 254 295
#     4   9  20  31  52  74 107 137 160 205 241 295
#     4   9  20  32  52  73 103 124 166 216 248 305
#     4   9  17  33  48  81 103 124 166 206 248 301
#     4   9  20  34  49  74 105 136 170 197 238 305
#
# _framework density 21.758980999999999
#
# number of rings (size 3 to 8) (size 9 to 14) (size 15 to 20)
#    0.750    2.000    0.000    1.125    1.750    3.000 
#    0.000    1.250    0.000    0.000    0.000    0.000 
#    0.000    0.000    0.000    0.000    0.000    0.000 
#
# Total GULP energy -89170.636157 kJ/mol
# GULP energy per Si atom -5573.164760 kJ/mol
# Density = 2.170946 g / cm^3
# Si number density = 21.758981 Si / 1000 Ang^3
#
#
#
# Elastic Constant Matrix: (Units=GPa)
#
#
# Indices 1 2 3 4 5 6 
#
# 1 37.9832 1.6866 22.2563 -6.8272 3.3514 -3.7373
# 2 1.6866 30.1574 40.4775 -14.4070 -1.0520 -1.2132
# 3 22.2563 40.4775 166.5256 -13.6477 -8.3263 1.4572
# 4 -6.8272 -14.4070 -13.6477 36.2788 -1.7822 -6.8970
# 5 3.3514 -1.0520 -8.3263 -1.7822 28.3312 -3.9297
# 6 -3.7373 -1.2132 1.4572 -6.8970 -3.9297 22.6854
#
#
#
# Elastic Compliance Matrix: (Units=1/GPa)
#
#
# Indices 1 2 3 4 5 6 
#
# 1 0.032764 0.012334 -0.006811 0.010024 -0.003551 0.008927
# 2 0.012334 0.066498 -0.015851 0.025490 -0.000055 0.014347
# 3 -0.006811 -0.015851 0.010590 -0.004122 0.002591 -0.003454
# 4 0.010024 0.025490 -0.004122 0.041316 0.003428 0.016434
# 5 -0.003551 -0.000055 0.002591 0.003428 0.037636 0.006807
# 6 0.008927 0.014347 -0.003454 0.016434 0.006807 0.052717
#
#
# Mechanical properties :
#
#
# Convention : Reuss Voigt Hill
#
# Bulk Modulus (GPa) = 11.21136 40.38967 25.80052
# Shear Modulus (GPa) = 17.12851 28.80877 22.96864
#
# Velocity S-wave (km/s) = 2.80874 3.64262 3.25251
# Velocity P-wave (km/s) = 3.96010 6.02447 5.09787
#
# Compressibility (1/GPa) = 0.08919524
#
# Stress axis : x y z
#
# Youngs Moduli (GPa) = 30.52110 15.03799 94.42555
#
# Poissons Ratio (x) = -0.18547 0.64314
# Poissons Ratio (y) = -0.37644 1.49678
# Poissons Ratio (z) = 0.20788 0.23837
#
# Static dielectric constant tensor:
#      x y z
#    x 1.865220 -0.011770 -0.012530 
#    y -0.011770 1.777400 -0.005540 
#    z -0.012530 -0.005540 1.828860 
# 
# From -- ./inp_files/253998.got.cif
#   From: 2010.05.17/outbox.cif.g08.bks.cpg/sg2_127_cif.got.tgz:253998.got - 2010.06.03 11:33:40.
