data_PCOD9053101
_publ_section_title
;
Structure prediction by ZEFSAII (Michael W. Deem and Ramdas Pophale) SiO2 
 PCOD9053101
Probable space group: P -1
;
_chemical_formula_sum "Si O2"
_cell_formula_units_Z 16
_cell_length_a 11.779213
_cell_length_b 9.107494
_cell_length_c 9.403418
_cell_angle_alpha 69.503198
_cell_angle_beta 94.920509
_cell_angle_gamma 130.412450
_cell_volume 705.217073
_symmetry_space_group_name_H-M "P -1"
_symmetry_group_IT_number 2
_symmetry_cell_setting 'triclinic'
loop_
_space_group_symop_operation_xyz
x,y,z
-x,-y,-z
loop_
_atom_site_type_symbol
_atom_site_label
_atom_site_fract_x
_atom_site_fract_y
_atom_site_fract_z
Si Si1 0.940405 0.956123 0.346451
Si Si2 0.124293 0.754723 0.763999
Si Si3 0.710570 0.397927 0.108352
Si Si4 0.405743 0.078907 0.480493
Si Si5 0.357913 0.075736 0.154001
Si Si6 0.147017 0.141695 0.069117
Si Si7 0.876103 0.408219 0.646066
Si Si8 0.693116 0.481154 0.415531
O O1 0.912890 0.106142 0.232723
O O2 0.076575 0.008543 0.251148
O O3 0.787888 0.722240 0.375050
O O4 0.000000 0.000000 0.500000
O O5 0.189982 0.666942 0.887449
O O6 0.974857 0.564863 0.730687
O O7 0.258341 0.908144 0.612296
O O8 0.537794 0.212679 0.096975
O O9 0.713208 0.439554 0.266990
O O10 0.785817 0.624154 0.980179
O O11 0.365711 0.108522 0.313060
O O12 0.514261 0.308048 0.482604
O O13 0.500000 0.000000 0.500000
O O14 0.287470 0.158813 0.035602
O O15 0.231177 0.824254 0.220764
O O16 0.000000 0.000000 0.000000
O O17 0.761852 0.421595 0.553845
O O18 0.000000 0.500000 0.500000
#
# Coordination Sequence:
#
# PCOD9053101 Si02
#       8
#     2   2   2   2   2   2   2   2
#     4  12  26  42  64 102 138 167 215 282 343 376
#     4  12  22  36  63  96 134 169 216 277 329 388
#     4  11  22  41  66  94 125 178 228 266 322 396
#     4  11  18  36  64  99 130 168 220 268 323 389
#     4  11  21  37  66  99 126 168 231 277 311 384
#     4  12  25  44  68  94 132 178 227 266 323 403
#     4  12  17  31  62  96 125 168 217 266 320 382
#     4  11  20  37  62  95 131 172 218 263 324 394
#
# _framework density 22.68805
#
# number of rings (size 3 to 8) (size 9 to 14) (size 15 to 20)
#    0.000    0.500    8.750    2.625    0.000    1.000 
#    0.000    0.000    0.000    1.500    0.000    0.000 
#    0.000    0.000    0.000    0.000    0.000    0.000 
#
# Total GULP energy -89301.443550 kJ/mol
# GULP energy per Si atom -5581.340222 kJ/mol
# Density = 2.263641 g / cm^3
# Si number density = 22.688050 Si / 1000 Ang^3
#
#
#
# Elastic Constant Matrix: (Units=GPa)
#
#
# Indices 1 2 3 4 5 6 
#
# 1 59.9689 21.8715 -0.8748 4.2335 16.6683 3.0422
# 2 21.8715 141.6621 20.4357 -38.1815 -4.5589 13.4380
# 3 -0.8748 20.4357 46.7724 -10.3288 0.6392 6.1320
# 4 4.2335 -38.1815 -10.3288 42.6532 0.2050 3.8928
# 5 16.6683 -4.5589 0.6392 0.2050 32.8931 -11.2556
# 6 3.0422 13.4380 6.1320 3.8928 -11.2556 26.6182
#
#
#
# Elastic Compliance Matrix: (Units=1/GPa)
#
#
# Indices 1 2 3 4 5 6 
#
# 1 0.023551 -0.005571 0.002478 -0.006128 -0.014689 -0.005765
# 2 -0.005571 0.011806 -0.002151 0.011075 0.002602 -0.005347
# 3 0.002478 -0.002151 0.024377 0.004429 -0.004588 -0.007401
# 4 -0.006128 0.011075 0.004429 0.036035 0.000589 -0.010932
# 5 -0.014689 0.002602 -0.004588 0.000589 0.045304 0.020493
# 6 -0.005765 -0.005347 -0.007401 -0.010932 0.020493 0.052896
#
#
# Mechanical properties :
#
#
# Convention : Reuss Voigt Hill
#
# Bulk Modulus (GPa) = 20.30619 36.80758 28.55688
# Shear Modulus (GPa) = 22.63760 34.23096 28.43428
#
# Velocity S-wave (km/s) = 3.16219 3.88850 3.54400
# Velocity P-wave (km/s) = 4.72252 6.03482 5.41855
#
# Compressibility (1/GPa) = 0.04924608
#
# Stress axis : x y z
#
# Youngs Moduli (GPa) = 42.46072 84.70610 41.02169
#
# Poissons Ratio (x) = 0.47189 -0.10165
# Poissons Ratio (y) = 0.23655 0.08824
# Poissons Ratio (z) = -0.10522 0.18220
#
# Static dielectric constant tensor:
#      x y z
#    x 1.890090 -0.082150 0.010850 
#    y -0.082150 1.745310 0.000330 
#    z 0.010850 0.000330 1.852840 
# 
# From -- ./inp_files/419184.got.cif
#   From: 2010.05.17/outbox.cif.g08.bks.cpg/sg2_210_cif.got.tgz:419184.got - 2010.06.03 11:33:40.
