data_PCOD9053174
_publ_section_title
;
Structure prediction by ZEFSAII (Michael W. Deem and Ramdas Pophale) SiO2 
 PCOD9053174
Probable space group: P -1
;
_chemical_formula_sum "Si O2"
_cell_formula_units_Z 16
_cell_length_a 14.225013
_cell_length_b 10.134389
_cell_length_c 14.936400
_cell_angle_alpha 152.678362
_cell_angle_beta 131.874466
_cell_angle_gamma 45.858899
_cell_volume 701.424831
_symmetry_space_group_name_H-M "P -1"
_symmetry_group_IT_number 2
_symmetry_cell_setting 'triclinic'
loop_
_space_group_symop_operation_xyz
x,y,z
-x,-y,-z
loop_
_atom_site_type_symbol
_atom_site_label
_atom_site_fract_x
_atom_site_fract_y
_atom_site_fract_z
Si Si1 0.717009 0.406980 0.110840
Si Si2 0.153569 0.280924 0.197668
Si Si3 0.543570 0.787604 0.680700
Si Si4 0.985112 0.787723 0.102705
Si Si5 0.865466 0.748416 0.527580
Si Si6 0.208979 0.590145 0.580461
Si Si7 0.507007 0.763969 0.444237
Si Si8 0.543838 0.597081 0.942438
O O1 0.800937 0.623086 0.328254
O O2 0.649860 0.474340 0.013019
O O3 0.598755 0.418988 0.115649
O O4 0.814266 0.066219 0.961304
O O5 0.297873 0.286024 0.257508
O O6 0.125114 0.530079 0.407454
O O7 0.041129 0.321898 0.077905
O O8 0.500000 0.500000 0.500000
O O9 0.490452 0.913873 0.622377
O O10 0.478635 0.050679 0.867265
O O11 0.858736 0.082499 0.223963
O O12 0.102264 0.941795 0.276255
O O13 0.000000 0.500000 0.000000
O O14 0.775650 0.707705 0.527867
O O15 0.000000 0.500000 0.500000
O O16 0.363350 0.519878 0.619798
O O17 0.500000 0.000000 0.500000
O O18 0.416156 0.584804 0.233201
#
# Coordination Sequence:
#
# PCOD9053174 Si02
#       8
#     2   2   2   2   2   2   2   2
#     4  10  17  35  59  91 116 152 203 260 308 342
#     4  10  20  38  63  82 117 159 201 250 310 357
#     4  10  23  37  57  88 126 167 196 241 314 384
#     4  11  24  41  59  87 122 165 202 251 315 360
#     4  10  19  37  62  86 115 156 208 257 294 354
#     4  10  20  38  66  88 118 158 206 259 297 360
#     4  11  20  37  65  94 120 157 207 253 307 364
#     4  10  19  33  59  85 123 155 196 257 302 358
#
# _framework density 22.810711999999999
#
# number of rings (size 3 to 8) (size 9 to 14) (size 15 to 20)
#    0.000    1.750    3.750    3.750    0.000    2.500 
#    0.000    0.000    5.500    0.000    0.000    0.000 
#    0.000    0.000    0.000    0.000    0.000    0.000 
#
# Total GULP energy -89160.299183 kJ/mol
# GULP energy per Si atom -5572.518699 kJ/mol
# Density = 2.275879 g / cm^3
# Si number density = 22.810712 Si / 1000 Ang^3
#
#
#
# Elastic Constant Matrix: (Units=GPa)
#
#
# Indices 1 2 3 4 5 6 
#
# 1 13.7892 12.6005 15.0486 1.6303 10.0467 -0.1258
# 2 12.6005 69.7501 38.2519 -13.7996 15.7001 -4.6289
# 3 15.0486 38.2519 147.7243 -20.1168 22.8258 15.1011
# 4 1.6303 -13.7996 -20.1168 50.5177 8.3986 3.5508
# 5 10.0467 15.7001 22.8258 8.3986 39.6392 2.5770
# 6 -0.1258 -4.6289 15.1011 3.5508 2.5770 21.0847
#
#
#
# Elastic Compliance Matrix: (Units=1/GPa)
#
#
# Indices 1 2 3 4 5 6 
#
# 1 0.103824 -0.012582 -0.006255 -0.006903 -0.016626 0.005532
# 2 -0.012582 0.020988 -0.003426 0.005079 -0.004663 0.006701
# 3 -0.006255 -0.003426 0.010307 0.004535 -0.003400 -0.008520
# 4 -0.006903 0.005079 0.004535 0.024887 -0.007795 -0.005412
# 5 -0.016626 -0.004663 -0.003400 -0.007795 0.035005 -0.001653
# 6 0.005532 0.006701 -0.008520 -0.005412 -0.001653 0.056147
#
#
# Mechanical properties :
#
#
# Convention : Reuss Voigt Hill
#
# Bulk Modulus (GPa) = 11.03822 40.34063 25.68942
# Shear Modulus (GPa) = 15.34293 33.27248 24.30770
#
# Velocity S-wave (km/s) = 2.59630 3.82335 3.26794
# Velocity P-wave (km/s) = 3.71985 6.10033 5.05229
#
# Compressibility (1/GPa) = 0.09059431
#
# Stress axis : x y z
#
# Youngs Moduli (GPa) = 9.63165 47.64704 97.01708
#
# Poissons Ratio (x) = 0.59949 0.60684
# Poissons Ratio (y) = 0.12119 0.33235
# Poissons Ratio (z) = 0.06025 0.16322
#
# Static dielectric constant tensor:
#      x y z
#    x 2.138360 -0.066830 -0.000440 
#    y -0.066830 1.929560 -0.017520 
#    z -0.000440 -0.017520 1.896090 
# 
# From -- ./inp_files/465032.got.cif
#   From: 2010.05.17/outbox.cif.g08.bks.cpg/sg2_233_cif.got.tgz:465032.got - 2010.06.03 11:33:40.
