data_PCOD9053908
_publ_section_title
;
Structure prediction by ZEFSAII (Michael W. Deem and Ramdas Pophale) SiO2 
 PCOD9053908
Probable space group: P -1
;
_chemical_formula_sum "Si O2"
_cell_formula_units_Z 14
_cell_length_a 11.315375
_cell_length_b 11.312509
_cell_length_c 7.992535
_cell_angle_alpha 98.815976
_cell_angle_beta 130.726193
_cell_angle_gamma 55.061681
_cell_volume 594.254462
_symmetry_space_group_name_H-M "P -1"
_symmetry_group_IT_number 2
_symmetry_cell_setting 'triclinic'
loop_
_space_group_symop_operation_xyz
x,y,z
-x,-y,-z
loop_
_atom_site_type_symbol
_atom_site_label
_atom_site_fract_x
_atom_site_fract_y
_atom_site_fract_z
Si Si1 0.196983 0.430218 0.272377
Si Si2 0.976927 0.409317 0.327295
Si Si3 0.068409 0.106214 0.454611
Si Si4 0.140865 0.741859 0.374016
Si Si5 0.445844 0.480943 0.131061
Si Si6 0.432138 0.906235 0.502526
Si Si7 0.209701 0.814287 0.099907
O O1 0.167077 0.583387 0.338275
O O2 0.394287 0.276677 0.339450
O O3 0.161917 0.350023 0.367705
O O4 0.000000 0.500000 0.000000
O O5 0.000000 0.500000 0.500000
O O6 0.012709 0.271415 0.425403
O O7 0.757063 0.500340 0.059788
O O8 0.011267 0.121132 0.602112
O O9 0.291683 0.986165 0.556505
O O10 0.919849 0.127743 0.176251
O O11 0.359347 0.669309 0.636468
O O12 0.106969 0.811689 0.173153
O O13 0.387356 0.631547 0.203164
O O14 0.500000 0.500000 0.000000
O O15 0.297028 0.900826 0.240926
O O16 0.500000 0.000000 0.500000
#
# Coordination Sequence:
#
# PCOD9053908 Si02
#       7
#     2   2   2   2   2   2   2
#     4  12  25  44  73 106 142 186 243 304 354 423
#     4  11  21  38  67 104 140 182 238 295 350 423
#     4  11  24  47  70 104 143 191 238 290 369 431
#     4  12  24  45  76 104 143 186 247 302 349 432
#     4  11  20  38  69 107 137 184 242 295 353 417
#     4  12  27  45  73 104 147 193 233 297 374 431
#     4  11  25  44  74 104 140 191 245 294 357 433
#
# _framework density 23.558931999999999
#
# number of rings (size 3 to 8) (size 9 to 14) (size 15 to 20)
#    0.000    0.571    7.143    2.571    2.000    0.571 
#    0.000    0.714    3.143    0.000    0.000    0.000 
#    0.000    0.000    0.000    0.000    0.000    0.000 
#
# Total GULP energy -78039.206406 kJ/mol
# GULP energy per Si atom -5574.229029 kJ/mol
# Density = 2.350531 g / cm^3
# Si number density = 23.558932 Si / 1000 Ang^3
#
#
#
# Elastic Constant Matrix: (Units=GPa)
#
#
# Indices 1 2 3 4 5 6 
#
# 1 141.6087 60.5532 47.6712 11.3466 -6.1189 -16.5360
# 2 60.5532 151.4594 75.2666 17.4194 12.0493 -21.4319
# 3 47.6712 75.2666 80.1737 2.6527 5.5061 -1.3219
# 4 11.3466 17.4194 2.6527 39.7652 0.3652 9.4521
# 5 -6.1189 12.0493 5.5061 0.3652 41.1293 2.3428
# 6 -16.5360 -21.4319 -1.3219 9.4521 2.3428 55.4403
#
#
#
# Elastic Compliance Matrix: (Units=1/GPa)
#
#
# Indices 1 2 3 4 5 6 
#
# 1 0.009770 -0.000885 -0.004995 -0.002760 0.002245 0.002829
# 2 -0.000885 0.015946 -0.013858 -0.007437 -0.003279 0.006976
# 3 -0.004995 -0.013858 0.028091 0.007389 -0.000086 -0.007433
# 4 -0.002760 -0.007437 0.007389 0.030785 0.001007 -0.008813
# 5 0.002245 -0.003279 -0.000086 0.001007 0.025717 -0.001859
# 6 0.002829 0.006976 -0.007433 -0.008813 -0.001859 0.022982
#
#
# Mechanical properties :
#
#
# Convention : Reuss Voigt Hill
#
# Bulk Modulus (GPa) = 69.77047 82.24707 76.00877
# Shear Modulus (GPa) = 28.16223 39.91701 34.03962
#
# Velocity S-wave (km/s) = 3.46120 4.12071 3.80527
# Velocity P-wave (km/s) = 6.75668 7.59127 7.18610
#
# Compressibility (1/GPa) = 0.01433271
#
# Stress axis : x y z
#
# Youngs Moduli (GPa) = 102.35476 62.71194 35.59851
#
# Poissons Ratio (x) = 0.05549 0.17781
# Poissons Ratio (y) = 0.09056 0.49331
# Poissons Ratio (z) = 0.51124 0.86903
#
# Static dielectric constant tensor:
#      x y z
#    x 1.938590 -0.005520 -0.004180 
#    y -0.005520 1.915920 -0.035670 
#    z -0.004180 -0.035670 1.885660 
# 
# From -- ./inp_files/259172.got.cif
#   From: 2010.05.17/outbox.cif.g08.bks.cpg/sg2_130_cif.got.tgz:259172.got - 2010.06.03 11:33:40.
