data_PCOD9053747
_publ_section_title
;
Structure prediction by ZEFSAII (Michael W. Deem and Ramdas Pophale) SiO2 
 PCOD9053747
Probable space group: P -1
;
_chemical_formula_sum "Si O2"
_cell_formula_units_Z 16
_cell_length_a 5.306842
_cell_length_b 11.371645
_cell_length_c 17.294248
_cell_angle_alpha 40.137578
_cell_angle_beta 96.010535
_cell_angle_gamma 90.749261
_cell_volume 665.413010
_symmetry_space_group_name_H-M "P -1"
_symmetry_group_IT_number 2
_symmetry_cell_setting 'triclinic'
loop_
_space_group_symop_operation_xyz
x,y,z
-x,-y,-z
loop_
_atom_site_type_symbol
_atom_site_label
_atom_site_fract_x
_atom_site_fract_y
_atom_site_fract_z
Si Si1 0.157463 0.535191 0.311937
Si Si2 0.015652 0.755391 0.468659
Si Si3 0.058934 0.583881 0.792263
Si Si4 0.997440 0.732561 0.932927
Si Si5 0.676281 0.959507 0.598541
Si Si6 0.074228 0.123309 0.763250
Si Si7 0.402898 0.414447 0.620622
Si Si8 0.542352 0.254810 0.180785
O O1 0.449221 0.575859 0.298500
O O2 0.217149 0.329498 0.456353
O O3 0.988970 0.503446 0.248630
O O4 0.058184 0.720459 0.263555
O O5 0.155567 0.554936 0.555027
O O6 0.020993 0.861243 0.335835
O O7 0.156651 0.873316 0.472513
O O8 0.345603 0.621141 0.809404
O O9 0.874028 0.774808 0.693781
O O10 0.966330 0.441024 0.922934
O O11 0.724738 0.716041 0.889902
O O12 0.228292 0.740611 0.875250
O O13 0.020512 0.920663 0.886691
O O14 0.496198 0.931114 0.681007
O O15 0.500000 0.000000 0.500000
O O16 0.347280 0.202940 0.717973
O O17 0.500000 0.500000 0.500000
#
# Coordination Sequence:
#
# PCOD9053747 Si02
#       8
#     2   2   2   2   2   2   2   2
#     4  11  24  43  69 103 153 189 245 305 384 437
#     4  11  21  40  64 106 143 187 242 307 373 448
#     4  12  28  49  73 110 151 204 250 314 373 446
#     4  12  29  49  83 107 149 199 264 306 366 446
#     4  12  27  45  75 115 155 191 247 311 389 446
#     4  11  23  42  67 109 137 195 248 306 365 448
#     4  11  20  36  69  98 145 188 239 301 371 445
#     4  12  26  52  80 109 146 200 251 313 370 446
#
# _framework density 24.045214999999999
#
# number of rings (size 3 to 8) (size 9 to 14) (size 15 to 20)
#    0.000    0.500    5.000    3.000    5.250    5.500 
#    0.000    0.625    0.000    0.000    0.000    0.000 
#    0.000    0.000    0.000    0.000    0.000    0.000 
#
# Total GULP energy -89133.288413 kJ/mol
# GULP energy per Si atom -5570.830526 kJ/mol
# Density = 2.399049 g / cm^3
# Si number density = 24.045215 Si / 1000 Ang^3
#
#
#
# Elastic Constant Matrix: (Units=GPa)
#
#
# Indices 1 2 3 4 5 6 
#
# 1 91.9687 45.4707 37.2058 -4.7344 -6.0311 31.8155
# 2 45.4707 136.2800 46.1462 -10.6387 5.8475 41.5366
# 3 37.2058 46.1462 115.7745 -18.1566 1.7542 11.2053
# 4 -4.7344 -10.6387 -18.1566 44.2459 7.6925 -2.7463
# 5 -6.0311 5.8475 1.7542 7.6925 18.2525 1.6956
# 6 31.8155 41.5366 11.2053 -2.7463 1.6956 39.1563
#
#
#
# Elastic Compliance Matrix: (Units=1/GPa)
#
#
# Indices 1 2 3 4 5 6 
#
# 1 0.018267 -0.001198 -0.004709 -0.002657 0.009182 -0.012808
# 2 -0.001198 0.012483 -0.003226 0.001503 -0.003689 -0.011080
# 3 -0.004709 -0.003226 0.011782 0.004515 -0.003963 0.004365
# 4 -0.002657 0.001503 0.004515 0.026954 -0.013315 0.001740
# 5 0.009182 -0.003689 -0.003963 -0.013315 0.065569 -0.006186
# 6 -0.012808 -0.011080 0.004365 0.001740 -0.006186 0.046839
#
#
# Mechanical properties :
#
#
# Convention : Reuss Voigt Hill
#
# Bulk Modulus (GPa) = 41.21212 66.85206 54.03209
# Shear Modulus (GPa) = 24.00975 34.67767 29.34371
#
# Velocity S-wave (km/s) = 3.16337 3.80173 3.49715
# Velocity P-wave (km/s) = 5.52442 6.86541 6.23110
#
# Compressibility (1/GPa) = 0.02426471
#
# Stress axis : x y z
#
# Youngs Moduli (GPa) = 54.74499 80.11145 84.87174
#
# Poissons Ratio (x) = 0.09598 0.39966
# Poissons Ratio (y) = 0.06559 0.27384
# Poissons Ratio (z) = 0.25779 0.25848
#
# Static dielectric constant tensor:
#      x y z
#    x 1.891300 0.063020 0.290100 
#    y 0.063020 1.974770 -0.075490 
#    z 0.290100 -0.075490 1.505420 
# 
# From -- ./inp_files/549063.got.cif
#   From: 2010.05.17/outbox.cif.g08.bks.cpg/sg2_275_cif.got.tgz:549063.got - 2010.06.03 11:33:40.
