data_PCOD9053215
_publ_section_title
;
Structure prediction by ZEFSAII (Michael W. Deem and Ramdas Pophale) SiO2 
 PCOD9053215
Probable space group: P -1
;
_chemical_formula_sum "Si O2"
_cell_formula_units_Z 12
_cell_length_a 6.775412
_cell_length_b 9.377233
_cell_length_c 12.438915
_cell_angle_alpha 113.420520
_cell_angle_beta 50.315853
_cell_angle_gamma 105.310113
_cell_volume 558.030868
_symmetry_space_group_name_H-M "P -1"
_symmetry_group_IT_number 2
_symmetry_cell_setting 'triclinic'
loop_
_space_group_symop_operation_xyz
x,y,z
-x,-y,-z
loop_
_atom_site_type_symbol
_atom_site_label
_atom_site_fract_x
_atom_site_fract_y
_atom_site_fract_z
Si Si1 0.223355 0.182753 0.455531
Si Si2 0.848388 0.676459 0.259524
Si Si3 0.903876 0.142698 0.951293
Si Si4 0.744636 0.329365 0.261476
Si Si5 0.000061 0.142437 0.290422
Si Si6 0.426713 0.084516 0.690543
O O1 0.081510 0.236337 0.628023
O O2 0.465094 0.302785 0.400809
O O3 0.331137 0.007883 0.381179
O O4 0.734471 0.042185 0.362527
O O5 0.061824 0.722971 0.110730
O O6 0.804619 0.497269 0.243720
O O7 0.591510 0.756499 0.322522
O O8 0.206545 0.112095 0.867161
O O9 0.824125 0.984551 0.870047
O O10 0.758735 0.205058 0.122210
O O11 0.944438 0.281114 0.269694
O O12 0.087323 0.190808 0.391322
#
# Coordination Sequence:
#
# PCOD9053215 Si02
#       6
#     2   2   2   2   2   2
#     4  11  19  34  56  79 102 133 173 212 254 301
#     4   9  20  34  56  75 103 141 165 210 261 298
#     4   8  19  37  54  74  99 143 171 206 254 296
#     4  11  19  36  53  77 109 130 171 211 256 308
#     4   8  20  33  53  80 100 136 169 213 252 300
#     4   7  19  35  53  76  98 136 173 208 248 298
#
# _framework density 21.504186000000001
#
# number of rings (size 3 to 8) (size 9 to 14) (size 15 to 20)
#    2.000    0.667    0.000    2.000    0.000    4.000 
#    0.000    3.333    0.000    3.000    0.000    0.000 
#    0.000    0.000    0.000    0.000    0.000    0.000 
#
# Total GULP energy -66803.834871 kJ/mol
# GULP energy per Si atom -5566.986239 kJ/mol
# Density = 2.145524 g / cm^3
# Si number density = 21.504186 Si / 1000 Ang^3
#
#
#
# Elastic Constant Matrix: (Units=GPa)
#
#
# Indices 1 2 3 4 5 6 
#
# 1 50.0368 11.7440 2.6636 -2.2811 20.1269 -10.8928
# 2 11.7440 126.6224 -21.3567 -13.8429 1.2680 -30.8493
# 3 2.6636 -21.3567 53.7225 -1.8415 13.3036 -5.1526
# 4 -2.2811 -13.8429 -1.8415 21.3718 -3.1703 9.2950
# 5 20.1269 1.2680 13.3036 -3.1703 21.9435 -6.7100
# 6 -10.8928 -30.8493 -5.1526 9.2950 -6.7100 23.2032
#
#
#
# Elastic Compliance Matrix: (Units=1/GPa)
#
#
# Indices 1 2 3 4 5 6 
#
# 1 0.035695 0.000567 0.008009 -0.005220 -0.034934 0.011279
# 2 0.000567 0.014241 0.007508 0.001052 0.000559 0.020608
# 3 0.008009 0.007508 0.027561 -0.001214 -0.020232 0.014497
# 4 -0.005220 0.001052 -0.001214 0.057572 0.006938 -0.022378
# 5 -0.034934 0.000559 -0.020232 0.006938 0.091971 0.003667
# 6 0.011279 0.020608 0.014497 -0.022378 0.003667 0.089035
#
#
# Mechanical properties :
#
#
# Convention : Reuss Voigt Hill
#
# Bulk Modulus (GPa) = 9.11864 24.05371 16.58617
# Shear Modulus (GPa) = 15.60250 29.12575 22.36413
#
# Velocity S-wave (km/s) = 2.69654 3.68424 3.22839
# Velocity P-wave (km/s) = 3.73426 5.41369 4.65042
#
# Compressibility (1/GPa) = 0.10966550
#
# Stress axis : x y z
#
# Youngs Moduli (GPa) = 28.01508 70.21854 36.28379
#
# Poissons Ratio (x) = -0.03983 -0.29061
# Poissons Ratio (y) = -0.01589 -0.27240
# Poissons Ratio (z) = -0.22439 -0.52717
#
# Static dielectric constant tensor:
#      x y z
#    x 1.799370 -0.013040 -0.050790 
#    y -0.013040 1.788810 -0.006610 
#    z -0.050790 -0.006610 1.839870 
# 
# From -- ./inp_files/512135.got.cif
#   From: 2010.05.17/outbox.cif.g08.bks.cpg/sg2_257_cif.got.tgz:512135.got - 2010.06.03 11:33:40.
