data_PCOD9053796
_publ_section_title
;
Structure prediction by ZEFSAII (Michael W. Deem and Ramdas Pophale) SiO2 
 PCOD9053796
Probable space group: P -1
;
_chemical_formula_sum "Si O2"
_cell_formula_units_Z 16
_cell_length_a 9.199910
_cell_length_b 13.037304
_cell_length_c 16.766449
_cell_angle_alpha 147.101967
_cell_angle_beta 114.341818
_cell_angle_gamma 49.940481
_cell_volume 795.250974
_symmetry_space_group_name_H-M "P -1"
_symmetry_group_IT_number 2
_symmetry_cell_setting 'triclinic'
loop_
_space_group_symop_operation_xyz
x,y,z
-x,-y,-z
loop_
_atom_site_type_symbol
_atom_site_label
_atom_site_fract_x
_atom_site_fract_y
_atom_site_fract_z
Si Si1 0.139389 0.622657 0.333083
Si Si2 0.098375 0.856800 0.317348
Si Si3 0.084872 0.234780 0.272741
Si Si4 0.685524 0.674525 0.519569
Si Si5 0.504832 0.196765 0.589962
Si Si6 0.443610 0.635530 0.659957
Si Si7 0.922425 0.394014 0.180391
Si Si8 0.009582 0.069981 0.842917
O O1 0.106879 0.679821 0.268076
O O2 0.365234 0.428689 0.289410
O O3 0.003300 0.549204 0.286525
O O4 0.072115 0.870681 0.518314
O O5 0.304773 0.818771 0.355291
O O6 0.072511 0.842009 0.207580
O O7 0.282041 0.214613 0.325515
O O8 0.902969 0.518085 0.424211
O O9 0.061712 0.195170 0.149607
O O10 0.058315 0.083314 0.231474
O O11 0.508684 0.853040 0.538166
O O12 0.645462 0.483854 0.395352
O O13 0.304373 0.446408 0.735158
O O14 0.500000 0.000000 0.500000
O O15 0.500000 0.500000 0.500000
O O16 0.251609 0.905428 0.784930
O O17 0.937528 0.276054 0.023619
#
# Coordination Sequence:
#
# PCOD9053796 Si02
#       8
#     2   2   2   2   2   2   2   2
#     4  11  23  41  64  92 125 165 212 256 305 370
#     4  11  23  41  64  92 125 165 212 256 305 370
#     4   9  19  36  60  90 125 154 205 259 310 361
#     4   9  18  32  59  92 113 155 204 255 300 353
#     4  11  20  37  64  89 119 161 208 253 304 366
#     4  11  20  37  64  89 119 161 208 253 304 366
#     4  11  24  40  63  93 129 164 204 259 314 366
#     4  11  24  40  63  93 129 164 204 259 314 366
#
# _framework density 20.119433999999998
#
# number of rings (size 3 to 8) (size 9 to 14) (size 15 to 20)
#    0.000    1.500    3.750    1.875    3.500    1.500 
#    0.000    0.000    0.000    0.000    0.000    0.000 
#    0.000    0.000    0.000    0.000    0.000    0.000 
#
# Total GULP energy -89114.548944 kJ/mol
# GULP energy per Si atom -5569.659309 kJ/mol
# Density = 2.007364 g / cm^3
# Si number density = 20.119434 Si / 1000 Ang^3
#
#
#
# Elastic Constant Matrix: (Units=GPa)
#
#
# Indices 1 2 3 4 5 6 
#
# 1 63.4059 27.0862 -10.0987 -1.9298 -0.0234 -9.4588
# 2 27.0862 131.2794 18.6335 -34.2186 -7.3285 -4.4486
# 3 -10.0987 18.6335 41.1325 -18.5856 -8.0143 -4.4897
# 4 -1.9298 -34.2186 -18.5856 31.0191 3.0950 -5.5961
# 5 -0.0234 -7.3285 -8.0143 3.0950 19.0516 0.4777
# 6 -9.4588 -4.4486 -4.4897 -5.5961 0.4777 39.5442
#
#
#
# Elastic Compliance Matrix: (Units=1/GPa)
#
#
# Indices 1 2 3 4 5 6 
#
# 1 0.020042 -0.004459 0.009042 0.002615 0.001546 0.005670
# 2 -0.004459 0.012242 0.000189 0.013486 0.002537 0.002210
# 3 0.009042 0.000189 0.042232 0.026663 0.013252 0.010592
# 4 0.002615 0.013486 0.026663 0.065299 0.005439 0.014345
# 5 0.001546 0.002537 0.013252 0.005439 0.058102 0.002228
# 6 0.005670 0.002210 0.010592 0.014345 0.002228 0.030099
#
#
# Mechanical properties :
#
#
# Convention : Reuss Voigt Hill
#
# Bulk Modulus (GPa) = 11.89607 34.11774 23.00691
# Shear Modulus (GPa) = 20.28463 31.26944 25.77704
#
# Velocity S-wave (km/s) = 3.17868 3.94660 3.58327
# Velocity P-wave (km/s) = 4.40427 6.14508 5.34600
#
# Compressibility (1/GPa) = 0.08406136
#
# Stress axis : x y z
#
# Youngs Moduli (GPa) = 49.89450 81.68463 23.67864
#
# Poissons Ratio (x) = 0.36420 -0.21411
# Poissons Ratio (y) = 0.22246 -0.00447
# Poissons Ratio (z) = -0.45116 -0.01541
#
# Static dielectric constant tensor:
#      x y z
#    x 1.646650 0.016740 -0.060450 
#    y 0.016740 1.788500 -0.023530 
#    z -0.060450 -0.023530 1.740450 
# 
# From -- ./inp_files/187704.got.cif
#   From: 2010.05.17/outbox.cif.g08.bks.cpg/sg2_94_cif.got.tgz:187704.got - 2010.06.03 11:33:40.
