data_PCOD9053106
_publ_section_title
;
Structure prediction by ZEFSAII (Michael W. Deem and Ramdas Pophale) SiO2 
 PCOD9053106
Probable space group: P -1
;
_chemical_formula_sum "Si O2"
_cell_formula_units_Z 14
_cell_length_a 22.295779
_cell_length_b 14.843027
_cell_length_c 12.763579
_cell_angle_alpha 28.394793
_cell_angle_beta 30.527014
_cell_angle_gamma 15.997322
_cell_volume 549.554751
_symmetry_space_group_name_H-M "P -1"
_symmetry_group_IT_number 2
_symmetry_cell_setting 'triclinic'
loop_
_space_group_symop_operation_xyz
x,y,z
-x,-y,-z
loop_
_atom_site_type_symbol
_atom_site_label
_atom_site_fract_x
_atom_site_fract_y
_atom_site_fract_z
Si Si1 0.799473 0.264358 0.682277
Si Si2 0.626981 0.272224 0.358464
Si Si3 0.198086 0.016585 0.841818
Si Si4 0.893064 0.432598 0.555289
Si Si5 0.000234 0.717718 0.809844
Si Si6 0.401199 0.246579 0.800435
Si Si7 0.277538 0.433136 0.104041
O O1 0.859414 0.350558 0.590122
O O2 0.874325 0.315149 0.425310
O O3 0.782380 0.113225 0.772898
O O4 0.737176 0.206102 0.933182
O O5 0.442205 0.412628 0.558474
O O6 0.660243 0.184837 0.273171
O O7 0.627448 0.495167 0.146854
O O8 0.852873 0.892891 0.460850
O O9 0.204791 0.225062 0.655765
O O10 0.948805 0.304597 0.884615
O O11 0.782708 0.480936 0.771878
O O12 0.146858 0.545800 0.870291
O O13 0.000000 0.500000 0.000000
O O14 0.540227 0.970785 0.777673
O O15 0.500000 0.000000 0.000000
#
# Coordination Sequence:
#
# PCOD9053106 Si02
#       7
#     2   2   2   2   2   2   2
#     4  11  23  42  72  94 124 180 232 253 327 400
#     4  11  21  37  64 103 141 162 217 277 325 390
#     4  11  18  36  68 103 134 173 211 271 334 386
#     4  11  19  36  71 102 132 172 214 275 328 385
#     4  11  28  49  67  92 135 180 223 267 323 410
#     4  12  27  43  66 100 135 172 218 274 335 382
#     4  11  20  37  64 104 139 165 216 275 333 385
#
# _framework density 25.475166999999999
#
# number of rings (size 3 to 8) (size 9 to 14) (size 15 to 20)
#    0.000    0.857    5.714    3.429    2.000    2.857 
#    0.000    1.429    0.000    0.000    0.000    0.000 
#    0.000    0.000    0.000    0.000    0.000    0.000 
#
# Total GULP energy -77947.092326 kJ/mol
# GULP energy per Si atom -5567.649452 kJ/mol
# Density = 2.541718 g / cm^3
# Si number density = 25.475167 Si / 1000 Ang^3
#
#
#
# Elastic Constant Matrix: (Units=GPa)
#
#
# Indices 1 2 3 4 5 6 
#
# 1 122.7832 6.4079 68.9139 -2.2408 -5.5393 39.2497
# 2 6.4079 66.6658 19.3465 10.5627 3.2785 -5.0763
# 3 68.9139 19.3465 185.3003 -12.5022 -30.7844 -13.5611
# 4 -2.2408 10.5627 -12.5022 17.6332 -2.7553 1.0558
# 5 -5.5393 3.2785 -30.7844 -2.7553 63.0117 -18.7892
# 6 39.2497 -5.0763 -13.5611 1.0558 -18.7892 24.9490
#
#
#
# Elastic Compliance Matrix: (Units=1/GPa)
#
#
# Indices 1 2 3 4 5 6 
#
# 1 -0.025396 -0.001595 0.020938 0.012948 0.030554 0.073472
# 2 -0.001595 0.018242 -0.002059 -0.013069 -0.001265 0.004702
# 3 0.020938 -0.002059 -0.009124 -0.002294 -0.018063 -0.051825
# 4 0.012948 -0.013069 -0.002294 0.065533 -0.005807 -0.031423
# 5 0.030554 -0.001265 -0.018063 -0.005807 -0.009957 -0.065397
# 6 0.073472 0.004702 -0.051825 -0.031423 -0.065397 -0.150639
#
#
# Mechanical properties :
#
#
# Convention : Reuss Voigt Hill
#
# Bulk Modulus (GPa) = 54.67376 62.67618 58.67497
# Shear Modulus (GPa) = -35.76226 39.79083 2.01429
#
# Velocity S-wave (km/s) = -3.75081 3.95643 0.89017
# Velocity P-wave (km/s) = 1.65834 6.74740 4.91312
#
# Compressibility (1/GPa) = 0.01829031
#
# Stress axis : x y z
#
# Youngs Moduli (GPa) = -39.37613 54.81842 -109.60394
#
# Poissons Ratio (x) = 0.08742 2.29490
# Poissons Ratio (y) = -0.06280 -0.22571
# Poissons Ratio (z) = 0.82446 0.11289
#
# Static dielectric constant tensor:
#      x y z
#    x 2.003200 0.029830 0.011950 
#    y 0.029830 3.044680 0.098580 
#    z 0.011950 0.098580 1.924320 
# 
# From -- ./inp_files/270259.got.cif
#   From: 2010.05.17/outbox.cif.g08.bks.cpg/sg2_136_cif.got.tgz:270259.got - 2010.06.03 11:33:40.
