data_PCOD9053800
_publ_section_title
;
Structure prediction by ZEFSAII (Michael W. Deem and Ramdas Pophale) SiO2 
 PCOD9053800
Probable space group: P -1
;
_chemical_formula_sum "Si O2"
_cell_formula_units_Z 16
_cell_length_a 8.424503
_cell_length_b 16.066876
_cell_length_c 7.938383
_cell_angle_alpha 74.290212
_cell_angle_beta 111.525088
_cell_angle_gamma 134.820243
_cell_volume 708.892732
_symmetry_space_group_name_H-M "P -1"
_symmetry_group_IT_number 2
_symmetry_cell_setting 'triclinic'
loop_
_space_group_symop_operation_xyz
x,y,z
-x,-y,-z
loop_
_atom_site_type_symbol
_atom_site_label
_atom_site_fract_x
_atom_site_fract_y
_atom_site_fract_z
Si Si1 0.348001 0.997573 0.801657
Si Si2 0.463946 0.342316 0.956618
Si Si3 0.842594 0.432467 0.635833
Si Si4 0.904725 0.891647 0.902510
Si Si5 0.160253 0.777870 0.702098
Si Si6 0.314484 0.455415 0.308137
Si Si7 0.575438 0.273517 0.344052
Si Si8 0.347316 0.751042 0.125731
O O1 0.496139 0.134484 0.759957
O O2 0.281207 0.912744 0.668124
O O3 0.108457 0.937130 0.832800
O O4 0.500000 0.000000 0.000000
O O5 0.547027 0.462260 0.847483
O O6 0.516554 0.287101 0.865934
O O7 0.200772 0.228953 0.974020
O O8 0.610528 0.360615 0.166754
O O9 0.831521 0.511270 0.705148
O O10 0.600795 0.327810 0.503287
O O11 0.877528 0.360904 0.803437
O O12 0.000000 0.500000 0.500000
O O13 0.679303 0.846713 0.737237
O O14 0.000000 0.000000 0.000000
O O15 0.243979 0.742875 0.605116
O O16 0.885374 0.685681 0.685870
O O17 0.271042 0.772790 0.915225
O O18 0.500000 0.500000 0.500000
#
# Coordination Sequence:
#
# PCOD9053800 Si02
#       8
#     2   2   2   2   2   2   2   2
#     4  10  19  36  57  90 116 147 188 241 288 342
#     4   8  19  36  61  83 111 151 198 229 279 347
#     4  11  22  39  61  85 116 150 196 247 276 341
#     4  10  17  35  62  85 113 146 199 237 274 344
#     4  10  20  38  60  82 119 157 184 240 290 343
#     4  11  24  39  56  84 124 153 190 237 297 338
#     4   9  20  37  59  89 108 151 204 230 286 333
#     4   9  19  36  62  87 110 149 200 231 290 340
#
# _framework density 22.570411
#
# number of rings (size 3 to 8) (size 9 to 14) (size 15 to 20)
#    0.750    1.500    2.500    0.750    3.500    1.500 
#    4.500    3.750    0.000    0.000    0.000    0.000 
#    0.000    0.000    0.000    0.000    0.000    0.000 
#
# Total GULP energy -89105.329354 kJ/mol
# GULP energy per Si atom -5569.083085 kJ/mol
# Density = 2.251904 g / cm^3
# Si number density = 22.570411 Si / 1000 Ang^3
#
#
#
# Elastic Constant Matrix: (Units=GPa)
#
#
# Indices 1 2 3 4 5 6 
#
# 1 33.8733 6.8734 -7.1473 -5.3867 -1.8593 12.6072
# 2 6.8734 88.1291 -5.8914 9.5645 3.2246 9.7044
# 3 -7.1473 -5.8914 17.9176 -1.1740 -8.8736 -6.6174
# 4 -5.3867 9.5645 -1.1740 37.0726 4.3970 -7.9427
# 5 -1.8593 3.2246 -8.8736 4.3970 24.4039 7.9402
# 6 12.6072 9.7044 -6.6174 -7.9427 7.9402 29.3608
#
#
#
# Elastic Compliance Matrix: (Units=1/GPa)
#
#
# Indices 1 2 3 4 5 6 
#
# 1 0.040595 -0.000840 0.017010 0.001285 0.014669 -0.016939
# 2 -0.000840 0.012547 0.002475 -0.004512 0.001578 -0.004876
# 3 0.017010 0.002475 0.078447 0.001413 0.028513 0.002230
# 4 0.001285 -0.004512 0.001413 0.032001 -0.008535 0.012223
# 5 0.014669 0.001578 0.028513 -0.008535 0.059946 -0.018914
# 6 -0.016939 -0.004876 0.002230 0.012223 -0.018914 0.051868
#
#
# Mechanical properties :
#
#
# Convention : Reuss Voigt Hill
#
# Bulk Modulus (GPa) = 5.92133 14.17658 10.04896
# Shear Modulus (GPa) = 16.98333 27.90649 22.44491
#
# Velocity S-wave (km/s) = 2.74608 3.52009 3.15689
# Velocity P-wave (km/s) = 3.56143 4.77662 4.21306
#
# Compressibility (1/GPa) = 0.16888092
#
# Stress axis : x y z
#
# Youngs Moduli (GPa) = 24.63329 79.70100 12.74742
#
# Poissons Ratio (x) = 0.06694 -0.21684
# Poissons Ratio (y) = 0.02069 -0.03155
# Poissons Ratio (z) = -0.41902 -0.19729
#
# Static dielectric constant tensor:
#      x y z
#    x 1.870080 0.006670 -0.030350 
#    y 0.006670 1.974240 -0.041830 
#    z -0.030350 -0.041830 1.831150 
# 
# From -- ./inp_files/214934.got.cif
#   From: 2010.05.17/outbox.cif.g08.bks.cpg/sg2_108_cif.got.tgz:214934.got - 2010.06.03 11:33:40.
