data_PCOD9053357
_publ_section_title
;
Structure prediction by ZEFSAII (Michael W. Deem and Ramdas Pophale) SiO2 
 PCOD9053357
Probable space group: P -1
;
_chemical_formula_sum "Si O2"
_cell_formula_units_Z 16
_cell_length_a 11.680367
_cell_length_b 13.264902
_cell_length_c 14.663657
_cell_angle_alpha 28.930493
_cell_angle_beta 109.494214
_cell_angle_gamma 130.909931
_cell_volume 627.674924
_symmetry_space_group_name_H-M "P -1"
_symmetry_group_IT_number 2
_symmetry_cell_setting 'triclinic'
loop_
_space_group_symop_operation_xyz
x,y,z
-x,-y,-z
loop_
_atom_site_type_symbol
_atom_site_label
_atom_site_fract_x
_atom_site_fract_y
_atom_site_fract_z
Si Si1 0.205449 0.724616 0.926155
Si Si2 0.762160 0.547151 0.697833
Si Si3 0.663966 0.010429 0.968449
Si Si4 0.142219 0.500716 0.518064
Si Si5 0.897837 0.901369 0.780191
Si Si6 0.977764 0.327220 0.920496
Si Si7 0.356551 0.100159 0.356883
Si Si8 0.438432 0.796661 0.503607
O O1 0.193989 0.871700 0.891150
O O2 0.383184 0.976261 0.702245
O O3 0.201805 0.497863 0.157112
O O4 0.000000 0.500000 0.000000
O O5 0.706905 0.267921 0.842322
O O6 0.952170 0.911373 0.414086
O O7 0.553522 0.387369 0.764534
O O8 0.676158 0.135687 0.774551
O O9 0.850754 0.120301 0.958465
O O10 0.022013 0.198063 0.654120
O O11 0.233302 0.499172 0.627560
O O12 0.000000 0.500000 0.500000
O O13 0.698304 0.752609 0.818196
O O14 0.877503 0.652037 0.019351
O O15 0.132265 0.727126 0.629134
O O16 0.415363 0.994673 0.386819
O O17 0.507455 0.289801 0.332204
#
# Coordination Sequence:
#
# PCOD9053357 Si02
#       8
#     2   2   2   2   2   2   2   2
#     4  11  19  37  66  91 120 167 211 251 310 371
#     4   9  17  32  55  85 120 157 200 254 304 360
#     4   9  17  32  55  85 120 157 200 254 304 360
#     4  11  19  37  66  91 120 167 211 251 310 371
#     4  11  22  39  66  92 126 168 208 255 318 375
#     4  11  22  39  66  92 126 168 208 255 318 375
#     4  11  22  44  65  88 128 167 206 256 324 371
#     4  11  22  38  70  92 121 173 208 257 317 373
#
# _framework density 25.490902999999999
#
# number of rings (size 3 to 8) (size 9 to 14) (size 15 to 20)
#    0.000    1.500    7.500    0.000    1.750    0.500 
#    0.000    7.500    5.500    0.000    0.000    0.000 
#    0.000    0.000    0.000    0.000    0.000    0.000 
#
# Total GULP energy -89417.963302 kJ/mol
# GULP energy per Si atom -5588.622706 kJ/mol
# Density = 2.543288 g / cm^3
# Si number density = 25.490903 Si / 1000 Ang^3
#
#
#
# Elastic Constant Matrix: (Units=GPa)
#
#
# Indices 1 2 3 4 5 6 
#
# 1 74.8117 40.8603 25.6419 5.5784 -9.8030 20.8970
# 2 40.8603 158.8522 22.1342 23.1343 2.7987 47.8158
# 3 25.6419 22.1342 37.3312 1.1918 -4.3427 8.9337
# 4 5.5784 23.1343 1.1918 29.7457 14.0893 5.5120
# 5 -9.8030 2.7987 -4.3427 14.0893 44.8609 9.2751
# 6 20.8970 47.8158 8.9337 5.5120 9.2751 56.9973
#
#
#
# Elastic Compliance Matrix: (Units=1/GPa)
#
#
# Indices 1 2 3 4 5 6 
#
# 1 0.020549 -0.001839 -0.011085 -0.003796 0.005720 -0.004817
# 2 -0.001839 0.010377 -0.002602 -0.007479 0.002560 -0.007317
# 3 -0.011085 -0.002602 0.035830 0.002426 0.000377 0.000335
# 4 -0.003796 -0.007479 0.002426 0.046569 -0.015863 0.005363
# 5 0.005720 0.002560 0.000377 -0.015863 0.029981 -0.007649
# 6 -0.004817 -0.007317 0.000335 0.005363 -0.007649 0.026123
#
#
# Mechanical properties :
#
#
# Convention : Reuss Voigt Hill
#
# Bulk Modulus (GPa) = 28.00739 49.80755 38.90747
# Shear Modulus (GPa) = 23.54242 38.47804 31.01023
#
# Velocity S-wave (km/s) = 3.04231 3.88942 3.49165
# Velocity P-wave (km/s) = 4.83239 6.30491 5.61711
#
# Compressibility (1/GPa) = 0.03570486
#
# Stress axis : x y z
#
# Youngs Moduli (GPa) = 48.66446 96.36483 27.90941
#
# Poissons Ratio (x) = 0.17721 0.30937
# Poissons Ratio (y) = 0.08949 0.07262
# Poissons Ratio (z) = 0.53943 0.25075
#
# Static dielectric constant tensor:
#      x y z
#    x 2.116850 -0.029420 0.004230 
#    y -0.029420 2.073870 0.004610 
#    z 0.004230 0.004610 2.068440 
# 
# From -- ./inp_files/522162.got.cif
#   From: 2010.05.17/outbox.cif.g08.bks.cpg/sg2_262_cif.got.tgz:522162.got - 2010.06.03 11:33:40.
