data_PCOD9053031
_publ_section_title
;
Structure prediction by ZEFSAII (Michael W. Deem and Ramdas Pophale) SiO2 
 PCOD9053031
Probable space group: P -1
;
_chemical_formula_sum "Si O2"
_cell_formula_units_Z 16
_cell_length_a 12.197366
_cell_length_b 15.503691
_cell_length_c 15.004128
_cell_angle_alpha 18.960458
_cell_angle_beta 64.003023
_cell_angle_gamma 60.589035
_cell_volume 799.660359
_symmetry_space_group_name_H-M "P -1"
_symmetry_group_IT_number 2
_symmetry_cell_setting 'triclinic'
loop_
_space_group_symop_operation_xyz
x,y,z
-x,-y,-z
loop_
_atom_site_type_symbol
_atom_site_label
_atom_site_fract_x
_atom_site_fract_y
_atom_site_fract_z
Si Si1 0.409553 0.302727 0.734295
Si Si2 0.174874 0.129211 0.644919
Si Si3 0.872590 0.053417 0.714261
Si Si4 0.905873 0.304605 0.211752
Si Si5 0.778378 0.584172 0.144364
Si Si6 0.786593 0.661234 0.392584
Si Si7 0.902152 0.091168 0.852128
Si Si8 0.144620 0.650800 0.020984
O O1 0.500000 0.500000 0.500000
O O2 0.333022 0.380303 0.779041
O O3 0.318815 0.308489 0.675535
O O4 0.500000 0.000000 0.000000
O O5 0.250146 0.194604 0.640053
O O6 0.035280 0.137819 0.727013
O O7 0.220364 0.836321 0.865848
O O8 0.165880 0.361522 0.345671
O O9 0.999330 0.824151 0.914868
O O10 0.888489 0.335673 0.392863
O O11 0.813731 0.129127 0.758274
O O12 0.802345 0.885611 0.839839
O O13 0.787032 0.441347 0.185061
O O14 0.849955 0.334332 0.102663
O O15 0.000000 0.000000 0.500000
O O16 0.000000 0.500000 0.000000
O O17 0.842863 0.335089 0.702922
O O18 0.891994 0.801752 0.176552
#
# Coordination Sequence:
#
# PCOD9053031 Si02
#       8
#     2   2   2   2   2   2   2   2
#     4  12  26  43  62  86 113 155 209 263 299 341
#     4  11  23  34  54  85 122 163 191 234 289 366
#     4  11  18  32  54  79 118 159 184 222 286 350
#     4  12  22  35  58  89 121 163 198 230 296 369
#     4  12  21  38  58  84 116 159 193 241 305 341
#     4  12  22  38  58  81 115 157 202 245 303 349
#     4  11  19  33  54  84 117 157 195 231 285 366
#     4  11  21  35  51  85 128 154 197 229 271 361
#
# _framework density 20.008493999999999
#
# number of rings (size 3 to 8) (size 9 to 14) (size 15 to 20)
#    0.000    0.500    5.000    6.750    0.000    0.000 
#    0.000    0.000    0.000    0.000    0.000    5.250 
#    0.000    0.000    0.000    0.000    0.000    0.000 
#
# Total GULP energy -89105.756962 kJ/mol
# GULP energy per Si atom -5569.109810 kJ/mol
# Density = 1.996295 g / cm^3
# Si number density = 20.008494 Si / 1000 Ang^3
#
#
#
# Elastic Constant Matrix: (Units=GPa)
#
#
# Indices 1 2 3 4 5 6 
#
# 1 66.1117 51.8265 32.9696 -1.5666 -4.7602 17.4284
# 2 51.8265 155.9286 31.6640 -5.1059 -10.2608 35.8925
# 3 32.9696 31.6640 114.4589 -13.6662 -16.0512 2.8756
# 4 -1.5666 -5.1059 -13.6662 28.8600 8.1213 1.6619
# 5 -4.7602 -10.2608 -16.0512 8.1213 18.5137 -4.8515
# 6 17.4284 35.8925 2.8756 1.6619 -4.8515 29.9569
#
#
#
# Elastic Compliance Matrix: (Units=1/GPa)
#
#
# Indices 1 2 3 4 5 6 
#
# 1 0.023880 -0.005286 -0.005820 -0.001021 -0.003349 -0.007487
# 2 -0.005286 0.010654 -0.000920 0.001561 0.000547 -0.009599
# 3 -0.005820 -0.000920 0.012054 0.002570 0.008514 0.004568
# 4 -0.001021 0.001561 0.002570 0.041244 -0.016981 -0.006561
# 5 -0.003349 0.000547 0.008514 -0.016981 0.071701 0.013029
# 6 -0.007487 -0.009599 0.004568 -0.006561 0.013029 0.051274
#
#
# Mechanical properties :
#
#
# Convention : Reuss Voigt Hill
#
# Bulk Modulus (GPa) = 44.37415 63.26885 53.82150
# Shear Modulus (GPa) = 20.62960 30.13539 25.38249
#
# Velocity S-wave (km/s) = 3.21447 3.88510 3.56559
# Velocity P-wave (km/s) = 6.00024 7.19826 6.62638
#
# Compressibility (1/GPa) = 0.02253564
#
# Stress axis : x y z
#
# Youngs Moduli (GPa) = 41.87538 93.86507 82.96113
#
# Poissons Ratio (x) = 0.49615 0.48283
# Poissons Ratio (y) = 0.22134 0.07636
# Poissons Ratio (z) = 0.24371 0.08639
#
# Static dielectric constant tensor:
#      x y z
#    x 1.761900 0.043070 0.003420 
#    y 0.043070 1.879570 0.005140 
#    z 0.003420 0.005140 1.738680 
# 
# From -- ./inp_files/522051.got.cif
#   From: 2010.05.17/outbox.cif.g08.bks.cpg/sg2_262_cif.got.tgz:522051.got - 2010.06.03 11:33:40.
