data_PCOD9053469
_publ_section_title
;
Structure prediction by ZEFSAII (Michael W. Deem and Ramdas Pophale) SiO2 
 PCOD9053469
Probable space group: P -1
;
_chemical_formula_sum "Si O2"
_cell_formula_units_Z 16
_cell_length_a 8.649559
_cell_length_b 10.106827
_cell_length_c 16.147853
_cell_angle_alpha 143.915503
_cell_angle_beta 70.137826
_cell_angle_gamma 118.406943
_cell_volume 728.585138
_symmetry_space_group_name_H-M "P -1"
_symmetry_group_IT_number 2
_symmetry_cell_setting 'triclinic'
loop_
_space_group_symop_operation_xyz
x,y,z
-x,-y,-z
loop_
_atom_site_type_symbol
_atom_site_label
_atom_site_fract_x
_atom_site_fract_y
_atom_site_fract_z
Si Si1 0.476816 0.511432 0.220477
Si Si2 0.745771 0.880924 0.259109
Si Si3 0.640015 0.014624 0.053260
Si Si4 0.474139 0.008535 0.255176
Si Si5 0.745666 0.179143 0.566871
Si Si6 0.637707 0.698543 0.450630
Si Si7 0.948973 0.266717 0.833314
Si Si8 0.920577 0.515180 0.259739
O O1 0.648211 0.614737 0.183401
O O2 0.415314 0.737580 0.344682
O O3 0.522393 0.508932 0.307613
O O4 0.352295 0.252180 0.081429
O O5 0.607922 0.902062 0.225147
O O6 0.948300 0.891931 0.221273
O O7 0.759959 0.092565 0.428709
O O8 0.558886 0.062499 0.177407
O O9 0.820112 0.236007 0.117387
O O10 0.500000 0.000000 0.000000
O O11 0.264397 0.847756 0.199321
O O12 0.466156 0.238825 0.424138
O O13 0.903952 0.416142 0.685254
O O14 0.724315 0.953974 0.515740
O O15 0.799251 0.611914 0.389364
O O16 0.028720 0.339847 0.762941
O O17 0.000000 0.500000 0.000000
#
# Coordination Sequence:
#
# PCOD9053469 Si02
#       8
#     2   2   2   2   2   2   2   2
#     4  11  20  40  69  95 138 175 217 276 344 396
#     4  11  21  41  69 104 134 167 231 299 329 380
#     4  12  27  47  62  95 145 190 211 268 352 425
#     4  12  25  43  73 103 131 177 237 279 341 395
#     4  11  20  38  70 104 128 169 230 290 336 384
#     4  11  19  40  70  99 126 173 228 281 327 391
#     4  12  24  40  68 105 137 174 232 285 330 402
#     4  12  23  42  68  97 141 182 221 270 351 409
#
# _framework density 21.960372
#
# number of rings (size 3 to 8) (size 9 to 14) (size 15 to 20)
#    0.000    0.500    7.500    3.375    0.000    4.000 
#    0.000    1.875    0.000    0.000    0.000    0.000 
#    0.000    0.000    0.000    0.000    0.000    0.000 
#
# Total GULP energy -89223.226705 kJ/mol
# GULP energy per Si atom -5576.451669 kJ/mol
# Density = 2.191039 g / cm^3
# Si number density = 21.960372 Si / 1000 Ang^3
#
#
#
# Elastic Constant Matrix: (Units=GPa)
#
#
# Indices 1 2 3 4 5 6 
#
# 1 105.6380 27.7993 26.6649 -4.2851 26.2963 1.8531
# 2 27.7993 52.0655 32.2527 -5.4853 4.8628 -8.0184
# 3 26.6649 32.2527 71.0272 -7.6625 5.2527 -3.4626
# 4 -4.2851 -5.4853 -7.6625 41.3596 7.4337 7.4093
# 5 26.2963 4.8628 5.2527 7.4337 37.8061 -2.9569
# 6 1.8531 -8.0184 -3.4626 7.4093 -2.9569 15.3737
#
#
#
# Elastic Compliance Matrix: (Units=1/GPa)
#
#
# Indices 1 2 3 4 5 6 
#
# 1 0.014669 -0.006904 -0.001633 0.003945 -0.010621 -0.009681
# 2 -0.006904 0.032129 -0.011734 -0.002388 0.004090 0.016884
# 3 -0.001633 -0.011734 0.020241 0.002699 -0.000920 -0.002842
# 4 0.003945 -0.002388 0.002699 0.029674 -0.010003 -0.017338
# 5 -0.010621 0.004090 -0.000920 -0.010003 0.036585 0.015064
# 6 -0.009681 0.016884 -0.002842 -0.017338 0.015064 0.085633
#
#
# Mechanical properties :
#
#
# Convention : Reuss Voigt Hill
#
# Bulk Modulus (GPa) = 37.74111 44.68494 41.21302
# Shear Modulus (GPa) = 18.63550 28.37547 23.50549
#
# Velocity S-wave (km/s) = 2.91623 3.59851 3.27518
# Velocity P-wave (km/s) = 5.34439 6.13660 5.75414
#
# Compressibility (1/GPa) = 0.02649631
#
# Stress axis : x y z
#
# Youngs Moduli (GPa) = 68.17078 31.12501 49.40416
#
# Poissons Ratio (x) = 0.21489 0.08067
# Poissons Ratio (y) = 0.47066 0.57972
# Poissons Ratio (z) = 0.11131 0.36523
#
# Static dielectric constant tensor:
#      x y z
#    x 1.662980 0.013860 0.057980 
#    y 0.013860 1.833640 -0.002070 
#    z 0.057980 -0.002070 1.782040 
# 
# From -- ./inp_files/495822.got.cif
#   From: 2010.05.17/outbox.cif.g08.bks.cpg/sg2_248_cif.got.tgz:495822.got - 2010.06.03 11:33:40.
