data_PCOD9053967
_publ_section_title
;
Structure prediction by ZEFSAII (Michael W. Deem and Ramdas Pophale) SiO2 
 PCOD9053967
Probable space group: P -1
;
_chemical_formula_sum "Si O2"
_cell_formula_units_Z 16
_cell_length_a 9.500718
_cell_length_b 8.659474
_cell_length_c 15.394241
_cell_angle_alpha 107.219846
_cell_angle_beta 35.362432
_cell_angle_gamma 93.863091
_cell_volume 664.521870
_symmetry_space_group_name_H-M "P -1"
_symmetry_group_IT_number 2
_symmetry_cell_setting 'triclinic'
loop_
_space_group_symop_operation_xyz
x,y,z
-x,-y,-z
loop_
_atom_site_type_symbol
_atom_site_label
_atom_site_fract_x
_atom_site_fract_y
_atom_site_fract_z
Si Si1 0.809604 0.266262 0.589111
Si Si2 0.394705 0.434182 0.129234
Si Si3 0.485611 0.092538 0.832955
Si Si4 0.422591 0.599337 0.446571
Si Si5 0.628458 0.757962 0.629669
Si Si6 0.961462 0.723544 0.806246
Si Si7 0.220585 0.912595 0.134854
Si Si8 0.295430 0.172419 0.596750
O O1 0.648144 0.434512 0.750379
O O2 0.683614 0.131766 0.671299
O O3 0.757212 0.278184 0.515590
O O4 0.101302 0.256243 0.461187
O O5 0.132133 0.407580 0.226212
O O6 0.500000 0.500000 0.000000
O O7 0.569318 0.248838 0.039891
O O8 0.646185 0.066968 0.837801
O O9 0.431282 0.922811 0.800704
O O10 0.215600 0.241646 0.012182
O O11 0.445659 0.414291 0.366564
O O12 0.665642 0.665601 0.345775
O O13 0.264865 0.647639 0.625321
O O14 0.660852 0.804486 0.522069
O O15 0.867611 0.913123 0.844314
O O16 0.980620 0.847679 0.258932
O O17 0.500000 0.000000 0.500000
#
# Coordination Sequence:
#
# PCOD9053967 Si02
#       8
#     2   2   2   2   2   2   2   2
#     4  12  23  41  71 108 135 171 234 286 339 396
#     4  11  20  39  66 104 138 173 219 291 345 397
#     4  11  23  40  70 103 133 171 223 290 341 394
#     4  12  27  43  71 102 140 181 229 280 340 407
#     4  12  25  43  71 103 139 174 235 285 336 399
#     4  11  23  41  64 101 138 178 222 280 348 398
#     4  11  23  40  69  98 140 180 225 273 354 402
#     4  12  25  47  67  95 143 192 225 268 344 422
#
# _framework density 24.077463999999999
#
# number of rings (size 3 to 8) (size 9 to 14) (size 15 to 20)
#    0.000    0.500    6.250    4.125    3.500    0.000 
#    0.000    1.250    0.000    0.000    0.000    0.000 
#    0.000    0.000    0.000    0.000    0.000    0.000 
#
# Total GULP energy -89523.769844 kJ/mol
# GULP energy per Si atom -5595.235615 kJ/mol
# Density = 2.402266 g / cm^3
# Si number density = 24.077464 Si / 1000 Ang^3
#
#
#
# Elastic Constant Matrix: (Units=GPa)
#
#
# Indices 1 2 3 4 5 6 
#
# 1 77.0642 22.0423 15.2832 -1.9332 2.7229 23.2087
# 2 22.0423 130.8378 20.4710 0.6916 1.7461 32.3713
# 3 15.2832 20.4710 73.6829 2.0134 -5.3419 28.1133
# 4 -1.9332 0.6916 2.0134 40.8295 3.4892 0.5951
# 5 2.7229 1.7461 -5.3419 3.4892 25.8431 -5.4355
# 6 23.2087 32.3713 28.1133 0.5951 -5.4355 39.7579
#
#
#
# Elastic Compliance Matrix: (Units=1/GPa)
#
#
# Indices 1 2 3 4 5 6 
#
# 1 0.016166 -0.000255 0.000182 0.001239 -0.003900 -0.009910
# 2 -0.000255 0.009724 0.000363 0.000126 -0.002328 -0.008346
# 3 0.000182 0.000363 0.018661 -0.000816 0.001098 -0.013435
# 4 0.001239 0.000126 -0.000816 0.024941 -0.003918 -0.001158
# 5 -0.003900 -0.002328 0.001098 -0.003918 0.041952 0.009189
# 6 -0.009910 -0.008346 -0.013435 -0.001158 0.009189 0.048507
#
#
# Mechanical properties :
#
#
# Convention : Reuss Voigt Hill
#
# Bulk Modulus (GPa) = 22.15636 44.13087 33.14361
# Shear Modulus (GPa) = 28.66744 36.20533 32.43639
#
# Velocity S-wave (km/s) = 3.45430 3.88197 3.67436
# Velocity P-wave (km/s) = 5.01315 6.20172 5.63884
#
# Compressibility (1/GPa) = 0.04513376
#
# Stress axis : x y z
#
# Youngs Moduli (GPa) = 61.85680 102.83353 53.58774
#
# Poissons Ratio (x) = 0.02618 -0.00976
# Poissons Ratio (y) = 0.01575 -0.01947
# Poissons Ratio (z) = -0.01127 -0.03737
#
# Static dielectric constant tensor:
#      x y z
#    x 1.889350 -0.060730 -0.014900 
#    y -0.060730 1.994080 -0.010130 
#    z -0.014900 -0.010130 2.000080 
# 
# From -- ./inp_files/495373.got.cif
#   From: 2010.05.17/outbox.cif.g08.bks.cpg/sg2_248_cif.got.tgz:495373.got - 2010.06.03 11:33:40.
