data_PCOD9053979
_publ_section_title
;
Structure prediction by ZEFSAII (Michael W. Deem and Ramdas Pophale) SiO2 
 PCOD9053979
Probable space group: P -1
;
_chemical_formula_sum "Si O2"
_cell_formula_units_Z 14
_cell_length_a 8.138564
_cell_length_b 11.694992
_cell_length_c 16.890545
_cell_angle_alpha 34.121634
_cell_angle_beta 46.133140
_cell_angle_gamma 67.590956
_cell_volume 571.812915
_symmetry_space_group_name_H-M "P -1"
_symmetry_group_IT_number 2
_symmetry_cell_setting 'triclinic'
loop_
_space_group_symop_operation_xyz
x,y,z
-x,-y,-z
loop_
_atom_site_type_symbol
_atom_site_label
_atom_site_fract_x
_atom_site_fract_y
_atom_site_fract_z
Si Si1 0.785735 0.784756 0.419296
Si Si2 0.762984 0.893206 0.838057
Si Si3 0.298840 0.528293 0.814329
Si Si4 0.190555 0.273519 0.738627
Si Si5 0.767302 0.341588 0.918418
Si Si6 0.994613 0.756274 0.695314
Si Si7 0.437540 0.868596 0.722116
O O1 0.538210 0.559125 0.662475
O O2 0.850131 0.783850 0.307281
O O3 0.666732 0.960588 0.374441
O O4 0.038058 0.849136 0.350869
O O5 0.843907 0.829858 0.764728
O O6 0.821289 0.737256 0.969659
O O7 0.460662 0.807503 0.981090
O O8 0.108840 0.603752 0.790321
O O9 0.380689 0.675995 0.784247
O O10 0.500000 0.500000 0.500000
O O11 0.040033 0.389905 0.765017
O O12 0.000000 0.000000 0.000000
O O13 0.805740 0.594045 0.783499
O O14 0.683134 0.208159 0.106661
O O15 0.256088 0.976832 0.456464
#
# Coordination Sequence:
#
# PCOD9053979 Si02
#       7
#     2   2   2   2   2   2   2
#     4  11  23  43  70  96 134 183 235 290 340 420
#     4  12  24  39  63 104 142 179 225 287 364 413
#     4  11  21  38  66 100 132 181 233 284 348 422
#     4  12  28  52  78 104 136 188 245 294 346 423
#     4  12  27  41  64 102 138 182 230 292 355 416
#     4  11  21  39  64  97 139 180 232 280 351 419
#     4  11  20  39  67  98 131 180 236 289 341 422
#
# _framework density 24.483532
#
# number of rings (size 3 to 8) (size 9 to 14) (size 15 to 20)
#    0.000    0.571    5.714    4.286    2.000    2.286 
#    0.000    0.714    0.000    0.000    0.000    0.000 
#    0.000    0.000    0.000    0.000    0.000    0.000 
#
# Total GULP energy -78072.421159 kJ/mol
# GULP energy per Si atom -5576.601511 kJ/mol
# Density = 2.442781 g / cm^3
# Si number density = 24.483532 Si / 1000 Ang^3
#
#
#
# Elastic Constant Matrix: (Units=GPa)
#
#
# Indices 1 2 3 4 5 6 
#
# 1 69.2795 -0.9669 24.4514 2.3660 -7.4594 1.8888
# 2 -0.9669 50.0868 16.9816 31.5882 2.0621 20.6265
# 3 24.4514 16.9816 140.6996 33.1054 -17.0026 -5.2527
# 4 2.3660 31.5882 33.1054 47.5076 4.5487 0.2064
# 5 -7.4594 2.0621 -17.0026 4.5487 40.7400 -6.0724
# 6 1.8888 20.6265 -5.2527 0.2064 -6.0724 19.1227
#
#
#
# Elastic Compliance Matrix: (Units=1/GPa)
#
#
# Indices 1 2 3 4 5 6 
#
# 1 0.016355 0.011276 -0.003472 -0.005771 -0.000596 -0.014859
# 2 0.011276 0.169776 -0.008535 -0.104031 -0.027417 -0.194168
# 3 -0.003472 -0.008535 0.010621 -0.002254 0.006658 0.014605
# 4 -0.005771 -0.104031 -0.002254 0.090604 0.010208 0.114426
# 5 -0.000596 -0.027417 0.006658 0.010208 0.033733 0.042062
# 6 -0.014859 -0.194168 0.014605 0.114426 0.042062 0.279333
#
#
# Mechanical properties :
#
#
# Convention : Reuss Voigt Hill
#
# Bulk Modulus (GPa) = 5.12059 37.88868 21.50464
# Shear Modulus (GPa) = 7.49648 36.11404 21.80526
#
# Velocity S-wave (km/s) = 1.75171 3.84478 2.98755
# Velocity P-wave (km/s) = 2.48743 5.93452 4.55005
#
# Compressibility (1/GPa) = 0.19529003
#
# Stress axis : x y z
#
# Youngs Moduli (GPa) = 61.14283 5.89012 94.15304
#
# Poissons Ratio (x) = -0.06642 0.32690
# Poissons Ratio (y) = -0.68946 0.80361
# Poissons Ratio (z) = 0.21229 0.05027
#
# Static dielectric constant tensor:
#      x y z
#    x 2.028240 -0.036140 0.041940 
#    y -0.036140 1.893690 -0.052640 
#    z 0.041940 -0.052640 2.143640 
# 
# From -- ./inp_files/348678.got.cif
#   From: 2010.05.17/outbox.cif.g08.bks.cpg/sg2_175_cif.got.tgz:348678.got - 2010.06.03 11:33:40.
