data_PCOD9053813
_publ_section_title
;
Structure prediction by ZEFSAII (Michael W. Deem and Ramdas Pophale) SiO2 
 PCOD9053813
Probable space group: P -1
;
_chemical_formula_sum "Si O2"
_cell_formula_units_Z 16
_cell_length_a 9.703740
_cell_length_b 26.089583
_cell_length_c 20.259061
_cell_angle_alpha 20.040986
_cell_angle_beta 151.881699
_cell_angle_gamma 140.975154
_cell_volume 784.781143
_symmetry_space_group_name_H-M "P -1"
_symmetry_group_IT_number 2
_symmetry_cell_setting 'triclinic'
loop_
_space_group_symop_operation_xyz
x,y,z
-x,-y,-z
loop_
_atom_site_type_symbol
_atom_site_label
_atom_site_fract_x
_atom_site_fract_y
_atom_site_fract_z
Si Si1 0.577425 0.782552 0.113390
Si Si2 0.337286 0.919362 0.709078
Si Si3 0.186280 0.561975 0.702430
Si Si4 0.679142 0.090624 0.793673
Si Si5 0.606344 0.762227 0.638322
Si Si6 0.815425 0.434810 0.806108
Si Si7 0.627333 0.630031 0.108842
Si Si8 0.282368 0.645345 0.411798
O O1 0.340023 0.688180 0.142266
O O2 0.914344 0.670776 0.409516
O O3 0.544343 0.818552 0.977776
O O4 0.537633 0.953446 0.920534
O O5 0.450845 0.066097 0.561151
O O6 0.362690 0.792788 0.816657
O O7 0.000000 0.000000 0.500000
O O8 0.380264 0.670150 0.679600
O O9 0.394235 0.430122 0.900877
O O10 0.020121 0.491368 0.772509
O O11 0.465013 0.201120 0.513493
O O12 0.725069 0.195467 0.746464
O O13 0.000000 0.000000 0.000000
O O14 0.953947 0.658083 0.926827
O O15 0.546326 0.580247 0.547171
O O16 0.638552 0.492017 0.332719
O O17 0.955278 0.659699 0.222957
#
# Coordination Sequence:
#
# PCOD9053813 Si02
#       8
#     2   2   2   2   2   2   2   2
#     4  11  21  40  65  91 123 166 210 257 314 368
#     4  11  21  40  67  95 127 161 211 269 314 362
#     4  12  24  43  65  92 128 174 211 254 312 387
#     4  11  21  38  67  94 123 157 214 266 307 367
#     4  11  23  41  64  92 129 169 206 261 324 364
#     4  12  25  43  63  92 135 167 208 259 320 377
#     4  11  20  37  66  94 123 162 218 257 310 371
#     4  11  21  39  63  98 122 162 214 265 308 372
#
# _framework density 20.38785
#
# number of rings (size 3 to 8) (size 9 to 14) (size 15 to 20)
#    0.000    0.750    6.250    3.000    0.000    0.500 
#    4.500    2.500    0.000    0.000    0.000    0.000 
#    0.000    0.000    0.000    0.000    0.000    0.000 
#
# Total GULP energy -89432.013657 kJ/mol
# GULP energy per Si atom -5589.500854 kJ/mol
# Density = 2.034145 g / cm^3
# Si number density = 20.387850 Si / 1000 Ang^3
#
#
#
# Elastic Constant Matrix: (Units=GPa)
#
#
# Indices 1 2 3 4 5 6 
#
# 1 70.0161 32.9005 28.3574 -25.7893 17.3767 10.5648
# 2 32.9005 135.5586 37.6616 -38.2272 10.7527 21.9900
# 3 28.3574 37.6616 85.3272 -8.3374 12.6658 1.0996
# 4 -25.7893 -38.2272 -8.3374 48.3545 -3.3665 -3.4520
# 5 17.3767 10.7527 12.6658 -3.3665 13.7078 2.8177
# 6 10.5648 21.9900 1.0996 -3.4520 2.8177 25.8915
#
#
#
# Elastic Compliance Matrix: (Units=1/GPa)
#
#
# Indices 1 2 3 4 5 6 
#
# 1 0.028398 0.001592 -0.004577 0.013087 -0.028173 -0.007934
# 2 0.001592 0.012688 -0.004591 0.009157 -0.003500 -0.009629
# 3 -0.004577 -0.004591 0.015943 -0.003442 -0.007287 0.005424
# 4 0.013087 0.009157 -0.003442 0.033016 -0.010968 -0.007375
# 5 -0.028173 -0.003500 -0.007287 -0.010968 0.115292 0.000769
# 6 -0.007934 -0.009629 0.005424 -0.007375 0.000769 0.048741
#
#
# Mechanical properties :
#
#
# Convention : Reuss Voigt Hill
#
# Bulk Modulus (GPa) = 23.88031 54.30454 39.09242
# Shear Modulus (GPa) = 17.65616 30.38959 24.02287
#
# Velocity S-wave (km/s) = 2.94600 3.86498 3.43635
# Velocity P-wave (km/s) = 4.82808 6.82723 5.91276
#
# Compressibility (1/GPa) = 0.04187551
#
# Stress axis : x y z
#
# Youngs Moduli (GPa) = 35.21399 78.81614 62.72510
#
# Poissons Ratio (x) = -0.12545 0.28711
# Poissons Ratio (y) = -0.05605 0.28795
# Poissons Ratio (z) = 0.16118 0.36182
#
# Static dielectric constant tensor:
#      x y z
#    x 1.720540 0.013540 0.004560 
#    y 0.013540 1.778020 -0.008960 
#    z 0.004560 -0.008960 1.746070 
# 
# From -- ./inp_files/592083.got.cif
#   From: 2010.05.17/outbox.cif.g08.bks.cpg/sg2_297_cif.got.tgz:592083.got - 2010.06.03 11:33:40.
