data_PCOD9053171
_publ_section_title
;
Structure prediction by ZEFSAII (Michael W. Deem and Ramdas Pophale) SiO2 
 PCOD9053171
Probable space group: P -1
;
_chemical_formula_sum "Si O2"
_cell_formula_units_Z 16
_cell_length_a 11.992325
_cell_length_b 11.918110
_cell_length_c 12.158463
_cell_angle_alpha 39.732345
_cell_angle_beta 129.999500
_cell_angle_gamma 122.083650
_cell_volume 848.501437
_symmetry_space_group_name_H-M "P -1"
_symmetry_group_IT_number 2
_symmetry_cell_setting 'triclinic'
loop_
_space_group_symop_operation_xyz
x,y,z
-x,-y,-z
loop_
_atom_site_type_symbol
_atom_site_label
_atom_site_fract_x
_atom_site_fract_y
_atom_site_fract_z
Si Si1 0.349638 0.020838 0.168801
Si Si2 0.113014 0.414212 0.263253
Si Si3 0.658742 0.022181 0.426284
Si Si4 0.839806 0.955231 0.378507
Si Si5 0.197826 0.474594 0.027486
Si Si6 0.545570 0.358421 0.048649
Si Si7 0.174204 0.833526 0.014496
Si Si8 0.147655 0.123421 0.150219
O O1 0.414079 0.220148 0.031931
O O2 0.212200 0.040479 0.145733
O O3 0.488288 0.949053 0.375658
O O4 0.304018 0.907223 0.119902
O O5 0.166845 0.255776 0.489034
O O6 0.165081 0.384799 0.192754
O O7 0.160981 0.619805 0.162707
O O8 0.936385 0.403164 0.161983
O O9 0.721306 0.987755 0.371683
O O10 0.761942 0.952089 0.635447
O O11 0.650807 0.231240 0.274951
O O12 0.816722 0.077008 0.167115
O O13 0.000000 0.000000 0.500000
O O14 0.185108 0.332912 0.028142
O O15 0.358953 0.564450 0.050433
O O16 0.500000 0.500000 0.000000
O O17 0.024090 0.897377 0.922246
#
# Coordination Sequence:
#
# PCOD9053171 Si02
#       8
#     2   2   2   2   2   2   2   2
#     4  10  24  39  58  89 129 163 196 248 321 363
#     4  10  21  35  61  91 122 156 202 254 305 355
#     4  10  21  36  61  91 110 156 207 252 295 355
#     4  12  20  39  65  93 122 157 214 256 298 358
#     4  10  17  35  59  91 113 150 207 258 296 348
#     4  10  20  35  60  85 118 157 202 250 301 360
#     4  11  24  40  62  91 131 163 197 251 316 371
#     4  11  19  39  66  85 118 160 205 256 295 360
#
# _framework density 18.856773
#
# number of rings (size 3 to 8) (size 9 to 14) (size 15 to 20)
#    0.750    0.750    3.750    3.750    0.000    0.500 
#    0.000    3.125    0.000    3.000    0.000    0.000 
#    0.000    0.000    0.000    0.000    0.000    0.000 
#
# Total GULP energy -89138.510111 kJ/mol
# GULP energy per Si atom -5571.156882 kJ/mol
# Density = 1.881385 g / cm^3
# Si number density = 18.856773 Si / 1000 Ang^3
#
#
#
# Elastic Constant Matrix: (Units=GPa)
#
#
# Indices 1 2 3 4 5 6 
#
# 1 79.6915 25.6271 29.6824 -11.5416 4.2643 -18.1508
# 2 25.6271 79.7062 17.5390 -8.2285 -4.5390 0.5606
# 3 29.6824 17.5390 45.7424 -23.7187 -3.7980 9.9494
# 4 -11.5416 -8.2285 -23.7187 22.6604 -6.2690 7.1761
# 5 4.2643 -4.5390 -3.7980 -6.2690 18.3967 4.9350
# 6 -18.1508 0.5606 9.9494 7.1761 4.9350 11.3095
#
#
#
# Elastic Compliance Matrix: (Units=1/GPa)
#
#
# Indices 1 2 3 4 5 6 
#
# 1 0.008764 -0.002133 0.010543 0.022143 0.010895 -0.013909
# 2 -0.002133 0.014321 -0.006215 -0.003027 0.000952 0.002839
# 3 0.010543 -0.006215 -0.002384 -0.017956 -0.021325 0.040024
# 4 0.022143 -0.003027 -0.017956 0.014701 -0.017992 0.050007
# 5 0.010895 0.000952 -0.021325 -0.017992 0.032574 0.033401
# 6 -0.013909 0.002839 0.040024 0.050007 0.033401 -0.015557
#
#
# Mechanical properties :
#
#
# Convention : Reuss Voigt Hill
#
# Bulk Modulus (GPa) = 39.85551 38.98192 39.41872
# Shear Modulus (GPa) = 88.66354 19.29276 53.97815
#
# Velocity S-wave (km/s) = 6.86451 3.20210 5.35607
# Velocity P-wave (km/s) = 9.16573 5.86419 7.69413
#
# Compressibility (1/GPa) = 0.02509063
#
# Stress axis : x y z
#
# Youngs Moduli (GPa) = 114.10739 69.82606 -419.53230
#
# Poissons Ratio (x) = 0.14897 4.42304
# Poissons Ratio (y) = 0.24343 -2.60731
# Poissons Ratio (z) = -1.20301 0.43395
#
# Static dielectric constant tensor:
#      x y z
#    x 1.675270 0.012410 0.002290 
#    y 0.012410 1.674130 -0.056670 
#    z 0.002290 -0.056670 1.695330 
# 
# From -- ./inp_files/391000.got.cif
#   From: 2010.05.17/outbox.cif.g08.bks.cpg/sg2_196_cif.got.tgz:391000.got - 2010.06.03 11:33:40.
