data_PCOD9053282
_publ_section_title
;
Structure prediction by ZEFSAII (Michael W. Deem and Ramdas Pophale) SiO2 
 PCOD9053282
Probable space group: P -1
;
_chemical_formula_sum "Si O2"
_cell_formula_units_Z 12
_cell_length_a 10.503346
_cell_length_b 6.076881
_cell_length_c 9.314017
_cell_angle_alpha 90.322506
_cell_angle_beta 125.937486
_cell_angle_gamma 81.254106
_cell_volume 473.133866
_symmetry_space_group_name_H-M "P -1"
_symmetry_group_IT_number 2
_symmetry_cell_setting 'triclinic'
loop_
_space_group_symop_operation_xyz
x,y,z
-x,-y,-z
loop_
_atom_site_type_symbol
_atom_site_label
_atom_site_fract_x
_atom_site_fract_y
_atom_site_fract_z
Si Si1 0.540133 0.242912 0.089003
Si Si2 0.666752 0.562567 0.789739
Si Si3 0.756546 0.759604 0.587585
Si Si4 0.048438 0.400329 0.817782
Si Si5 0.168773 0.064152 0.654046
Si Si6 0.167378 0.872768 0.175367
O O1 0.464719 0.292478 0.198044
O O2 0.729735 0.166228 0.221195
O O3 0.500000 0.500000 0.000000
O O4 0.500000 0.000000 0.000000
O O5 0.653681 0.611615 0.610779
O O6 0.706779 0.294149 0.838033
O O7 0.836103 0.610393 0.968454
O O8 0.945942 0.642514 0.716675
O O9 0.735300 0.844806 0.412945
O O10 0.737185 0.967698 0.680711
O O11 0.905611 0.269447 0.754620
O O12 0.145949 0.265580 0.754096
O O13 0.000000 0.000000 0.500000
O O14 0.000000 0.000000 0.000000
#
# Coordination Sequence:
#
# PCOD9053282 Si02
#       6
#     2   2   2   2   2   2
#     4  12  31  53  79 113 153 208 256 316 386 461
#     4  11  24  42  72 105 145 199 253 308 373 465
#     4  11  23  40  70 108 148 189 248 317 383 437
#     4  11  21  39  70 107 143 195 253 305 371 455
#     4  12  27  46  76 113 153 199 252 324 383 452
#     4  11  19  35  67 106 142 190 246 304 370 448
#
# _framework density 25.362803
#
# number of rings (size 3 to 8) (size 9 to 14) (size 15 to 20)
#    0.000    0.667    6.667    1.500    7.000    2.000 
#    0.000    0.833    0.000    0.000    0.000    0.000 
#    0.000    0.000    0.000    0.000    0.000    0.000 
#
# Total GULP energy -66904.177015 kJ/mol
# GULP energy per Si atom -5575.348085 kJ/mol
# Density = 2.530508 g / cm^3
# Si number density = 25.362803 Si / 1000 Ang^3
#
#
#
# Elastic Constant Matrix: (Units=GPa)
#
#
# Indices 1 2 3 4 5 6 
#
# 1 72.6613 51.0143 23.3971 -5.4715 -8.9963 -19.4742
# 2 51.0143 160.6001 43.5866 -4.2580 -8.9061 -40.5930
# 3 23.3971 43.5866 70.9794 -17.0977 -16.2770 -11.4231
# 4 -5.4715 -4.2580 -17.0977 23.4124 -5.8636 -5.5531
# 5 -8.9963 -8.9061 -16.2770 -5.8636 48.3645 3.1489
# 6 -19.4742 -40.5930 -11.4231 -5.5531 3.1489 51.4893
#
#
#
# Elastic Compliance Matrix: (Units=1/GPa)
#
#
# Indices 1 2 3 4 5 6 
#
# 1 0.018935 -0.004490 -0.001334 0.004121 0.002510 0.003617
# 2 -0.004490 0.010072 -0.004471 -0.001513 -0.001004 0.005149
# 3 -0.001334 -0.004471 0.024780 0.020076 0.009503 0.003052
# 4 0.004121 -0.001513 0.020076 0.064227 0.014323 0.010871
# 5 0.002510 -0.001004 0.009503 0.014323 0.025748 0.002237
# 6 0.003617 0.005149 0.003052 0.010871 0.002237 0.026561
#
#
# Mechanical properties :
#
#
# Convention : Reuss Voigt Hill
#
# Bulk Modulus (GPa) = 30.12287 60.02628 45.07458
# Shear Modulus (GPa) = 24.75522 37.06944 30.91233
#
# Velocity S-wave (km/s) = 3.12756 3.82719 3.49493
# Velocity P-wave (km/s) = 4.99447 6.57634 5.83922
#
# Compressibility (1/GPa) = 0.03319736
#
# Stress axis : x y z
#
# Youngs Moduli (GPa) = 52.81286 99.28701 40.35492
#
# Poissons Ratio (x) = 0.44579 0.05383
# Poissons Ratio (y) = 0.23713 0.18042
# Poissons Ratio (z) = 0.07045 0.44389
#
# Static dielectric constant tensor:
#      x y z
#    x 2.050460 0.081110 -0.037630 
#    y 0.081110 2.288720 -0.175260 
#    z -0.037630 -0.175260 2.157630 
# 
# From -- ./inp_files/32564.got.cif
#   From: 2010.05.17/outbox.cif.g08.bks.cpg/sg2_17_cif.got.tgz:32564.got - 2010.06.03 11:33:40.
