data_PCOD9053566
_publ_section_title
;
Structure prediction by ZEFSAII (Michael W. Deem and Ramdas Pophale) SiO2 
 PCOD9053566
Probable space group: P -1
;
_chemical_formula_sum "Si O2"
_cell_formula_units_Z 16
_cell_length_a 6.927137
_cell_length_b 11.158672
_cell_length_c 15.008443
_cell_angle_alpha 111.419078
_cell_angle_beta 140.721331
_cell_angle_gamma 84.165915
_cell_volume 650.681004
_symmetry_space_group_name_H-M "P -1"
_symmetry_group_IT_number 2
_symmetry_cell_setting 'triclinic'
loop_
_space_group_symop_operation_xyz
x,y,z
-x,-y,-z
loop_
_atom_site_type_symbol
_atom_site_label
_atom_site_fract_x
_atom_site_fract_y
_atom_site_fract_z
Si Si1 0.147502 0.146600 0.805234
Si Si2 0.647580 0.078989 0.278043
Si Si3 0.441455 0.457888 0.822862
Si Si4 0.190245 0.609029 0.923644
Si Si5 0.178056 0.000038 0.939763
Si Si6 0.149558 0.772178 0.442345
Si Si7 0.828524 0.376241 0.342923
Si Si8 0.251492 0.303400 0.323047
O O1 0.080404 0.112714 0.876832
O O2 0.903784 0.197383 0.671515
O O3 0.149115 0.008482 0.717807
O O4 0.504880 0.255816 0.951191
O O5 0.708234 0.094713 0.409307
O O6 0.725446 0.233588 0.315914
O O7 0.303745 0.016710 0.090745
O O8 0.251257 0.496701 0.849578
O O9 0.449847 0.578493 0.792564
O O10 0.199148 0.313946 0.667482
O O11 0.756253 0.436312 0.970701
O O12 0.857609 0.632522 0.785817
O O13 0.921708 0.856306 0.793130
O O14 0.500000 0.000000 0.000000
O O15 0.388856 0.683442 0.518930
O O16 0.000000 0.500000 0.500000
O O17 0.077896 0.358693 0.353745
#
# Coordination Sequence:
#
# PCOD9053566 Si02
#       8
#     2   2   2   2   2   2   2   2
#     4  10  19  38  62  85 112 159 198 236 279 352
#     4  11  20  38  60  87 113 157 199 238 276 349
#     4   9  19  35  56  86 109 152 193 237 274 346
#     4   9  17  34  60  82 108 148 203 225 275 350
#     4  10  17  35  61  82 110 156 198 226 276 353
#     4  11  24  35  57  93 126 143 185 253 305 321
#     4  11  20  36  61  83 111 152 200 231 280 351
#     4  11  21  37  61  88 114 154 188 241 297 347
#
# _framework density 24.589623
#
# number of rings (size 3 to 8) (size 9 to 14) (size 15 to 20)
#    0.000    1.750    6.250    1.125    0.000    3.000 
#    0.000    0.000    2.750    0.750    0.000    0.000 
#    0.000    0.000    0.000    0.000    0.000    0.000 
#
# Total GULP energy -89325.512390 kJ/mol
# GULP energy per Si atom -5582.844524 kJ/mol
# Density = 2.453366 g / cm^3
# Si number density = 24.589623 Si / 1000 Ang^3
#
#
#
# Elastic Constant Matrix: (Units=GPa)
#
#
# Indices 1 2 3 4 5 6 
#
# 1 29.0650 0.0011 16.2335 -6.6659 -4.2955 -0.2740
# 2 0.0011 118.3460 50.3700 -21.3616 -3.9288 6.9357
# 3 16.2335 50.3700 137.0878 -24.9478 -19.2193 -3.2843
# 4 -6.6659 -21.3616 -24.9478 74.6348 -2.6603 -6.1312
# 5 -4.2955 -3.9288 -19.2193 -2.6603 24.1341 -3.1602
# 6 -0.2740 6.9357 -3.2843 -6.1312 -3.1602 18.0473
#
#
#
# Elastic Compliance Matrix: (Units=1/GPa)
#
#
# Indices 1 2 3 4 5 6 
#
# 1 0.038077 0.002449 -0.004294 0.002859 0.004144 0.000552
# 2 0.002449 0.010773 -0.004351 0.001398 -0.001740 -0.004725
# 3 -0.004294 -0.004351 0.011305 0.002968 0.008668 0.006190
# 4 0.002859 0.001398 0.002968 0.015774 0.005676 0.006399
# 5 0.004144 -0.001740 0.008668 0.005676 0.051146 0.013193
# 6 0.000552 -0.004725 0.006190 0.006399 0.013193 0.062845
#
#
# Mechanical properties :
#
#
# Convention : Reuss Voigt Hill
#
# Bulk Modulus (GPa) = 20.93694 46.41199 33.67447
# Shear Modulus (GPa) = 22.91113 37.88952 30.40032
#
# Velocity S-wave (km/s) = 3.05575 3.92966 3.51993
# Velocity P-wave (km/s) = 4.58074 6.28532 5.49947
#
# Compressibility (1/GPa) = 0.04776247
#
# Stress axis : x y z
#
# Youngs Moduli (GPa) = 26.26237 92.82407 88.45277
#
# Poissons Ratio (x) = -0.22729 0.37983
# Poissons Ratio (y) = -0.06431 0.38487
# Poissons Ratio (z) = 0.11278 0.40389
#
# Static dielectric constant tensor:
#      x y z
#    x 2.008250 0.021450 -0.024210 
#    y 0.021450 1.978470 -0.036510 
#    z -0.024210 -0.036510 2.022730 
# 
# From -- ./inp_files/237905.got.cif
#   From: 2010.05.17/outbox.cif.g08.bks.cpg/sg2_119_cif.got.tgz:237905.got - 2010.06.03 11:33:40.
