data_PCOD9053431
_publ_section_title
;
Structure prediction by ZEFSAII (Michael W. Deem and Ramdas Pophale) SiO2 
 PCOD9053431
Probable space group: P -1
;
_chemical_formula_sum "Si O2"
_cell_formula_units_Z 12
_cell_length_a 11.659905
_cell_length_b 8.096978
_cell_length_c 9.146179
_cell_angle_alpha 126.593382
_cell_angle_beta 60.424332
_cell_angle_gamma 126.617023
_cell_volume 543.549538
_symmetry_space_group_name_H-M "P -1"
_symmetry_group_IT_number 2
_symmetry_cell_setting 'triclinic'
loop_
_space_group_symop_operation_xyz
x,y,z
-x,-y,-z
loop_
_atom_site_type_symbol
_atom_site_label
_atom_site_fract_x
_atom_site_fract_y
_atom_site_fract_z
Si Si1 0.445649 0.509483 0.875483
Si Si2 0.073141 0.843666 0.743552
Si Si3 0.050410 0.946069 0.285313
Si Si4 0.372012 0.035273 0.519461
Si Si5 0.132281 0.343194 0.994066
Si Si6 0.623624 0.939798 0.818539
O O1 0.391510 0.277676 0.695979
O O2 0.294771 0.538920 0.003140
O O3 0.571223 0.690922 0.793172
O O4 0.500000 0.500000 0.000000
O O5 0.956400 0.855486 0.708431
O O6 0.212451 0.847846 0.573396
O O7 0.136152 0.100482 0.911045
O O8 0.989775 0.654133 0.816835
O O9 0.204778 0.935964 0.185522
O O10 0.000000 0.000000 0.500000
O O11 0.931776 0.717858 0.160869
O O12 0.387176 0.050968 0.344327
O O13 0.500000 0.000000 0.500000
O O14 0.500000 0.000000 0.000000
#
# Coordination Sequence:
#
# PCOD9053431 Si02
#       6
#     2   2   2   2   2   2
#     4  11  22  40  64  94 129 165 210 258 321 377
#     4   8  16  32  58  81 117 159 206 235 317 359
#     4  10  17  35  60  88 118 165 204 254 311 376
#     4  11  23  39  63  93 129 166 211 265 315 375
#     4   8  17  32  58  83 114 161 200 246 306 372
#     4  12  25  39  66  97 128 164 214 263 319 375
#
# _framework density 22.077103999999999
#
# number of rings (size 3 to 8) (size 9 to 14) (size 15 to 20)
#    1.000    1.000    1.667    2.500    4.667    0.000 
#    0.000    0.833    3.667    3.000    0.000    0.000 
#    0.000    0.000    0.000    0.000    0.000    0.000 
#
# Total GULP energy -66839.494918 kJ/mol
# GULP energy per Si atom -5569.957910 kJ/mol
# Density = 2.202686 g / cm^3
# Si number density = 22.077104 Si / 1000 Ang^3
#
#
#
# Elastic Constant Matrix: (Units=GPa)
#
#
# Indices 1 2 3 4 5 6 
#
# 1 164.0825 20.4901 69.9958 -18.6665 4.2398 30.5092
# 2 20.4901 27.3345 24.1927 -14.5755 4.2955 17.2545
# 3 69.9958 24.1927 167.0442 -33.5995 16.9733 16.3444
# 4 -18.6665 -14.5755 -33.5995 29.1711 -1.2948 -4.0788
# 5 4.2398 4.2955 16.9733 -1.2948 46.5574 -1.7832
# 6 30.5092 17.2545 16.3444 -4.0788 -1.7832 26.6118
#
#
#
# Elastic Compliance Matrix: (Units=1/GPa)
#
#
# Indices 1 2 3 4 5 6 
#
# 1 0.009177 0.004644 -0.002621 0.003548 -0.000647 -0.011422
# 2 0.004644 0.096211 -0.000452 0.041427 -0.010349 -0.061771
# 3 -0.002621 -0.000452 0.009277 0.008472 -0.002916 -0.001297
# 4 0.003548 0.041427 0.008472 0.062955 -0.006514 -0.026919
# 5 -0.000647 -0.010349 -0.002916 -0.006514 0.023751 0.009836
# 6 -0.011422 -0.061771 -0.001297 -0.026919 0.009836 0.088053
#
#
# Mechanical properties :
#
#
# Convention : Reuss Voigt Hill
#
# Bulk Modulus (GPa) = 8.48840 65.31315 36.90077
# Shear Modulus (GPa) = 15.35860 36.72025 26.03942
#
# Velocity S-wave (km/s) = 2.64044 4.08275 3.43808
# Velocity P-wave (km/s) = 3.62617 7.20232 5.70187
#
# Compressibility (1/GPa) = 0.11780788
#
# Stress axis : x y z
#
# Youngs Moduli (GPa) = 108.97198 10.39384 107.78898
#
# Poissons Ratio (x) = -0.04827 0.28250
# Poissons Ratio (y) = -0.50608 0.04870
# Poissons Ratio (z) = 0.28560 0.00470
#
# Static dielectric constant tensor:
#      x y z
#    x 1.837180 0.029220 -0.072030 
#    y 0.029220 1.877230 -0.081930 
#    z -0.072030 -0.081930 1.873520 
# 
# From -- ./inp_files/235527.got.cif
#   From: 2010.05.17/outbox.cif.g08.bks.cpg/sg2_118_cif.got.tgz:235527.got - 2010.06.03 11:33:40.
