data_PCOD9053826
_publ_section_title
;
Structure prediction by ZEFSAII (Michael W. Deem and Ramdas Pophale) SiO2 
 PCOD9053826
Probable space group: P -1
;
_chemical_formula_sum "Si O2"
_cell_formula_units_Z 16
_cell_length_a 12.876693
_cell_length_b 5.368662
_cell_length_c 12.128951
_cell_angle_alpha 86.885282
_cell_angle_beta 119.426433
_cell_angle_gamma 101.978065
_cell_volume 713.288977
_symmetry_space_group_name_H-M "P -1"
_symmetry_group_IT_number 2
_symmetry_cell_setting 'triclinic'
loop_
_space_group_symop_operation_xyz
x,y,z
-x,-y,-z
loop_
_atom_site_type_symbol
_atom_site_label
_atom_site_fract_x
_atom_site_fract_y
_atom_site_fract_z
Si Si1 0.606129 0.148611 0.470468
Si Si2 0.180855 0.808615 0.257296
Si Si3 0.252645 0.633812 0.054950
Si Si4 0.033243 0.575182 0.802399
Si Si5 0.110238 0.202927 0.102973
Si Si6 0.491250 0.256869 0.921345
Si Si7 0.052747 0.277288 0.472928
Si Si8 0.659125 0.676094 0.365278
O O1 0.721941 0.256386 0.606922
O O2 0.588235 0.398401 0.384546
O O3 0.500000 0.000000 0.500000
O O4 0.636279 0.920895 0.416167
O O5 0.218003 0.747621 0.151105
O O6 0.043797 0.715669 0.239422
O O7 0.190049 0.108248 0.240680
O O8 0.200562 0.333487 0.053914
O O9 0.392589 0.703432 0.100319
O O10 0.172812 0.674198 0.905810
O O11 0.963023 0.620532 0.875513
O O12 0.994359 0.717902 0.676051
O O13 0.000000 0.000000 0.000000
O O14 0.379413 0.266690 0.780764
O O15 0.500000 0.500000 0.000000
O O16 0.500000 0.000000 0.000000
O O17 0.198550 0.332663 0.555880
O O18 0.000000 0.500000 0.500000
O O19 0.000000 0.000000 0.500000
#
# Coordination Sequence:
#
# PCOD9053826 Si02
#       8
#     2   2   2   2   2   2   2   2
#     4  12  26  44  78 108 149 196 231 296 372 444
#     4  11  22  41  67 107 145 177 230 291 373 429
#     4  11  25  41  69 104 141 186 237 294 359 431
#     4  11  23  42  66 107 140 181 234 296 367 422
#     4  11  20  37  68 104 142 176 220 297 362 434
#     4  12  31  52  76 102 142 198 252 303 350 418
#     4  12  29  47  76 104 142 195 246 299 361 427
#     4  12  27  53  72 108 151 185 252 303 354 440
#
# _framework density 22.431301999999999
#
# number of rings (size 3 to 8) (size 9 to 14) (size 15 to 20)
#    0.000    0.500    3.750    4.125   10.500    0.000 
#    0.000    0.000    0.000    0.000    0.000    0.000 
#    0.000    0.000    0.000    0.000    0.000    0.000 
#
# Total GULP energy -89167.487427 kJ/mol
# GULP energy per Si atom -5572.967964 kJ/mol
# Density = 2.238025 g / cm^3
# Si number density = 22.431302 Si / 1000 Ang^3
#
#
#
# Elastic Constant Matrix: (Units=GPa)
#
#
# Indices 1 2 3 4 5 6 
#
# 1 53.5968 31.5431 5.1031 2.9859 -8.0923 -5.5972
# 2 31.5431 127.4519 37.8637 -21.8637 -18.9492 -0.7816
# 3 5.1031 37.8637 160.3962 -22.5420 -4.6281 -7.9857
# 4 2.9859 -21.8637 -22.5420 35.5756 -0.5582 -8.1895
# 5 -8.0923 -18.9492 -4.6281 -0.5582 28.4138 -0.3284
# 6 -5.5972 -0.7816 -7.9857 -8.1895 -0.3284 35.1773
#
#
#
# Elastic Compliance Matrix: (Units=1/GPa)
#
#
# Indices 1 2 3 4 5 6 
#
# 1 0.023260 -0.006332 0.000228 -0.005099 0.002367 0.002447
# 2 -0.006332 0.011988 -0.001396 0.007270 0.006115 0.000691
# 3 0.000228 -0.001396 0.007320 0.004388 0.000444 0.002693
# 4 -0.005099 0.007270 0.004388 0.037990 0.004964 0.009237
# 5 0.002367 0.006115 0.000444 0.004964 0.040141 0.002144
# 6 0.002447 0.000691 0.002693 0.009237 0.002144 0.031614
#
#
# Mechanical properties :
#
#
# Convention : Reuss Voigt Hill
#
# Bulk Modulus (GPa) = 36.27266 54.49610 45.38438
# Shear Modulus (GPa) = 28.32823 37.62901 32.97862
#
# Velocity S-wave (km/s) = 3.55757 4.10020 3.83849
# Velocity P-wave (km/s) = 5.75158 6.83834 6.31837
#
# Compressibility (1/GPa) = 0.02756897
#
# Stress axis : x y z
#
# Youngs Moduli (GPa) = 42.99290 83.41332 136.60369
#
# Poissons Ratio (x) = 0.52818 -0.03119
# Poissons Ratio (y) = 0.27224 0.19070
# Poissons Ratio (z) = -0.00982 0.11645
#
# Static dielectric constant tensor:
#      x y z
#    x 1.848630 -0.017740 -0.040020 
#    y -0.017740 1.851400 -0.131230 
#    z -0.040020 -0.131230 1.823510 
# 
# From -- ./inp_files/410359.got.cif
#   From: 2010.05.17/outbox.cif.g08.bks.cpg/sg2_206_cif.got.tgz:410359.got - 2010.06.03 11:33:40.
