data_PCOD9053601
_publ_section_title
;
Structure prediction by ZEFSAII (Michael W. Deem and Ramdas Pophale) SiO2 
 PCOD9053601
Probable space group: P -1
;
_chemical_formula_sum "Si O2"
_cell_formula_units_Z 12
_cell_length_a 12.761139
_cell_length_b 7.909978
_cell_length_c 15.447028
_cell_angle_alpha 138.984589
_cell_angle_beta 148.536465
_cell_angle_gamma 54.747601
_cell_volume 523.961710
_symmetry_space_group_name_H-M "P -1"
_symmetry_group_IT_number 2
_symmetry_cell_setting 'triclinic'
loop_
_space_group_symop_operation_xyz
x,y,z
-x,-y,-z
loop_
_atom_site_type_symbol
_atom_site_label
_atom_site_fract_x
_atom_site_fract_y
_atom_site_fract_z
Si Si1 0.451497 0.675620 0.910308
Si Si2 0.889632 0.714599 0.779507
Si Si3 0.716182 0.783410 0.502910
Si Si4 0.172303 0.383594 0.753880
Si Si5 0.872037 0.340450 0.771214
Si Si6 0.913294 0.084428 0.307079
O O1 0.444911 0.441591 0.744807
O O2 0.321306 0.549663 0.852703
O O3 0.313554 0.875169 0.855381
O O4 0.678835 0.761138 0.140434
O O5 0.738543 0.740118 0.603443
O O6 0.062351 0.573646 0.805531
O O7 0.795727 0.534929 0.725035
O O8 0.000000 0.000000 0.000000
O O9 0.932001 0.758177 0.597662
O O10 0.708725 0.086997 0.592617
O O11 0.006128 0.196913 0.506573
O O12 0.035447 0.199546 0.782721
O O13 0.000000 0.500000 0.000000
#
# Coordination Sequence:
#
# PCOD9053601 Si02
#       6
#     2   2   2   2   2   2
#     4  10  17  35  61  85 119 145 184 244 282 338
#     4  12  20  35  61  82 113 157 191 229 288 341
#     4   9  18  36  57  82 114 149 186 232 289 327
#     4  10  19  32  60  91 108 153 193 223 294 340
#     4  10  21  34  58  86 111 152 196 233 281 343
#     4   9  17  36  57  83 117 147 186 236 281 333
#
# _framework density 22.902436000000002
#
# number of rings (size 3 to 8) (size 9 to 14) (size 15 to 20)
#    1.000    1.000    5.000    1.000    0.000    0.667 
#    0.000    1.667    0.000    2.000    0.000    0.000 
#    0.000    0.000    0.000    0.000    0.000    0.000 
#
# Total GULP energy -66991.468638 kJ/mol
# GULP energy per Si atom -5582.622386 kJ/mol
# Density = 2.285031 g / cm^3
# Si number density = 22.902436 Si / 1000 Ang^3
#
#
#
# Elastic Constant Matrix: (Units=GPa)
#
#
# Indices 1 2 3 4 5 6 
#
# 1 48.7756 34.9595 44.2934 -9.3944 -11.1769 12.7042
# 2 34.9595 141.1344 59.1498 -12.4852 -17.9941 20.9172
# 3 44.2934 59.1498 108.2962 -7.4308 -13.8022 -14.4404
# 4 -9.3944 -12.4852 -7.4308 43.1972 -5.4238 -15.4541
# 5 -11.1769 -17.9941 -13.8022 -5.4238 40.6161 -6.7488
# 6 12.7042 20.9172 -14.4404 -15.4541 -6.7488 45.6587
#
#
#
# Elastic Compliance Matrix: (Units=1/GPa)
#
#
# Indices 1 2 3 4 5 6 
#
# 1 0.044227 0.000862 -0.020822 -0.000235 0.002284 -0.019028
# 2 0.000862 0.011228 -0.007352 -0.000389 0.001393 -0.007635
# 3 -0.020822 -0.007352 0.025120 0.005005 0.003426 0.019307
# 4 -0.000235 -0.000389 0.005005 0.029406 0.007533 0.012893
# 5 0.002284 0.001393 0.003426 0.007533 0.029144 0.006668
# 6 -0.019028 -0.007635 0.019307 0.012893 0.006668 0.042149
#
#
# Mechanical properties :
#
#
# Convention : Reuss Voigt Hill
#
# Bulk Modulus (GPa) = 38.53480 63.89019 51.21249
# Shear Modulus (GPa) = 20.44576 36.54795 28.49686
#
# Velocity S-wave (km/s) = 2.99111 3.99909 3.53125
# Velocity P-wave (km/s) = 5.36573 7.02004 6.24788
#
# Compressibility (1/GPa) = 0.02595057
#
# Stress axis : x y z
#
# Youngs Moduli (GPa) = 22.61056 89.06323 39.80837
#
# Poissons Ratio (x) = -0.07675 0.82889
# Poissons Ratio (y) = -0.01949 0.29268
# Poissons Ratio (z) = 0.47080 0.65481
#
# Static dielectric constant tensor:
#      x y z
#    x 1.928530 0.078680 0.030240 
#    y 0.078680 1.907980 0.011570 
#    z 0.030240 0.011570 1.852090 
# 
# From -- ./inp_files/257223.got.cif
#   From: 2010.05.17/outbox.cif.g08.bks.cpg/sg2_129_cif.got.tgz:257223.got - 2010.06.03 11:33:40.
