data_PCOD9053413
_publ_section_title
;
Structure prediction by ZEFSAII (Michael W. Deem and Ramdas Pophale) SiO2 
 PCOD9053413
Probable space group: P -1
;
_chemical_formula_sum "Si O2"
_cell_formula_units_Z 14
_cell_length_a 15.227547
_cell_length_b 9.230714
_cell_length_c 12.283578
_cell_angle_alpha 93.744364
_cell_angle_beta 123.663375
_cell_angle_gamma 133.394616
_cell_volume 705.030064
_symmetry_space_group_name_H-M "P -1"
_symmetry_group_IT_number 2
_symmetry_cell_setting 'triclinic'
loop_
_space_group_symop_operation_xyz
x,y,z
-x,-y,-z
loop_
_atom_site_type_symbol
_atom_site_label
_atom_site_fract_x
_atom_site_fract_y
_atom_site_fract_z
Si Si1 0.603479 0.829456 0.825186
Si Si2 0.959658 0.250544 0.740432
Si Si3 0.304800 0.849613 0.297200
Si Si4 0.310242 0.341917 0.436799
Si Si5 0.857322 0.340915 0.503098
Si Si6 0.066081 0.342823 0.222368
Si Si7 0.439974 0.945893 0.081144
O O1 0.424769 0.511248 0.638790
O O2 0.639189 0.999877 0.766605
O O3 0.547338 0.865091 0.887581
O O4 0.820884 0.008911 0.015110
O O5 0.804156 0.156375 0.706796
O O6 0.882523 0.214182 0.568453
O O7 0.892780 0.006877 0.706983
O O8 0.206632 0.598633 0.932380
O O9 0.129161 0.512113 0.166660
O O10 0.500000 0.000000 0.500000
O O11 0.500000 0.500000 0.500000
O O12 0.220917 0.390497 0.338630
O O13 0.915938 0.531279 0.649469
O O14 0.000000 0.500000 0.500000
O O15 0.618706 0.089825 0.288163
O O16 0.500000 0.000000 0.000000
#
# Coordination Sequence:
#
# PCOD9053413 Si02
#       7
#     2   2   2   2   2   2   2
#     4  12  22  40  68  93 134 174 222 267 328 390
#     4  11  24  41  65 100 133 168 223 270 336 390
#     4  11  19  39  65  95 125 175 221 273 320 388
#     4  12  25  43  60  99 145 173 208 271 340 400
#     4  11  21  43  70  95 125 169 227 281 317 385
#     4  11  23  38  64  96 130 175 221 265 328 390
#     4  12  23  42  71  98 124 171 228 278 322 389
#
# _framework density 19.857309000000001
#
# number of rings (size 3 to 8) (size 9 to 14) (size 15 to 20)
#    0.000    0.571    8.571    1.286    0.000    1.714 
#    0.000    2.857    0.000    3.429    0.000    0.000 
#    0.000    0.000    0.000    0.000    0.000    0.000 
#
# Total GULP energy -78020.854808 kJ/mol
# GULP energy per Si atom -5572.918201 kJ/mol
# Density = 1.981211 g / cm^3
# Si number density = 19.857309 Si / 1000 Ang^3
#
#
#
# Elastic Constant Matrix: (Units=GPa)
#
#
# Indices 1 2 3 4 5 6 
#
# 1 104.6609 24.5715 22.5997 2.7979 -1.3083 4.9248
# 2 24.5715 58.0521 1.5297 0.8606 -9.2123 -7.0884
# 3 22.5997 1.5297 110.7293 10.0069 20.4654 -6.3707
# 4 2.7979 0.8606 10.0069 33.9183 -3.5147 -2.6913
# 5 -1.3083 -9.2123 20.4654 -3.5147 34.4091 -4.1111
# 6 4.9248 -7.0884 -6.3707 -2.6913 -4.1111 31.7236
#
#
#
# Elastic Compliance Matrix: (Units=1/GPa)
#
#
# Indices 1 2 3 4 5 6 
#
# 1 0.011477 -0.005203 -0.002446 -0.000363 0.000048 -0.003460
# 2 -0.005203 0.021229 -0.000156 0.001118 0.006464 0.006453
# 3 -0.002446 -0.000156 0.011251 -0.003734 -0.007043 0.001375
# 4 -0.000363 0.001118 -0.003734 0.031455 0.006080 0.003013
# 5 0.000048 0.006464 -0.007043 0.006080 0.036230 0.005233
# 6 -0.003460 0.006453 0.001375 0.003013 0.005233 0.034711
#
#
# Mechanical properties :
#
#
# Convention : Reuss Voigt Hill
#
# Bulk Modulus (GPa) = 35.27559 41.20490 38.24025
# Shear Modulus (GPa) = 29.16949 34.99297 32.08123
#
# Velocity S-wave (km/s) = 3.83685 4.20244 4.02380
# Velocity P-wave (km/s) = 6.11814 6.65904 6.39431
#
# Compressibility (1/GPa) = 0.02834821
#
# Stress axis : x y z
#
# Youngs Moduli (GPa) = 87.12741 47.10459 88.88305
#
# Poissons Ratio (x) = 0.24509 0.21738
# Poissons Ratio (y) = 0.45334 0.01385
# Poissons Ratio (z) = 0.21309 0.00734
#
# Static dielectric constant tensor:
#      x y z
#    x 1.711910 0.043870 -0.002290 
#    y 0.043870 1.726150 0.008380 
#    z -0.002290 0.008380 1.756620 
# 
# From -- ./inp_files/314645.got.cif
#   From: 2010.05.17/outbox.cif.g08.bks.cpg/sg2_158_cif.got.tgz:314645.got - 2010.06.03 11:33:40.
