data_PCOD9053492
_publ_section_title
;
Structure prediction by ZEFSAII (Michael W. Deem and Ramdas Pophale) SiO2 
 PCOD9053492
Probable space group: P -1
;
_chemical_formula_sum "Si O2"
_cell_formula_units_Z 16
_cell_length_a 12.077968
_cell_length_b 15.091001
_cell_length_c 9.635422
_cell_angle_alpha 123.225456
_cell_angle_beta 110.720028
_cell_angle_gamma 118.656042
_cell_volume 699.615309
_symmetry_space_group_name_H-M "P -1"
_symmetry_group_IT_number 2
_symmetry_cell_setting 'triclinic'
loop_
_space_group_symop_operation_xyz
x,y,z
-x,-y,-z
loop_
_atom_site_type_symbol
_atom_site_label
_atom_site_fract_x
_atom_site_fract_y
_atom_site_fract_z
Si Si1 0.075327 0.351517 0.654000
Si Si2 0.772876 0.874213 0.723415
Si Si3 0.827747 0.350839 0.667942
Si Si4 0.977894 0.245258 0.209259
Si Si5 0.428211 0.322605 0.815700
Si Si6 0.416585 0.903696 0.040539
Si Si7 0.604855 0.394098 0.486333
Si Si8 0.342426 0.122922 0.872276
O O1 0.966652 0.384311 0.648821
O O2 0.090209 0.322898 0.477845
O O3 0.328671 0.548225 0.001065
O O4 0.893388 0.127879 0.447907
O O5 0.758802 0.843479 0.528218
O O6 0.531199 0.648906 0.490873
O O7 0.791050 0.011789 0.888970
O O8 0.000000 0.000000 0.000000
O O9 0.723467 0.378146 0.583574
O O10 0.605151 0.107183 0.395768
O O11 0.000000 0.500000 0.000000
O O12 0.181061 0.388640 0.311604
O O13 0.832193 0.241685 0.153965
O O14 0.346332 0.212445 0.831164
O O15 0.500000 0.500000 0.000000
O O16 0.451898 0.806479 0.992441
O O17 0.500000 0.000000 0.000000
O O18 0.405575 0.218481 0.132060
#
# Coordination Sequence:
#
# PCOD9053492 Si02
#       8
#     2   2   2   2   2   2   2   2
#     4  11  22  43  72 107 149 185 235 297 357 427
#     4  12  28  52  72  99 147 187 243 315 356 425
#     4  11  22  39  68 107 153 190 232 295 351 429
#     4  12  23  42  74 109 146 191 241 289 361 439
#     4  12  29  49  73 107 137 189 251 300 360 427
#     4  11  19  41  70 108 152 191 230 287 358 434
#     4  12  24  44  75 107 143 196 239 288 373 430
#     4  11  23  44  78 106 142 191 241 289 359 429
#
# _framework density 22.869710999999999
#
# number of rings (size 3 to 8) (size 9 to 14) (size 15 to 20)
#    0.000    0.500    7.500    1.500    1.750    5.000 
#    0.000    1.250    0.000    0.000    0.000    0.000 
#    0.000    0.000    0.000    0.000    0.000    0.000 
#
# Total GULP energy -89447.408102 kJ/mol
# GULP energy per Si atom -5590.463006 kJ/mol
# Density = 2.281766 g / cm^3
# Si number density = 22.869711 Si / 1000 Ang^3
#
#
#
# Elastic Constant Matrix: (Units=GPa)
#
#
# Indices 1 2 3 4 5 6 
#
# 1 47.6400 22.2206 -12.5720 -8.2351 9.8456 -2.8297
# 2 22.2206 120.3420 24.1989 -12.6823 -3.0453 -2.2213
# 3 -12.5720 24.1989 107.8715 -26.0619 -3.8590 -0.9277
# 4 -8.2351 -12.6823 -26.0619 38.2997 7.8762 10.2193
# 5 9.8456 -3.0453 -3.8590 7.8762 37.3247 2.8854
# 6 -2.8297 -2.2213 -0.9277 10.2193 2.8854 27.2259
#
#
#
# Elastic Compliance Matrix: (Units=1/GPa)
#
#
# Indices 1 2 3 4 5 6 
#
# 1 0.029708 -0.005987 0.007218 0.011475 -0.009969 -0.000405
# 2 -0.005987 0.010022 -0.002977 -0.000452 0.002182 0.000032
# 3 0.007218 -0.002977 0.013302 0.010968 -0.002865 -0.002853
# 4 0.011475 -0.000452 0.010968 0.041334 -0.009650 -0.012963
# 5 -0.009969 0.002182 -0.002865 -0.009650 0.031391 -0.000660
# 6 -0.000405 0.000032 -0.002853 -0.012963 -0.000660 0.041529
#
#
# Mechanical properties :
#
#
# Convention : Reuss Voigt Hill
#
# Bulk Modulus (GPa) = 20.18607 38.17203 29.17905
# Shear Modulus (GPa) = 26.69637 36.70381 31.70009
#
# Velocity S-wave (km/s) = 3.42032 4.01048 3.72710
# Velocity P-wave (km/s) = 4.94407 6.17840 5.59537
#
# Compressibility (1/GPa) = 0.04953912
#
# Stress axis : x y z
#
# Youngs Moduli (GPa) = 33.66126 99.78090 75.17544
#
# Poissons Ratio (x) = 0.59741 -0.54259
# Poissons Ratio (y) = 0.20154 0.22378
# Poissons Ratio (z) = -0.24296 0.29703
#
# Static dielectric constant tensor:
#      x y z
#    x 1.884140 -0.002360 0.006900 
#    y -0.002360 1.882980 0.008070 
#    z 0.006900 0.008070 1.869100 
# 
# From -- ./inp_files/274112.got.cif
#   From: 2010.05.17/outbox.cif.g08.bks.cpg/sg2_138_cif.got.tgz:274112.got - 2010.06.03 11:33:40.
