data_PCOD9053823
_publ_section_title
;
Structure prediction by ZEFSAII (Michael W. Deem and Ramdas Pophale) SiO2 
 PCOD9053823
Probable space group: P -1
;
_chemical_formula_sum "Si O2"
_cell_formula_units_Z 14
_cell_length_a 10.486995
_cell_length_b 9.369958
_cell_length_c 9.751484
_cell_angle_alpha 72.152148
_cell_angle_beta 137.826667
_cell_angle_gamma 95.008565
_cell_volume 597.516193
_symmetry_space_group_name_H-M "P -1"
_symmetry_group_IT_number 2
_symmetry_cell_setting 'triclinic'
loop_
_space_group_symop_operation_xyz
x,y,z
-x,-y,-z
loop_
_atom_site_type_symbol
_atom_site_label
_atom_site_fract_x
_atom_site_fract_y
_atom_site_fract_z
Si Si1 0.697970 0.477720 0.081006
Si Si2 0.801855 0.126836 0.336349
Si Si3 0.591237 0.995263 0.424106
Si Si4 0.358776 0.863415 0.069397
Si Si5 0.979916 0.423379 0.781702
Si Si6 0.454299 0.475834 0.630141
Si Si7 0.968552 0.739129 0.850085
O O1 0.807890 0.302672 0.255606
O O2 0.850423 0.584779 0.191687
O O3 0.500000 0.500000 0.000000
O O4 0.614672 0.516871 0.847769
O O5 0.702296 0.117172 0.407428
O O6 0.657496 0.089388 0.115053
O O7 0.000000 0.000000 0.500000
O O8 0.418653 0.978703 0.189170
O O9 0.769375 0.848299 0.614252
O O10 0.500000 0.000000 0.500000
O O11 0.517160 0.704327 0.261980
O O12 0.151999 0.818079 0.950450
O O13 0.766191 0.436591 0.547220
O O14 0.978701 0.582677 0.817758
O O15 0.027607 0.296851 0.974643
O O16 0.500000 0.500000 0.500000
#
# Coordination Sequence:
#
# PCOD9053823 Si02
#       7
#     2   2   2   2   2   2   2
#     4  11  26  42  64  99 136 169 214 281 336 376
#     4  11  23  48  67  94 132 181 225 263 324 412
#     4  12  27  42  67  97 131 171 220 283 334 378
#     4  11  22  41  68  95 126 175 228 262 324 404
#     4  11  20  38  68  95 130 168 215 270 320 399
#     4  11  20  37  67  97 122 170 221 259 320 400
#     4  11  21  39  66 100 126 166 222 267 322 398
#
# _framework density 23.430327999999999
#
# number of rings (size 3 to 8) (size 9 to 14) (size 15 to 20)
#    0.000    0.857    7.143    1.286    2.000    1.143 
#    0.000    0.000    0.000    0.000    0.000    0.000 
#    0.000    0.000    0.000    0.000    0.000    0.000 
#
# Total GULP energy -78166.238926 kJ/mol
# GULP energy per Si atom -5583.302780 kJ/mol
# Density = 2.337700 g / cm^3
# Si number density = 23.430328 Si / 1000 Ang^3
#
#
#
# Elastic Constant Matrix: (Units=GPa)
#
#
# Indices 1 2 3 4 5 6 
#
# 1 126.7957 15.2106 30.8324 -6.1879 -9.8170 27.7793
# 2 15.2106 22.4343 16.5807 0.7902 5.7546 13.3917
# 3 30.8324 16.5807 124.5221 -9.1000 -1.1717 11.5392
# 4 -6.1879 0.7902 -9.1000 25.2906 6.0567 -0.2947
# 5 -9.8170 5.7546 -1.1717 6.0567 42.4935 2.9802
# 6 27.7793 13.3917 11.5392 -0.2947 2.9802 23.2084
#
#
#
# Elastic Compliance Matrix: (Units=1/GPa)
#
#
# Indices 1 2 3 4 5 6 
#
# 1 0.011531 0.000686 -0.001538 0.001291 0.003315 -0.013842
# 2 0.000686 0.074693 -0.006748 -0.003412 -0.006870 -0.039726
# 3 -0.001538 -0.006748 0.009449 0.003176 0.000293 0.001040
# 4 0.001291 -0.003412 0.003176 0.042350 -0.005192 0.000049
# 5 0.003315 -0.006870 0.000293 -0.005192 0.026229 -0.003584
# 6 -0.013842 -0.039726 0.001040 0.000049 -0.003584 0.082522
#
#
# Mechanical properties :
#
#
# Convention : Reuss Voigt Hill
#
# Bulk Modulus (GPa) = 12.42681 44.33328 28.38005
# Shear Modulus (GPa) = 17.31311 32.27373 24.79342
#
# Velocity S-wave (km/s) = 2.72125 3.71541 3.25649
# Velocity P-wave (km/s) = 3.89729 6.11294 5.12625
#
# Compressibility (1/GPa) = 0.08047119
#
# Stress axis : x y z
#
# Youngs Moduli (GPa) = 86.72458 13.38808 105.83542
#
# Poissons Ratio (x) = -0.00918 0.16279
# Poissons Ratio (y) = -0.05946 0.71420
# Poissons Ratio (z) = 0.13339 0.09035
#
# Static dielectric constant tensor:
#      x y z
#    x 2.002380 -0.012130 -0.016420 
#    y -0.012130 1.928600 0.020760 
#    z -0.016420 0.020760 1.862630 
# 
# From -- ./inp_files/185468.got.cif
#   From: 2010.05.17/outbox.cif.g08.bks.cpg/sg2_93_cif.got.tgz:185468.got - 2010.06.03 11:33:40.
