data_PCOD9053960
_publ_section_title
;
Structure prediction by ZEFSAII (Michael W. Deem and Ramdas Pophale) SiO2 
 PCOD9053960
Probable space group: P -1
;
_chemical_formula_sum "Si O2"
_cell_formula_units_Z 16
_cell_length_a 14.234012
_cell_length_b 13.378222
_cell_length_c 9.410841
_cell_angle_alpha 110.766125
_cell_angle_beta 127.036389
_cell_angle_gamma 29.134098
_cell_volume 624.920384
_symmetry_space_group_name_H-M "P -1"
_symmetry_group_IT_number 2
_symmetry_cell_setting 'triclinic'
loop_
_space_group_symop_operation_xyz
x,y,z
-x,-y,-z
loop_
_atom_site_type_symbol
_atom_site_label
_atom_site_fract_x
_atom_site_fract_y
_atom_site_fract_z
Si Si1 0.722988 0.811098 0.291951
Si Si2 0.350227 0.943854 0.966644
Si Si3 0.574238 0.588537 0.210994
Si Si4 0.912217 0.164242 0.141881
Si Si5 0.802377 0.543257 0.631790
Si Si6 0.311512 0.423623 0.140942
Si Si7 0.917255 0.665064 0.678538
Si Si8 0.097825 0.796554 0.163222
O O1 0.441968 0.992458 0.104032
O O2 0.773334 0.829188 0.495589
O O3 0.906410 0.709549 0.284444
O O4 0.854148 0.587849 0.308628
O O5 0.475912 0.756759 0.096950
O O6 0.063352 0.141627 0.838032
O O7 0.461908 0.817837 0.853251
O O8 0.355078 0.676934 0.062148
O O9 0.637880 0.591799 0.418764
O O10 0.823417 0.331906 0.244214
O O11 0.082106 0.935140 0.252160
O O12 0.017307 0.111762 0.056964
O O13 0.746496 0.582541 0.765419
O O14 0.747824 0.707320 0.611251
O O15 0.062865 0.608394 0.907561
O O16 0.345852 0.524045 0.238030
#
# Coordination Sequence:
#
# PCOD9053960 Si02
#       8
#     2   2   2   2   2   2   2   2
#     4   8  15  29  52  84 107 139 178 226 249 314
#     4  10  18  34  60  78 112 141 184 220 264 322
#     4  10  17  35  63  83  98 145 183 230 278 305
#     4   9  20  35  60  81 102 133 196 238 265 310
#     4  10  18  30  57  85 112 143 180 215 268 330
#     4  11  20  33  56  81 114 153 170 208 282 331
#     4   8  15  29  53  81 109 140 179 215 255 320
#     4  10  21  36  56  82 107 140 184 231 267 322
#
# _framework density 25.603263999999999
#
# number of rings (size 3 to 8) (size 9 to 14) (size 15 to 20)
#    0.750    1.750    2.500    1.125    0.000    0.000 
#    0.000    2.500    8.250    0.000    0.000    0.000 
#    0.000    0.000    0.000    0.000    0.000    0.000 
#
# Total GULP energy -89208.998441 kJ/mol
# GULP energy per Si atom -5575.562403 kJ/mol
# Density = 2.554499 g / cm^3
# Si number density = 25.603264 Si / 1000 Ang^3
#
#
#
# Elastic Constant Matrix: (Units=GPa)
#
#
# Indices 1 2 3 4 5 6 
#
# 1 115.8402 13.3347 24.7472 8.6381 -14.2261 -27.8700
# 2 13.3347 85.1994 19.6883 15.4677 -1.1203 -10.4775
# 3 24.7472 19.6883 85.5019 9.4247 -17.2006 -10.8557
# 4 8.6381 15.4677 9.4247 22.2382 -8.4233 -6.5583
# 5 -14.2261 -1.1203 -17.2006 -8.4233 40.4290 15.8983
# 6 -27.8700 -10.4775 -10.8557 -6.5583 15.8983 32.0933
#
#
#
# Elastic Compliance Matrix: (Units=1/GPa)
#
#
# Indices 1 2 3 4 5 6 
#
# 1 0.011300 0.000057 -0.002149 -0.001088 -0.000815 0.009286
# 2 0.000057 0.014493 -0.002660 -0.009390 -0.004270 0.004077
# 3 -0.002149 -0.002660 0.014030 -0.001563 0.005152 -0.000860
# 4 -0.001088 -0.009390 -0.001563 0.056919 0.009640 0.002317
# 5 -0.000815 -0.004270 0.005152 0.009640 0.034645 -0.015552
# 6 0.009286 0.004077 -0.000860 0.002317 -0.015552 0.048441
#
#
# Mechanical properties :
#
#
# Convention : Reuss Voigt Hill
#
# Bulk Modulus (GPa) = 32.98254 44.67576 38.82915
# Shear Modulus (GPa) = 25.07043 34.20352 29.63697
#
# Velocity S-wave (km/s) = 3.13259 3.65897 3.40596
# Velocity P-wave (km/s) = 5.09846 5.94456 5.53770
#
# Compressibility (1/GPa) = 0.03031907
#
# Stress axis : x y z
#
# Youngs Moduli (GPa) = 88.49283 68.99892 71.27832
#
# Poissons Ratio (x) = -0.00391 0.15315
# Poissons Ratio (y) = -0.00502 0.18959
# Poissons Ratio (z) = 0.19014 0.18353
#
# Static dielectric constant tensor:
#      x y z
#    x 2.092680 -0.024210 0.071410 
#    y -0.024210 2.160370 -0.077990 
#    z 0.071410 -0.077990 2.156830 
# 
# From -- ./inp_files/313735.got.cif
#   From: 2010.05.17/outbox.cif.g08.bks.cpg/sg2_157_cif.got.tgz:313735.got - 2010.06.03 11:33:40.
