data_PCOD9053999
_publ_section_title
;
Structure prediction by ZEFSAII (Michael W. Deem and Ramdas Pophale) SiO2 
 PCOD9053999
Probable space group: P -1
;
_chemical_formula_sum "Si O2"
_cell_formula_units_Z 12
_cell_length_a 9.483094
_cell_length_b 10.057669
_cell_length_c 12.497519
_cell_angle_alpha 136.004119
_cell_angle_beta 86.833765
_cell_angle_gamma 64.431292
_cell_volume 606.458723
_symmetry_space_group_name_H-M "P -1"
_symmetry_group_IT_number 2
_symmetry_cell_setting 'triclinic'
loop_
_space_group_symop_operation_xyz
x,y,z
-x,-y,-z
loop_
_atom_site_type_symbol
_atom_site_label
_atom_site_fract_x
_atom_site_fract_y
_atom_site_fract_z
Si Si1 0.595738 0.876642 0.039767
Si Si2 0.443852 0.745141 0.586872
Si Si3 0.416615 0.292613 0.674362
Si Si4 0.974889 0.509741 0.135582
Si Si5 0.915673 0.977690 0.364142
Si Si6 0.318877 0.630418 0.216201
O O1 0.512763 0.106382 0.260241
O O2 0.582504 0.668179 0.958536
O O3 0.826004 0.703704 0.934808
O O4 0.500000 0.000000 0.000000
O O5 0.500000 0.500000 0.500000
O O6 0.548320 0.663280 0.421076
O O7 0.214889 0.940699 0.685684
O O8 0.194476 0.477917 0.821871
O O9 0.531438 0.333315 0.769848
O O10 0.500000 0.000000 0.500000
O O11 0.905727 0.790419 0.324909
O O12 0.000000 0.500000 0.000000
O O13 0.141761 0.808390 0.243071
O O14 0.801193 0.237788 0.590225
#
# Coordination Sequence:
#
# PCOD9053999 Si02
#       6
#     2   2   2   2   2   2
#     4  11  22  39  63  91 129 169 209 261 318 374
#     4  11  22  40  65  90 130 171 207 257 330 374
#     4  11  20  40  66  95 125 165 213 259 311 383
#     4  11  20  39  69  90 121 169 216 256 310 375
#     4   9  17  36  61  89 120 166 202 253 313 375
#     4   9  19  33  62  92 121 157 210 258 307 366
#
# _framework density 19.787002999999999
#
# number of rings (size 3 to 8) (size 9 to 14) (size 15 to 20)
#    0.000    1.667    5.000    2.000    0.000    0.000 
#    0.000   11.667    3.667    0.000    0.000    0.000 
#    0.000    0.000    0.000    0.000    0.000    0.000 
#
# Total GULP energy -66922.067786 kJ/mol
# GULP energy per Si atom -5576.838982 kJ/mol
# Density = 1.974197 g / cm^3
# Si number density = 19.787003 Si / 1000 Ang^3
#
#
#
# Elastic Constant Matrix: (Units=GPa)
#
#
# Indices 1 2 3 4 5 6 
#
# 1 179.0322 59.1375 38.2943 2.7220 -4.0761 -16.3432
# 2 59.1375 120.9608 34.7860 7.2413 -9.2971 -15.9154
# 3 38.2943 34.7860 71.5220 5.6604 16.3988 2.3120
# 4 2.7220 7.2413 5.6604 29.9267 0.8141 4.8364
# 5 -4.0761 -9.2971 16.3988 0.8141 40.0993 2.8308
# 6 -16.3432 -15.9154 2.3120 4.8364 2.8308 39.3273
#
#
#
# Elastic Compliance Matrix: (Units=1/GPa)
#
#
# Indices 1 2 3 4 5 6 
#
# 1 0.007232 -0.002238 -0.003173 0.000095 0.001358 0.002177
# 2 -0.002238 0.012055 -0.005671 -0.002454 0.004636 0.004250
# 3 -0.003173 -0.005671 0.020946 -0.001392 -0.009895 -0.003961
# 4 0.000095 -0.002454 -0.001392 0.035107 -0.000338 -0.005165
# 5 0.001358 0.004636 -0.009895 -0.000338 0.030142 0.000894
# 6 0.002177 0.004250 -0.003961 -0.005165 0.000894 0.028856
#
#
# Mechanical properties :
#
#
# Convention : Reuss Voigt Hill
#
# Bulk Modulus (GPa) = 55.34511 70.66118 63.00314
# Shear Modulus (GPa) = 30.76504 37.82380 34.29442
#
# Velocity S-wave (km/s) = 3.94739 4.37687 4.16766
# Velocity P-wave (km/s) = 6.98620 7.83142 7.42085
#
# Compressibility (1/GPa) = 0.01806845
#
# Stress axis : x y z
#
# Youngs Moduli (GPa) = 138.28094 82.95633 47.74277
#
# Poissons Ratio (x) = 0.18566 0.15148
# Poissons Ratio (y) = 0.30948 0.27074
# Poissons Ratio (z) = 0.43873 0.47044
#
# Static dielectric constant tensor:
#      x y z
#    x 1.657630 -0.076320 0.021760 
#    y -0.076320 1.658110 -0.009260 
#    z 0.021760 -0.009260 1.817990 
# 
# From -- ./inp_files/211518.got.cif
#   From: 2010.05.17/outbox.cif.g08.bks.cpg/sg2_106_cif.got.tgz:211518.got - 2010.06.03 11:33:40.
