data_PCOD9053558
_publ_section_title
;
Structure prediction by ZEFSAII (Michael W. Deem and Ramdas Pophale) SiO2 
 PCOD9053558
Probable space group: P -1
;
_chemical_formula_sum "Si O2"
_cell_formula_units_Z 16
_cell_length_a 14.575281
_cell_length_b 20.552378
_cell_length_c 8.714871
_cell_angle_alpha 118.513504
_cell_angle_beta 73.716284
_cell_angle_gamma 157.719608
_cell_volume 760.943962
_symmetry_space_group_name_H-M "P -1"
_symmetry_group_IT_number 2
_symmetry_cell_setting 'triclinic'
loop_
_space_group_symop_operation_xyz
x,y,z
-x,-y,-z
loop_
_atom_site_type_symbol
_atom_site_label
_atom_site_fract_x
_atom_site_fract_y
_atom_site_fract_z
Si Si1 0.354378 0.083963 0.289977
Si Si2 0.388762 0.936679 0.149934
Si Si3 0.634541 0.390704 0.280295
Si Si4 0.179381 0.851827 0.663062
Si Si5 0.806253 0.560279 0.087275
Si Si6 0.818476 0.651332 0.889542
Si Si7 0.871267 0.068084 0.476492
Si Si8 0.611044 0.641645 0.489956
O O1 0.551120 0.257710 0.262201
O O2 0.431328 0.056114 0.268243
O O3 0.342700 0.112013 0.494650
O O4 0.047145 0.866647 0.113535
O O5 0.064061 0.695578 0.070275
O O6 0.558629 0.007398 0.262235
O O7 0.500000 0.000000 0.000000
O O8 0.602915 0.373831 0.093239
O O9 0.466270 0.334698 0.378905
O O10 0.957836 0.641041 0.438966
O O11 0.233714 0.964074 0.660256
O O12 0.015244 0.754441 0.786337
O O13 0.931746 0.724685 0.301973
O O14 0.698121 0.511567 0.921611
O O15 0.564448 0.498508 0.740848
O O16 0.067903 0.142407 0.432270
O O17 0.500000 0.500000 0.500000
#
# Coordination Sequence:
#
# PCOD9053558 Si02
#       8
#     2   2   2   2   2   2   2   2
#     4  10  22  37  52  85 116 134 175 235 268 310
#     4  10  18  34  62  78 104 144 187 217 263 321
#     4  10  22  36  53  81 121 134 173 232 271 309
#     4  10  17  35  61  79 102 147 185 216 260 326
#     4   9  18  33  54  83 106 138 184 220 259 320
#     4   9  18  33  60  77 104 143 184 216 259 322
#     4   9  19  34  57  81 106 141 188 215 261 323
#     4  11  18  36  62  77 104 148 186 213 262 328
#
# _framework density 21.026513999999999
#
# number of rings (size 3 to 8) (size 9 to 14) (size 15 to 20)
#    0.000    2.500    6.250    0.000    0.000    7.500 
#    0.000    3.750    0.000    0.000    0.000    0.000 
#    0.000    0.000    0.000    0.000    0.000    0.000 
#
# Total GULP energy -89098.647595 kJ/mol
# GULP energy per Si atom -5568.665475 kJ/mol
# Density = 2.097866 g / cm^3
# Si number density = 21.026514 Si / 1000 Ang^3
#
#
#
# Elastic Constant Matrix: (Units=GPa)
#
#
# Indices 1 2 3 4 5 6 
#
# 1 96.3217 18.9918 32.1325 -1.8926 41.4245 13.0095
# 2 18.9918 61.0470 20.5307 -25.0141 16.9811 -10.8541
# 3 32.1325 20.5307 54.8566 -18.4860 27.7222 -8.7362
# 4 -1.8926 -25.0141 -18.4860 33.0163 -6.5905 5.4875
# 5 41.4245 16.9811 27.7222 -6.5905 41.6260 -11.2153
# 6 13.0095 -10.8541 -8.7362 5.4875 -11.2153 37.5233
#
#
#
# Elastic Compliance Matrix: (Units=1/GPa)
#
#
# Indices 1 2 3 4 5 6 
#
# 1 0.028568 -0.006018 -0.006124 -0.008703 -0.028771 -0.020398
# 2 -0.006018 0.027501 0.001796 0.020045 -0.001331 0.007130
# 3 -0.006124 0.001796 0.034463 0.016870 -0.013823 0.004067
# 4 -0.008703 0.020045 0.016870 0.053446 -0.001046 0.004615
# 5 -0.028771 -0.001331 -0.013823 -0.001046 0.069601 0.027327
# 6 -0.020398 0.007130 0.004067 0.004615 0.027327 0.044225
#
#
# Mechanical properties :
#
#
# Convention : Reuss Voigt Hill
#
# Bulk Modulus (GPa) = 14.31856 39.50391 26.91124
# Shear Modulus (GPa) = 16.56865 31.80446 24.18655
#
# Velocity S-wave (km/s) = 2.81016 3.89342 3.39527
# Velocity P-wave (km/s) = 4.16580 6.24821 5.31008
#
# Compressibility (1/GPa) = 0.06983942
#
# Stress axis : x y z
#
# Youngs Moduli (GPa) = 35.00366 36.36291 29.01691
#
# Poissons Ratio (x) = 0.21884 0.17769
# Poissons Ratio (y) = 0.21066 -0.05211
# Poissons Ratio (z) = 0.21435 -0.06530
#
# Static dielectric constant tensor:
#      x y z
#    x 1.831280 0.011070 -0.026970 
#    y 0.011070 1.828070 -0.034560 
#    z -0.026970 -0.034560 1.865220 
# 
# From -- ./inp_files/221804.got.cif
#   From: 2010.05.17/outbox.cif.g08.bks.cpg/sg2_111_cif.got.tgz:221804.got - 2010.06.03 11:33:40.
