data_PCOD9053234
_publ_section_title
;
Structure prediction by ZEFSAII (Michael W. Deem and Ramdas Pophale) SiO2 
 PCOD9053234
Probable space group: P -1
;
_chemical_formula_sum "Si O2"
_cell_formula_units_Z 14
_cell_length_a 11.688024
_cell_length_b 19.786521
_cell_length_c 8.001578
_cell_angle_alpha 124.017819
_cell_angle_beta 129.990652
_cell_angle_gamma 28.557470
_cell_volume 677.677346
_symmetry_space_group_name_H-M "P -1"
_symmetry_group_IT_number 2
_symmetry_cell_setting 'triclinic'
loop_
_space_group_symop_operation_xyz
x,y,z
-x,-y,-z
loop_
_atom_site_type_symbol
_atom_site_label
_atom_site_fract_x
_atom_site_fract_y
_atom_site_fract_z
Si Si1 0.546693 0.581630 0.018662
Si Si2 0.027186 0.201309 0.150891
Si Si3 0.423198 0.591002 0.401835
Si Si4 0.754878 0.627678 0.063068
Si Si5 0.144245 0.135106 0.801101
Si Si6 0.102227 0.568726 0.540406
Si Si7 0.530371 0.090321 0.954624
O O1 0.601173 0.616574 0.962663
O O2 0.760296 0.504554 0.253723
O O3 0.249250 0.721078 0.993944
O O4 0.576656 0.474432 0.841264
O O5 0.003094 0.291074 0.367539
O O6 0.266325 0.032857 0.164392
O O7 0.093708 0.202011 0.025572
O O8 0.500000 0.500000 0.500000
O O9 0.656083 0.547333 0.520097
O O10 0.140282 0.755420 0.383537
O O11 0.583383 0.772635 0.011843
O O12 0.874123 0.614079 0.325508
O O13 0.000000 0.500000 0.000000
O O14 0.305399 0.123218 0.818117
O O15 0.312221 0.984887 0.823899
#
# Coordination Sequence:
#
# PCOD9053234 Si02
#       7
#     2   2   2   2   2   2   2
#     4  11  20  38  56  86 119 151 182 238 295 343
#     4   9  18  36  64  81 106 146 199 232 278 335
#     4  11  19  34  63  89 112 144 199 242 276 331
#     4  12  26  37  54  86 124 153 189 234 292 348
#     4   9  16  35  59  85 112 146 188 241 280 329
#     4  11  20  37  60  86 111 152 193 239 284 333
#     4   9  19  36  57  84 114 153 186 239 286 335
#
# _framework density 20.658798000000001
#
# number of rings (size 3 to 8) (size 9 to 14) (size 15 to 20)
#    0.857    0.857    2.857    3.857    0.000    1.143 
#    0.000    0.000    0.000    9.429    0.000    0.000 
#    0.000    0.000    0.000    0.000    0.000    0.000 
#
# Total GULP energy -77985.610304 kJ/mol
# GULP energy per Si atom -5570.400736 kJ/mol
# Density = 2.061178 g / cm^3
# Si number density = 20.658798 Si / 1000 Ang^3
#
#
#
# Elastic Constant Matrix: (Units=GPa)
#
#
# Indices 1 2 3 4 5 6 
#
# 1 101.7850 50.5706 0.5096 -8.5922 5.3647 6.0024
# 2 50.5706 146.0764 6.8855 -14.8865 10.0514 -3.5315
# 3 0.5096 6.8855 44.9620 -4.9966 0.5392 5.7873
# 4 -8.5922 -14.8865 -4.9966 18.6369 -0.3262 -1.0779
# 5 5.3647 10.0514 0.5392 -0.3262 25.9795 0.9869
# 6 6.0024 -3.5315 5.7873 -1.0779 0.9869 25.1448
#
#
#
# Elastic Compliance Matrix: (Units=1/GPa)
#
#
# Indices 1 2 3 4 5 6 
#
# 1 0.012328 -0.004103 0.001250 0.002515 -0.000813 -0.003667
# 2 -0.004103 0.009102 -0.001103 0.005200 -0.002694 0.002840
# 3 0.001250 -0.001103 0.023764 0.005738 -0.000037 -0.005675
# 4 0.002515 0.005200 0.005738 0.060560 -0.001946 0.001482
# 5 -0.000813 -0.002694 -0.000037 -0.001946 0.039748 -0.001819
# 6 -0.003667 0.002840 -0.005675 0.001482 -0.001819 0.042485
#
#
# Mechanical properties :
#
#
# Convention : Reuss Voigt Hill
#
# Bulk Modulus (GPa) = 26.82218 45.41722 36.11970
# Shear Modulus (GPa) = 24.00063 29.60943 26.80503
#
# Velocity S-wave (km/s) = 3.41216 3.78995 3.60601
# Velocity P-wave (km/s) = 5.34185 6.41746 5.90420
#
# Compressibility (1/GPa) = 0.03728258
#
# Stress axis : x y z
#
# Youngs Moduli (GPa) = 81.11293 109.86272 42.07990
#
# Poissons Ratio (x) = 0.45081 -0.05260
# Poissons Ratio (y) = 0.33284 0.04641
# Poissons Ratio (z) = -0.10138 0.12116
#
# Static dielectric constant tensor:
#      x y z
#    x 1.737580 -0.023180 -0.049490 
#    y -0.023180 1.775410 -0.028890 
#    z -0.049490 -0.028890 1.796900 
# 
# From -- ./inp_files/238308.got.cif
#   From: 2010.05.17/outbox.cif.g08.bks.cpg/sg2_120_cif.got.tgz:238308.got - 2010.06.03 11:33:40.
