data_PCOD9053531
_publ_section_title
;
Structure prediction by ZEFSAII (Michael W. Deem and Ramdas Pophale) SiO2 
 PCOD9053531
Probable space group: P -1
;
_chemical_formula_sum "Si O2"
_cell_formula_units_Z 16
_cell_length_a 18.446297
_cell_length_b 21.144600
_cell_length_c 11.600543
_cell_angle_alpha 27.192488
_cell_angle_beta 37.745643
_cell_angle_gamma 19.995678
_cell_volume 676.928452
_symmetry_space_group_name_H-M "P -1"
_symmetry_group_IT_number 2
_symmetry_cell_setting 'triclinic'
loop_
_space_group_symop_operation_xyz
x,y,z
-x,-y,-z
loop_
_atom_site_type_symbol
_atom_site_label
_atom_site_fract_x
_atom_site_fract_y
_atom_site_fract_z
Si Si1 0.479807 0.463249 0.323817
Si Si2 0.858602 0.264367 0.096189
Si Si3 0.379902 0.074886 0.912569
Si Si4 0.839212 0.238942 0.558292
Si Si5 0.762053 0.483334 0.626655
Si Si6 0.936468 0.372894 0.027684
Si Si7 0.168187 0.008392 0.721923
Si Si8 0.217432 0.267929 0.185139
O O1 0.728812 0.267793 0.315454
O O2 0.387859 0.535912 0.450157
O O3 0.422463 0.387175 0.441469
O O4 0.333723 0.732708 0.013647
O O5 0.851638 0.401302 0.966829
O O6 0.744492 0.413783 0.877347
O O7 0.099067 0.968365 0.240372
O O8 0.253074 0.341498 0.606679
O O9 0.576030 0.857165 0.928585
O O10 0.198026 0.138760 0.060802
O O11 0.500000 0.000000 0.000000
O O12 0.868730 0.327232 0.282625
O O13 0.026038 0.085590 0.670224
O O14 0.990448 0.224497 0.693314
O O15 0.840113 0.609220 0.818804
O O16 0.268338 0.054743 0.477519
O O17 0.000000 0.500000 0.000000
#
# Coordination Sequence:
#
# PCOD9053531 Si02
#       8
#     2   2   2   2   2   2   2   2
#     4  11  24  40  73 100 127 175 226 279 328 379
#     4  12  26  43  66 100 139 176 219 267 337 400
#     4  12  25  43  72  99 127 175 222 274 330 387
#     4  11  23  43  67  96 135 173 222 281 321 391
#     4  11  22  43  71  99 134 172 224 276 323 392
#     4  12  28  44  64 100 140 179 214 271 334 398
#     4  11  19  43  71  99 130 164 227 286 324 375
#     4  12  23  43  69  98 134 168 223 277 322 394
#
# _framework density 23.636175000000001
#
# number of rings (size 3 to 8) (size 9 to 14) (size 15 to 20)
#    0.000    0.500    6.250    2.250    5.250    2.000 
#    0.000    1.250    0.000    0.000    0.000    0.000 
#    0.000    0.000    0.000    0.000    0.000    0.000 
#
# Total GULP energy -89624.102137 kJ/mol
# GULP energy per Si atom -5601.506384 kJ/mol
# Density = 2.358238 g / cm^3
# Si number density = 23.636175 Si / 1000 Ang^3
#
#
#
# Elastic Constant Matrix: (Units=GPa)
#
#
# Indices 1 2 3 4 5 6 
#
# 1 84.2764 33.7177 -7.4357 -3.0041 -5.1855 33.9496
# 2 33.7177 119.7075 3.8514 22.4492 18.3843 26.6172
# 3 -7.4357 3.8514 72.2098 4.5765 -9.7669 12.2111
# 4 -3.0041 22.4492 4.5765 35.5861 6.9140 -1.6843
# 5 -5.1855 18.3843 -9.7669 6.9140 18.3792 -2.3654
# 6 33.9496 26.6172 12.2111 -1.6843 -2.3654 24.2885
#
#
#
# Elastic Compliance Matrix: (Units=1/GPa)
#
#
# Indices 1 2 3 4 5 6 
#
# 1 0.038952 0.002028 0.016691 -0.005435 0.011599 -0.064306
# 2 0.002028 0.017412 0.002006 -0.009241 -0.015530 -0.025078
# 3 0.016691 0.002006 0.023959 -0.007290 0.013445 -0.036770
# 4 -0.005435 -0.009241 -0.007290 0.036879 -0.007044 0.023260
# 5 0.011599 -0.015530 0.013445 -0.007044 0.083224 0.001663
# 6 -0.064306 -0.025078 -0.036770 0.023260 0.001663 0.178800
#
#
# Mechanical properties :
#
#
# Convention : Reuss Voigt Hill
#
# Bulk Modulus (GPa) = 8.21206 37.38453 22.79829
# Shear Modulus (GPa) = 13.21473 32.05478 22.63475
#
# Velocity S-wave (km/s) = 2.36707 3.68662 3.09792
# Velocity P-wave (km/s) = 3.30947 5.82860 4.73947
#
# Compressibility (1/GPa) = 0.12177216
#
# Stress axis : x y z
#
# Youngs Moduli (GPa) = 25.67278 57.43176 41.73851
#
# Poissons Ratio (x) = -0.11647 -0.69665
# Poissons Ratio (y) = -0.05207 -0.08373
# Poissons Ratio (z) = -0.42850 -0.11521
#
# Static dielectric constant tensor:
#      x y z
#    x 1.844190 0.005670 -0.018910 
#    y 0.005670 1.929330 -0.012780 
#    z -0.018910 -0.012780 1.924150 
# 
# From -- ./inp_files/427594.got.cif
#   From: 2010.05.17/outbox.cif.g08.bks.cpg/sg2_214_cif.got.tgz:427594.got - 2010.06.03 11:33:40.
