data_PCOD9053164
_publ_section_title
;
Structure prediction by ZEFSAII (Michael W. Deem and Ramdas Pophale) SiO2 
 PCOD9053164
Probable space group: P -1
;
_chemical_formula_sum "Si O2"
_cell_formula_units_Z 16
_cell_length_a 14.595970
_cell_length_b 20.262301
_cell_length_c 12.559821
_cell_angle_alpha 149.225844
_cell_angle_beta 49.606752
_cell_angle_gamma 151.534405
_cell_volume 813.496103
_symmetry_space_group_name_H-M "P -1"
_symmetry_group_IT_number 2
_symmetry_cell_setting 'triclinic'
loop_
_space_group_symop_operation_xyz
x,y,z
-x,-y,-z
loop_
_atom_site_type_symbol
_atom_site_label
_atom_site_fract_x
_atom_site_fract_y
_atom_site_fract_z
Si Si1 0.100753 0.938030 0.686018
Si Si2 0.608742 0.194971 0.535791
Si Si3 0.740668 0.466470 0.015755
Si Si4 0.550572 0.692873 0.252082
Si Si5 0.661389 0.948528 0.125879
Si Si6 0.286583 0.229439 0.313322
Si Si7 0.242566 0.225202 0.591910
Si Si8 0.902597 0.274453 0.752582
O O1 0.011137 0.723040 0.412329
O O2 0.915849 0.879097 0.739338
O O3 0.270408 0.119325 0.714033
O O4 0.210703 0.006559 0.810476
O O5 0.627455 0.351802 0.681564
O O6 0.705330 0.141631 0.357954
O O7 0.352903 0.945431 0.369309
O O8 0.686999 0.307233 0.750056
O O9 0.683745 0.560214 0.150147
O O10 0.985785 0.692754 0.183712
O O11 0.585049 0.295647 0.994076
O O12 0.630703 0.758042 0.403279
O O13 0.500000 0.500000 0.000000
O O14 0.703591 0.905569 0.928345
O O15 0.500000 0.500000 0.500000
O O16 0.259865 0.210162 0.433600
O O17 0.000000 0.000000 0.500000
O O18 0.000000 0.500000 0.000000
#
# Coordination Sequence:
#
# PCOD9053164 Si02
#       8
#     2   2   2   2   2   2   2   2
#     4  11  22  40  62  97 128 171 220 266 328 398
#     4  11  23  38  62  98 131 172 216 277 330 387
#     4  12  20  38  64  95 133 166 216 274 325 386
#     4  11  21  38  67  93 125 170 224 270 320 390
#     4  12  22  40  62  95 138 168 210 275 340 384
#     4  12  25  41  63  96 136 174 216 274 332 388
#     4  12  22  42  67  94 128 171 229 268 318 396
#     4  11  19  31  58  93 129 161 209 265 325 380
#
# _framework density 19.668194
#
# number of rings (size 3 to 8) (size 9 to 14) (size 15 to 20)
#    0.000    0.500    8.750    2.250    0.000    0.000 
#    0.000    0.625    0.000    3.000    0.000    0.000 
#    0.000    0.000    0.000    0.000    0.000    0.000 
#
# Total GULP energy -89150.789768 kJ/mol
# GULP energy per Si atom -5571.924361 kJ/mol
# Density = 1.962343 g / cm^3
# Si number density = 19.668194 Si / 1000 Ang^3
#
#
#
# Elastic Constant Matrix: (Units=GPa)
#
#
# Indices 1 2 3 4 5 6 
#
# 1 121.5519 32.7154 34.6360 -17.5830 3.7075 2.8212
# 2 32.7154 59.1631 41.6573 -17.3681 -0.4784 -2.9463
# 3 34.6360 41.6573 144.5064 -25.7797 -7.3224 0.7123
# 4 -17.5830 -17.3681 -25.7797 29.5970 5.6510 -0.8098
# 5 3.7075 -0.4784 -7.3224 5.6510 52.1746 1.1687
# 6 2.8212 -2.9463 0.7123 -0.8098 1.1687 27.2801
#
#
#
# Elastic Compliance Matrix: (Units=1/GPa)
#
#
# Indices 1 2 3 4 5 6 
#
# 1 0.010082 -0.004263 -0.000692 0.003069 -0.001155 -0.001344
# 2 -0.004263 0.025315 -0.004850 0.008414 -0.001138 0.003600
# 3 -0.000692 -0.004850 0.009373 0.004734 0.000821 -0.000592
# 4 0.003069 0.008414 0.004734 0.045577 -0.004458 0.002012
# 5 -0.001155 -0.001138 0.000821 -0.004458 0.019859 -0.001008
# 6 -0.001344 0.003600 -0.000592 0.002012 -0.001008 0.037303
#
#
# Mechanical properties :
#
#
# Convention : Reuss Voigt Hill
#
# Bulk Modulus (GPa) = 39.74661 60.35987 50.05324
# Shear Modulus (GPa) = 28.48906 36.22454 32.35680
#
# Velocity S-wave (km/s) = 3.81002 4.29626 4.06042
# Velocity P-wave (km/s) = 6.29345 7.44084 6.89107
#
# Compressibility (1/GPa) = 0.02515938
#
# Stress axis : x y z
#
# Youngs Moduli (GPa) = 99.18795 39.50237 106.68711
#
# Poissons Ratio (x) = 0.16841 0.07382
# Poissons Ratio (y) = 0.42286 0.51745
# Poissons Ratio (z) = 0.06863 0.19159
#
# Static dielectric constant tensor:
#      x y z
#    x 1.832600 0.029050 -0.020080 
#    y 0.029050 1.693920 0.033890 
#    z -0.020080 0.033890 1.818100 
# 
# From -- ./inp_files/457543.got.cif
#   From: 2010.05.17/outbox.cif.g08.bks.cpg/sg2_229_cif.got.tgz:457543.got - 2010.06.03 11:33:40.
