data_PCOD9053447
_publ_section_title
;
Structure prediction by ZEFSAII (Michael W. Deem and Ramdas Pophale) SiO2 
 PCOD9053447
Probable space group: P -1
;
_chemical_formula_sum "Si O2"
_cell_formula_units_Z 14
_cell_length_a 8.062499
_cell_length_b 7.173880
_cell_length_c 10.946438
_cell_angle_alpha 102.662321
_cell_angle_beta 97.361219
_cell_angle_gamma 112.933976
_cell_volume 552.608821
_symmetry_space_group_name_H-M "P -1"
_symmetry_group_IT_number 2
_symmetry_cell_setting 'triclinic'
loop_
_space_group_symop_operation_xyz
x,y,z
-x,-y,-z
loop_
_atom_site_type_symbol
_atom_site_label
_atom_site_fract_x
_atom_site_fract_y
_atom_site_fract_z
Si Si1 0.006332 0.201666 0.183128
Si Si2 0.150948 0.625281 0.364366
Si Si3 0.568129 0.526883 0.186861
Si Si4 0.307857 0.090655 0.058549
Si Si5 0.184213 0.053884 0.662499
Si Si6 0.780487 0.602277 0.448088
Si Si7 0.566428 0.122551 0.748312
O O1 0.051351 0.446040 0.226808
O O2 0.985565 0.124114 0.310773
O O3 0.810000 0.064529 0.081099
O O4 0.164004 0.157995 0.125606
O O5 0.256578 0.527515 0.449145
O O6 0.290065 0.836408 0.341585
O O7 0.983302 0.635768 0.424197
O O8 0.761488 0.735501 0.213173
O O9 0.615891 0.465403 0.316864
O O10 0.435875 0.646797 0.200742
O O11 0.476891 0.314880 0.070133
O O12 0.378343 0.966121 0.140553
O O13 0.202345 0.162917 0.548751
O O14 0.351823 0.985189 0.673963
#
# Coordination Sequence:
#
# PCOD9053447 Si02
#       7
#     2   2   2   2   2   2   2
#     4  11  23  36  61  88 119 153 198 235 294 345
#     4  11  19  40  60  88 115 159 191 241 291 348
#     4   8  20  42  55  87 117 152 190 246 277 353
#     4  11  22  41  58  88 121 154 193 243 283 351
#     4   8  20  39  55  92 112 154 193 242 290 346
#     4   8  21  37  64  80 121 150 196 240 295 334
#     4   9  21  38  61  85 119 154 197 232 296 342
#
# _framework density 25.334375999999999
#
# number of rings (size 3 to 8) (size 9 to 14) (size 15 to 20)
#    1.714    0.571    1.429    0.857    2.000    4.571 
#    2.571    0.714    0.000    0.000    0.000    0.000 
#    0.000    0.000    0.000    0.000    0.000    0.000 
#
# Total GULP energy -78077.728669 kJ/mol
# GULP energy per Si atom -5576.980619 kJ/mol
# Density = 2.527671 g / cm^3
# Si number density = 25.334376 Si / 1000 Ang^3
#
#
#
# Elastic Constant Matrix: (Units=GPa)
#
#
# Indices 1 2 3 4 5 6 
#
# 1 60.3905 15.6163 23.9778 -14.3531 0.5943 -14.6363
# 2 15.6163 61.2666 9.8059 -6.8350 -2.5631 1.9257
# 3 23.9778 9.8059 74.0828 -8.9765 9.4774 -10.3652
# 4 -14.3531 -6.8350 -8.9765 34.8157 -7.4494 2.6665
# 5 0.5943 -2.5631 9.4774 -7.4494 38.5711 -11.8509
# 6 -14.6363 1.9257 -10.3652 2.6665 -11.8509 32.5199
#
#
#
# Elastic Compliance Matrix: (Units=1/GPa)
#
#
# Indices 1 2 3 4 5 6 
#
# 1 0.024437 -0.004548 -0.005516 0.008122 0.005588 0.010880
# 2 -0.004548 0.018028 -0.001281 0.001783 0.000901 -0.003341
# 3 -0.005516 -0.001281 0.016187 0.000815 -0.003373 0.001457
# 4 0.008122 0.001783 0.000815 0.033949 0.007505 0.003761
# 5 0.005588 0.000901 -0.003373 0.007505 0.031998 0.012432
# 6 0.010880 -0.003341 0.001457 0.003761 0.012432 0.040532
#
#
# Mechanical properties :
#
#
# Convention : Reuss Voigt Hill
#
# Bulk Modulus (GPa) = 27.80655 32.72668 30.26661
# Shear Modulus (GPa) = 25.02400 30.93735 27.98067
#
# Velocity S-wave (km/s) = 3.14626 3.49830 3.32694
# Velocity P-wave (km/s) = 4.91917 5.40957 5.17019
#
# Compressibility (1/GPa) = 0.03596275
#
# Stress axis : x y z
#
# Youngs Moduli (GPa) = 40.92096 55.46944 61.77693
#
# Poissons Ratio (x) = 0.25228 0.34076
# Poissons Ratio (y) = 0.18611 0.07913
# Poissons Ratio (z) = 0.22572 0.07105
#
# Static dielectric constant tensor:
#      x y z
#    x 1.987740 0.018460 0.041830 
#    y 0.018460 2.002380 0.070420 
#    z 0.041830 0.070420 2.100100 
# 
# From -- ./inp_files/376420.got.cif
#   From: 2010.05.17/outbox.cif.g08.bks.cpg/sg2_189_cif.got.tgz:376420.got - 2010.06.03 11:33:40.
