data_PCOD9053735
_publ_section_title
;
Structure prediction by ZEFSAII (Michael W. Deem and Ramdas Pophale) SiO2 
 PCOD9053735
Probable space group: P -1
;
_chemical_formula_sum "Si O2"
_cell_formula_units_Z 12
_cell_length_a 8.333126
_cell_length_b 20.520238
_cell_length_c 6.721495
_cell_angle_alpha 66.235966
_cell_angle_beta 125.183082
_cell_angle_gamma 144.212129
_cell_volume 544.327909
_symmetry_space_group_name_H-M "P -1"
_symmetry_group_IT_number 2
_symmetry_cell_setting 'triclinic'
loop_
_space_group_symop_operation_xyz
x,y,z
-x,-y,-z
loop_
_atom_site_type_symbol
_atom_site_label
_atom_site_fract_x
_atom_site_fract_y
_atom_site_fract_z
Si Si1 0.851414 0.675283 0.074426
Si Si2 0.930051 0.930811 0.224181
Si Si3 0.493952 0.679849 0.095408
Si Si4 0.334092 0.384481 0.432791
Si Si5 0.458021 0.112981 0.637594
Si Si6 0.843879 0.311430 0.412336
O O1 0.189555 0.809132 0.153994
O O2 0.928728 0.623891 0.313547
O O3 0.616047 0.657174 0.051203
O O4 0.734465 0.629728 0.828476
O O5 0.747101 0.810956 0.164643
O O6 0.714184 0.911019 0.256360
O O7 0.240381 0.001406 0.487557
O O8 0.000000 0.000000 0.000000
O O9 0.467584 0.627918 0.343522
O O10 0.208885 0.639974 0.837323
O O11 0.500000 0.500000 0.500000
O O12 0.997089 0.290698 0.418039
O O13 0.523942 0.198424 0.428893
#
# Coordination Sequence:
#
# PCOD9053735 Si02
#       6
#     2   2   2   2   2   2
#     4   9  22  41  62  88 128 161 206 263 309 362
#     4  11  20  36  66  94 128 167 209 243 306 375
#     4  11  23  39  67  95 126 166 211 255 307 377
#     4  11  25  44  66  91 123 165 212 267 318 369
#     4   9  21  38  61  92 130 168 195 256 304 364
#     4   9  21  42  62  92 128 164 203 259 309 366
#
# _framework density 22.045536999999999
#
# number of rings (size 3 to 8) (size 9 to 14) (size 15 to 20)
#    1.000    1.000    1.667    1.000    2.333    4.000 
#    0.000    3.333    0.000    0.000    0.000    0.000 
#    0.000    0.000    0.000    0.000    0.000    0.000 
#
# Total GULP energy -66844.706482 kJ/mol
# GULP energy per Si atom -5570.392207 kJ/mol
# Density = 2.199536 g / cm^3
# Si number density = 22.045537 Si / 1000 Ang^3
#
#
#
# Elastic Constant Matrix: (Units=GPa)
#
#
# Indices 1 2 3 4 5 6 
#
# 1 31.1717 -0.1124 39.9406 14.8953 9.0760 6.2190
# 2 -0.1124 80.9950 43.0243 11.6462 -1.5291 -4.8871
# 3 39.9406 43.0243 218.3120 12.7262 -0.0618 -20.9258
# 4 14.8953 11.6462 12.7262 20.7415 -20.4884 1.4674
# 5 9.0760 -1.5291 -0.0618 -20.4884 22.5731 -4.6576
# 6 6.2190 -4.8871 -20.9258 1.4674 -4.6576 30.5127
#
#
#
# Elastic Compliance Matrix: (Units=1/GPa)
#
#
# Indices 1 2 3 4 5 6 
#
# 1 -0.001036 -0.004960 -0.001214 0.045680 0.042120 0.002817
# 2 -0.004960 0.012545 -0.001707 0.007507 0.010284 0.003059
# 3 -0.001214 -0.001707 0.006052 -0.010153 -0.008131 0.003372
# 4 0.045680 0.007507 -0.010153 -0.029575 -0.049092 -0.021142
# 5 0.042120 0.010284 -0.008131 -0.049092 -0.019218 -0.013086
# 6 0.002817 0.003059 0.003372 -0.021142 -0.013086 0.034021
#
#
# Mechanical properties :
#
#
# Convention : Reuss Voigt Hill
#
# Bulk Modulus (GPa) = 555.31746 55.13152 305.22449
# Shear Modulus (GPa) = 261.10167 31.27388 146.18777
#
# Velocity S-wave (km/s) = 10.89470 3.77052 8.15204
# Velocity P-wave (km/s) = 20.26578 6.63461 15.07846
#
# Compressibility (1/GPa) = 0.00180077
#
# Stress axis : x y z
#
# Youngs Moduli (GPa) = -965.44045 79.71060 165.24109
#
# Poissons Ratio (x) = 0.39535 0.20060
# Poissons Ratio (y) = -4.78835 0.28199
# Poissons Ratio (z) = -1.17206 0.13603
#
# Static dielectric constant tensor:
#      x y z
#    x 1.802270 0.074180 0.030250 
#    y 0.074180 1.883100 -0.030780 
#    z 0.030250 -0.030780 1.850050 
# 
# From -- ./inp_files/29331.got.cif
#   From: 2010.05.17/outbox.cif.g08.bks.cpg/sg2_15_cif.got.tgz:29331.got - 2010.06.03 11:33:40.
