data_PCOD9053718
_publ_section_title
;
Structure prediction by ZEFSAII (Michael W. Deem and Ramdas Pophale) SiO2 
 PCOD9053718
Probable space group: P -1
;
_chemical_formula_sum "Si O2"
_cell_formula_units_Z 16
_cell_length_a 12.347615
_cell_length_b 12.075488
_cell_length_c 8.056579
_cell_angle_alpha 127.367244
_cell_angle_beta 88.737881
_cell_angle_gamma 59.891404
_cell_volume 726.844790
_symmetry_space_group_name_H-M "P -1"
_symmetry_group_IT_number 2
_symmetry_cell_setting 'triclinic'
loop_
_space_group_symop_operation_xyz
x,y,z
-x,-y,-z
loop_
_atom_site_type_symbol
_atom_site_label
_atom_site_fract_x
_atom_site_fract_y
_atom_site_fract_z
Si Si1 0.161481 0.383690 0.610289
Si Si2 0.763254 0.794844 0.041063
Si Si3 0.804685 0.018257 0.444938
Si Si4 0.461475 0.986776 0.299699
Si Si5 0.812027 0.480873 0.946904
Si Si6 0.986467 0.103958 0.397689
Si Si7 0.010477 0.298778 0.322520
Si Si8 0.493974 0.671438 0.168969
O O1 0.315552 0.184268 0.436152
O O2 0.055983 0.348550 0.528659
O O3 0.131821 0.521557 0.592139
O O4 0.115500 0.500870 0.885394
O O5 0.802480 0.857984 0.256176
O O6 0.593794 0.935279 0.142347
O O7 0.788499 0.615644 0.929824
O O8 0.860481 0.775107 0.874547
O O9 0.914393 0.013220 0.323778
O O10 0.640877 0.195661 0.585201
O O11 0.861601 0.011382 0.619690
O O12 0.500000 0.000000 0.500000
O O13 0.457175 0.820476 0.162765
O O14 0.886854 0.285506 0.684689
O O15 0.657091 0.572976 0.111897
O O16 0.993402 0.159516 0.265090
O O17 0.500000 0.500000 0.000000
#
# Coordination Sequence:
#
# PCOD9053718 Si02
#       8
#     2   2   2   2   2   2   2   2
#     4  11  21  40  64  95 125 164 207 265 307 370
#     4  11  22  39  64  93 122 168 202 264 307 365
#     4  11  22  40  65  89 125 160 216 255 306 367
#     4  11  20  39  67  96 117 156 218 265 302 364
#     4  11  20  38  67  92 119 159 217 255 307 361
#     4  11  24  39  60  94 124 169 204 258 308 376
#     4  11  25  38  58  95 136 164 201 255 321 374
#     4  11  20  36  62  98 118 148 202 278 309 350
#
# _framework density 22.012953
#
# number of rings (size 3 to 8) (size 9 to 14) (size 15 to 20)
#    0.000    1.000    5.000    3.750    0.000    2.500 
#    0.000    1.250    0.000    1.500    0.000    0.000 
#    0.000    0.000    0.000    0.000    0.000    0.000 
#
# Total GULP energy -89239.326701 kJ/mol
# GULP energy per Si atom -5577.457919 kJ/mol
# Density = 2.196285 g / cm^3
# Si number density = 22.012953 Si / 1000 Ang^3
#
#
#
# Elastic Constant Matrix: (Units=GPa)
#
#
# Indices 1 2 3 4 5 6 
#
# 1 121.0187 45.2989 32.3367 8.3090 -15.0852 12.9386
# 2 45.2989 104.1968 11.5122 14.9306 -17.0337 7.7354
# 3 32.3367 11.5122 61.0157 17.6694 -8.5103 -11.0390
# 4 8.3090 14.9306 17.6694 28.8924 3.0831 1.0663
# 5 -15.0852 -17.0337 -8.5103 3.0831 31.7488 10.9280
# 6 12.9386 7.7354 -11.0390 1.0663 10.9280 42.0637
#
#
#
# Elastic Compliance Matrix: (Units=1/GPa)
#
#
# Indices 1 2 3 4 5 6 
#
# 1 0.012658 -0.004024 -0.007333 0.002751 0.003728 -0.006116
# 2 -0.004024 0.013687 0.002579 -0.008231 0.007751 -0.002407
# 3 -0.007333 0.002579 0.026449 -0.016100 0.003745 0.008158
# 4 0.002751 -0.008231 -0.016100 0.049222 -0.011587 -0.001795
# 5 0.003728 0.007751 0.003745 -0.011587 0.043931 -0.012709
# 6 -0.006116 -0.002407 0.008158 -0.001795 -0.012709 0.031586
#
#
# Mechanical properties :
#
#
# Convention : Reuss Voigt Hill
#
# Bulk Modulus (GPa) = 28.37661 51.61409 39.99535
# Shear Modulus (GPa) = 24.17394 33.67987 28.92691
#
# Velocity S-wave (km/s) = 3.31746 3.91577 3.62896
# Velocity P-wave (km/s) = 5.25289 6.62890 5.98060
#
# Compressibility (1/GPa) = 0.03524029
#
# Stress axis : x y z
#
# Youngs Moduli (GPa) = 78.99878 73.06327 37.80803
#
# Poissons Ratio (x) = 0.29398 0.27724
# Poissons Ratio (y) = 0.31786 -0.09752
# Poissons Ratio (z) = 0.57928 -0.18845
#
# Static dielectric constant tensor:
#      x y z
#    x 1.832110 0.008720 -0.024910 
#    y 0.008720 1.843830 0.006520 
#    z -0.024910 0.006520 1.895610 
# 
# From -- ./inp_files/263472.got.cif
#   From: 2010.05.17/outbox.cif.g08.bks.cpg/sg2_132_cif.got.tgz:263472.got - 2010.06.03 11:33:40.
