data_PCOD9053825
_publ_section_title
;
Structure prediction by ZEFSAII (Michael W. Deem and Ramdas Pophale) SiO2 
 PCOD9053825
Probable space group: P -1
;
_chemical_formula_sum "Si O2"
_cell_formula_units_Z 16
_cell_length_a 20.498269
_cell_length_b 23.150474
_cell_length_c 11.836255
_cell_angle_alpha 28.420809
_cell_angle_beta 28.213554
_cell_angle_gamma 17.913242
_cell_volume 783.600414
_symmetry_space_group_name_H-M "P -1"
_symmetry_group_IT_number 2
_symmetry_cell_setting 'triclinic'
loop_
_space_group_symop_operation_xyz
x,y,z
-x,-y,-z
loop_
_atom_site_type_symbol
_atom_site_label
_atom_site_fract_x
_atom_site_fract_y
_atom_site_fract_z
Si Si1 0.206866 0.161487 0.459599
Si Si2 0.720098 0.803214 0.351593
Si Si3 0.301491 0.662783 0.609258
Si Si4 0.363835 0.368510 0.072002
Si Si5 0.136974 0.066033 0.945670
Si Si6 0.010770 0.555843 0.112672
Si Si7 0.731726 0.906555 0.778147
Si Si8 0.143980 0.960683 0.485833
O O1 0.107564 0.133683 0.746824
O O2 0.237513 0.097253 0.395379
O O3 0.055302 0.385357 0.310442
O O4 0.458090 0.015100 0.373734
O O5 0.732160 0.670817 0.633444
O O6 0.837611 0.832521 0.187934
O O7 0.829523 0.703922 0.233862
O O8 0.500000 0.500000 0.500000
O O9 0.314273 0.784823 0.439187
O O10 0.319647 0.537489 0.883632
O O11 0.059940 0.833515 0.623262
O O12 0.238595 0.443581 0.014869
O O13 0.623318 0.164306 0.018218
O O14 0.963402 0.083814 0.216081
O O15 0.927793 0.686733 0.906566
O O16 0.748159 0.020600 0.625146
O O17 0.500000 0.000000 0.000000
#
# Coordination Sequence:
#
# PCOD9053825 Si02
#       8
#     2   2   2   2   2   2   2   2
#     4  11  24  43  66  98 131 175 219 265 318 387
#     4  11  22  39  67 104 135 161 213 277 327 381
#     4  11  23  41  65 102 134 162 213 268 332 393
#     4  11  20  37  68 103 131 165 208 268 333 389
#     4  11  22  42  69 101 137 161 211 280 332 386
#     4  12  22  39  69  96 128 172 218 263 329 379
#     4  12  27  48  64  90 133 180 226 265 310 391
#     4  11  26  42  65  94 132 179 208 268 334 377
#
# _framework density 20.418569999999999
#
# number of rings (size 3 to 8) (size 9 to 14) (size 15 to 20)
#    0.000    0.750    6.250    2.250    3.500    1.500 
#    2.250    0.000    0.000    2.250    0.000    0.000 
#    0.000    0.000    0.000    0.000    0.000    0.000 
#
# Total GULP energy -89475.103294 kJ/mol
# GULP energy per Si atom -5592.193956 kJ/mol
# Density = 2.037210 g / cm^3
# Si number density = 20.418570 Si / 1000 Ang^3
#
#
#
# Elastic Constant Matrix: (Units=GPa)
#
#
# Indices 1 2 3 4 5 6 
#
# 1 114.4014 27.8952 54.3754 -10.9402 0.8335 10.8626
# 2 27.8952 91.2408 41.4102 -16.8356 -3.9425 21.2416
# 3 54.3754 41.4102 124.6512 -13.1997 -4.8011 11.8567
# 4 -10.9402 -16.8356 -13.1997 37.1426 2.9520 1.1536
# 5 0.8335 -3.9425 -4.8011 2.9520 33.3788 -5.9951
# 6 10.8626 21.2416 11.8567 1.1536 -5.9951 33.6465
#
#
#
# Elastic Compliance Matrix: (Units=1/GPa)
#
#
# Indices 1 2 3 4 5 6 
#
# 1 0.011376 -0.000798 -0.004401 0.001605 -0.001502 -0.001941
# 2 -0.000798 0.015958 -0.003487 0.006095 -0.000740 -0.008929
# 3 -0.004401 -0.003487 0.011273 0.001040 0.001197 -0.000173
# 4 0.001605 0.006095 0.001040 0.030967 -0.003048 -0.006337
# 5 -0.001502 -0.000740 0.001197 -0.003048 0.031472 0.006242
# 6 -0.001941 -0.008929 -0.000173 -0.006337 0.006242 0.037375
#
#
# Mechanical properties :
#
#
# Convention : Reuss Voigt Hill
#
# Bulk Modulus (GPa) = 47.08954 64.18388 55.63671
# Shear Modulus (GPa) = 30.69910 34.60774 32.65342
#
# Velocity S-wave (km/s) = 3.88169 4.12140 4.00334
# Velocity P-wave (km/s) = 6.57284 7.35868 6.97684
#
# Compressibility (1/GPa) = 0.02123614
#
# Stress axis : x y z
#
# Youngs Moduli (GPa) = 87.90390 62.66452 88.70623
#
# Poissons Ratio (x) = 0.04998 0.39038
# Poissons Ratio (y) = 0.07011 0.30934
# Poissons Ratio (z) = 0.38684 0.21852
#
# Static dielectric constant tensor:
#      x y z
#    x 1.725430 0.028420 0.018360 
#    y 0.028420 1.752120 0.014680 
#    z 0.018360 0.014680 1.783330 
# 
# From -- ./inp_files/467024.got.cif
#   From: 2010.05.17/outbox.cif.g08.bks.cpg/sg2_234_cif.got.tgz:467024.got - 2010.06.03 11:33:40.
