data_PCOD9053330
_publ_section_title
;
Structure prediction by ZEFSAII (Michael W. Deem and Ramdas Pophale) SiO2 
 PCOD9053330
Probable space group: P -1
;
_chemical_formula_sum "Si O2"
_cell_formula_units_Z 16
_cell_length_a 9.289906
_cell_length_b 21.415175
_cell_length_c 11.110941
_cell_angle_alpha 51.906374
_cell_angle_beta 116.197743
_cell_angle_gamma 152.808828
_cell_volume 758.743889
_symmetry_space_group_name_H-M "P -1"
_symmetry_group_IT_number 2
_symmetry_cell_setting 'triclinic'
loop_
_space_group_symop_operation_xyz
x,y,z
-x,-y,-z
loop_
_atom_site_type_symbol
_atom_site_label
_atom_site_fract_x
_atom_site_fract_y
_atom_site_fract_z
Si Si1 0.869008 0.375021 0.775307
Si Si2 0.039406 0.612869 0.484781
Si Si3 0.514231 0.600262 0.878233
Si Si4 0.441161 0.049911 0.079550
Si Si5 0.217079 0.094024 0.589266
Si Si6 0.956614 0.142442 0.064273
Si Si7 0.963359 0.140166 0.448477
Si Si8 0.232946 0.842696 0.441941
O O1 0.972749 0.386300 0.666393
O O2 0.804708 0.440898 0.650605
O O3 0.170458 0.488291 0.842821
O O4 0.567223 0.193183 0.932918
O O5 0.399661 0.731210 0.503339
O O6 0.054082 0.702642 0.454469
O O7 0.666260 0.692709 0.951668
O O8 0.792337 0.741762 0.713612
O O9 0.500000 0.500000 0.000000
O O10 0.749480 0.127169 0.059468
O O11 0.334907 0.968856 0.263843
O O12 0.135050 0.899926 0.057579
O O13 0.088294 0.114411 0.589151
O O14 0.187434 0.999453 0.761028
O O15 0.000000 0.000000 0.500000
O O16 0.972010 0.219669 0.443513
O O17 0.588754 0.964761 0.473494
#
# Coordination Sequence:
#
# PCOD9053330 Si02
#       8
#     2   2   2   2   2   2   2   2
#     4  11  22  33  62  91 121 145 202 250 296 332
#     4  11  20  36  60  89 117 156 193 249 293 348
#     4  12  21  35  58  91 119 146 196 253 291 338
#     4  11  19  37  59  90 118 157 193 246 294 356
#     4  12  17  34  61  90 112 145 209 252 277 333
#     4  11  20  32  62  89 114 149 206 245 288 336
#     4  11  23  37  61  89 119 156 199 245 289 360
#     4  11  22  40  61  85 122 164 196 230 304 363
#
# _framework density 21.087482000000001
#
# number of rings (size 3 to 8) (size 9 to 14) (size 15 to 20)
#    0.000    0.750    8.750    0.750    0.000    0.000 
#    0.000    1.250    2.750    2.250    0.000    0.000 
#    0.000    0.000    0.000    0.000    0.000    0.000 
#
# Total GULP energy -89294.470373 kJ/mol
# GULP energy per Si atom -5580.904398 kJ/mol
# Density = 2.103949 g / cm^3
# Si number density = 21.087482 Si / 1000 Ang^3
#
#
#
# Elastic Constant Matrix: (Units=GPa)
#
#
# Indices 1 2 3 4 5 6 
#
# 1 48.1755 7.8040 6.7736 -7.1959 6.9488 -14.6365
# 2 7.8040 100.4837 6.9849 17.1137 -1.8820 -12.6137
# 3 6.7736 6.9849 80.2209 -9.8335 28.4616 -6.7382
# 4 -7.1959 17.1137 -9.8335 36.7793 -10.9854 10.5060
# 5 6.9488 -1.8820 28.4616 -10.9854 20.9064 -6.6831
# 6 -14.6365 -12.6137 -6.7382 10.5060 -6.6831 20.4949
#
#
#
# Elastic Compliance Matrix: (Units=1/GPa)
#
#
# Indices 1 2 3 4 5 6 
#
# 1 0.026764 0.000416 0.000753 -0.001542 -0.004656 0.018890
# 2 0.000416 0.013633 -0.002709 -0.009792 0.004162 0.014173
# 3 0.000753 -0.002709 0.025231 -0.001768 -0.037054 -0.004010
# 4 -0.001542 -0.009792 -0.001768 0.042921 0.016851 -0.024216
# 5 -0.004656 0.004162 -0.037054 0.016851 0.114041 0.015604
# 6 0.018890 0.014173 -0.004010 -0.024216 0.015604 0.087189
#
#
# Mechanical properties :
#
#
# Convention : Reuss Voigt Hill
#
# Bulk Modulus (GPa) = 15.98756 30.22278 23.10517
# Shear Modulus (GPa) = 14.98317 29.45729 22.22023
#
# Velocity S-wave (km/s) = 2.66846 3.74158 3.24962
# Velocity P-wave (km/s) = 4.13427 5.74709 5.00606
#
# Compressibility (1/GPa) = 0.06254863
#
# Stress axis : x y z
#
# Youngs Moduli (GPa) = 37.36303 73.35352 39.63453
#
# Poissons Ratio (x) = -0.03049 -0.02986
# Poissons Ratio (y) = -0.01553 0.10735
# Poissons Ratio (z) = -0.02815 0.19868
#
# Static dielectric constant tensor:
#      x y z
#    x 1.788810 -0.052910 0.040450 
#    y -0.052910 1.820170 -0.029150 
#    z 0.040450 -0.029150 1.779840 
# 
# From -- ./inp_files/277785.got.cif
#   From: 2010.05.17/outbox.cif.g08.bks.cpg/sg2_139_cif.got.tgz:277785.got - 2010.06.03 11:33:40.
