data_PCOD9053750
_publ_section_title
;
Structure prediction by ZEFSAII (Michael W. Deem and Ramdas Pophale) SiO2 
 PCOD9053750
Probable space group: P -1
;
_chemical_formula_sum "Si O2"
_cell_formula_units_Z 14
_cell_length_a 9.058516
_cell_length_b 7.773764
_cell_length_c 10.885083
_cell_angle_alpha 89.415494
_cell_angle_beta 75.375837
_cell_angle_gamma 130.008654
_cell_volume 552.483177
_symmetry_space_group_name_H-M "P -1"
_symmetry_group_IT_number 2
_symmetry_cell_setting 'triclinic'
loop_
_space_group_symop_operation_xyz
x,y,z
-x,-y,-z
loop_
_atom_site_type_symbol
_atom_site_label
_atom_site_fract_x
_atom_site_fract_y
_atom_site_fract_z
Si Si1 0.345307 0.518872 0.591773
Si Si2 0.579756 0.646589 0.788623
Si Si3 0.905523 0.466675 0.885508
Si Si4 0.474608 0.207340 0.943316
Si Si5 0.912480 0.073756 0.105862
Si Si6 0.061175 0.009397 0.637145
Si Si7 0.859475 0.320811 0.422920
O O1 0.500000 0.500000 0.500000
O O2 0.420083 0.585946 0.717338
O O3 0.136059 0.260983 0.598131
O O4 0.339824 0.706131 0.534657
O O5 0.517524 0.409601 0.849625
O O6 0.813831 0.820487 0.687626
O O7 0.571456 0.762137 0.909547
O O8 0.676395 0.241699 0.902114
O O9 0.895650 0.664898 0.901944
O O10 0.047256 0.558031 0.733992
O O11 0.000000 0.500000 0.000000
O O12 0.276927 0.979720 0.920126
O O13 0.849047 0.943032 0.245776
O O14 0.000000 0.000000 0.000000
O O15 0.143635 0.889784 0.564467
O O16 0.000000 0.500000 0.500000
#
# Coordination Sequence:
#
# PCOD9053750 Si02
#       7
#     2   2   2   2   2   2   2
#     4  12  28  46  74 101 135 187 250 291 354 435
#     4  11  21  39  68 105 135 183 232 286 352 427
#     4  11  25  42  65 104 147 183 237 301 355 421
#     4  11  20  36  70  99 139 183 231 280 357 427
#     4  11  20  37  66 101 136 185 227 282 355 420
#     4  11  24  46  72 103 144 187 235 294 364 418
#     4  11  26  48  72 102 147 189 236 303 358 419
#
# _framework density 25.340139000000001
#
# number of rings (size 3 to 8) (size 9 to 14) (size 15 to 20)
#    0.000    0.857    5.714    2.571    2.000    3.429 
#    0.000    5.714    0.000    0.000    0.000    0.000 
#    0.000    0.000    0.000    0.000    0.000    0.000 
#
# Total GULP energy -78125.654290 kJ/mol
# GULP energy per Si atom -5580.403878 kJ/mol
# Density = 2.528246 g / cm^3
# Si number density = 25.340139 Si / 1000 Ang^3
#
#
#
# Elastic Constant Matrix: (Units=GPa)
#
#
# Indices 1 2 3 4 5 6 
#
# 1 112.1646 32.1018 14.4047 0.0704 25.2777 12.8554
# 2 32.1018 122.3741 4.8659 13.2658 1.5703 6.5023
# 3 14.4047 4.8659 90.6607 31.2983 29.0264 6.2855
# 4 0.0704 13.2658 31.2983 23.3302 3.7227 2.1095
# 5 25.2777 1.5703 29.0264 3.7227 52.2137 11.4464
# 6 12.8554 6.5023 6.2855 2.1095 11.4464 42.8998
#
#
#
# Elastic Compliance Matrix: (Units=1/GPa)
#
#
# Indices 1 2 3 4 5 6 
#
# 1 0.011269 -0.003309 -0.001963 0.005317 -0.004269 -0.001710
# 2 -0.003309 0.010066 0.003602 -0.010520 0.000177 -0.000592
# 3 -0.001963 0.003602 0.028078 -0.037844 -0.012304 0.001072
# 4 0.005317 -0.010520 -0.037844 0.097857 0.012366 -0.002565
# 5 -0.004269 0.000177 -0.012304 0.012366 0.028290 -0.005101
# 6 -0.001710 -0.000592 0.001072 -0.002565 -0.005101 0.025242
#
#
# Mechanical properties :
#
#
# Convention : Reuss Voigt Hill
#
# Bulk Modulus (GPa) = 21.70446 47.54933 34.62690
# Shear Modulus (GPa) = 22.77895 41.94387 32.36141
#
# Velocity S-wave (km/s) = 3.00146 4.07287 3.57750
# Velocity P-wave (km/s) = 4.53823 6.39710 5.54610
#
# Compressibility (1/GPa) = 0.04607348
#
# Stress axis : x y z
#
# Youngs Moduli (GPa) = 88.73629 99.34372 35.61466
#
# Poissons Ratio (x) = 0.32872 0.06991
# Poissons Ratio (y) = 0.29362 -0.12828
# Poissons Ratio (z) = 0.17419 -0.35782
#
# Static dielectric constant tensor:
#      x y z
#    x 1.978100 0.003100 0.000420 
#    y 0.003100 2.035890 -0.169220 
#    z 0.000420 -0.169220 2.174940 
# 
# From -- ./inp_files/187066.got.cif
#   From: 2010.05.17/outbox.cif.g08.bks.cpg/sg2_94_cif.got.tgz:187066.got - 2010.06.03 11:33:40.
