data_PCOD9053776
_publ_section_title
;
Structure prediction by ZEFSAII (Michael W. Deem and Ramdas Pophale) SiO2 
 PCOD9053776
Probable space group: P -1
;
_chemical_formula_sum "Si O2"
_cell_formula_units_Z 16
_cell_length_a 14.097720
_cell_length_b 15.704533
_cell_length_c 7.853606
_cell_angle_alpha 68.041883
_cell_angle_beta 118.230452
_cell_angle_gamma 153.173759
_cell_volume 686.252898
_symmetry_space_group_name_H-M "P -1"
_symmetry_group_IT_number 2
_symmetry_cell_setting 'triclinic'
loop_
_space_group_symop_operation_xyz
x,y,z
-x,-y,-z
loop_
_atom_site_type_symbol
_atom_site_label
_atom_site_fract_x
_atom_site_fract_y
_atom_site_fract_z
Si Si1 0.924910 0.026143 0.790717
Si Si2 0.619720 0.206781 0.108068
Si Si3 0.195414 0.369458 0.286531
Si Si4 0.356150 0.466106 0.802723
Si Si5 0.673640 0.012480 0.650543
Si Si6 0.645723 0.716422 0.529628
Si Si7 0.258134 0.907466 0.743520
Si Si8 0.886057 0.582636 0.142751
O O1 0.754308 0.967597 0.780668
O O2 0.128345 0.242592 0.757116
O O3 0.827506 0.919076 0.608620
O O4 0.000000 0.000000 0.000000
O O5 0.728617 0.192684 0.151040
O O6 0.798384 0.422525 0.109287
O O7 0.521531 0.118122 0.281760
O O8 0.414102 0.067839 0.904270
O O9 0.451152 0.600665 0.322423
O O10 0.238077 0.293258 0.403561
O O11 0.001922 0.259600 0.330559
O O12 0.099954 0.327403 0.054931
O O13 0.486353 0.581545 0.656939
O O14 0.298200 0.517047 0.808637
O O15 0.500000 0.500000 0.000000
O O16 0.644716 0.997008 0.433130
O O17 0.873035 0.232854 0.701630
#
# Coordination Sequence:
#
# PCOD9053776 Si02
#       8
#     2   2   2   2   2   2   2   2
#     4  11  22  36  67  98 133 181 222 272 340 407
#     4  11  26  47  74  99 135 181 232 289 352 393
#     4  11  23  43  64  97 145 172 229 281 339 409
#     4  11  20  37  61  93 131 175 226 268 330 406
#     4  11  24  47  70 100 138 178 230 283 340 413
#     4  11  23  40  62  96 136 183 217 277 336 410
#     4  11  26  49  70 102 137 178 234 294 336 411
#     4  11  23  42  69  99 137 182 219 285 342 403
#
# _framework density 23.315020000000001
#
# number of rings (size 3 to 8) (size 9 to 14) (size 15 to 20)
#    0.000    1.000    3.750    3.375    1.750    1.000 
#    0.000    1.875    0.000    0.000    0.000    0.000 
#    0.000    0.000    0.000    0.000    0.000    0.000 
#
# Total GULP energy -89406.968322 kJ/mol
# GULP energy per Si atom -5587.935520 kJ/mol
# Density = 2.326195 g / cm^3
# Si number density = 23.315020 Si / 1000 Ang^3
#
#
#
# Elastic Constant Matrix: (Units=GPa)
#
#
# Indices 1 2 3 4 5 6 
#
# 1 93.3475 22.0919 12.1723 2.8531 9.8563 -4.8278
# 2 22.0919 88.6799 15.3356 19.9136 1.6326 -16.3895
# 3 12.1723 15.3356 85.5579 9.1129 -9.4475 1.1600
# 4 2.8531 19.9136 9.1129 33.7397 1.0442 -10.9855
# 5 9.8563 1.6326 -9.4475 1.0442 36.3676 -1.1517
# 6 -4.8278 -16.3895 1.1600 -10.9855 -1.1517 41.3159
#
#
#
# Elastic Compliance Matrix: (Units=1/GPa)
#
#
# Indices 1 2 3 4 5 6 
#
# 1 0.011978 -0.002824 -0.001757 0.001439 -0.003598 0.000611
# 2 -0.002824 0.014416 -0.001518 -0.006669 0.000031 0.003659
# 3 -0.001757 -0.001518 0.013016 -0.003218 0.003957 -0.001918
# 4 0.001439 -0.006669 -0.003218 0.036767 -0.001750 0.007340
# 5 -0.003598 0.000031 0.003957 -0.001750 0.029544 -0.000161
# 6 0.000611 0.003659 -0.001918 0.007340 -0.000161 0.027728
#
#
# Mechanical properties :
#
#
# Convention : Reuss Voigt Hill
#
# Bulk Modulus (GPa) = 36.74861 40.75386 38.75124
# Shear Modulus (GPa) = 32.31757 36.81699 34.56728
#
# Velocity S-wave (km/s) = 3.72711 3.97811 3.85466
# Velocity P-wave (km/s) = 5.85814 6.21435 6.03887
#
# Compressibility (1/GPa) = 0.02721191
#
# Stress axis : x y z
#
# Youngs Moduli (GPa) = 83.48967 69.36845 76.83025
#
# Poissons Ratio (x) = 0.19589 0.13496
# Poissons Ratio (y) = 0.23577 0.11662
# Poissons Ratio (z) = 0.14666 0.10530
#
# Static dielectric constant tensor:
#      x y z
#    x 2.021210 -0.068340 -0.013580 
#    y -0.068340 1.863830 0.003600 
#    z -0.013580 0.003600 1.901150 
# 
# From -- ./inp_files/314984.got.cif
#   From: 2010.05.17/outbox.cif.g08.bks.cpg/sg2_158_cif.got.tgz:314984.got - 2010.06.03 11:33:40.
