data_PCOD9053945
_publ_section_title
;
Structure prediction by ZEFSAII (Michael W. Deem and Ramdas Pophale) SiO2 
 PCOD9053945
Probable space group: P -1
;
_chemical_formula_sum "Si O2"
_cell_formula_units_Z 16
_cell_length_a 12.877116
_cell_length_b 8.332318
_cell_length_c 10.236707
_cell_angle_alpha 56.935854
_cell_angle_beta 56.119491
_cell_angle_gamma 47.553377
_cell_volume 646.648826
_symmetry_space_group_name_H-M "P -1"
_symmetry_group_IT_number 2
_symmetry_cell_setting 'triclinic'
loop_
_space_group_symop_operation_xyz
x,y,z
-x,-y,-z
loop_
_atom_site_type_symbol
_atom_site_label
_atom_site_fract_x
_atom_site_fract_y
_atom_site_fract_z
Si Si1 0.218237 0.405432 0.172728
Si Si2 0.988418 0.903681 0.764190
Si Si3 0.090352 0.617514 0.415859
Si Si4 0.604494 0.944525 0.323416
Si Si5 0.280905 0.921241 0.297058
Si Si6 0.507658 0.299758 0.001497
Si Si7 0.076228 0.151173 0.895247
Si Si8 0.258807 0.554561 0.596366
O O1 0.221237 0.501093 0.270513
O O2 0.346755 0.401387 0.004074
O O3 0.054286 0.589195 0.156050
O O4 0.266094 0.146329 0.261972
O O5 0.142283 0.673502 0.740828
O O6 0.005727 0.118350 0.672185
O O7 0.888174 0.973333 0.675948
O O8 0.898318 0.877782 0.954393
O O9 0.162931 0.577634 0.523254
O O10 0.000000 0.500000 0.500000
O O11 0.766877 0.914532 0.249159
O O12 0.632892 0.709715 0.350543
O O13 0.500000 0.000000 0.500000
O O14 0.537442 0.120439 0.173597
O O15 0.323273 0.712598 0.454323
O O16 0.377782 0.816276 0.145304
O O17 0.500000 0.500000 0.000000
O O18 0.000000 0.000000 0.000000
#
# Coordination Sequence:
#
# PCOD9053945 Si02
#       8
#     2   2   2   2   2   2   2   2
#     4  12  25  41  72 105 140 192 244 301 355 437
#     4  11  22  42  69 105 145 188 236 305 367 425
#     4  11  20  39  64 102 139 181 235 292 362 421
#     4  12  26  48  74 106 143 193 243 297 372 432
#     4  11  23  45  68 102 146 193 245 290 370 441
#     4  12  25  47  72 100 148 199 241 295 370 446
#     4  12  25  45  74 112 145 188 250 308 357 433
#     4  11  25  42  70 105 141 189 237 305 360 431
#
# _framework density 24.742951000000001
#
# number of rings (size 3 to 8) (size 9 to 14) (size 15 to 20)
#    0.000    0.500    2.500    8.625    1.750    1.000 
#    2.250    0.625    0.000    0.000    0.000    0.000 
#    0.000    0.000    0.000    0.000    0.000    0.000 
#
# Total GULP energy -89430.445474 kJ/mol
# GULP energy per Si atom -5589.402842 kJ/mol
# Density = 2.468663 g / cm^3
# Si number density = 24.742951 Si / 1000 Ang^3
#
#
#
# Elastic Constant Matrix: (Units=GPa)
#
#
# Indices 1 2 3 4 5 6 
#
# 1 68.0376 21.2376 12.4133 -2.9989 -26.3422 -8.2111
# 2 21.2376 182.2508 57.7834 -1.1227 -20.6041 9.6434
# 3 12.4133 57.7834 121.5524 13.1138 -16.1533 -8.7855
# 4 -2.9989 -1.1227 13.1138 57.1969 -3.7557 -8.4188
# 5 -26.3422 -20.6041 -16.1533 -3.7557 34.7028 -0.1522
# 6 -8.2111 9.6434 -8.7855 -8.4188 -0.1522 39.3194
#
#
#
# Elastic Compliance Matrix: (Units=1/GPa)
#
#
# Indices 1 2 3 4 5 6 
#
# 1 0.022315 -0.001178 0.000622 0.002964 0.016875 0.005788
# 2 -0.001178 0.006982 -0.003202 0.000553 0.001810 -0.002549
# 3 0.000622 -0.003202 0.010526 -0.001802 0.003288 0.002894
# 4 0.002964 0.000553 -0.001802 0.018923 0.003806 0.004147
# 5 0.016875 0.001810 0.003288 0.003806 0.044664 0.004803
# 6 0.005788 -0.002549 0.002894 0.004147 0.004803 0.028820
#
#
# Mechanical properties :
#
#
# Convention : Reuss Voigt Hill
#
# Bulk Modulus (GPa) = 30.95286 61.63440 46.29363
# Shear Modulus (GPa) = 33.21930 44.93759 39.07844
#
# Velocity S-wave (km/s) = 3.66809 4.26629 3.97845
# Velocity P-wave (km/s) = 5.52058 7.01657 6.31304
#
# Compressibility (1/GPa) = 0.03230719
#
# Stress axis : x y z
#
# Youngs Moduli (GPa) = 44.81372 143.21788 95.00035
#
# Poissons Ratio (x) = 0.16868 -0.05910
# Poissons Ratio (y) = 0.05278 0.30423
# Poissons Ratio (z) = -0.02788 0.45864
#
# Static dielectric constant tensor:
#      x y z
#    x 2.042270 0.020260 -0.030170 
#    y 0.020260 1.982990 0.020050 
#    z -0.030170 0.020050 2.051390 
# 
# From -- ./inp_files/446773.got.cif
#   From: 2010.05.17/outbox.cif.g08.bks.cpg/sg2_224_cif.got.tgz:446773.got - 2010.06.03 11:33:40.
