data_PCOD9053377
_publ_section_title
;
Structure prediction by ZEFSAII (Michael W. Deem and Ramdas Pophale) SiO2 
 PCOD9053377
Probable space group: P -1
;
_chemical_formula_sum "Si O2"
_cell_formula_units_Z 16
_cell_length_a 14.993416
_cell_length_b 8.682349
_cell_length_c 11.610440
_cell_angle_alpha 138.491299
_cell_angle_beta 102.045323
_cell_angle_gamma 100.118304
_cell_volume 841.380908
_symmetry_space_group_name_H-M "P -1"
_symmetry_group_IT_number 2
_symmetry_cell_setting 'triclinic'
loop_
_space_group_symop_operation_xyz
x,y,z
-x,-y,-z
loop_
_atom_site_type_symbol
_atom_site_label
_atom_site_fract_x
_atom_site_fract_y
_atom_site_fract_z
Si Si1 0.177654 0.793837 0.469127
Si Si2 0.651005 0.326020 0.972433
Si Si3 0.463943 0.697500 0.285879
Si Si4 0.963413 0.551396 0.140551
Si Si5 0.677928 0.708669 0.385400
Si Si6 0.251813 0.021741 0.202853
Si Si7 0.151641 0.184202 0.829467
Si Si8 0.751242 0.619006 0.801487
O O1 0.228636 0.605235 0.377622
O O2 0.057998 0.630333 0.298174
O O3 0.249200 0.034916 0.533732
O O4 0.169612 0.941011 0.663461
O O5 0.669228 0.450315 0.174141
O O6 0.749631 0.545370 0.045846
O O7 0.556275 0.312253 0.863310
O O8 0.656149 0.055002 0.820371
O O9 0.558677 0.650663 0.317446
O O10 0.357896 0.511813 0.227605
O O11 0.500000 0.000000 0.500000
O O12 0.943006 0.799920 0.250129
O O13 0.857369 0.269338 0.985599
O O14 0.000000 0.500000 0.000000
O O15 0.727778 0.802097 0.577332
O O16 0.250157 0.185420 0.184840
O O17 0.156679 0.226661 0.991112
#
# Coordination Sequence:
#
# PCOD9053377 Si02
#       8
#     2   2   2   2   2   2   2   2
#     4  11  20  37  62  84 109 148 193 232 272 326
#     4   9  20  37  59  84 110 145 190 233 272 328
#     4  11  19  38  63  83 108 146 194 233 273 326
#     4  11  19  38  63  83 108 146 194 233 273 326
#     4  11  20  37  62  84 109 148 193 232 272 326
#     4  11  23  38  55  84 121 148 179 230 284 335
#     4   9  20  37  59  84 110 145 190 233 272 328
#     4  11  23  38  55  84 121 148 179 230 284 335
#
# _framework density 19.016358
#
# number of rings (size 3 to 8) (size 9 to 14) (size 15 to 20)
#    0.000    1.500    5.000    1.500    0.000    2.000 
#    0.000    1.250    0.000    0.000    0.000    0.000 
#    0.000    0.000    0.000    0.000    0.000    0.000 
#
# Total GULP energy -89164.277661 kJ/mol
# GULP energy per Si atom -5572.767354 kJ/mol
# Density = 1.897308 g / cm^3
# Si number density = 19.016358 Si / 1000 Ang^3
#
#
#
# Elastic Constant Matrix: (Units=GPa)
#
#
# Indices 1 2 3 4 5 6 
#
# 1 61.3291 28.1515 12.1567 -0.5448 -0.7016 -3.3827
# 2 28.1515 87.7710 41.2112 -5.1547 -11.7844 -6.5343
# 3 12.1567 41.2112 79.5045 -3.8820 -16.4691 -0.1299
# 4 -0.5448 -5.1547 -3.8820 6.4264 -1.2568 4.7741
# 5 -0.7016 -11.7844 -16.4691 -1.2568 40.6186 -0.7925
# 6 -3.3827 -6.5343 -0.1299 4.7741 -0.7925 11.4134
#
#
#
# Elastic Compliance Matrix: (Units=1/GPa)
#
#
# Indices 1 2 3 4 5 6 
#
# 1 0.019524 -0.006372 -0.000450 -0.008091 -0.001839 0.005390
# 2 -0.006372 0.018135 -0.007692 0.005002 0.002314 0.006475
# 3 -0.000450 -0.007692 0.018372 0.012893 0.005426 -0.009344
# 4 -0.008091 0.005002 0.012893 0.243756 0.012120 -0.100506
# 5 -0.001839 0.002314 0.005426 0.012120 0.027789 -0.002299
# 6 0.005390 0.006475 -0.009344 -0.100506 -0.002299 0.134696
#
#
# Mechanical properties :
#
#
# Convention : Reuss Voigt Hill
#
# Bulk Modulus (GPa) = 37.03128 43.51594 40.27361
# Shear Modulus (GPa) = 9.99400 21.49736 15.74568
#
# Velocity S-wave (km/s) = 2.29497 3.36589 2.88063
# Velocity P-wave (km/s) = 5.15152 6.16755 5.68229
#
# Compressibility (1/GPa) = 0.02700420
#
# Stress axis : x y z
#
# Youngs Moduli (GPa) = 51.21973 55.14205 54.43036
#
# Poissons Ratio (x) = 0.35135 0.02448
# Poissons Ratio (y) = 0.32635 0.41868
# Poissons Ratio (z) = 0.02303 0.42415
#
# Static dielectric constant tensor:
#      x y z
#    x 1.710500 -0.023890 -0.015980 
#    y -0.023890 1.635130 -0.017510 
#    z -0.015980 -0.017510 1.729810 
# 
# From -- ./inp_files/258716.got.cif
#   From: 2010.05.17/outbox.cif.g08.bks.cpg/sg2_130_cif.got.tgz:258716.got - 2010.06.03 11:33:40.
