data_PCOD9053675
_publ_section_title
;
Structure prediction by ZEFSAII (Michael W. Deem and Ramdas Pophale) SiO2 
 PCOD9053675
Probable space group: P -1
;
_chemical_formula_sum "Si O2"
_cell_formula_units_Z 16
_cell_length_a 21.702115
_cell_length_b 15.852124
_cell_length_c 12.456209
_cell_angle_alpha 153.057526
_cell_angle_beta 152.173531
_cell_angle_gamma 22.133516
_cell_volume 687.092999
_symmetry_space_group_name_H-M "P -1"
_symmetry_group_IT_number 2
_symmetry_cell_setting 'triclinic'
loop_
_space_group_symop_operation_xyz
x,y,z
-x,-y,-z
loop_
_atom_site_type_symbol
_atom_site_label
_atom_site_fract_x
_atom_site_fract_y
_atom_site_fract_z
Si Si1 0.670610 0.863335 0.182391
Si Si2 0.281707 0.767970 0.379359
Si Si3 0.335284 0.722743 0.657666
Si Si4 0.150174 0.580474 0.341907
Si Si5 0.041813 0.767288 0.859383
Si Si6 0.458179 0.010010 0.226881
Si Si7 0.224815 0.244764 0.442836
Si Si8 0.981163 0.551275 0.851545
O O1 0.608292 0.861439 0.199587
O O2 0.832074 0.601108 0.089440
O O3 0.739193 0.009950 0.452498
O O4 0.500000 0.000000 0.000000
O O5 0.253345 0.811088 0.512468
O O6 0.478419 0.537084 0.383454
O O7 0.159467 0.726387 0.093159
O O8 0.228553 0.697833 0.549733
O O9 0.371228 0.889255 0.953114
O O10 0.056563 0.623035 0.359031
O O11 0.317972 0.288808 0.284748
O O12 0.011185 0.644738 0.110518
O O13 0.145933 0.520550 0.667460
O O14 0.875696 0.813365 0.704220
O O15 0.000000 0.000000 0.000000
O O16 0.570849 0.953326 0.440700
O O17 0.166653 0.265824 0.254286
#
# Coordination Sequence:
#
# PCOD9053675 Si02
#       8
#     2   2   2   2   2   2   2   2
#     4  12  20  39  70 100 128 163 212 273 327 373
#     4  11  20  35  63 101 125 161 216 269 322 374
#     4  11  22  37  65  96 125 161 215 268 314 378
#     4  11  25  45  67  90 130 173 219 265 319 386
#     4  11  22  37  60  97 135 167 207 269 328 380
#     4  12  23  41  68  98 129 168 215 268 324 381
#     4  11  24  40  62  93 136 171 211 268 325 382
#     4  11  24  45  66  93 129 175 215 265 326 384
#
# _framework density 23.286514
#
# number of rings (size 3 to 8) (size 9 to 14) (size 15 to 20)
#    0.000    0.750    5.000    3.750    1.750    0.500 
#    0.000    8.750    0.000    0.000    0.000    0.000 
#    0.000    0.000    0.000    0.000    0.000    0.000 
#
# Total GULP energy -89504.982051 kJ/mol
# GULP energy per Si atom -5594.061378 kJ/mol
# Density = 2.323351 g / cm^3
# Si number density = 23.286514 Si / 1000 Ang^3
#
#
#
# Elastic Constant Matrix: (Units=GPa)
#
#
# Indices 1 2 3 4 5 6 
#
# 1 130.0741 44.3407 48.5619 -12.2275 25.7024 14.7125
# 2 44.3407 95.6708 32.5709 -22.5444 5.8209 14.5933
# 3 48.5619 32.5709 124.1154 -20.5738 26.6297 22.1048
# 4 -12.2275 -22.5444 -20.5738 46.5430 13.9791 3.1843
# 5 25.7024 5.8209 26.6297 13.9791 46.1959 0.6790
# 6 14.7125 14.5933 22.1048 3.1843 0.6790 40.2304
#
#
#
# Elastic Compliance Matrix: (Units=1/GPa)
#
#
# Indices 1 2 3 4 5 6 
#
# 1 0.010921 -0.003349 -0.001436 0.002415 -0.005526 -0.002088
# 2 -0.003349 0.014491 -0.000123 0.006974 -0.001937 -0.004484
# 3 -0.001436 -0.000123 0.013490 0.008899 -0.009546 -0.007385
# 4 0.002415 0.006974 0.008899 0.035564 -0.017955 -0.010814
# 5 -0.005526 -0.001937 -0.009546 -0.017955 0.035772 0.008786
# 6 -0.002088 -0.004484 -0.007385 -0.010814 0.008786 0.032012
#
#
# Mechanical properties :
#
#
# Convention : Reuss Voigt Hill
#
# Bulk Modulus (GPa) = 34.38026 66.75634 50.56830
# Shear Modulus (GPa) = 30.90969 41.55296 36.23132
#
# Velocity S-wave (km/s) = 3.64725 4.22882 3.94876
# Velocity P-wave (km/s) = 5.70374 7.25076 6.52328
#
# Compressibility (1/GPa) = 0.02908646
#
# Stress axis : x y z
#
# Youngs Moduli (GPa) = 91.56813 69.00617 74.13073
#
# Poissons Ratio (x) = 0.23109 0.10648
# Poissons Ratio (y) = 0.30665 0.00909
# Poissons Ratio (z) = 0.13153 0.00846
#
# Static dielectric constant tensor:
#      x y z
#    x 1.876750 -0.006660 -0.024640 
#    y -0.006660 1.945250 -0.012340 
#    z -0.024640 -0.012340 1.867000 
# 
# From -- ./inp_files/471813.got.cif
#   From: 2010.05.17/outbox.cif.g08.bks.cpg/sg2_236_cif.got.tgz:471813.got - 2010.06.03 11:33:40.
