data_PCOD9053301
_publ_section_title
;
Structure prediction by ZEFSAII (Michael W. Deem and Ramdas Pophale) SiO2 
 PCOD9053301
Probable space group: P -1
;
_chemical_formula_sum "Si O2"
_cell_formula_units_Z 16
_cell_length_a 13.410323
_cell_length_b 20.066039
_cell_length_c 11.127762
_cell_angle_alpha 146.444051
_cell_angle_beta 133.084620
_cell_angle_gamma 25.358247
_cell_volume 677.189298
_symmetry_space_group_name_H-M "P -1"
_symmetry_group_IT_number 2
_symmetry_cell_setting 'triclinic'
loop_
_space_group_symop_operation_xyz
x,y,z
-x,-y,-z
loop_
_atom_site_type_symbol
_atom_site_label
_atom_site_fract_x
_atom_site_fract_y
_atom_site_fract_z
Si Si1 0.712973 0.717443 0.078857
Si Si2 0.750328 0.698261 0.351342
Si Si3 0.316226 0.949917 0.748132
Si Si4 0.531724 0.403632 0.535645
Si Si5 0.952089 0.809223 0.631446
Si Si6 0.157497 0.310235 0.244403
Si Si7 0.610079 0.255289 0.133081
Si Si8 0.276340 0.027853 0.575109
O O1 0.635461 0.776397 0.242680
O O2 0.656504 0.880843 0.212205
O O3 0.578515 0.700480 0.895251
O O4 0.000000 0.500000 0.000000
O O5 0.830185 0.780160 0.549871
O O6 0.544813 0.786347 0.396063
O O7 0.999716 0.446168 0.198262
O O8 0.352968 0.786450 0.575881
O O9 0.583862 0.813101 0.740864
O O10 0.188151 0.041372 0.648627
O O11 0.192923 0.138829 0.020749
O O12 0.676045 0.284550 0.348576
O O13 0.528237 0.550869 0.778464
O O14 0.238152 0.596537 0.576827
O O15 0.889360 0.851741 0.500352
O O16 0.824115 0.021532 0.899905
O O17 0.000000 0.500000 0.500000
#
# Coordination Sequence:
#
# PCOD9053301 Si02
#       8
#     2   2   2   2   2   2   2   2
#     4  11  21  35  65  94 124 160 208 268 319 361
#     4  11  19  36  60  95 123 158 207 269 318 371
#     4  11  25  39  59  93 131 164 207 260 318 387
#     4  11  26  41  63  93 127 176 214 252 313 379
#     4  11  21  41  68  92 127 166 215 262 311 374
#     4  11  23  36  59  90 129 167 204 257 326 376
#     4  11  23  42  64  91 129 167 219 262 302 376
#     4  11  21  38  61  99 127 156 206 271 325 370
#
# _framework density 23.627071999999998
#
# number of rings (size 3 to 8) (size 9 to 14) (size 15 to 20)
#    0.000    1.000    5.000    3.375    5.250    0.000 
#    0.000    0.625    0.000    9.000    0.000    0.000 
#    0.000    0.000    0.000    0.000    0.000    0.000 
#
# Total GULP energy -89271.221049 kJ/mol
# GULP energy per Si atom -5579.451316 kJ/mol
# Density = 2.357330 g / cm^3
# Si number density = 23.627072 Si / 1000 Ang^3
#
#
#
# Elastic Constant Matrix: (Units=GPa)
#
#
# Indices 1 2 3 4 5 6 
#
# 1 60.2532 12.4615 30.5369 5.4679 8.4147 18.6391
# 2 12.4615 66.1876 8.0329 18.6678 2.1874 13.8995
# 3 30.5369 8.0329 144.6350 30.1646 -2.9117 16.8217
# 4 5.4679 18.6678 30.1646 25.8043 7.9870 8.3975
# 5 8.4147 2.1874 -2.9117 7.9870 44.4219 6.8850
# 6 18.6391 13.8995 16.8217 8.3975 6.8850 45.1954
#
#
#
# Elastic Compliance Matrix: (Units=1/GPa)
#
#
# Indices 1 2 3 4 5 6 
#
# 1 0.022295 -0.004419 -0.005605 0.008698 -0.004911 -0.006618
# 2 -0.004419 0.021630 0.004388 -0.020037 0.004186 -0.003378
# 3 -0.005605 0.004388 0.011526 -0.016613 0.004737 -0.000963
# 4 0.008698 -0.020037 -0.016613 0.076504 -0.015014 -0.003169
# 5 -0.004911 0.004186 0.004737 -0.015014 0.026600 -0.002288
# 6 -0.006618 -0.003378 -0.000963 -0.003169 -0.002288 0.027190
#
#
# Mechanical properties :
#
#
# Convention : Reuss Voigt Hill
#
# Bulk Modulus (GPa) = 22.63524 41.45982 32.04753
# Shear Modulus (GPa) = 23.61348 37.75393 30.68370
#
# Velocity S-wave (km/s) = 3.16480 4.00172 3.60761
# Velocity P-wave (km/s) = 4.79120 6.23998 5.56296
#
# Compressibility (1/GPa) = 0.04417889
#
# Stress axis : x y z
#
# Youngs Moduli (GPa) = 44.85355 46.23131 86.76271
#
# Poissons Ratio (x) = 0.20428 0.48630
# Poissons Ratio (y) = 0.19819 -0.38068
# Poissons Ratio (z) = 0.25140 -0.20284
#
# Static dielectric constant tensor:
#      x y z
#    x 2.008850 0.017050 -0.045140 
#    y 0.017050 1.944710 -0.039000 
#    z -0.045140 -0.039000 2.022740 
# 
# From -- ./inp_files/457758.got.cif
#   From: 2010.05.17/outbox.cif.g08.bks.cpg/sg2_229_cif.got.tgz:457758.got - 2010.06.03 11:33:40.
