data_PCOD9053906
_publ_section_title
;
Structure prediction by ZEFSAII (Michael W. Deem and Ramdas Pophale) SiO2 
 PCOD9053906
Probable space group: P -1
;
_chemical_formula_sum "Si O2"
_cell_formula_units_Z 16
_cell_length_a 5.802773
_cell_length_b 14.430632
_cell_length_c 8.211741
_cell_angle_alpha 81.617195
_cell_angle_beta 68.183261
_cell_angle_gamma 88.419111
_cell_volume 631.296929
_symmetry_space_group_name_H-M "P -1"
_symmetry_group_IT_number 2
_symmetry_cell_setting 'triclinic'
loop_
_space_group_symop_operation_xyz
x,y,z
-x,-y,-z
loop_
_atom_site_type_symbol
_atom_site_label
_atom_site_fract_x
_atom_site_fract_y
_atom_site_fract_z
Si Si1 0.010644 0.891593 0.681477
Si Si2 0.812874 0.081814 0.808924
Si Si3 0.639855 0.690021 0.032975
Si Si4 0.464787 0.926777 0.382790
Si Si5 0.139572 0.399128 0.319836
Si Si6 0.204317 0.215123 0.511407
Si Si7 0.355920 0.570514 0.405771
Si Si8 0.828254 0.210018 0.049408
O O1 0.797245 0.832453 0.658492
O O2 0.167954 0.924543 0.475613
O O3 0.946368 0.982743 0.776286
O O4 0.187677 0.822055 0.749323
O O5 0.534758 0.065690 0.812506
O O6 0.807499 0.111325 0.988620
O O7 0.953520 0.181155 0.682209
O O8 0.526092 0.638603 0.234430
O O9 0.396664 0.732520 0.989446
O O10 0.883596 0.749022 0.024545
O O11 0.764875 0.624223 0.879167
O O12 0.598279 0.834836 0.418554
O O13 0.500000 0.000000 0.500000
O O14 0.247904 0.323444 0.437116
O O15 0.211893 0.503903 0.327876
O O16 0.846639 0.383207 0.435704
O O17 0.500000 0.500000 0.500000
#
# Coordination Sequence:
#
# PCOD9053906 Si02
#       8
#     2   2   2   2   2   2   2   2
#     4  11  22  42  63 105 146 207 268 319 388 456
#     4  11  24  39  65 104 154 203 266 333 371 453
#     4  12  29  54  79 117 166 205 262 328 405 479
#     4  11  20  38  69 100 145 204 270 324 384 454
#     4  11  26  50  79 119 156 207 257 329 403 482
#     4  11  21  41  70 104 146 206 262 313 390 462
#     4  11  29  50  86 121 152 201 264 328 409 492
#     4  12  29  47  74 114 158 215 263 325 399 469
#
# _framework density 25.344650000000001
#
# number of rings (size 3 to 8) (size 9 to 14) (size 15 to 20)
#    0.000    0.750    3.750    3.000    8.750    2.500 
#    0.000    1.875    0.000    0.000    0.000    0.000 
#    0.000    0.000    0.000    0.000    0.000    0.000 
#
# Total GULP energy -89086.209657 kJ/mol
# GULP energy per Si atom -5567.888104 kJ/mol
# Density = 2.528696 g / cm^3
# Si number density = 25.344650 Si / 1000 Ang^3
#
#
#
# Elastic Constant Matrix: (Units=GPa)
#
#
# Indices 1 2 3 4 5 6 
#
# 1 130.6051 29.4242 46.8663 -2.6779 16.1105 -2.2800
# 2 29.4242 60.9662 15.7733 7.9045 -5.0195 3.6753
# 3 46.8663 15.7733 89.5241 -5.3455 -1.0212 -5.0218
# 4 -2.6779 7.9045 -5.3455 46.5967 -1.5578 2.7142
# 5 16.1105 -5.0195 -1.0212 -1.5578 50.9426 -7.7123
# 6 -2.2800 3.6753 -5.0218 2.7142 -7.7123 44.6203
#
#
#
# Elastic Compliance Matrix: (Units=1/GPa)
#
#
# Indices 1 2 3 4 5 6 
#
# 1 0.010936 -0.004388 -0.004978 0.000689 -0.004027 -0.000378
# 2 -0.004388 0.019675 -0.001420 -0.003579 0.002996 -0.001269
# 3 -0.004978 -0.001420 0.014239 0.001556 0.002028 0.001721
# 4 0.000689 -0.003579 0.001556 0.022336 0.000015 -0.000851
# 5 -0.004027 0.002996 0.002028 0.000015 0.021775 0.003538
# 6 -0.000378 -0.001269 0.001721 -0.000851 0.003538 0.023354
#
#
# Mechanical properties :
#
#
# Convention : Reuss Voigt Hill
#
# Bulk Modulus (GPa) = 42.95960 51.69144 47.32552
# Shear Modulus (GPa) = 35.29940 41.03404 38.16672
#
# Velocity S-wave (km/s) = 3.73604 4.02810 3.88481
# Velocity P-wave (km/s) = 5.96637 6.48643 6.23183
#
# Compressibility (1/GPa) = 0.02327769
#
# Stress axis : x y z
#
# Youngs Moduli (GPa) = 91.44332 50.82603 70.23069
#
# Poissons Ratio (x) = 0.22303 0.34959
# Poissons Ratio (y) = 0.40127 0.09973
# Poissons Ratio (z) = 0.45518 0.07217
#
# Static dielectric constant tensor:
#      x y z
#    x -2.907370 -2.085020 -3.490280 
#    y -2.085020 1.112630 -1.433840 
#    z -3.490280 -1.433840 -0.239490 
# 
# From -- ./inp_files/135078.got.cif
#   From: 2010.05.17/outbox.cif.g08.bks.cpg/sg2_68_cif.got.tgz:135078.got - 2010.06.03 11:33:40.
