data_PCOD9053177
_publ_section_title
;
Structure prediction by ZEFSAII (Michael W. Deem and Ramdas Pophale) SiO2 
 PCOD9053177
Probable space group: P -1
;
_chemical_formula_sum "Si O2"
_cell_formula_units_Z 16
_cell_length_a 8.534537
_cell_length_b 19.447121
_cell_length_c 8.750608
_cell_angle_alpha 33.049747
_cell_angle_beta 119.475318
_cell_angle_gamma 110.921781
_cell_volume 684.848409
_symmetry_space_group_name_H-M "P -1"
_symmetry_group_IT_number 2
_symmetry_cell_setting 'triclinic'
loop_
_space_group_symop_operation_xyz
x,y,z
-x,-y,-z
loop_
_atom_site_type_symbol
_atom_site_label
_atom_site_fract_x
_atom_site_fract_y
_atom_site_fract_z
Si Si1 0.537518 0.027402 0.143301
Si Si2 0.835999 0.214447 0.940693
Si Si3 0.143818 0.157079 0.694673
Si Si4 0.319507 0.381465 0.255195
Si Si5 0.678489 0.333218 0.332057
Si Si6 0.405824 0.842003 0.643412
Si Si7 0.924763 0.955946 0.813733
Si Si8 0.444171 0.638079 0.287628
O O1 0.540904 0.907212 0.478061
O O2 0.701540 0.107349 0.094345
O O3 0.349300 0.111852 0.926692
O O4 0.500000 0.000000 0.000000
O O5 0.779620 0.282306 0.627468
O O6 0.767101 0.316069 0.850320
O O7 0.026797 0.131724 0.148088
O O8 0.161564 0.291589 0.371928
O O9 0.067885 0.058349 0.724585
O O10 0.053461 0.134824 0.856458
O O11 0.463158 0.346338 0.251247
O O12 0.442741 0.365811 0.495314
O O13 0.261050 0.530475 0.931318
O O14 0.701173 0.241366 0.368741
O O15 0.265643 0.954239 0.438565
O O16 0.490698 0.744744 0.991676
O O17 0.500000 0.500000 0.500000
#
# Coordination Sequence:
#
# PCOD9053177 Si02
#       8
#     2   2   2   2   2   2   2   2
#     4  11  17  32  61  91 116 147 198 258 285 341
#     4  11  21  38  60  89 120 154 195 248 303 343
#     4  10  17  35  59  91 121 149 195 249 296 342
#     4  10  20  35  62  93 116 153 202 254 287 339
#     4  10  18  33  60  91 116 149 202 248 292 339
#     4  11  22  36  60  90 122 157 196 236 307 358
#     4  10  22  35  58  89 128 156 182 245 306 364
#     4  11  23  40  61  84 119 158 202 251 288 340
#
# _framework density 23.362835
#
# number of rings (size 3 to 8) (size 9 to 14) (size 15 to 20)
#    0.000    1.500    6.250    1.500    0.000    1.000 
#    0.000    2.500    0.000    0.750    0.000    0.000 
#    0.000    0.000    0.000    0.000    0.000    0.000 
#
# Total GULP energy -89302.805500 kJ/mol
# GULP energy per Si atom -5581.425344 kJ/mol
# Density = 2.330966 g / cm^3
# Si number density = 23.362835 Si / 1000 Ang^3
#
#
#
# Elastic Constant Matrix: (Units=GPa)
#
#
# Indices 1 2 3 4 5 6 
#
# 1 63.4639 34.8133 44.6468 -20.8157 -6.6387 -17.6992
# 2 34.8133 99.8146 36.5803 -13.8536 -3.9311 -35.9817
# 3 44.6468 36.5803 194.7686 -8.8044 -32.5413 -13.5813
# 4 -20.8157 -13.8536 -8.8044 38.1918 1.3654 6.0310
# 5 -6.6387 -3.9311 -32.5413 1.3654 30.9071 -8.4195
# 6 -17.6992 -35.9817 -13.5813 6.0310 -8.4195 34.4106
#
#
#
# Elastic Compliance Matrix: (Units=1/GPa)
#
#
# Indices 1 2 3 4 5 6 
#
# 1 0.026283 -0.003651 -0.003977 0.010927 0.002362 0.006795
# 2 -0.003651 0.018610 -0.000205 0.001514 0.006423 0.018807
# 3 -0.003977 -0.000205 0.007549 -0.001238 0.007905 0.002870
# 4 0.010927 0.001514 -0.001238 0.032226 0.000111 0.001094
# 5 0.002362 0.006423 0.007905 0.000111 0.048216 0.022829
# 6 0.006795 0.018807 0.002870 0.001094 0.022829 0.058749
#
#
# Mechanical properties :
#
#
# Convention : Reuss Voigt Hill
#
# Bulk Modulus (GPa) = 27.19085 65.56979 46.38032
# Shear Modulus (GPa) = 22.77299 36.83567 29.80433
#
# Velocity S-wave (km/s) = 3.12549 3.97505 3.57559
# Velocity P-wave (km/s) = 4.96877 7.01390 6.07797
#
# Compressibility (1/GPa) = 0.03677708
#
# Stress axis : x y z
#
# Youngs Moduli (GPa) = 38.04699 53.73500 132.46069
#
# Poissons Ratio (x) = 0.19616 0.52677
# Poissons Ratio (y) = 0.13889 0.02720
# Poissons Ratio (z) = 0.15131 0.01104
#
# Static dielectric constant tensor:
#      x y z
#    x 2.072860 -0.104680 -0.010450 
#    y -0.104680 1.936800 -0.006370 
#    z -0.010450 -0.006370 1.917290 
# 
# From -- ./inp_files/222852.got.cif
#   From: 2010.05.17/outbox.cif.g08.bks.cpg/sg2_112_cif.got.tgz:222852.got - 2010.06.03 11:33:40.
