data_PCOD9053853
_publ_section_title
;
Structure prediction by ZEFSAII (Michael W. Deem and Ramdas Pophale) SiO2 
 PCOD9053853
Probable space group: P -1
;
_chemical_formula_sum "Si O2"
_cell_formula_units_Z 16
_cell_length_a 20.646190
_cell_length_b 18.158684
_cell_length_c 11.560629
_cell_angle_alpha 28.201794
_cell_angle_beta 30.375895
_cell_angle_gamma 19.508533
_cell_volume 669.765398
_symmetry_space_group_name_H-M "P -1"
_symmetry_group_IT_number 2
_symmetry_cell_setting 'triclinic'
loop_
_space_group_symop_operation_xyz
x,y,z
-x,-y,-z
loop_
_atom_site_type_symbol
_atom_site_label
_atom_site_fract_x
_atom_site_fract_y
_atom_site_fract_z
Si Si1 0.467716 0.283258 0.745414
Si Si2 0.859748 0.801464 0.092960
Si Si3 0.171961 0.821133 0.388110
Si Si4 0.847737 0.871704 0.426399
Si Si5 0.853048 0.073767 0.347509
Si Si6 0.125541 0.426128 0.017571
Si Si7 0.850876 0.434319 0.820387
Si Si8 0.455642 0.074350 0.279979
O O1 0.347286 0.556141 0.538084
O O2 0.691393 0.116950 0.601463
O O3 0.343883 0.285939 0.845652
O O4 0.449071 0.203491 0.003099
O O5 0.009284 0.661022 0.948413
O O6 0.993482 0.644630 0.215060
O O7 0.684243 0.846472 0.273976
O O8 0.764182 0.060321 0.898719
O O9 0.000000 0.000000 0.500000
O O10 0.064887 0.858349 0.384211
O O11 0.871289 0.722443 0.696952
O O12 0.654590 0.984424 0.500703
O O13 0.030168 0.696831 0.299681
O O14 0.841555 0.035158 0.284081
O O15 0.800380 0.305423 0.118256
O O16 0.000000 0.500000 0.000000
O O17 0.666532 0.721127 0.716205
#
# Coordination Sequence:
#
# PCOD9053853 Si02
#       8
#     2   2   2   2   2   2   2   2
#     4  11  22  39  64  99 130 163 217 262 329 384
#     4  11  23  40  64  96 126 175 215 265 322 383
#     4  11  20  38  61  93 132 169 205 262 324 377
#     4  11  25  44  67  93 133 177 212 270 318 383
#     4  11  25  40  68  96 129 174 214 269 323 384
#     4  11  24  41  63  97 137 169 209 269 330 386
#     4  11  23  49  64  93 132 171 227 259 318 386
#     4  11  24  40  68  98 127 171 218 269 322 385
#
# _framework density 23.888961999999999
#
# number of rings (size 3 to 8) (size 9 to 14) (size 15 to 20)
#    0.000    1.000    3.750    3.750    3.500    3.000 
#    0.000    0.000    0.000    5.250    0.000    0.000 
#    0.000    0.000    0.000    0.000    0.000    0.000 
#
# Total GULP energy -89542.326694 kJ/mol
# GULP energy per Si atom -5596.395418 kJ/mol
# Density = 2.383459 g / cm^3
# Si number density = 23.888962 Si / 1000 Ang^3
#
#
#
# Elastic Constant Matrix: (Units=GPa)
#
#
# Indices 1 2 3 4 5 6 
#
# 1 105.6399 26.2595 16.7458 12.0194 -25.4114 -0.3719
# 2 26.2595 69.2520 1.5375 4.2468 -11.4147 -2.6066
# 3 16.7458 1.5375 65.9612 10.7512 -9.4510 -5.3177
# 4 12.0194 4.2468 10.7512 39.8841 -3.5112 -3.8850
# 5 -25.4114 -11.4147 -9.4510 -3.5112 29.8388 5.0443
# 6 -0.3719 -2.6066 -5.3177 -3.8850 5.0443 33.2331
#
#
#
# Elastic Compliance Matrix: (Units=1/GPa)
#
#
# Indices 1 2 3 4 5 6 
#
# 1 0.013096 -0.003300 -0.001656 -0.002524 0.009424 -0.002103
# 2 -0.003300 0.016327 0.001143 -0.000658 0.003584 0.000806
# 3 -0.001656 0.001143 0.016814 -0.003663 0.003620 0.001784
# 4 -0.002524 -0.000658 -0.003663 0.027074 -0.000819 0.002623
# 5 0.009424 0.003584 0.003620 -0.000819 0.044967 -0.005955
# 6 -0.002103 0.000806 0.001784 0.002623 -0.005955 0.031626
#
#
# Mechanical properties :
#
#
# Convention : Reuss Voigt Hill
#
# Bulk Modulus (GPa) = 25.89902 36.65987 31.27945
# Shear Modulus (GPa) = 29.34277 33.67855 31.51066
#
# Velocity S-wave (km/s) = 3.50851 3.75880 3.63581
# Velocity P-wave (km/s) = 5.22282 5.84956 5.54505
#
# Compressibility (1/GPa) = 0.03861150
#
# Stress axis : x y z
#
# Youngs Moduli (GPa) = 76.36163 61.24692 59.47570
#
# Poissons Ratio (x) = 0.20211 0.09846
# Poissons Ratio (y) = 0.25199 -0.06798
# Poissons Ratio (z) = 0.12642 -0.07000
#
# Static dielectric constant tensor:
#      x y z
#    x 1.956610 0.030750 -0.031440 
#    y 0.030750 1.903220 -0.032080 
#    z -0.031440 -0.032080 1.973190 
# 
# From -- ./inp_files/272960.got.cif
#   From: 2010.05.17/outbox.cif.g08.bks.cpg/sg2_137_cif.got.tgz:272960.got - 2010.06.03 11:33:40.
