data_PCOD9053154
_publ_section_title
;
Structure prediction by ZEFSAII (Michael W. Deem and Ramdas Pophale) SiO2 
 PCOD9053154
Probable space group: P -1
;
_chemical_formula_sum "Si O2"
_cell_formula_units_Z 16
_cell_length_a 20.060037
_cell_length_b 11.404629
_cell_length_c 5.211885
_cell_angle_alpha 98.362296
_cell_angle_beta 80.604600
_cell_angle_gamma 151.119673
_cell_volume 568.155414
_symmetry_space_group_name_H-M "P -1"
_symmetry_group_IT_number 2
_symmetry_cell_setting 'triclinic'
loop_
_space_group_symop_operation_xyz
x,y,z
-x,-y,-z
loop_
_atom_site_type_symbol
_atom_site_label
_atom_site_fract_x
_atom_site_fract_y
_atom_site_fract_z
Si Si1 0.801091 0.004285 0.512000
Si Si2 0.258607 0.772844 0.487011
Si Si3 0.599646 0.216478 0.818537
Si Si4 0.978588 0.573749 0.841656
Si Si5 0.960218 0.739044 0.283752
Si Si6 0.234622 0.369977 0.825016
Si Si7 0.314362 0.261978 0.008735
Si Si8 0.488478 0.694164 0.376776
O O1 0.905939 0.260013 0.403835
O O2 0.911528 0.066956 0.535858
O O3 0.735371 0.913309 0.807878
O O4 0.692601 0.800789 0.295601
O O5 0.362453 0.820752 0.426456
O O6 0.176939 0.662635 0.237484
O O7 0.142176 0.527624 0.652919
O O8 0.356350 0.038411 0.538614
O O9 0.527428 0.224111 0.784263
O O10 0.732677 0.466027 0.965482
O O11 0.500000 0.000000 0.000000
O O12 0.011587 0.753397 0.996339
O O13 0.000000 0.500000 0.000000
O O14 0.886721 0.753410 0.304348
O O15 0.368226 0.537613 0.616427
O O16 0.225815 0.248285 0.995545
O O17 0.443415 0.513775 0.171945
#
# Coordination Sequence:
#
# PCOD9053154 Si02
#       8
#     2   2   2   2   2   2   2   2
#     4  11  24  46  67  93 132 180 227 276 328 391
#     4  11  22  36  64  99 135 176 219 280 335 395
#     4  11  19  30  56  92 143 182 215 257 323 398
#     4  11  26  47  73  98 124 168 230 296 347 384
#     4  11  23  41  65  97 134 176 226 277 338 392
#     4  11  21  35  60  99 140 184 215 255 324 406
#     4  11  24  42  64  97 138 185 218 264 318 409
#     4  11  22  36  60  99 142 181 215 255 327 403
#
# _framework density 28.161308999999999
#
# number of rings (size 3 to 8) (size 9 to 14) (size 15 to 20)
#    0.000    1.000    6.250    1.125    0.000    3.000 
#    0.000    0.000    0.000    1.500    0.000    0.000 
#    0.000    0.000    0.000    0.000    0.000    0.000 
#
# Total GULP energy -89319.356096 kJ/mol
# GULP energy per Si atom -5582.459756 kJ/mol
# Density = 2.809721 g / cm^3
# Si number density = 28.161309 Si / 1000 Ang^3
#
#
#
# Elastic Constant Matrix: (Units=GPa)
#
#
# Indices 1 2 3 4 5 6 
#
# 1 104.0031 44.7309 27.8565 14.7419 13.0361 -6.4201
# 2 44.7309 134.1863 45.4660 26.1709 18.4514 -3.0646
# 3 27.8565 45.4660 129.7996 13.7290 26.7935 -0.2897
# 4 14.7419 26.1709 13.7290 70.1476 -8.9431 16.7887
# 5 13.0361 18.4514 26.7935 -8.9431 64.0481 8.4763
# 6 -6.4201 -3.0646 -0.2897 16.7887 8.4763 60.6706
#
#
#
# Elastic Compliance Matrix: (Units=1/GPa)
#
#
# Indices 1 2 3 4 5 6 
#
# 1 0.011717 -0.002967 -0.000943 -0.001813 -0.001629 0.001815
# 2 -0.002967 0.010131 -0.002127 -0.003340 -0.002077 0.001402
# 3 -0.000943 -0.002127 0.009532 -0.001496 -0.003490 0.000740
# 4 -0.001813 -0.003340 -0.001496 0.018337 0.005336 -0.006187
# 5 -0.001629 -0.002077 -0.003490 0.005336 0.019340 -0.004473
# 6 0.001815 0.001402 0.000740 -0.006187 -0.004473 0.019086
#
#
# Mechanical properties :
#
#
# Convention : Reuss Voigt Hill
#
# Bulk Modulus (GPa) = 51.79925 67.12174 59.46049
# Shear Modulus (GPa) = 46.88140 55.63565 51.25852
#
# Velocity S-wave (km/s) = 4.08455 4.44960 4.27098
# Velocity P-wave (km/s) = 6.37797 7.09120 6.74402
#
# Compressibility (1/GPa) = 0.01930530
#
# Stress axis : x y z
#
# Youngs Moduli (GPa) = 85.34559 98.70522 104.91266
#
# Poissons Ratio (x) = 0.29289 0.09896
# Poissons Ratio (y) = 0.25325 0.22312
# Poissons Ratio (z) = 0.08050 0.20992
#
# Static dielectric constant tensor:
#      x y z
#    x 2.114570 -0.044670 0.316130 
#    y -0.044670 2.126360 0.350710 
#    z 0.316130 0.350710 1.400330 
# 
# From -- ./inp_files/113394.got.cif
#   From: 2010.05.17/outbox.cif.g08.bks.cpg/sg2_57_cif.got.tgz:113394.got - 2010.06.03 11:33:40.
