data_PCOD9053033
_publ_section_title
;
Structure prediction by ZEFSAII (Michael W. Deem and Ramdas Pophale) SiO2 
 PCOD9053033
Probable space group: P -1
;
_chemical_formula_sum "Si O2"
_cell_formula_units_Z 16
_cell_length_a 11.743043
_cell_length_b 12.302272
_cell_length_c 14.357402
_cell_angle_alpha 147.918259
_cell_angle_beta 57.361129
_cell_angle_gamma 125.234481
_cell_volume 893.698905
_symmetry_space_group_name_H-M "P -1"
_symmetry_group_IT_number 2
_symmetry_cell_setting 'triclinic'
loop_
_space_group_symop_operation_xyz
x,y,z
-x,-y,-z
loop_
_atom_site_type_symbol
_atom_site_label
_atom_site_fract_x
_atom_site_fract_y
_atom_site_fract_z
Si Si1 0.737656 0.194374 0.829497
Si Si2 0.931779 0.077385 0.220661
Si Si3 0.591835 0.928513 0.543547
Si Si4 0.797596 0.630630 0.210689
Si Si5 0.097414 0.345953 0.177375
Si Si6 0.695241 0.238136 0.548251
Si Si7 0.061921 0.975806 0.266529
Si Si8 0.008793 0.348863 0.689675
O O1 0.867526 0.251730 0.740502
O O2 0.611037 0.045270 0.719443
O O3 0.797072 0.079582 0.803748
O O4 0.721431 0.417466 0.035217
O O5 0.815823 0.148098 0.383164
O O6 0.998883 0.248071 0.236592
O O7 0.050469 0.048180 0.219067
O O8 0.870647 0.851029 0.033552
O O9 0.694568 0.775460 0.382572
O O10 0.435122 0.801226 0.492798
O O11 0.642649 0.105793 0.569357
O O12 0.867911 0.576410 0.235232
O O13 0.929777 0.770037 0.193806
O O14 0.234146 0.519719 0.279350
O O15 0.018161 0.469749 0.232907
O O16 0.038756 0.160198 0.478309
#
# Coordination Sequence:
#
# PCOD9053033 Si02
#       8
#     2   2   2   2   2   2   2   2
#     4  11  19  32  54  79 112 141 173 225 276 317
#     4  11  22  37  58  82 109 142 182 226 269 317
#     4  11  22  36  52  83 111 152 176 217 264 330
#     4  11  19  32  54  79 112 141 173 225 276 317
#     4  11  22  37  58  82 109 142 182 226 269 317
#     4  11  23  37  55  76 118 145 184 215 265 324
#     4  11  18  32  55  81 110 137 178 228 275 317
#     4  11  18  32  55  81 110 137 178 228 275 317
#
# _framework density 17.903120999999999
#
# number of rings (size 3 to 8) (size 9 to 14) (size 15 to 20)
#    0.000    1.000    6.250    4.125    0.000    1.000 
#    0.000    2.500    0.000    3.000    0.000    5.250 
#    0.000    0.000    0.000    0.000    0.000    0.000 
#
# Total GULP energy -89381.118658 kJ/mol
# GULP energy per Si atom -5586.319916 kJ/mol
# Density = 1.786237 g / cm^3
# Si number density = 17.903121 Si / 1000 Ang^3
#
#
#
# Elastic Constant Matrix: (Units=GPa)
#
#
# Indices 1 2 3 4 5 6 
#
# 1 111.0017 19.0032 20.1156 16.3332 24.4449 -13.7340
# 2 19.0032 34.7870 1.2802 11.0475 -0.1114 -12.4357
# 3 20.1156 1.2802 92.1535 13.5070 24.4321 8.3699
# 4 16.3332 11.0475 13.5070 19.4064 -2.9672 -0.0452
# 5 24.4449 -0.1114 24.4321 -2.9672 23.3557 5.4777
# 6 -13.7340 -12.4357 8.3699 -0.0452 5.4777 18.5257
#
#
#
# Elastic Compliance Matrix: (Units=1/GPa)
#
#
# Indices 1 2 3 4 5 6 
#
# 1 0.034360 0.018456 0.015639 -0.061230 -0.072209 0.051997
# 2 0.018456 0.065380 0.015564 -0.072681 -0.060529 0.068258
# 3 0.015639 0.015564 0.027331 -0.049766 -0.057436 0.026555
# 4 -0.061230 -0.072681 -0.049766 0.204836 0.170332 -0.121561
# 5 -0.072209 -0.060529 -0.057436 0.170332 0.231801 -0.136336
# 6 0.051997 0.068258 0.026555 -0.121561 -0.136336 0.166364
#
#
# Mechanical properties :
#
#
# Convention : Reuss Voigt Hill
#
# Bulk Modulus (GPa) = 4.41713 35.41557 19.91635
# Shear Modulus (GPa) = 7.07997 25.42710 16.25353
#
# Velocity S-wave (km/s) = 1.99078 3.77272 3.01634
# Velocity P-wave (km/s) = 2.78511 6.22918 4.82491
#
# Compressibility (1/GPa) = 0.22639113
#
# Stress axis : x y z
#
# Youngs Moduli (GPa) = 29.10360 15.29518 36.58785
#
# Poissons Ratio (x) = -0.28229 -0.57221
# Poissons Ratio (y) = -0.53714 -0.56945
# Poissons Ratio (z) = -0.45517 -0.23805
#
# Static dielectric constant tensor:
#      x y z
#    x 1.624220 -0.023480 0.017590 
#    y -0.023480 1.582650 0.002510 
#    z 0.017590 0.002510 1.630320 
# 
# From -- ./inp_files/431194.got.cif
#   From: 2010.05.17/outbox.cif.g08.bks.cpg/sg2_216_cif.got.tgz:431194.got - 2010.06.03 11:33:40.
