data_PCOD9053275
_publ_section_title
;
Structure prediction by ZEFSAII (Michael W. Deem and Ramdas Pophale) SiO2 
 PCOD9053275
Probable space group: P -1
;
_chemical_formula_sum "Si O2"
_cell_formula_units_Z 14
_cell_length_a 11.993926
_cell_length_b 10.531952
_cell_length_c 9.238871
_cell_angle_alpha 83.677896
_cell_angle_beta 81.646306
_cell_angle_gamma 151.148861
_cell_volume 483.420965
_symmetry_space_group_name_H-M "P -1"
_symmetry_group_IT_number 2
_symmetry_cell_setting 'triclinic'
loop_
_space_group_symop_operation_xyz
x,y,z
-x,-y,-z
loop_
_atom_site_type_symbol
_atom_site_label
_atom_site_fract_x
_atom_site_fract_y
_atom_site_fract_z
Si Si1 0.035429 0.959737 0.833911
Si Si2 0.224541 0.933124 0.231509
Si Si3 0.751124 0.936004 0.487844
Si Si4 0.480095 0.938272 0.184478
Si Si5 0.651247 0.289265 0.465454
Si Si6 0.988003 0.625818 0.850468
Si Si7 0.602170 0.675830 0.056400
O O1 0.117515 0.038937 0.635655
O O2 0.942165 0.717022 0.919467
O O3 0.700984 0.673851 0.906857
O O4 0.365676 0.294409 0.785725
O O5 0.188031 0.992967 0.363627
O O6 0.426272 0.029727 0.226863
O O7 0.944070 0.576468 0.305286
O O8 0.321779 0.112664 0.053557
O O9 0.863640 0.177686 0.350405
O O10 0.443095 0.665842 0.570909
O O11 0.339246 0.704342 0.362940
O O12 0.295118 0.722344 0.104658
O O13 0.787340 0.215212 0.118477
O O14 0.500000 0.000000 0.500000
O O15 0.000000 0.000000 0.000000
#
# Coordination Sequence:
#
# PCOD9053275 Si02
#       7
#     2   2   2   2   2   2   2
#     4   9  23  48  66  93 129 186 233 286 349 404
#     4  12  23  38  66 109 133 176 234 277 344 423
#     4   9  20  35  67  99 132 170 222 282 347 408
#     4  11  20  37  65 109 145 173 212 286 361 422
#     4  11  19  35  64 101 147 172 207 278 364 415
#     4   9  21  38  71  98 143 179 216 282 360 418
#     4  11  27  48  69  84 135 191 239 290 335 405
#
# _framework density 28.960267999999999
#
# number of rings (size 3 to 8) (size 9 to 14) (size 15 to 20)
#    0.857    0.857    2.857    2.143    2.000    4.000 
#    0.000    2.857    0.000    0.000    0.000    0.000 
#    0.000    0.000    0.000    0.000    0.000    0.000 
#
# Total GULP energy -78051.269401 kJ/mol
# GULP energy per Si atom -5575.090672 kJ/mol
# Density = 2.889435 g / cm^3
# Si number density = 28.960268 Si / 1000 Ang^3
#
#
#
# Elastic Constant Matrix: (Units=GPa)
#
#
# Indices 1 2 3 4 5 6 
#
# 1 177.2894 50.2763 31.3111 -1.2463 -28.7931 13.9919
# 2 50.2763 153.2147 20.2866 29.6819 -8.5320 -6.1501
# 3 31.3111 20.2866 77.9269 23.1467 -17.2539 10.8843
# 4 -1.2463 29.6819 23.1467 50.6729 -1.2178 -2.2165
# 5 -28.7931 -8.5320 -17.2539 -1.2178 54.3744 -1.5285
# 6 13.9919 -6.1501 10.8843 -2.2165 -1.5285 28.6754
#
#
#
# Elastic Compliance Matrix: (Units=1/GPa)
#
#
# Indices 1 2 3 4 5 6 
#
# 1 0.007479 -0.002654 -0.002014 0.002592 0.002876 -0.003100
# 2 -0.002654 0.008455 -0.000114 -0.004848 -0.000145 0.002769
# 3 -0.002014 -0.000114 0.017977 -0.008367 0.004256 -0.006285
# 4 0.002592 -0.004848 -0.008367 0.026552 -0.001368 0.002851
# 5 0.002876 -0.000145 0.004256 -0.001368 0.021154 -0.002028
# 6 -0.003100 0.002769 -0.006285 0.002851 -0.002028 0.039477
#
#
# Mechanical properties :
#
#
# Convention : Reuss Voigt Hill
#
# Bulk Modulus (GPa) = 41.07267 68.01990 54.54629
# Shear Modulus (GPa) = 36.03007 47.18166 41.60586
#
# Velocity S-wave (km/s) = 3.53104 4.04070 3.79443
# Velocity P-wave (km/s) = 5.55315 6.73112 6.17031
#
# Compressibility (1/GPa) = 0.02434709
#
# Stress axis : x y z
#
# Youngs Moduli (GPa) = 133.71253 118.27376 55.62689
#
# Poissons Ratio (x) = 0.31388 0.11205
# Poissons Ratio (y) = 0.35485 0.00632
# Poissons Ratio (z) = 0.26934 0.01344
#
# Static dielectric constant tensor:
#      x y z
#    x 1.215490 -0.645480 0.135410 
#    y -0.645480 1.879220 0.095940 
#    z 0.135410 0.095940 2.204470 
# 
# From -- ./inp_files/423595.got.cif
#   From: 2010.05.17/outbox.cif.g08.bks.cpg/sg2_212_cif.got.tgz:423595.got - 2010.06.03 11:33:40.
