data_PCOD9053530
_publ_section_title
;
Structure prediction by ZEFSAII (Michael W. Deem and Ramdas Pophale) SiO2 
 PCOD9053530
Probable space group: P -1
;
_chemical_formula_sum "Si O2"
_cell_formula_units_Z 16
_cell_length_a 19.242583
_cell_length_b 8.538547
_cell_length_c 6.380688
_cell_angle_alpha 120.453498
_cell_angle_beta 87.426198
_cell_angle_gamma 124.146331
_cell_volume 704.503239
_symmetry_space_group_name_H-M "P -1"
_symmetry_group_IT_number 2
_symmetry_cell_setting 'triclinic'
loop_
_space_group_symop_operation_xyz
x,y,z
-x,-y,-z
loop_
_atom_site_type_symbol
_atom_site_label
_atom_site_fract_x
_atom_site_fract_y
_atom_site_fract_z
Si Si1 0.346151 0.558022 0.992515
Si Si2 0.160814 0.512991 0.627864
Si Si3 0.903526 0.281418 0.960806
Si Si4 0.440869 0.762015 0.712247
Si Si5 0.028699 0.867527 0.785959
Si Si6 0.685741 0.196787 0.528924
Si Si7 0.825765 0.850308 0.385984
Si Si8 0.481140 0.296543 0.717795
O O1 0.374857 0.568813 0.758275
O O2 0.262713 0.286804 0.840306
O O3 0.306305 0.682561 0.170078
O O4 0.441470 0.703603 0.192794
O O5 0.226874 0.676208 0.539858
O O6 0.178718 0.337818 0.593527
O O7 0.061150 0.361768 0.449397
O O8 0.156509 0.647448 0.910698
O O9 0.847907 0.063945 0.662735
O O10 0.924579 0.193765 0.102676
O O11 0.000000 0.500000 0.000000
O O12 0.377431 0.777924 0.586933
O O13 0.495638 0.703181 0.530459
O O14 0.500000 0.000000 0.000000
O O15 0.091841 0.032321 0.701877
O O16 0.000000 0.000000 0.000000
O O17 0.621881 0.921265 0.386386
O O18 0.500000 0.500000 0.000000
#
# Coordination Sequence:
#
# PCOD9053530 Si02
#       8
#     2   2   2   2   2   2   2   2
#     4  11  23  43  71  97 133 184 230 289 349 421
#     4  12  25  45  72 104 140 185 239 299 357 428
#     4  12  27  48  70 102 143 187 239 293 359 430
#     4  11  19  43  71  88 131 183 231 274 343 417
#     4  12  24  46  73  96 143 186 228 296 360 420
#     4  11  23  43  67 100 134 179 234 284 351 427
#     4  12  26  46  71 105 138 184 244 291 356 433
#     4  11  25  42  66 104 144 179 230 293 354 426
#
# _framework density 22.711037000000001
#
# number of rings (size 3 to 8) (size 9 to 14) (size 15 to 20)
#    0.000    0.500    6.250    3.000    0.000    2.500 
#    4.500    0.000    0.000    0.000    0.000    0.000 
#    0.000    0.000    0.000    0.000    0.000    0.000 
#
# Total GULP energy -89264.228474 kJ/mol
# GULP energy per Si atom -5579.014280 kJ/mol
# Density = 2.265935 g / cm^3
# Si number density = 22.711037 Si / 1000 Ang^3
#
#
#
# Elastic Constant Matrix: (Units=GPa)
#
#
# Indices 1 2 3 4 5 6 
#
# 1 51.8503 39.2997 10.6046 -4.1275 -12.7022 20.9923
# 2 39.2997 118.7989 65.7421 7.6486 -28.7255 49.8888
# 3 10.6046 65.7421 126.4730 6.7572 -38.3263 19.8095
# 4 -4.1275 7.6486 6.7572 38.0754 7.9201 -1.6613
# 5 -12.7022 -28.7255 -38.3263 7.9201 56.1003 -6.4440
# 6 20.9923 49.8888 19.8095 -1.6613 -6.4440 45.4984
#
#
#
# Elastic Compliance Matrix: (Units=1/GPa)
#
#
# Indices 1 2 3 4 5 6 
#
# 1 0.028173 -0.009167 0.003892 0.003319 0.003411 -0.004037
# 2 -0.009167 0.025710 -0.007744 -0.006583 0.004407 -0.020207
# 3 0.003892 -0.007744 0.013396 -0.001677 0.006503 0.001723
# 4 0.003319 -0.006583 -0.001677 0.030037 -0.007261 0.006485
# 5 0.003411 0.004407 0.006503 -0.007261 0.025647 -0.005870
# 6 -0.004037 -0.020207 0.001723 0.006485 -0.005870 0.044653
#
#
# Mechanical properties :
#
#
# Convention : Reuss Voigt Hill
#
# Bulk Modulus (GPa) = 24.24755 58.71278 41.48016
# Shear Modulus (GPa) = 24.10779 40.03319 32.07049
#
# Velocity S-wave (km/s) = 3.26160 4.20303 3.76188
# Velocity P-wave (km/s) = 4.98837 7.03293 6.09696
#
# Compressibility (1/GPa) = 0.04124129
#
# Stress axis : x y z
#
# Youngs Moduli (GPa) = 35.49535 38.89474 74.64818
#
# Poissons Ratio (x) = 0.35654 -0.29050
# Poissons Ratio (y) = 0.32538 0.57806
# Poissons Ratio (z) = -0.13813 0.30119
#
# Static dielectric constant tensor:
#      x y z
#    x 1.950350 -0.170130 0.130630 
#    y -0.170130 1.863640 0.008820 
#    z 0.130630 0.008820 2.089840 
# 
# From -- ./inp_files/107546.got.cif
#   From: 2010.05.17/outbox.cif.g08.bks.cpg/sg2_54_cif.got.tgz:107546.got - 2010.06.03 11:33:40.
