data_PCOD9053709
_publ_section_title
;
Structure prediction by ZEFSAII (Michael W. Deem and Ramdas Pophale) SiO2 
 PCOD9053709
Probable space group: P -1
;
_chemical_formula_sum "Si O2"
_cell_formula_units_Z 16
_cell_length_a 8.132068
_cell_length_b 11.940087
_cell_length_c 20.420961
_cell_angle_alpha 149.931963
_cell_angle_beta 127.084115
_cell_angle_gamma 60.812276
_cell_volume 789.625517
_symmetry_space_group_name_H-M "P -1"
_symmetry_group_IT_number 2
_symmetry_cell_setting 'triclinic'
loop_
_space_group_symop_operation_xyz
x,y,z
-x,-y,-z
loop_
_atom_site_type_symbol
_atom_site_label
_atom_site_fract_x
_atom_site_fract_y
_atom_site_fract_z
Si Si1 0.951461 0.303980 0.042307
Si Si2 0.763946 0.935766 0.432061
Si Si3 0.367504 0.490932 0.090470
Si Si4 0.185876 0.065386 0.792164
Si Si5 0.511896 0.169696 0.809077
Si Si6 0.840910 0.216923 0.712424
Si Si7 0.262077 0.949115 0.895206
Si Si8 0.774725 0.407444 0.191785
O O1 0.896154 0.323995 0.115854
O O2 0.014900 0.562110 0.165895
O O3 0.752623 0.181389 0.894121
O O4 0.138297 0.153590 0.996104
O O5 0.720739 0.102086 0.564478
O O6 0.608088 0.962106 0.346972
O O7 0.773591 0.677315 0.326959
O O8 0.000000 0.000000 0.500000
O O9 0.480476 0.585137 0.099881
O O10 0.307086 0.691069 0.222248
O O11 0.530804 0.344282 0.089086
O O12 0.171108 0.320844 0.943767
O O13 0.374909 0.094783 0.801122
O O14 0.978249 0.030946 0.682710
O O15 0.223992 0.928080 0.797013
O O16 0.171943 0.722120 0.795911
O O17 0.500000 0.000000 0.000000
#
# Coordination Sequence:
#
# PCOD9053709 Si02
#       8
#     2   2   2   2   2   2   2   2
#     4  12  21  38  67  93 124 159 211 266 311 367
#     4  11  23  41  66  92 132 163 205 260 310 379
#     4  11  20  36  60  95 125 153 203 264 308 366
#     4  12  20  35  61  90 128 157 203 261 308 361
#     4  11  22  36  63  97 121 162 206 263 321 355
#     4  12  22  38  65  98 124 165 203 261 323 356
#     4  12  24  40  60  95 129 163 208 261 310 371
#     4  11  23  39  61  91 129 166 209 249 312 373
#
# _framework density 20.262771999999998
#
# number of rings (size 3 to 8) (size 9 to 14) (size 15 to 20)
#    0.000    0.500    7.500    2.625    0.000    2.000 
#    0.000    0.625    0.000    2.250    0.000    0.000 
#    0.000    0.000    0.000    0.000    0.000    0.000 
#
# Total GULP energy -89143.178899 kJ/mol
# GULP energy per Si atom -5571.448681 kJ/mol
# Density = 2.021665 g / cm^3
# Si number density = 20.262772 Si / 1000 Ang^3
#
#
#
# Elastic Constant Matrix: (Units=GPa)
#
#
# Indices 1 2 3 4 5 6 
#
# 1 114.9603 67.4415 34.0323 -12.7732 -12.2271 14.5040
# 2 67.4415 138.2416 34.9175 -13.7194 -4.8364 24.8345
# 3 34.0323 34.9175 91.6490 -24.0444 -11.6143 7.1737
# 4 -12.7732 -13.7194 -24.0444 27.8957 4.0012 -0.1835
# 5 -12.2271 -4.8364 -11.6143 4.0012 22.8691 -0.1347
# 6 14.5040 24.8345 7.1737 -0.1835 -0.1347 44.3457
#
#
#
# Elastic Compliance Matrix: (Units=1/GPa)
#
#
# Indices 1 2 3 4 5 6 
#
# 1 0.013248 -0.005563 -0.001850 0.001044 0.004779 -0.000899
# 2 -0.005563 0.011233 -0.001639 0.001790 -0.001769 -0.004204
# 3 -0.001850 -0.001639 0.015876 0.011345 0.004736 -0.000984
# 4 0.001044 0.001790 0.011345 0.047192 -0.001576 -0.002989
# 5 0.004779 -0.001769 0.004736 -0.001576 0.048582 -0.001197
# 6 -0.000899 -0.004204 -0.000984 -0.002989 -0.001197 0.025342
#
#
# Mechanical properties :
#
#
# Convention : Reuss Voigt Hill
#
# Bulk Modulus (GPa) = 44.93957 68.62595 56.78276
# Shear Modulus (GPa) = 26.73874 32.91942 29.82908
#
# Velocity S-wave (km/s) = 3.63657 4.03504 3.84097
# Velocity P-wave (km/s) = 6.31343 7.45991 6.91049
#
# Compressibility (1/GPa) = 0.02225210
#
# Stress axis : x y z
#
# Youngs Moduli (GPa) = 75.48449 89.02488 62.98654
#
# Poissons Ratio (x) = 0.49528 0.11651
# Poissons Ratio (y) = 0.41995 0.10325
# Poissons Ratio (z) = 0.13963 0.14594
#
# Static dielectric constant tensor:
#      x y z
#    x 1.788870 0.022680 0.008440 
#    y 0.022680 1.757930 -0.059030 
#    z 0.008440 -0.059030 1.788440 
# 
# From -- ./inp_files/589259.got.cif
#   From: 2010.05.17/outbox.cif.g08.bks.cpg/sg2_295_cif.got.tgz:589259.got - 2010.06.03 11:33:40.
