data_PCOD9053922
_publ_section_title
;
Structure prediction by ZEFSAII (Michael W. Deem and Ramdas Pophale) SiO2 
 PCOD9053922
Probable space group: P -1
;
_chemical_formula_sum "Si O2"
_cell_formula_units_Z 16
_cell_length_a 12.386139
_cell_length_b 8.065538
_cell_length_c 20.838055
_cell_angle_alpha 150.015727
_cell_angle_beta 41.017266
_cell_angle_gamma 125.936305
_cell_volume 668.540393
_symmetry_space_group_name_H-M "P -1"
_symmetry_group_IT_number 2
_symmetry_cell_setting 'triclinic'
loop_
_space_group_symop_operation_xyz
x,y,z
-x,-y,-z
loop_
_atom_site_type_symbol
_atom_site_label
_atom_site_fract_x
_atom_site_fract_y
_atom_site_fract_z
Si Si1 0.165346 0.655911 0.477129
Si Si2 0.035602 0.212725 0.615514
Si Si3 0.360182 0.321379 0.531038
Si Si4 0.795196 0.106485 0.116833
Si Si5 0.554002 0.493387 0.790107
Si Si6 0.225976 0.218851 0.108976
Si Si7 0.073365 0.011639 0.759883
Si Si8 0.788142 0.600997 0.058877
O O1 0.332780 0.431478 0.295445
O O2 0.000000 0.500000 0.500000
O O3 0.105324 0.969877 0.561038
O O4 0.190336 0.783045 0.579648
O O5 0.190339 0.388387 0.587684
O O6 0.865689 0.472349 0.792269
O O7 0.000000 0.000000 0.500000
O O8 0.500000 0.500000 0.500000
O O9 0.289264 0.519899 0.694359
O O10 0.425433 0.916483 0.362521
O O11 0.732207 0.837852 0.102210
O O12 0.740092 0.075616 0.057757
O O13 0.000000 0.000000 0.000000
O O14 0.636582 0.644420 0.864919
O O15 0.354314 0.601825 0.922832
O O16 0.073691 0.162308 0.204052
O O17 0.170699 0.160403 0.822259
O O18 0.962439 0.336210 0.881125
#
# Coordination Sequence:
#
# PCOD9053922 Si02
#       8
#     2   2   2   2   2   2   2   2
#     4  11  22  42  68 101 133 182 223 275 336 411
#     4  11  20  38  71  97 132 173 223 271 334 401
#     4  11  22  40  64 100 138 167 216 286 340 385
#     4  12  23  40  73 101 133 180 227 276 337 411
#     4  11  25  44  70  98 144 170 232 291 337 401
#     4  12  23  43  70 102 133 181 227 281 336 407
#     4  11  24  43  72  94 135 184 234 269 349 413
#     4  11  25  45  68  98 135 181 225 292 339 410
#
# _framework density 23.932735999999998
#
# number of rings (size 3 to 8) (size 9 to 14) (size 15 to 20)
#    0.000    0.750    7.500    0.750    1.750    1.500 
#    0.000    0.000    0.000    0.000    0.000    0.000 
#    0.000    0.000    0.000    0.000    0.000    0.000 
#
# Total GULP energy -89397.220678 kJ/mol
# GULP energy per Si atom -5587.326292 kJ/mol
# Density = 2.387826 g / cm^3
# Si number density = 23.932736 Si / 1000 Ang^3
#
#
#
# Elastic Constant Matrix: (Units=GPa)
#
#
# Indices 1 2 3 4 5 6 
#
# 1 89.9278 37.7369 42.0886 -14.8283 22.7237 18.3736
# 2 37.7369 105.6363 16.5666 -14.6744 7.8794 27.3696
# 3 42.0886 16.5666 119.0582 -12.5108 29.9090 17.3877
# 4 -14.8283 -14.6744 -12.5108 39.9760 0.0108 -4.8245
# 5 22.7237 7.8794 29.9090 0.0108 45.1147 0.9339
# 6 18.3736 27.3696 17.3877 -4.8245 0.9339 48.9314
#
#
#
# Elastic Compliance Matrix: (Units=1/GPa)
#
#
# Indices 1 2 3 4 5 6 
#
# 1 0.016784 -0.003945 -0.003263 0.003458 -0.005551 -0.002489
# 2 -0.003945 0.012627 0.000933 0.002785 -0.000721 -0.005625
# 3 -0.003263 0.000933 0.011687 0.002418 -0.006204 -0.003093
# 4 0.003458 0.002785 0.002418 0.027971 -0.003819 -0.000885
# 5 -0.005551 -0.000721 -0.006204 -0.003819 0.029124 0.003760
# 6 -0.002489 -0.005625 -0.003093 -0.000885 0.003760 0.025458
#
#
# Mechanical properties :
#
#
# Convention : Reuss Voigt Hill
#
# Bulk Modulus (GPa) = 35.02794 56.37851 45.70322
# Shear Modulus (GPa) = 34.31293 41.35309 37.83301
#
# Velocity S-wave (km/s) = 3.79056 4.16130 3.98025
# Velocity P-wave (km/s) = 5.81598 6.83350 6.34517
#
# Compressibility (1/GPa) = 0.02854864
#
# Stress axis : x y z
#
# Youngs Moduli (GPa) = 59.58050 79.19251 85.56278
#
# Poissons Ratio (x) = 0.31239 0.27920
# Poissons Ratio (y) = 0.23503 -0.07981
# Poissons Ratio (z) = 0.19442 -0.07387
#
# Static dielectric constant tensor:
#      x y z
#    x 1.917650 -0.017590 -0.069090 
#    y -0.017590 1.992200 0.045740 
#    z -0.069090 0.045740 2.038320 
# 
# From -- ./inp_files/594298.got.cif
#   From: 2010.05.17/outbox.cif.g08.bks.cpg/sg2_298_cif.got.tgz:594298.got - 2010.06.03 11:33:40.
