data_PCOD9053478
_publ_section_title
;
Structure prediction by ZEFSAII (Michael W. Deem and Ramdas Pophale) SiO2 
 PCOD9053478
Probable space group: P -1
;
_chemical_formula_sum "Si O2"
_cell_formula_units_Z 16
_cell_length_a 9.202821
_cell_length_b 11.746024
_cell_length_c 13.857607
_cell_angle_alpha 126.013918
_cell_angle_beta 110.447246
_cell_angle_gamma 40.814252
_cell_volume 778.880934
_symmetry_space_group_name_H-M "P -1"
_symmetry_group_IT_number 2
_symmetry_cell_setting 'triclinic'
loop_
_space_group_symop_operation_xyz
x,y,z
-x,-y,-z
loop_
_atom_site_type_symbol
_atom_site_label
_atom_site_fract_x
_atom_site_fract_y
_atom_site_fract_z
Si Si1 0.201802 0.339186 0.540288
Si Si2 0.616153 0.005028 0.338575
Si Si3 0.315426 0.479766 0.256272
Si Si4 0.977521 0.818701 0.477218
Si Si5 0.814707 0.185040 0.748624
Si Si6 0.724460 0.020376 0.159150
Si Si7 0.640281 0.661090 0.222170
Si Si8 0.056583 0.392413 0.063472
O O1 0.424104 0.196988 0.456228
O O2 0.148421 0.220905 0.512479
O O3 0.248230 0.404642 0.677441
O O4 0.000000 0.500000 0.500000
O O5 0.849942 0.904054 0.387718
O O6 0.611240 0.050907 0.249823
O O7 0.600187 0.848275 0.271577
O O8 0.280031 0.620710 0.237109
O O9 0.151668 0.455183 0.183382
O O10 0.230745 0.604747 0.400170
O O11 0.564874 0.248897 0.196842
O O12 0.926033 0.994330 0.609088
O O13 0.597901 0.259853 0.787860
O O14 0.020970 0.096013 0.819347
O O15 0.760895 0.851966 0.025331
O O16 0.828722 0.482232 0.102873
O O17 0.000000 0.500000 0.000000
#
# Coordination Sequence:
#
# PCOD9053478 Si02
#       8
#     2   2   2   2   2   2   2   2
#     4  11  21  36  64 103 136 168 226 277 328 395
#     4  11  19  41  66  93 128 179 223 268 330 388
#     4  12  25  44  67  99 133 175 227 275 327 397
#     4  11  20  40  66  96 137 176 213 272 340 400
#     4  12  24  43  65  98 144 172 209 273 351 405
#     4  12  27  43  69  98 131 181 228 275 328 390
#     4  11  22  41  71  94 130 180 215 274 334 390
#     4  12  22  49  74  92 126 181 237 275 319 386
#
# _framework density 20.542290999999999
#
# number of rings (size 3 to 8) (size 9 to 14) (size 15 to 20)
#    0.000    0.500    8.750    2.250    0.000    2.000 
#    0.000    0.625    0.000    0.000    0.000    0.000 
#    0.000    0.000    0.000    0.000    0.000    0.000 
#
# Total GULP energy -89400.500914 kJ/mol
# GULP energy per Si atom -5587.531307 kJ/mol
# Density = 2.049554 g / cm^3
# Si number density = 20.542291 Si / 1000 Ang^3
#
#
#
# Elastic Constant Matrix: (Units=GPa)
#
#
# Indices 1 2 3 4 5 6 
#
# 1 108.2967 29.2234 26.6742 5.4063 -11.4323 -12.6426
# 2 29.2234 101.4838 36.9667 18.9849 -6.3385 -8.2404
# 3 26.6742 36.9667 99.0133 30.4602 -13.3344 -3.9639
# 4 5.4063 18.9849 30.4602 24.9212 -3.5561 -0.2504
# 5 -11.4323 -6.3385 -13.3344 -3.5561 33.9553 7.7460
# 6 -12.6426 -8.2404 -3.9639 -0.2504 7.7460 13.6803
#
#
#
# Elastic Compliance Matrix: (Units=1/GPa)
#
#
# Indices 1 2 3 4 5 6 
#
# 1 0.011341 -0.002078 -0.002624 0.002529 0.000830 0.008046
# 2 -0.002078 0.012898 -0.002021 -0.007008 -0.001138 0.005779
# 3 -0.002624 -0.002021 0.018011 -0.019341 0.004028 -0.001058
# 4 0.002529 -0.007008 -0.019341 0.068581 0.000634 -0.006593
# 5 0.000830 -0.001138 0.004028 0.000634 0.035458 -0.018817
# 6 0.008046 0.005779 -0.001058 -0.006593 -0.018817 0.094241
#
#
# Mechanical properties :
#
#
# Convention : Reuss Voigt Hill
#
# Bulk Modulus (GPa) = 34.71712 54.94694 44.83203
# Shear Modulus (GPa) = 18.96961 28.90666 23.93814
#
# Velocity S-wave (km/s) = 3.04212 3.75531 3.41737
# Velocity P-wave (km/s) = 5.41076 6.75347 6.11905
#
# Compressibility (1/GPa) = 0.02880424
#
# Stress axis : x y z
#
# Youngs Moduli (GPa) = 88.17186 77.53269 55.52032
#
# Poissons Ratio (x) = 0.16112 0.14566
# Poissons Ratio (y) = 0.18323 0.11223
# Poissons Ratio (z) = 0.23133 0.15673
#
# Static dielectric constant tensor:
#      x y z
#    x 1.738280 -0.033200 -0.019070 
#    y -0.033200 1.815800 0.029180 
#    z -0.019070 0.029180 1.761120 
# 
# From -- ./inp_files/272443.got.cif
#   From: 2010.05.17/outbox.cif.g08.bks.cpg/sg2_137_cif.got.tgz:272443.got - 2010.06.03 11:33:40.
