data_PCOD9053987
_publ_section_title
;
Structure prediction by ZEFSAII (Michael W. Deem and Ramdas Pophale) SiO2 
 PCOD9053987
Probable space group: P -1
;
_chemical_formula_sum "Si O2"
_cell_formula_units_Z 16
_cell_length_a 9.055314
_cell_length_b 8.957933
_cell_length_c 11.606587
_cell_angle_alpha 48.614255
_cell_angle_beta 85.484316
_cell_angle_gamma 85.180320
_cell_volume 703.540955
_symmetry_space_group_name_H-M "P -1"
_symmetry_group_IT_number 2
_symmetry_cell_setting 'triclinic'
loop_
_space_group_symop_operation_xyz
x,y,z
-x,-y,-z
loop_
_atom_site_type_symbol
_atom_site_label
_atom_site_fract_x
_atom_site_fract_y
_atom_site_fract_z
Si Si1 0.277037 0.648323 0.134606
Si Si2 0.802690 0.700526 0.342728
Si Si3 0.910664 0.298074 0.093687
Si Si4 0.327149 0.724550 0.421188
Si Si5 0.462127 0.209722 0.833381
Si Si6 0.904922 0.087180 0.812932
Si Si7 0.825342 0.183944 0.415743
Si Si8 0.856042 0.754211 0.561833
O O1 0.448717 0.646608 0.162144
O O2 0.195337 0.836557 0.111340
O O3 0.209882 0.445017 0.285914
O O4 0.233740 0.669372 0.994108
O O5 0.747142 0.484533 0.489670
O O6 0.709155 0.762255 0.203460
O O7 0.789548 0.808880 0.412380
O O8 0.971711 0.745455 0.282211
O O9 0.859548 0.237765 0.254973
O O10 0.010590 0.125685 0.107778
O O11 0.000000 0.500000 0.000000
O O12 0.468062 0.753087 0.317815
O O13 0.211330 0.890780 0.294808
O O14 0.325429 0.739379 0.551477
O O15 0.500000 0.000000 0.000000
O O16 0.964631 0.269109 0.434375
O O17 0.827423 0.946187 0.544213
#
# Coordination Sequence:
#
# PCOD9053987 Si02
#       8
#     2   2   2   2   2   2   2   2
#     4  11  24  42  66  98 129 172 224 269 321 382
#     4  12  21  41  73  96 127 170 222 270 327 379
#     4  12  24  37  61 100 142 174 201 266 342 384
#     4  11  23  41  69 100 125 169 222 272 320 391
#     4  11  26  44  66  95 135 170 216 276 328 377
#     4  11  21  39  69  99 128 161 226 277 318 377
#     4  11  22  40  62 102 135 166 207 271 329 390
#     4  11  20  39  68  96 132 168 213 270 322 388
#
# _framework density 22.742101000000002
#
# number of rings (size 3 to 8) (size 9 to 14) (size 15 to 20)
#    0.000    0.750    6.250    3.375    0.000    1.000 
#    0.000    0.625    0.000    1.500    0.000    0.000 
#    0.000    0.000    0.000    0.000    0.000    0.000 
#
# Total GULP energy -89204.417705 kJ/mol
# GULP energy per Si atom -5575.276107 kJ/mol
# Density = 2.269034 g / cm^3
# Si number density = 22.742101 Si / 1000 Ang^3
#
#
#
# Elastic Constant Matrix: (Units=GPa)
#
#
# Indices 1 2 3 4 5 6 
#
# 1 59.8942 13.7689 17.5739 8.5563 10.2608 16.2000
# 2 13.7689 85.2312 46.0932 6.2028 -7.2605 17.0973
# 3 17.5739 46.0932 75.0862 -2.0496 6.0680 14.5807
# 4 8.5563 6.2028 -2.0496 41.3154 16.2533 3.2508
# 5 10.2608 -7.2605 6.0680 16.2533 44.1326 4.8437
# 6 16.2000 17.0973 14.5807 3.2508 4.8437 17.2952
#
#
#
# Elastic Compliance Matrix: (Units=1/GPa)
#
#
# Indices 1 2 3 4 5 6 
#
# 1 0.023233 0.001850 -0.002573 -0.003069 -0.001368 -0.020461
# 2 0.001850 0.022174 -0.012095 -0.006677 0.008955 -0.014709
# 3 -0.002573 -0.012095 0.022873 0.006340 -0.006398 -0.004317
# 4 -0.003069 -0.006677 0.006340 0.031087 -0.012915 0.001904
# 5 -0.001368 0.008955 -0.006398 -0.012915 0.031012 -0.008435
# 6 -0.020461 -0.014709 -0.004317 0.001904 -0.008435 0.097169
#
#
# Mechanical properties :
#
#
# Convention : Reuss Voigt Hill
#
# Bulk Modulus (GPa) = 23.44996 41.67594 32.56295
# Shear Modulus (GPa) = 18.69862 30.06701 24.38282
#
# Velocity S-wave (km/s) = 2.87052 3.63999 3.27791
# Velocity P-wave (km/s) = 4.61737 6.00261 5.35497
#
# Compressibility (1/GPa) = 0.04264400
#
# Stress axis : x y z
#
# Youngs Moduli (GPa) = 43.04264 45.09748 43.71958
#
# Poissons Ratio (x) = -0.08341 0.11249
# Poissons Ratio (y) = -0.07961 0.52877
# Poissons Ratio (z) = 0.11075 0.54543
#
# Static dielectric constant tensor:
#      x y z
#    x 1.887770 -0.055130 0.004210 
#    y -0.055130 1.874970 0.022480 
#    z 0.004210 0.022480 1.921270 
# 
# From -- ./inp_files/381036.got.cif
#   From: 2010.05.17/outbox.cif.g08.bks.cpg/sg2_191_cif.got.tgz:381036.got - 2010.06.03 11:33:40.
