data_PCOD9053910
_publ_section_title
;
Structure prediction by ZEFSAII (Michael W. Deem and Ramdas Pophale) SiO2 
 PCOD9053910
Probable space group: P -1
;
_chemical_formula_sum "Si O2"
_cell_formula_units_Z 14
_cell_length_a 9.834168
_cell_length_b 8.651452
_cell_length_c 9.520291
_cell_angle_alpha 86.257443
_cell_angle_beta 61.036009
_cell_angle_gamma 107.236115
_cell_volume 655.387170
_symmetry_space_group_name_H-M "P -1"
_symmetry_group_IT_number 2
_symmetry_cell_setting 'triclinic'
loop_
_space_group_symop_operation_xyz
x,y,z
-x,-y,-z
loop_
_atom_site_type_symbol
_atom_site_label
_atom_site_fract_x
_atom_site_fract_y
_atom_site_fract_z
Si Si1 0.643335 0.822253 0.929862
Si Si2 0.464327 0.165239 0.529813
Si Si3 0.586230 0.610923 0.697885
Si Si4 0.280898 0.803002 0.188376
Si Si5 0.986004 0.398190 0.869799
Si Si6 0.795915 0.413484 0.497504
Si Si7 0.260179 0.268243 0.838729
O O1 0.606766 0.679343 0.840808
O O2 0.705407 0.006958 0.822620
O O3 0.467139 0.799539 0.095576
O O4 0.768225 0.806035 0.986796
O O5 0.420004 0.242093 0.407449
O O6 0.634220 0.299883 0.498047
O O7 0.322968 0.153182 0.715219
O O8 0.500000 0.000000 0.500000
O O9 0.740439 0.558264 0.580430
O O10 0.414613 0.449550 0.766974
O O11 0.183598 0.696301 0.376786
O O12 0.194753 0.723138 0.088704
O O13 0.060034 0.520520 0.693508
O O14 0.105469 0.296224 0.843650
O O15 0.000000 0.500000 0.000000
#
# Coordination Sequence:
#
# PCOD9053910 Si02
#       7
#     2   2   2   2   2   2   2
#     4  11  24  41  68  97 132 169 222 275 325 382
#     4  11  21  37  69 100 130 171 218 275 330 381
#     4  11  20  38  69  97 125 172 227 266 323 387
#     4  11  25  43  64  99 134 173 218 270 328 394
#     4  12  26  43  69  96 133 175 221 271 331 387
#     4  11  22  44  65  97 130 174 222 269 319 400
#     4  11  22  43  66  98 130 168 224 272 322 393
#
# _framework density 21.361416999999999
#
# number of rings (size 3 to 8) (size 9 to 14) (size 15 to 20)
#    0.000    0.857    5.714    3.429    4.000    0.571 
#    0.000    0.714    0.000    0.000    0.000    0.000 
#    0.000    0.000    0.000    0.000    0.000    0.000 
#
# Total GULP energy -78301.927668 kJ/mol
# GULP energy per Si atom -5592.994833 kJ/mol
# Density = 2.131280 g / cm^3
# Si number density = 21.361417 Si / 1000 Ang^3
#
#
#
# Elastic Constant Matrix: (Units=GPa)
#
#
# Indices 1 2 3 4 5 6 
#
# 1 51.7406 14.4492 20.7491 -17.0917 16.8436 1.3502
# 2 14.4492 89.8266 39.2192 6.6086 5.0256 -31.3855
# 3 20.7491 39.2192 91.0424 1.4588 26.0244 -21.2536
# 4 -17.0917 6.6086 1.4588 18.7849 -7.6296 2.5571
# 5 16.8436 5.0256 26.0244 -7.6296 32.1498 -0.4540
# 6 1.3502 -31.3855 -21.2536 2.5571 -0.4540 25.5939
#
#
#
# Elastic Compliance Matrix: (Units=1/GPa)
#
#
# Indices 1 2 3 4 5 6 
#
# 1 0.060183 -0.029272 -0.018281 0.077028 0.005249 -0.061854
# 2 -0.029272 0.037220 0.007254 -0.051349 -0.007718 0.058205
# 3 -0.018281 0.007254 0.026774 -0.034555 -0.020933 0.035175
# 4 0.077028 -0.051349 -0.034555 0.173703 0.035276 -0.112456
# 5 0.005249 -0.007718 -0.020933 0.035276 0.054458 -0.029684
# 6 -0.061854 0.058205 0.035175 -0.112456 -0.029684 0.153630
#
#
# Mechanical properties :
#
#
# Convention : Reuss Voigt Hill
#
# Bulk Modulus (GPa) = 22.94613 42.38276 32.66444
# Shear Modulus (GPa) = 8.31821 25.85184 17.08502
#
# Velocity S-wave (km/s) = 1.97547 3.48258 2.83115
# Velocity P-wave (km/s) = 3.99606 6.00459 5.10017
#
# Compressibility (1/GPa) = 0.04358033
#
# Stress axis : x y z
#
# Youngs Moduli (GPa) = 16.61602 26.86717 37.34965
#
# Poissons Ratio (x) = 0.78645 0.68278
# Poissons Ratio (y) = 0.48638 -0.27095
# Poissons Ratio (z) = 0.30375 -0.19490
#
# Static dielectric constant tensor:
#      x y z
#    x 1.766490 -0.000160 -0.008240 
#    y -0.000160 1.775880 -0.020410 
#    z -0.008240 -0.020410 1.790940 
# 
# From -- ./inp_files/157408.got.cif
#   From: 2010.05.17/outbox.cif.g08.bks.cpg/sg2_79_cif.got.tgz:157408.got - 2010.06.03 11:33:40.
