data_PCOD9053559
_publ_section_title
;
Structure prediction by ZEFSAII (Michael W. Deem and Ramdas Pophale) SiO2 
 PCOD9053559
Probable space group: P -1
;
_chemical_formula_sum "Si O2"
_cell_formula_units_Z 14
_cell_length_a 9.102496
_cell_length_b 18.523241
_cell_length_c 11.624341
_cell_angle_alpha 132.237979
_cell_angle_beta 139.833250
_cell_angle_gamma 29.430967
_cell_volume 621.057744
_symmetry_space_group_name_H-M "P -1"
_symmetry_group_IT_number 2
_symmetry_cell_setting 'triclinic'
loop_
_space_group_symop_operation_xyz
x,y,z
-x,-y,-z
loop_
_atom_site_type_symbol
_atom_site_label
_atom_site_fract_x
_atom_site_fract_y
_atom_site_fract_z
Si Si1 0.763475 0.629057 0.589129
Si Si2 0.751546 0.199622 0.019698
Si Si3 0.367321 0.939756 0.669985
Si Si4 0.247161 0.001591 0.299546
Si Si5 0.919838 0.938140 0.155206
Si Si6 0.087024 0.753433 0.260682
Si Si7 0.255433 0.521120 0.968964
O O1 0.657297 0.770659 0.628080
O O2 0.417804 0.677212 0.449102
O O3 0.000000 0.500000 0.500000
O O4 0.959094 0.575256 0.768141
O O5 0.475436 0.367402 0.999035
O O6 0.617260 0.132088 0.842757
O O7 0.055951 0.110974 0.010745
O O8 0.934013 0.147335 0.195303
O O9 0.415760 0.935516 0.834170
O O10 0.000000 0.000000 0.500000
O O11 0.250648 0.085378 0.717319
O O12 0.098188 0.985804 0.298633
O O13 0.500000 0.000000 0.500000
O O14 0.131148 0.798559 0.214019
O O15 0.098947 0.640179 0.102619
O O16 0.500000 0.500000 0.000000
#
# Coordination Sequence:
#
# PCOD9053559 Si02
#       7
#     2   2   2   2   2   2   2
#     4  11  20  30  52  78 112 151 179 210 270 331
#     4   9  19  32  49  81 110 135 182 236 256 314
#     4   8  17  34  52  76 117 148 173 225 266 328
#     4   9  18  33  55  77 104 144 192 222 270 311
#     4   8  15  34  51  72 114 139 173 228 263 309
#     4   9  19  35  49  78 115 143 174 216 274 324
#     4  12  19  31  51  78 116 140 171 226 277 323
#
# _framework density 22.542186000000001
#
# number of rings (size 3 to 8) (size 9 to 14) (size 15 to 20)
#    1.714    0.857    2.857    0.000    0.000    2.857 
#    0.000    0.000    3.143    0.857    0.000    5.000 
#    0.000    0.000    0.000    0.000    0.000    0.286 
#
# Total GULP energy -77948.454478 kJ/mol
# GULP energy per Si atom -5567.746748 kJ/mol
# Density = 2.249088 g / cm^3
# Si number density = 22.542186 Si / 1000 Ang^3
#
#
#
# Elastic Constant Matrix: (Units=GPa)
#
#
# Indices 1 2 3 4 5 6 
#
# 1 41.6756 17.7496 14.9828 -2.3220 1.8993 19.4144
# 2 17.7496 216.6094 85.1060 14.0025 -1.8867 14.5265
# 3 14.9828 85.1060 173.4975 -8.5269 0.2329 13.0570
# 4 -2.3220 14.0025 -8.5269 39.9383 -0.4435 -12.2803
# 5 1.8993 -1.8867 0.2329 -0.4435 17.4067 -0.9856
# 6 19.4144 14.5265 13.0570 -12.2803 -0.9856 32.8530
#
#
#
# Elastic Compliance Matrix: (Units=1/GPa)
#
#
# Indices 1 2 3 4 5 6 
#
# 1 0.034817 -0.000625 -0.001293 -0.004770 -0.005201 -0.021724
# 2 -0.000625 0.006261 -0.003005 -0.003652 0.000549 -0.002553
# 3 -0.001293 -0.003005 0.007471 0.002598 -0.000213 0.000088
# 4 -0.004770 -0.003652 0.002598 0.031272 0.001744 0.015143
# 5 -0.005201 0.000549 -0.000213 0.001744 0.058425 0.005320
# 6 -0.021724 -0.002553 0.000088 0.015143 0.005320 0.050190
#
#
# Mechanical properties :
#
#
# Convention : Reuss Voigt Hill
#
# Bulk Modulus (GPa) = 25.83793 74.16213 50.00003
# Shear Modulus (GPa) = 23.67624 38.96919 31.32271
#
# Velocity S-wave (km/s) = 3.24436 4.16230 3.73166
# Velocity P-wave (km/s) = 5.05187 7.48801 6.38717
#
# Compressibility (1/GPa) = 0.03870278
#
# Stress axis : x y z
#
# Youngs Moduli (GPa) = 28.72145 159.72866 133.85368
#
# Poissons Ratio (x) = 0.09987 0.17302
# Poissons Ratio (y) = 0.01796 0.40225
# Poissons Ratio (z) = 0.03712 0.48000
#
# Static dielectric constant tensor:
#      x y z
#    x 1.929030 -0.035710 0.055470 
#    y -0.035710 1.843320 0.056030 
#    z 0.055470 0.056030 1.963530 
# 
# From -- ./inp_files/403286.got.cif
#   From: 2010.05.17/outbox.cif.g08.bks.cpg/sg2_202_cif.got.tgz:403286.got - 2010.06.03 11:33:40.
