data_PCOD9053572
_publ_section_title
;
Structure prediction by ZEFSAII (Michael W. Deem and Ramdas Pophale) SiO2 
 PCOD9053572
Probable space group: P -1
;
_chemical_formula_sum "Si O2"
_cell_formula_units_Z 16
_cell_length_a 15.642461
_cell_length_b 6.907316
_cell_length_c 9.564727
_cell_angle_alpha 105.165182
_cell_angle_beta 92.975546
_cell_angle_gamma 134.429197
_cell_volume 669.603809
_symmetry_space_group_name_H-M "P -1"
_symmetry_group_IT_number 2
_symmetry_cell_setting 'triclinic'
loop_
_space_group_symop_operation_xyz
x,y,z
-x,-y,-z
loop_
_atom_site_type_symbol
_atom_site_label
_atom_site_fract_x
_atom_site_fract_y
_atom_site_fract_z
Si Si1 0.153816 0.396927 0.279708
Si Si2 0.362093 0.985481 0.800569
Si Si3 0.381916 0.685624 0.172216
Si Si4 0.081256 0.235696 0.786658
Si Si5 0.099645 0.519964 0.576758
Si Si6 0.681808 0.546158 0.190300
Si Si7 0.858071 0.326065 0.913817
Si Si8 0.415268 0.193128 0.155528
O O1 0.279806 0.514261 0.252975
O O2 0.150033 0.455008 0.450638
O O3 0.133149 0.559528 0.215873
O O4 0.036863 0.043738 0.187166
O O5 0.230825 0.844706 0.706044
O O6 0.339823 0.712914 0.790961
O O7 0.485809 0.189092 0.751628
O O8 0.398638 0.152126 0.979909
O O9 0.405475 0.958041 0.184241
O O10 0.341273 0.511103 0.989913
O O11 0.043227 0.297297 0.659673
O O12 0.164703 0.187745 0.737134
O O13 0.159379 0.521626 0.947686
O O14 0.000000 0.500000 0.500000
O O15 0.570815 0.493911 0.235985
O O16 0.000000 0.500000 0.000000
O O17 0.726320 0.967195 0.841807
#
# Coordination Sequence:
#
# PCOD9053572 Si02
#       8
#     2   2   2   2   2   2   2   2
#     4  11  22  32  52  80 107 132 171 213 255 302
#     4   8  14  28  50  71  98 130 169 212 248 287
#     4   8  14  27  48  78  98 121 169 218 249 286
#     4  11  20  36  53  75 106 140 167 208 259 306
#     4  11  22  36  52  74 104 139 173 208 254 309
#     4   8  13  26  52  75  97 127 168 212 249 289
#     4  11  20  32  53  79 106 135 167 211 257 299
#     4   8  13  27  50  76  98 126 168 213 248 289
#
# _framework density 23.894725000000001
#
# number of rings (size 3 to 8) (size 9 to 14) (size 15 to 20)
#    0.000    2.500    5.000    3.000    0.000    0.500 
#    0.000    0.000    0.000    3.000    0.000    0.000 
#    0.000    0.000    0.000    0.000    0.000    0.000 
#
# Total GULP energy -89144.490596 kJ/mol
# GULP energy per Si atom -5571.530662 kJ/mol
# Density = 2.384034 g / cm^3
# Si number density = 23.894725 Si / 1000 Ang^3
#
#
#
# Elastic Constant Matrix: (Units=GPa)
#
#
# Indices 1 2 3 4 5 6 
#
# 1 128.5729 52.0694 6.4559 -0.1974 30.4888 30.6373
# 2 52.0694 96.8923 1.7002 -7.9389 -3.5471 50.8098
# 3 6.4559 1.7002 48.6647 -4.8602 1.1479 1.5203
# 4 -0.1974 -7.9389 -4.8602 15.8893 23.0792 -2.9926
# 5 30.4888 -3.5471 1.1479 23.0792 22.7254 10.2748
# 6 30.6373 50.8098 1.5203 -2.9926 10.2748 49.2065
#
#
#
# Elastic Compliance Matrix: (Units=1/GPa)
#
#
# Indices 1 2 3 4 5 6 
#
# 1 0.007668 -0.002175 -0.002807 -0.018012 0.010387 -0.005707
# 2 -0.002175 0.022579 0.002913 0.025764 -0.011715 -0.018038
# 3 -0.002807 0.002913 0.020683 -0.001019 0.005628 -0.003136
# 4 -0.018012 0.025764 -0.001019 -0.019765 0.061615 -0.029425
# 5 0.010387 -0.011715 0.005628 0.061615 -0.042823 0.018144
# 6 -0.005707 -0.018038 -0.003136 -0.029425 0.018144 0.037020
#
#
# Mechanical properties :
#
#
# Convention : Reuss Voigt Hill
#
# Bulk Modulus (GPa) = 21.37091 43.84232 32.60662
# Shear Modulus (GPa) = 110.86742 31.82455 71.34599
#
# Velocity S-wave (km/s) = 6.81902 3.65343 5.47022
# Velocity P-wave (km/s) = 8.42389 6.01537 7.31938
#
# Compressibility (1/GPa) = 0.04679257
#
# Stress axis : x y z
#
# Youngs Moduli (GPa) = 130.40672 44.28803 48.34915
#
# Poissons Ratio (x) = 0.09631 0.13572
# Poissons Ratio (y) = 0.28359 -0.14082
# Poissons Ratio (z) = 0.36605 -0.12899
#
# Static dielectric constant tensor:
#      x y z
#    x 2.059330 0.011880 0.011200 
#    y 0.011880 2.082520 0.066630 
#    z 0.011200 0.066630 1.858830 
# 
# From -- ./inp_files/328891.got.cif
#   From: 2010.05.17/outbox.cif.g08.bks.cpg/sg2_165_cif.got.tgz:328891.got - 2010.06.03 11:33:40.
