data_PCOD9053281
_publ_section_title
;
Structure prediction by ZEFSAII (Michael W. Deem and Ramdas Pophale) SiO2 
 PCOD9053281
Probable space group: P -1
;
_chemical_formula_sum "Si O2"
_cell_formula_units_Z 16
_cell_length_a 9.866917
_cell_length_b 8.978720
_cell_length_c 14.511215
_cell_angle_alpha 68.344177
_cell_angle_beta 79.071566
_cell_angle_gamma 42.134768
_cell_volume 794.270608
_symmetry_space_group_name_H-M "P -1"
_symmetry_group_IT_number 2
_symmetry_cell_setting 'triclinic'
loop_
_space_group_symop_operation_xyz
x,y,z
-x,-y,-z
loop_
_atom_site_type_symbol
_atom_site_label
_atom_site_fract_x
_atom_site_fract_y
_atom_site_fract_z
Si Si1 0.744830 0.385572 0.144981
Si Si2 0.603906 0.059633 0.920731
Si Si3 0.830224 0.905200 0.741707
Si Si4 0.640202 0.403734 0.592246
Si Si5 0.404258 0.788398 0.697361
Si Si6 0.024165 0.642691 0.027233
Si Si7 0.176989 0.413671 0.259942
Si Si8 0.993930 0.677538 0.412756
O O1 0.553785 0.661316 0.129629
O O2 0.688258 0.252228 0.205003
O O3 0.943965 0.259106 0.209217
O O4 0.810705 0.382683 0.035033
O O5 0.687590 0.957020 0.830411
O O6 0.500000 0.000000 0.000000
O O7 0.808463 0.917064 0.984918
O O8 0.838162 0.765553 0.693670
O O9 0.735625 0.153236 0.667114
O O10 0.500000 0.500000 0.500000
O O11 0.504851 0.593947 0.648571
O O12 0.829492 0.360937 0.559636
O O13 0.588634 0.734005 0.727447
O O14 0.225059 0.050444 0.619122
O O15 0.083030 0.545518 0.144318
O O16 0.000000 0.500000 0.000000
O O17 0.054862 0.599188 0.316078
O O18 0.000000 0.500000 0.500000
#
# Coordination Sequence:
#
# PCOD9053281 Si02
#       8
#     2   2   2   2   2   2   2   2
#     4  11  21  40  67  94 135 176 219 271 324 403
#     4  11  19  35  66  96 135 171 221 269 324 384
#     4  11  22  41  68 102 131 172 227 277 327 398
#     4  11  26  45  73 100 130 170 231 288 335 397
#     4  11  26  46  67  98 139 177 218 272 352 400
#     4  11  21  39  62 101 137 171 226 277 317 395
#     4  11  25  43  68  99 140 177 220 279 337 394
#     4  11  28  49  67  97 139 178 221 280 344 406
#
# _framework density 20.144269000000001
#
# number of rings (size 3 to 8) (size 9 to 14) (size 15 to 20)
#    0.000    1.000    6.250    0.000    3.500    6.000 
#    0.000    1.250    0.000    0.000    0.000    0.000 
#    0.000    0.000    0.000    0.000    0.000    0.000 
#
# Total GULP energy -89422.198601 kJ/mol
# GULP energy per Si atom -5588.887413 kJ/mol
# Density = 2.009842 g / cm^3
# Si number density = 20.144269 Si / 1000 Ang^3
#
#
#
# Elastic Constant Matrix: (Units=GPa)
#
#
# Indices 1 2 3 4 5 6 
#
# 1 79.3615 27.3222 37.7646 -6.1282 7.5412 5.6476
# 2 27.3222 115.7033 28.7899 -38.8979 14.5773 -8.1852
# 3 37.7646 28.7899 92.1216 -25.8852 11.3089 2.6736
# 4 -6.1282 -38.8979 -25.8852 31.6172 2.8905 -8.3219
# 5 7.5412 14.5773 11.3089 2.8905 36.4156 -4.0202
# 6 5.6476 -8.1852 2.6736 -8.3219 -4.0202 26.4909
#
#
#
# Elastic Compliance Matrix: (Units=1/GPa)
#
#
# Indices 1 2 3 4 5 6 
#
# 1 0.020861 -0.011438 -0.011741 -0.023602 0.004281 -0.013561
# 2 -0.011438 0.028578 0.010513 0.048988 -0.013627 0.023529
# 3 -0.011741 0.010513 0.022642 0.033387 -0.010087 0.012424
# 4 -0.023602 0.048988 0.033387 0.131473 -0.029608 0.053606
# 5 0.004281 -0.013627 -0.010087 -0.029608 0.036646 -0.007845
# 6 -0.013561 0.023529 0.012424 0.053606 -0.007845 0.062306
#
#
# Mechanical properties :
#
#
# Convention : Reuss Voigt Hill
#
# Bulk Modulus (GPa) = 21.39104 52.77110 37.08107
# Shear Modulus (GPa) = 14.55938 31.79205 23.17571
#
# Velocity S-wave (km/s) = 2.69133 3.97699 3.39556
# Velocity P-wave (km/s) = 4.50551 6.88056 5.81557
#
# Compressibility (1/GPa) = 0.04674854
#
# Stress axis : x y z
#
# Youngs Moduli (GPa) = 47.93588 34.99161 44.16560
#
# Poissons Ratio (x) = 0.40023 0.51855
# Poissons Ratio (y) = 0.54829 -0.46429
# Poissons Ratio (z) = 0.56282 -0.36785
#
# Static dielectric constant tensor:
#      x y z
#    x 1.708450 0.005550 -0.017960 
#    y 0.005550 1.726970 0.015500 
#    z -0.017960 0.015500 1.705550 
# 
# From -- ./inp_files/208080.got.cif
#   From: 2010.05.17/outbox.cif.g08.bks.cpg/sg2_105_cif.got.tgz:208080.got - 2010.06.03 11:33:40.
