data_PCOD9053909
_publ_section_title
;
Structure prediction by ZEFSAII (Michael W. Deem and Ramdas Pophale) SiO2 
 PCOD9053909
Probable space group: P -1
;
_chemical_formula_sum "Si O2"
_cell_formula_units_Z 16
_cell_length_a 9.503734
_cell_length_b 5.498307
_cell_length_c 15.877033
_cell_angle_alpha 93.807679
_cell_angle_beta 47.482226
_cell_angle_gamma 85.052039
_cell_volume 600.377905
_symmetry_space_group_name_H-M "P -1"
_symmetry_group_IT_number 2
_symmetry_cell_setting 'triclinic'
loop_
_space_group_symop_operation_xyz
x,y,z
-x,-y,-z
loop_
_atom_site_type_symbol
_atom_site_label
_atom_site_fract_x
_atom_site_fract_y
_atom_site_fract_z
Si Si1 0.303873 0.346519 0.172744
Si Si2 0.960665 0.734262 0.150888
Si Si3 0.266651 0.527243 0.645900
Si Si4 0.319886 0.410438 0.969059
Si Si5 0.580627 0.959906 0.220965
Si Si6 0.403982 0.509054 0.360829
Si Si7 0.927956 0.655112 0.422913
Si Si8 0.033208 0.018247 0.293430
O O1 0.497317 0.452926 0.110570
O O2 0.128807 0.510752 0.299620
O O3 0.248555 0.084214 0.214030
O O4 0.282923 0.357090 0.080363
O O5 0.856682 0.514629 0.222353
O O6 0.782982 0.925493 0.189801
O O7 0.133875 0.607940 0.018618
O O8 0.049383 0.849627 0.198846
O O9 0.478838 0.507928 0.597796
O O10 0.226550 0.313889 0.593114
O O11 0.147288 0.767139 0.654151
O O12 0.353746 0.156895 0.898369
O O13 0.451840 0.760991 0.306113
O O14 0.483215 0.245983 0.276498
O O15 0.181287 0.482985 0.468159
O O16 0.977856 0.927526 0.406024
#
# Coordination Sequence:
#
# PCOD9053909 Si02
#       8
#     2   2   2   2   2   2   2   2
#     4  10  23  41  65  95 123 163 228 269 321 374
#     4  10  19  39  61  95 129 163 212 262 328 388
#     4   9  18  35  58  98 128 162 209 267 323 380
#     4  11  22  45  63  91 130 171 215 273 320 382
#     4  11  26  43  65  99 134 173 214 256 330 401
#     4  11  24  42  64  97 134 173 213 261 325 394
#     4  10  21  38  64  93 127 167 217 273 317 375
#     4  10  17  35  62  92 127 156 215 270 320 375
#
# _framework density 26.649882999999999
#
# number of rings (size 3 to 8) (size 9 to 14) (size 15 to 20)
#    0.000    1.750    5.000    0.750    3.500    2.000 
#    2.250    3.750    0.000    0.000    0.000    0.000 
#    0.000    0.000    0.000    0.000    0.000    0.000 
#
# Total GULP energy -89322.367005 kJ/mol
# GULP energy per Si atom -5582.647938 kJ/mol
# Density = 2.658923 g / cm^3
# Si number density = 26.649883 Si / 1000 Ang^3
#
#
#
# Elastic Constant Matrix: (Units=GPa)
#
#
# Indices 1 2 3 4 5 6 
#
# 1 62.0099 -0.9675 21.8047 -3.0617 -10.9384 16.0714
# 2 -0.9675 79.1618 -1.8271 -4.0457 7.4467 3.2046
# 3 21.8047 -1.8271 80.1950 -9.5757 -9.6854 0.5656
# 4 -3.0617 -4.0457 -9.5757 33.5775 8.0449 -3.3322
# 5 -10.9384 7.4467 -9.6854 8.0449 53.3399 -4.6650
# 6 16.0714 3.2046 0.5656 -3.3322 -4.6650 34.5218
#
#
#
# Elastic Compliance Matrix: (Units=1/GPa)
#
#
# Indices 1 2 3 4 5 6 
#
# 1 0.020883 0.000204 -0.005431 -0.001183 0.002623 -0.009412
# 2 0.000204 0.013004 0.000232 0.002030 -0.002160 -0.001402
# 3 -0.005431 0.000232 0.014512 0.003665 0.001179 0.002782
# 4 -0.001183 0.002030 0.003665 0.032319 -0.004489 0.002815
# 5 0.002623 -0.002160 0.001179 -0.004489 0.020593 0.001310
# 6 -0.009412 -0.001402 0.002782 0.002815 0.001310 0.033882
#
#
# Mechanical properties :
#
#
# Convention : Reuss Voigt Hill
#
# Bulk Modulus (GPa) = 26.03615 28.82076 27.42846
# Shear Modulus (GPa) = 31.64837 37.77829 34.71333
#
# Velocity S-wave (km/s) = 3.44984 3.76916 3.61303
# Velocity P-wave (km/s) = 5.06551 5.45712 5.26496
#
# Compressibility (1/GPa) = 0.03840813
#
# Stress axis : x y z
#
# Youngs Moduli (GPa) = 47.88579 76.89988 68.90801
#
# Poissons Ratio (x) = -0.01566 0.37427
# Poissons Ratio (y) = -0.00975 -0.01601
# Poissons Ratio (z) = 0.26009 -0.01786
#
# Static dielectric constant tensor:
#      x y z
#    x 2.128230 -0.006810 0.026480 
#    y -0.006810 2.364070 -0.036320 
#    z 0.026480 -0.036320 2.147970 
# 
# From -- ./inp_files/564192.got.cif
#   From: 2010.05.17/outbox.cif.g08.bks.cpg/sg2_283_cif.got.tgz:564192.got - 2010.06.03 11:33:40.
