data_PCOD9053759
_publ_section_title
;
Structure prediction by ZEFSAII (Michael W. Deem and Ramdas Pophale) SiO2 
 PCOD9053759
Probable space group: P -1
;
_chemical_formula_sum "Si O2"
_cell_formula_units_Z 10
_cell_length_a 7.991963
_cell_length_b 12.402851
_cell_length_c 6.605300
_cell_angle_alpha 72.408881
_cell_angle_beta 123.641334
_cell_angle_gamma 69.437018
_cell_volume 393.264200
_symmetry_space_group_name_H-M "P -1"
_symmetry_group_IT_number 2
_symmetry_cell_setting 'triclinic'
loop_
_space_group_symop_operation_xyz
x,y,z
-x,-y,-z
loop_
_atom_site_type_symbol
_atom_site_label
_atom_site_fract_x
_atom_site_fract_y
_atom_site_fract_z
Si Si1 0.353953 0.147261 0.545416
Si Si2 0.558290 0.199326 0.311105
Si Si3 0.901660 0.901910 0.278398
Si Si4 0.626820 0.414281 0.347011
Si Si5 0.269216 0.383801 0.621442
O O1 0.406602 0.153162 0.342700
O O2 0.183537 0.108867 0.548978
O O3 0.228650 0.307724 0.463348
O O4 0.643861 0.027112 0.908569
O O5 0.498845 0.336420 0.324045
O O6 0.877817 0.081758 0.594621
O O7 0.470177 0.254690 0.992621
O O8 0.065335 0.735910 0.388172
O O9 0.622689 0.530261 0.409852
O O10 0.500000 0.500000 0.000000
O O11 0.000000 0.500000 0.500000
#
# Coordination Sequence:
#
# PCOD9053759 Si02
#       5
#     2   2   2   2   2
#     4  11  21  36  64  81 107 160 183 220 293 324
#     4   9  21  39  58  80 118 145 185 231 280 328
#     4   9  20  39  56  83 120 141 185 239 270 330
#     4   8  17  37  55  76 121 141 171 247 270 309
#     4  11  20  37  59  86 113 143 194 234 265 339
#
# _framework density 25.428198999999999
#
# number of rings (size 3 to 8) (size 9 to 14) (size 15 to 20)
#    1.200    1.200    2.000    0.600    0.000    2.400 
#    0.000    8.000    0.000    0.000    0.000    0.000 
#    0.000    0.000    0.000    0.000    0.000    0.000 
#
# Total GULP energy -55801.228222 kJ/mol
# GULP energy per Si atom -5580.122822 kJ/mol
# Density = 2.537032 g / cm^3
# Si number density = 25.428199 Si / 1000 Ang^3
#
#
#
# Elastic Constant Matrix: (Units=GPa)
#
#
# Indices 1 2 3 4 5 6 
#
# 1 72.8538 13.1528 19.8501 11.0768 -38.8825 10.8917
# 2 13.1528 109.8090 21.3991 -0.8682 2.4932 25.1880
# 3 19.8501 21.3991 19.1544 -16.2562 10.5933 -11.0114
# 4 11.0768 -0.8682 -16.2562 30.3064 0.2909 3.1829
# 5 -38.8825 2.4932 10.5933 0.2909 31.2457 -1.7524
# 6 10.8917 25.1880 -11.0114 3.1829 -1.7524 37.4211
#
#
#
# Elastic Compliance Matrix: (Units=1/GPa)
#
#
# Indices 1 2 3 4 5 6 
#
# 1 0.001817 -0.007485 0.025671 0.011808 -0.005349 0.010808
# 2 -0.007485 0.011751 0.000124 0.003927 -0.010696 -0.006529
# 3 0.025671 0.000124 -0.011707 -0.015156 0.035595 -0.008044
# 4 0.011808 0.003927 -0.015156 0.021693 0.018671 -0.011510
# 5 -0.005349 -0.010696 0.035595 0.018671 0.014989 0.018344
# 6 0.010808 -0.006529 -0.008044 -0.011510 0.018344 0.027443
#
#
# Mechanical properties :
#
#
# Convention : Reuss Voigt Hill
#
# Bulk Modulus (GPa) = 25.98649 34.51347 30.24998
# Shear Modulus (GPa) = 118.50174 29.62230 74.06202
#
# Velocity S-wave (km/s) = 6.83401 3.41682 5.40270
# Velocity P-wave (km/s) = 8.51547 5.40080 7.13028
#
# Compressibility (1/GPa) = 0.03848154
#
# Stress axis : x y z
#
# Youngs Moduli (GPa) = 550.34511 85.10050 -85.42082
#
# Poissons Ratio (x) = 0.63696 2.19288
# Poissons Ratio (y) = 4.11921 0.01055
# Poissons Ratio (z) = -14.12816 -0.01051
#
# Static dielectric constant tensor:
#      x y z
#    x 2.019580 0.018570 -0.014180 
#    y 0.018570 2.074800 0.000240 
#    z -0.014180 0.000240 1.935010 
# 
# From -- ./inp_files/22204.got.cif
#   From: 2010.05.17/outbox.cif.g08.bks.cpg/sg2_12_cif.got.tgz:22204.got - 2010.06.03 11:33:40.
