data_PCOD9053128
_publ_section_title
;
Structure prediction by ZEFSAII (Michael W. Deem and Ramdas Pophale) SiO2 
 PCOD9053128
Probable space group: P -1
;
_chemical_formula_sum "Si O2"
_cell_formula_units_Z 14
_cell_length_a 9.013645
_cell_length_b 10.012051
_cell_length_c 14.344948
_cell_angle_alpha 38.028764
_cell_angle_beta 51.855360
_cell_angle_gamma 46.541356
_cell_volume 570.512094
_symmetry_space_group_name_H-M "P -1"
_symmetry_group_IT_number 2
_symmetry_cell_setting 'triclinic'
loop_
_space_group_symop_operation_xyz
x,y,z
-x,-y,-z
loop_
_atom_site_type_symbol
_atom_site_label
_atom_site_fract_x
_atom_site_fract_y
_atom_site_fract_z
Si Si1 0.595891 0.425989 0.626116
Si Si2 0.364883 0.850058 0.848231
Si Si3 0.959660 0.232485 0.445336
Si Si4 0.365144 0.091472 0.909088
Si Si5 0.961007 0.303980 0.686852
Si Si6 0.385533 0.980431 0.464747
Si Si7 0.911886 0.396969 0.876828
O O1 0.116049 0.194318 0.957328
O O2 0.471038 0.708788 0.542420
O O3 0.249480 0.632917 0.490207
O O4 0.443838 0.296492 0.739603
O O5 0.398098 0.914098 0.906472
O O6 0.564651 0.849584 0.720017
O O7 0.285283 0.640751 0.988647
O O8 0.175867 0.071786 0.748374
O O9 0.021095 0.386873 0.262810
O O10 0.145724 0.109565 0.513730
O O11 0.000000 0.000000 0.500000
O O12 0.500000 0.000000 0.000000
O O13 0.244011 0.694836 0.283779
O O14 0.909387 0.370272 0.779694
O O15 0.000000 0.500000 0.500000
O O16 0.500000 0.000000 0.500000
#
# Coordination Sequence:
#
# PCOD9053128 Si02
#       7
#     2   2   2   2   2   2   2
#     4  12  23  44  72 101 147 185 237 303 361 420
#     4  11  23  42  68 103 147 187 240 301 361 430
#     4  12  26  44  69 105 144 187 239 297 363 435
#     4  11  23  40  69 107 141 191 240 286 363 440
#     4  11  18  38  69 104 136 190 235 292 359 425
#     4  12  26  44  73 109 138 187 250 297 359 437
#     4  11  23  42  67 101 146 188 238 302 361 426
#
# _framework density 24.539356000000002
#
# number of rings (size 3 to 8) (size 9 to 14) (size 15 to 20)
#    0.000    0.571    2.857    7.714    0.000    2.286 
#    0.000    1.429    0.000    6.857    0.000    0.000 
#    0.000    0.000    0.000    0.000    0.000    0.000 
#
# Total GULP energy -78151.172497 kJ/mol
# GULP energy per Si atom -5582.226607 kJ/mol
# Density = 2.448350 g / cm^3
# Si number density = 24.539356 Si / 1000 Ang^3
#
#
#
# Elastic Constant Matrix: (Units=GPa)
#
#
# Indices 1 2 3 4 5 6 
#
# 1 151.7411 22.6782 34.1510 4.8407 7.8441 -6.5910
# 2 22.6782 110.9254 40.9341 -5.9713 -15.1793 -10.8006
# 3 34.1510 40.9341 125.7647 -11.6540 -7.5169 3.7787
# 4 4.8407 -5.9713 -11.6540 23.8963 2.1042 -12.5467
# 5 7.8441 -15.1793 -7.5169 2.1042 65.2912 -0.4758
# 6 -6.5910 -10.8006 3.7787 -12.5467 -0.4758 50.5888
#
#
#
# Elastic Compliance Matrix: (Units=1/GPa)
#
#
# Indices 1 2 3 4 5 6 
#
# 1 0.007346 -0.001060 -0.001962 -0.002464 -0.001274 0.000254
# 2 -0.001060 0.011137 -0.003017 0.003024 0.002295 0.003236
# 3 -0.001962 -0.003017 0.009896 0.004098 0.000537 -0.000617
# 4 -0.002464 0.003024 0.004098 0.051875 -0.000107 0.012883
# 5 -0.001274 0.002295 0.000537 -0.000107 0.016071 0.000409
# 6 0.000254 0.003236 -0.000617 0.012883 0.000409 0.023736
#
#
# Mechanical properties :
#
#
# Convention : Reuss Voigt Hill
#
# Bulk Modulus (GPa) = 61.34311 64.88417 63.11364
# Shear Modulus (GPa) = 36.34451 47.33312 41.83882
#
# Velocity S-wave (km/s) = 3.85264 4.39665 4.13361
# Velocity P-wave (km/s) = 6.69646 7.22996 6.96832
#
# Compressibility (1/GPa) = 0.01630175
#
# Stress axis : x y z
#
# Youngs Moduli (GPa) = 136.13622 89.79000 101.04621
#
# Poissons Ratio (x) = 0.09518 0.19823
# Poissons Ratio (y) = 0.14431 0.30485
# Poissons Ratio (z) = 0.26706 0.27089
#
# Static dielectric constant tensor:
#      x y z
#    x 2.019570 0.048390 -0.237260 
#    y 0.048390 2.056490 -0.202290 
#    z -0.237260 -0.202290 2.203400 
# 
# From -- ./inp_files/498675.got.cif
#   From: 2010.05.17/outbox.cif.g08.bks.cpg/sg2_250_cif.got.tgz:498675.got - 2010.06.03 11:33:40.
