data_PCOD9053725
_publ_section_title
;
Structure prediction by ZEFSAII (Michael W. Deem and Ramdas Pophale) SiO2 
 PCOD9053725
Probable space group: P -1
;
_chemical_formula_sum "Si O2"
_cell_formula_units_Z 14
_cell_length_a 20.993497
_cell_length_b 11.933561
_cell_length_c 8.776810
_cell_angle_alpha 39.072945
_cell_angle_beta 140.452242
_cell_angle_gamma 150.878216
_cell_volume 642.824739
_symmetry_space_group_name_H-M "P -1"
_symmetry_group_IT_number 2
_symmetry_cell_setting 'triclinic'
loop_
_space_group_symop_operation_xyz
x,y,z
-x,-y,-z
loop_
_atom_site_type_symbol
_atom_site_label
_atom_site_fract_x
_atom_site_fract_y
_atom_site_fract_z
Si Si1 0.476716 0.202661 0.394993
Si Si2 0.755691 0.024324 0.984807
Si Si3 0.361477 0.421600 0.951357
Si Si4 0.982206 0.555370 0.242037
Si Si5 0.921789 0.935414 0.081900
Si Si6 0.276559 0.714712 0.140761
Si Si7 0.959751 0.679240 0.647784
O O1 0.551817 0.322581 0.242136
O O2 0.577889 0.206926 0.675653
O O3 0.322397 0.961874 0.311259
O O4 0.454120 0.374175 0.238736
O O5 0.915121 0.204740 0.130137
O O6 0.709190 0.770388 0.119661
O O7 0.701987 0.057416 0.002708
O O8 0.821111 0.491295 0.688951
O O9 0.238290 0.317822 0.945843
O O10 0.000000 0.500000 0.500000
O O11 0.030766 0.459222 0.318891
O O12 0.824042 0.407121 0.061121
O O13 0.065939 0.841616 0.094221
O O14 0.980753 0.889821 0.377143
O O15 0.000000 0.000000 0.000000
#
# Coordination Sequence:
#
# PCOD9053725 Si02
#       7
#     2   2   2   2   2   2   2
#     4   9  19  34  57  91 123 148 190 255 299 350
#     4   9  19  34  57  92 123 148 185 263 301 344
#     4   9  19  35  55  89 122 146 199 247 295 351
#     4  11  24  40  56  92 127 152 199 253 294 358
#     4  12  23  38  63  84 121 170 193 246 306 351
#     4  11  20  36  64  91 116 157 200 250 299 355
#     4  11  22  38  62  95 117 152 211 247 297 353
#
# _framework density 21.778874999999999
#
# number of rings (size 3 to 8) (size 9 to 14) (size 15 to 20)
#    0.857    0.857    2.857    3.857    2.000    1.143 
#    0.000    0.000    0.000    6.000    0.000    0.000 
#    0.000    0.000    0.000    0.000    0.000    0.000 
#
# Total GULP energy -77945.838025 kJ/mol
# GULP energy per Si atom -5567.559859 kJ/mol
# Density = 2.172931 g / cm^3
# Si number density = 21.778875 Si / 1000 Ang^3
#
#
#
# Elastic Constant Matrix: (Units=GPa)
#
#
# Indices 1 2 3 4 5 6 
#
# 1 84.2122 15.2861 36.6366 13.3749 0.2625 13.3108
# 2 15.2861 85.3488 29.8713 13.2699 -3.8174 9.8263
# 3 36.6366 29.8713 130.0378 14.6686 0.0400 7.3053
# 4 13.3749 13.2699 14.6686 42.5626 7.0283 12.3327
# 5 0.2625 -3.8174 0.0400 7.0283 35.6738 10.3608
# 6 13.3108 9.8263 7.3053 12.3327 10.3608 27.8139
#
#
#
# Elastic Compliance Matrix: (Units=1/GPa)
#
#
# Indices 1 2 3 4 5 6 
#
# 1 0.014691 -0.000341 -0.003515 -0.001922 0.001939 -0.005857
# 2 -0.000341 0.013674 -0.002522 -0.002647 0.003154 -0.004006
# 3 -0.003515 -0.002522 0.009387 -0.001565 -0.000201 0.000877
# 4 -0.001922 -0.002647 -0.001565 0.028676 -0.003232 -0.009245
# 5 0.001939 0.003154 -0.000201 -0.003232 0.032690 -0.012734
# 6 -0.005857 -0.004006 0.000877 -0.009245 -0.012734 0.048784
#
#
# Mechanical properties :
#
#
# Convention : Reuss Voigt Hill
#
# Bulk Modulus (GPa) = 40.00817 51.46522 45.73669
# Shear Modulus (GPa) = 29.58722 35.73039 32.65880
#
# Velocity S-wave (km/s) = 3.68982 4.05482 3.87662
# Velocity P-wave (km/s) = 6.04674 6.75309 6.40965
#
# Compressibility (1/GPa) = 0.02499489
#
# Stress axis : x y z
#
# Youngs Moduli (GPa) = 68.06885 73.12954 106.52701
#
# Poissons Ratio (x) = 0.02493 0.37449
# Poissons Ratio (y) = 0.02321 0.26871
# Poissons Ratio (z) = 0.23929 0.18447
#
# Static dielectric constant tensor:
#      x y z
#    x 1.888290 0.056180 0.039450 
#    y 0.056180 1.869970 -0.025230 
#    z 0.039450 -0.025230 1.829560 
# 
# From -- ./inp_files/352569.got.cif
#   From: 2010.05.17/outbox.cif.g08.bks.cpg/sg2_177_cif.got.tgz:352569.got - 2010.06.03 11:33:40.
