data_PCOD9053498
_publ_section_title
;
Structure prediction by ZEFSAII (Michael W. Deem and Ramdas Pophale) SiO2 
 PCOD9053498
Probable space group: P -1
;
_chemical_formula_sum "Si O2"
_cell_formula_units_Z 12
_cell_length_a 9.260638
_cell_length_b 25.071577
_cell_length_c 16.478416
_cell_angle_alpha 162.739289
_cell_angle_beta 29.170844
_cell_angle_gamma 150.107545
_cell_volume 538.629226
_symmetry_space_group_name_H-M "P -1"
_symmetry_group_IT_number 2
_symmetry_cell_setting 'triclinic'
loop_
_space_group_symop_operation_xyz
x,y,z
-x,-y,-z
loop_
_atom_site_type_symbol
_atom_site_label
_atom_site_fract_x
_atom_site_fract_y
_atom_site_fract_z
Si Si1 0.737529 0.377270 0.575912
Si Si2 0.603857 0.930504 0.265183
Si Si3 0.708957 0.317694 0.233687
Si Si4 0.643250 0.491236 0.181121
Si Si5 0.357797 0.997346 0.826471
Si Si6 0.836387 0.117629 0.016759
O O1 0.496638 0.472234 0.785834
O O2 0.872697 0.297965 0.315387
O O3 0.025974 0.506881 0.667598
O O4 0.606206 0.190467 0.419724
O O5 0.518540 0.996892 0.317418
O O6 0.500000 0.000000 0.500000
O O7 0.492170 0.710998 0.009697
O O8 0.966419 0.994480 0.193595
O O9 0.476778 0.379906 0.503948
O O10 0.912313 0.194377 0.001725
O O11 0.526243 0.183612 0.060893
O O12 0.000000 0.500000 0.000000
O O13 0.000000 0.000000 0.000000
O O14 0.500000 0.000000 0.000000
#
# Coordination Sequence:
#
# PCOD9053498 Si02
#       6
#     2   2   2   2   2   2
#     4  11  22  44  74 104 138 186 245 287 350 424
#     4  12  27  46  67 105 146 180 235 296 362 423
#     4  11  22  44  76  99 143 180 246 294 340 425
#     4  11  25  43  70 106 143 192 229 288 366 420
#     4  12  25  44  75 111 135 185 244 298 351 419
#     4  11  19  41  72 100 132 191 233 279 346 428
#
# _framework density 22.278776000000001
#
# number of rings (size 3 to 8) (size 9 to 14) (size 15 to 20)
#    0.000    0.667    6.667    1.000    7.000    2.667 
#    0.000    4.167    0.000    0.000    0.000    0.000 
#    0.000    0.000    0.000    0.000    0.000    0.000 
#
# Total GULP energy -66820.396686 kJ/mol
# GULP energy per Si atom -5568.366390 kJ/mol
# Density = 2.222807 g / cm^3
# Si number density = 22.278776 Si / 1000 Ang^3
#
#
#
# Elastic Constant Matrix: (Units=GPa)
#
#
# Indices 1 2 3 4 5 6 
#
# 1 140.1318 63.2207 45.7922 2.6068 17.3946 1.4556
# 2 63.2207 118.8181 45.8271 21.8899 3.7137 14.6076
# 3 45.7922 45.8271 47.4874 10.0993 21.4772 2.4664
# 4 2.6068 21.8899 10.0993 35.7947 5.6680 2.8941
# 5 17.3946 3.7137 21.4772 5.6680 37.6220 4.3319
# 6 1.4556 14.6076 2.4664 2.8941 4.3319 46.2760
#
#
#
# Elastic Compliance Matrix: (Units=1/GPa)
#
#
# Indices 1 2 3 4 5 6 
#
# 1 0.011478 -0.004079 -0.007378 0.003866 -0.001414 0.001210
# 2 -0.004079 0.019487 -0.018488 -0.007900 0.012363 -0.005701
# 3 -0.007378 -0.018488 0.058967 -0.000664 -0.028980 0.005680
# 4 0.003866 -0.007900 -0.000664 0.033520 -0.005776 0.000852
# 5 -0.001414 0.012363 -0.028980 -0.005776 0.044128 -0.006083
# 6 0.001210 -0.005701 0.005680 0.000852 -0.006083 0.023584
#
#
# Mechanical properties :
#
#
# Convention : Reuss Voigt Hill
#
# Bulk Modulus (GPa) = 33.28432 68.45748 50.87090
# Shear Modulus (GPa) = 19.15212 34.04502 26.59857
#
# Velocity S-wave (km/s) = 2.93517 3.91338 3.45903
# Velocity P-wave (km/s) = 5.14386 7.15638 6.23190
#
# Compressibility (1/GPa) = 0.03004418
#
# Stress axis : x y z
#
# Youngs Moduli (GPa) = 87.12164 51.31688 16.95860
#
# Poissons Ratio (x) = 0.20930 0.12512
# Poissons Ratio (y) = 0.35533 0.31352
# Poissons Ratio (z) = 0.64277 0.94872
#
# Static dielectric constant tensor:
#      x y z
#    x 1.860300 0.030800 -0.111270 
#    y 0.030800 1.900320 0.004420 
#    z -0.111270 0.004420 2.105600 
# 
# From -- ./inp_files/508746.got.cif
#   From: 2010.05.17/outbox.cif.g08.bks.cpg/sg2_255_cif.got.tgz:508746.got - 2010.06.03 11:33:40.
