data_PCOD9053062
_publ_section_title
;
Structure prediction by ZEFSAII (Michael W. Deem and Ramdas Pophale) SiO2 
 PCOD9053062
Probable space group: P -1
;
_chemical_formula_sum "Si O2"
_cell_formula_units_Z 16
_cell_length_a 11.721353
_cell_length_b 22.526890
_cell_length_c 21.495563
_cell_angle_alpha 19.432010
_cell_angle_beta 151.710222
_cell_angle_gamma 153.873426
_cell_volume 808.969492
_symmetry_space_group_name_H-M "P -1"
_symmetry_group_IT_number 2
_symmetry_cell_setting 'triclinic'
loop_
_space_group_symop_operation_xyz
x,y,z
-x,-y,-z
loop_
_atom_site_type_symbol
_atom_site_label
_atom_site_fract_x
_atom_site_fract_y
_atom_site_fract_z
Si Si1 0.975445 0.287568 0.008677
Si Si2 0.261064 0.734451 0.693309
Si Si3 0.822751 0.437326 0.390537
Si Si4 0.285003 0.276926 0.608824
Si Si5 0.761780 0.249377 0.803642
Si Si6 0.610442 0.836713 0.098662
Si Si7 0.111018 0.234031 0.808590
Si Si8 0.609295 0.856630 0.615504
O O1 0.187444 0.514041 0.898063
O O2 0.909375 0.258020 0.931939
O O3 0.698944 0.248452 0.947730
O O4 0.107563 0.149071 0.233662
O O5 0.460864 0.785704 0.680586
O O6 0.981821 0.728075 0.541652
O O7 0.371121 0.924545 0.603075
O O8 0.786587 0.612241 0.237180
O O9 0.565858 0.298123 0.366465
O O10 0.068066 0.548358 0.350515
O O11 0.898266 0.299537 0.609064
O O12 0.500000 0.500000 0.500000
O O13 0.457814 0.197760 0.727927
O O14 0.239748 0.185980 0.745328
O O15 0.732782 0.072751 0.918482
O O16 0.664289 0.732028 0.169069
O O17 0.000000 0.000000 0.000000
#
# Coordination Sequence:
#
# PCOD9053062 Si02
#       8
#     2   2   2   2   2   2   2   2
#     4  11  22  37  58  94 128 158 190 235 301 371
#     4  11  21  34  58  86 125 167 190 230 296 366
#     4  11  24  41  64  87 120 158 201 255 302 350
#     4  11  18  34  57  92 125 152 194 245 306 356
#     4  11  20  35  61  94 124 155 190 249 311 361
#     4  11  21  36  62  89 122 156 199 256 302 352
#     4  11  24  44  64  90 112 154 213 260 302 344
#     4  11  23  39  55  89 130 163 196 233 292 374
#
# _framework density 19.778248999999999
#
# number of rings (size 3 to 8) (size 9 to 14) (size 15 to 20)
#    0.000    1.000    5.000    4.875    0.000    2.000 
#    0.000    0.625    0.000    1.500    0.000    0.000 
#    0.000    0.000    0.000    0.000    0.000    0.000 
#
# Total GULP energy -89333.819540 kJ/mol
# GULP energy per Si atom -5583.363721 kJ/mol
# Density = 1.973323 g / cm^3
# Si number density = 19.778249 Si / 1000 Ang^3
#
#
#
# Elastic Constant Matrix: (Units=GPa)
#
#
# Indices 1 2 3 4 5 6 
#
# 1 77.5896 29.9159 15.7753 -9.3223 22.8779 -18.2397
# 2 29.9159 85.3910 25.7157 -18.3094 10.0817 -11.1832
# 3 15.7753 25.7157 71.0802 -24.6447 9.0732 -11.2653
# 4 -9.3223 -18.3094 -24.6447 36.4186 -0.6214 4.1928
# 5 22.8779 10.0817 9.0732 -0.6214 28.7388 -9.4318
# 6 -18.2397 -11.1832 -11.2653 4.1928 -9.4318 21.6533
#
#
#
# Elastic Compliance Matrix: (Units=1/GPa)
#
#
# Indices 1 2 3 4 5 6 
#
# 1 0.020413 -0.004229 0.000885 0.002358 -0.011746 0.009898
# 2 -0.004229 0.015268 -0.002644 0.004582 -0.000443 0.001867
# 3 0.000885 -0.002644 0.020435 0.011973 -0.004020 0.005942
# 4 0.002358 0.004582 0.011973 0.038312 -0.006298 0.000420
# 5 -0.011746 -0.000443 -0.004020 -0.006298 0.048803 0.010263
# 6 0.009898 0.001867 0.005942 0.000420 0.010263 0.062965
#
#
# Mechanical properties :
#
#
# Convention : Reuss Voigt Hill
#
# Bulk Modulus (GPa) = 22.65550 41.87497 32.26523
# Shear Modulus (GPa) = 21.46988 28.20575 24.83782
#
# Velocity S-wave (km/s) = 3.29831 3.78047 3.54759
# Velocity P-wave (km/s) = 5.09753 6.34619 5.75582
#
# Compressibility (1/GPa) = 0.04413939
#
# Stress axis : x y z
#
# Youngs Moduli (GPa) = 48.98948 65.49648 48.93608
#
# Poissons Ratio (x) = 0.27700 -0.04333
# Poissons Ratio (y) = 0.20719 0.12939
# Poissons Ratio (z) = -0.04338 0.17318
#
# Static dielectric constant tensor:
#      x y z
#    x 1.722540 -0.011690 0.027950 
#    y -0.011690 1.699390 -0.056880 
#    z 0.027950 -0.056880 1.774650 
# 
# From -- ./inp_files/427897.got.cif
#   From: 2010.05.17/outbox.cif.g08.bks.cpg/sg2_214_cif.got.tgz:427897.got - 2010.06.03 11:33:40.
