data_PCOD9053393
_publ_section_title
;
Structure prediction by ZEFSAII (Michael W. Deem and Ramdas Pophale) SiO2 
 PCOD9053393
Probable space group: P -1
;
_chemical_formula_sum "Si O2"
_cell_formula_units_Z 16
_cell_length_a 29.549158
_cell_length_b 17.689998
_cell_length_c 11.926856
_cell_angle_alpha 31.462508
_cell_angle_beta 20.635415
_cell_angle_gamma 20.633949
_cell_volume 761.076326
_symmetry_space_group_name_H-M "P -1"
_symmetry_group_IT_number 2
_symmetry_cell_setting 'triclinic'
loop_
_space_group_symop_operation_xyz
x,y,z
-x,-y,-z
loop_
_atom_site_type_symbol
_atom_site_label
_atom_site_fract_x
_atom_site_fract_y
_atom_site_fract_z
Si Si1 0.057428 0.080787 0.442788
Si Si2 0.315850 0.256936 0.090081
Si Si3 0.971791 0.549730 0.665929
Si Si4 0.344742 0.583187 0.346829
Si Si5 0.087333 0.072925 0.647503
Si Si6 0.963708 0.733285 0.962370
Si Si7 0.437178 0.709138 0.426543
Si Si8 0.709313 0.164400 0.150049
O O1 0.051671 0.112405 0.547998
O O2 0.076251 0.194522 0.165784
O O3 0.233395 0.819806 0.347805
O O4 0.857032 0.167185 0.769345
O O5 0.230879 0.331974 0.066924
O O6 0.139564 0.341635 0.462985
O O7 0.382548 0.349513 0.875423
O O8 0.500000 0.000000 0.000000
O O9 0.983768 0.711537 0.417914
O O10 0.013775 0.451003 0.816343
O O11 0.487715 0.386499 0.352487
O O12 0.169863 0.631200 0.647675
O O13 0.500000 0.500000 0.000000
O O14 0.314914 0.879756 0.393097
O O15 0.000000 0.000000 0.000000
O O16 0.798243 0.953820 0.142065
O O17 0.500000 0.500000 0.500000
O O18 0.294579 0.836767 0.704185
#
# Coordination Sequence:
#
# PCOD9053393 Si02
#       8
#     2   2   2   2   2   2   2   2
#     4  11  23  40  66  95 138 178 222 281 341 400
#     4  11  23  45  68  98 137 181 230 281 340 409
#     4  11  26  43  69  98 137 183 230 280 351 419
#     4  11  19  38  66 100 129 172 230 278 337 399
#     4  12  25  45  67  97 138 179 230 288 348 417
#     4  11  23  40  66 100 134 182 226 276 346 413
#     4  12  24  41  70 104 137 176 227 289 347 406
#     4  11  21  39  66  99 135 173 223 284 336 402
#
# _framework density 21.022859
#
# number of rings (size 3 to 8) (size 9 to 14) (size 15 to 20)
#    0.000    0.750    5.000    3.750    1.750    1.500 
#    0.000    0.000    0.000    1.500    0.000    0.000 
#    0.000    0.000    0.000    0.000    0.000    0.000 
#
# Total GULP energy -89254.587092 kJ/mol
# GULP energy per Si atom -5578.411693 kJ/mol
# Density = 2.097501 g / cm^3
# Si number density = 21.022859 Si / 1000 Ang^3
#
#
#
# Elastic Constant Matrix: (Units=GPa)
#
#
# Indices 1 2 3 4 5 6 
#
# 1 109.5699 53.1196 29.8173 -12.5164 0.3974 -17.8039
# 2 53.1196 129.9313 50.1671 3.0727 -7.7007 -18.4862
# 3 29.8173 50.1671 61.4897 -2.8171 -3.7029 -7.6455
# 4 -12.5164 3.0727 -2.8171 44.2405 -8.3295 0.2706
# 5 0.3974 -7.7007 -3.7029 -8.3295 23.0542 -4.9296
# 6 -17.8039 -18.4862 -7.6455 0.2706 -4.9296 36.7204
#
#
#
# Elastic Compliance Matrix: (Units=1/GPa)
#
#
# Indices 1 2 3 4 5 6 
#
# 1 0.012643 -0.003786 -0.002391 0.003717 0.000275 0.003736
# 2 -0.003786 0.013229 -0.008418 -0.001949 0.003179 0.003513
# 3 -0.002391 -0.008418 0.024472 0.001805 0.001796 -0.000074
# 4 0.003717 -0.001949 0.001805 0.025647 0.009325 0.002260
# 5 0.000275 0.003179 0.001796 0.009325 0.049961 0.008746
# 6 0.003736 0.003513 -0.000074 0.002260 0.008746 0.031955
#
#
# Mechanical properties :
#
#
# Convention : Reuss Voigt Hill
#
# Bulk Modulus (GPa) = 47.27164 63.02210 55.14687
# Shear Modulus (GPa) = 25.75367 31.99548 28.87458
#
# Velocity S-wave (km/s) = 3.50384 3.90543 3.71008
# Velocity P-wave (km/s) = 6.23730 7.09785 6.68144
#
# Compressibility (1/GPa) = 0.02115433
#
# Stress axis : x y z
#
# Youngs Moduli (GPa) = 79.09399 75.59377 40.86328
#
# Poissons Ratio (x) = 0.28619 0.09770
# Poissons Ratio (y) = 0.29944 0.34399
# Poissons Ratio (z) = 0.18910 0.63635
#
# Static dielectric constant tensor:
#      x y z
#    x 1.812270 -0.004930 0.018790 
#    y -0.004930 1.537530 -0.019140 
#    z 0.018790 -0.019140 1.808170 
# 
# From -- ./inp_files/477717.got.cif
#   From: 2010.05.17/outbox.cif.g08.bks.cpg/sg2_239_cif.got.tgz:477717.got - 2010.06.03 11:33:40.
