data_PCOD9053003
_publ_section_title
;
Structure prediction by ZEFSAII (Michael W. Deem and Ramdas Pophale) SiO2 
 PCOD9053003
Probable space group: P -1
;
_chemical_formula_sum "Si O2"
_cell_formula_units_Z 14
_cell_length_a 9.971852
_cell_length_b 11.022741
_cell_length_c 7.843960
_cell_angle_alpha 138.847127
_cell_angle_beta 68.578868
_cell_angle_gamma 96.751226
_cell_volume 510.445116
_symmetry_space_group_name_H-M "P -1"
_symmetry_group_IT_number 2
_symmetry_cell_setting 'triclinic'
loop_
_space_group_symop_operation_xyz
x,y,z
-x,-y,-z
loop_
_atom_site_type_symbol
_atom_site_label
_atom_site_fract_x
_atom_site_fract_y
_atom_site_fract_z
Si Si1 0.291044 0.251439 0.558556
Si Si2 0.142090 0.813227 0.422430
Si Si3 0.054201 0.851440 0.970586
Si Si4 0.313429 0.802782 0.008550
Si Si5 0.874905 0.561276 0.831834
Si Si6 0.414152 0.911592 0.595010
Si Si7 0.657322 0.692919 0.775490
O O1 0.457837 0.246570 0.539860
O O2 0.265560 0.347771 0.487349
O O3 0.299455 0.026899 0.290013
O O4 0.183299 0.334469 0.852033
O O5 0.215794 0.736521 0.128785
O O6 0.069891 0.658414 0.377423
O O7 0.282702 0.842466 0.496036
O O8 0.022145 0.014611 0.694362
O O9 0.229737 0.789046 0.856770
O O10 0.984575 0.672353 0.813618
O O11 0.000000 0.000000 0.000000
O O12 0.485156 0.694433 0.832220
O O13 0.739623 0.581654 0.782107
O O14 0.500000 0.000000 0.500000
O O15 0.350337 0.087156 0.937495
#
# Coordination Sequence:
#
# PCOD9053003 Si02
#       7
#     2   2   2   2   2   2   2
#     4  11  22  41  75 105 144 188 239 295 363 424
#     4  12  25  44  76 105 145 194 240 296 365 429
#     4  12  27  49  76  98 145 198 238 302 365 426
#     4  11  22  44  72 105 140 190 245 291 359 430
#     4  12  26  49  73 109 149 186 240 303 364 433
#     4  11  17  40  71 100 144 187 232 292 354 419
#     4  11  22  43  75 110 143 187 247 293 357 438
#
# _framework density 27.427043999999999
#
# number of rings (size 3 to 8) (size 9 to 14) (size 15 to 20)
#    0.000    0.571    7.143    3.000    2.000    3.429 
#    2.571    1.429    0.000    0.000    0.000    0.000 
#    0.000    0.000    0.000    0.000    0.000    0.000 
#
# Total GULP energy -78624.149140 kJ/mol
# GULP energy per Si atom -5616.010653 kJ/mol
# Density = 2.736462 g / cm^3
# Si number density = 27.427044 Si / 1000 Ang^3
#
#
#
# Elastic Constant Matrix: (Units=GPa)
#
#
# Indices 1 2 3 4 5 6 
#
# 1 170.2132 47.4574 21.8818 5.9192 25.0789 4.1701
# 2 47.4574 154.6049 47.6385 -14.2362 10.3699 4.5516
# 3 21.8818 47.6385 126.2178 -10.7545 8.8662 3.6442
# 4 5.9192 -14.2362 -10.7545 62.5842 -2.2533 8.2759
# 5 25.0789 10.3699 8.8662 -2.2533 27.6011 -9.9773
# 6 4.1701 4.5516 3.6442 8.2759 -9.9773 33.8109
#
#
#
# Elastic Compliance Matrix: (Units=1/GPa)
#
#
# Indices 1 2 3 4 5 6 
#
# 1 0.007550 -0.001822 -0.000140 -0.001077 -0.007126 -0.002510
# 2 -0.001822 0.008045 -0.002475 0.001713 -0.000893 -0.001275
# 3 -0.000140 -0.002475 0.009195 0.001160 -0.002391 -0.001630
# 4 -0.001077 0.001713 0.001160 0.017258 -0.000264 -0.004525
# 5 -0.007126 -0.000893 -0.002391 -0.000264 0.049550 0.015943
# 6 -0.002510 -0.001275 -0.001630 -0.004525 0.015943 0.036046
#
#
# Mechanical properties :
#
#
# Convention : Reuss Voigt Hill
#
# Bulk Modulus (GPa) = 62.82881 76.11012 69.46947
# Shear Modulus (GPa) = 35.25515 47.06978 41.16246
#
# Velocity S-wave (km/s) = 3.58916 4.14718 3.87822
# Velocity P-wave (km/s) = 6.33509 7.12337 6.74076
#
# Compressibility (1/GPa) = 0.01591626
#
# Stress axis : x y z
#
# Youngs Moduli (GPa) = 132.45525 124.29865 108.75308
#
# Poissons Ratio (x) = 0.22643 0.01523
# Poissons Ratio (y) = 0.24129 0.26918
# Poissons Ratio (z) = 0.01856 0.30766
#
# Static dielectric constant tensor:
#      x y z
#    x 2.102890 -0.007290 0.021590 
#    y -0.007290 2.176360 -0.063450 
#    z 0.021590 -0.063450 2.139760 
# 
# From -- ./inp_files/260967.got.cif
#   From: 2010.05.17/outbox.cif.g08.bks.cpg/sg2_131_cif.got.tgz:260967.got - 2010.06.03 11:33:40.
