data_PCOD9053428
_publ_section_title
;
Structure prediction by ZEFSAII (Michael W. Deem and Ramdas Pophale) SiO2 
 PCOD9053428
Probable space group: P -1
;
_chemical_formula_sum "Si O2"
_cell_formula_units_Z 16
_cell_length_a 10.083420
_cell_length_b 8.454801
_cell_length_c 11.750021
_cell_angle_alpha 106.554091
_cell_angle_beta 50.822623
_cell_angle_gamma 107.139768
_cell_volume 735.423878
_symmetry_space_group_name_H-M "P -1"
_symmetry_group_IT_number 2
_symmetry_cell_setting 'triclinic'
loop_
_space_group_symop_operation_xyz
x,y,z
-x,-y,-z
loop_
_atom_site_type_symbol
_atom_site_label
_atom_site_fract_x
_atom_site_fract_y
_atom_site_fract_z
Si Si1 0.745763 0.685438 0.672051
Si Si2 0.559165 0.392168 0.840211
Si Si3 0.164645 0.664298 0.159693
Si Si4 0.016266 0.286973 0.223873
Si Si5 0.245719 0.107278 0.904363
Si Si6 0.085740 0.132017 0.573253
Si Si7 0.567982 0.129496 0.091106
Si Si8 0.707540 0.027707 0.389596
O O1 0.633953 0.508337 0.721029
O O2 0.850446 0.704018 0.503112
O O3 0.608850 0.813261 0.760409
O O4 0.867701 0.720375 0.725256
O O5 0.716769 0.308263 0.785890
O O6 0.396689 0.262754 0.870215
O O7 0.500000 0.500000 0.000000
O O8 0.063865 0.475138 0.186019
O O9 0.045390 0.807302 0.253649
O O10 0.304126 0.709432 0.993310
O O11 0.818728 0.213324 0.349170
O O12 0.084196 0.163750 0.069229
O O13 0.322184 0.958017 0.896161
O O14 0.233724 0.071385 0.770790
O O15 0.226469 0.050055 0.548159
O O16 0.000000 0.000000 0.500000
O O17 0.500000 0.000000 0.000000
O O18 0.500000 0.000000 0.500000
#
# Coordination Sequence:
#
# PCOD9053428 Si02
#       8
#     2   2   2   2   2   2   2   2
#     4  11  21  38  67 100 137 168 228 284 329 399
#     4  11  19  39  68 109 137 168 222 284 347 394
#     4  11  23  39  72 103 134 176 230 282 334 400
#     4  11  22  45  66 100 134 178 231 281 343 403
#     4  12  23  40  71 100 141 177 225 287 341 407
#     4  12  26  46  68 100 134 181 238 278 331 415
#     4  12  18  35  67 106 131 166 226 278 331 388
#     4  12  29  48  65  96 143 189 222 282 357 404
#
# _framework density 21.756159
#
# number of rings (size 3 to 8) (size 9 to 14) (size 15 to 20)
#    0.000    0.500    7.500    2.625    1.750    3.000 
#    0.000    6.250    0.000    0.000    0.000    0.000 
#    0.000    0.000    0.000    0.000    0.000    0.000 
#
# Total GULP energy -89414.100522 kJ/mol
# GULP energy per Si atom -5588.381283 kJ/mol
# Density = 2.170664 g / cm^3
# Si number density = 21.756159 Si / 1000 Ang^3
#
#
#
# Elastic Constant Matrix: (Units=GPa)
#
#
# Indices 1 2 3 4 5 6 
#
# 1 95.8651 39.2250 39.2124 -7.0419 -6.4905 -4.0426
# 2 39.2250 97.1116 26.2123 -31.1043 -3.1980 13.9246
# 3 39.2124 26.2123 67.7737 -18.4530 -10.2629 11.4862
# 4 -7.0419 -31.1043 -18.4530 43.5992 -1.6806 -8.8134
# 5 -6.4905 -3.1980 -10.2629 -1.6806 42.5402 -10.1010
# 6 -4.0426 13.9246 11.4862 -8.8134 -10.1010 28.7975
#
#
#
# Elastic Compliance Matrix: (Units=1/GPa)
#
#
# Indices 1 2 3 4 5 6 
#
# 1 0.017571 -0.007117 -0.009927 -0.004538 0.001729 0.009085
# 2 -0.007117 0.017022 0.001359 0.010143 -0.000721 -0.006921
# 3 -0.009927 0.001359 0.023940 0.007944 0.002727 -0.008212
# 4 -0.004538 0.010143 0.007944 0.033557 0.004017 0.002969
# 5 0.001729 -0.000721 0.002727 0.004017 0.026952 0.010187
# 6 0.009085 -0.006921 -0.008212 0.002969 0.010187 0.047104
#
#
# Mechanical properties :
#
#
# Convention : Reuss Voigt Hill
#
# Bulk Modulus (GPa) = 36.81177 52.22775 44.51976
# Shear Modulus (GPa) = 24.20486 33.39408 28.79947
#
# Velocity S-wave (km/s) = 3.33911 3.92206 3.64227
# Velocity P-wave (km/s) = 5.64120 6.67594 6.18026
#
# Compressibility (1/GPa) = 0.02716522
#
# Stress axis : x y z
#
# Youngs Moduli (GPa) = 56.91343 58.74584 41.77036
#
# Poissons Ratio (x) = 0.41808 0.41465
# Poissons Ratio (y) = 0.40503 -0.05678
# Poissons Ratio (z) = 0.56497 -0.07986
#
# Static dielectric constant tensor:
#      x y z
#    x 1.793720 -0.017190 -0.063820 
#    y -0.017190 1.845340 0.009230 
#    z -0.063820 0.009230 1.866200 
# 
# From -- ./inp_files/382515.got.cif
#   From: 2010.05.17/outbox.cif.g08.bks.cpg/sg2_192_cif.got.tgz:382515.got - 2010.06.03 11:33:40.
