data_PCOD9053463
_publ_section_title
;
Structure prediction by ZEFSAII (Michael W. Deem and Ramdas Pophale) SiO2 
 PCOD9053463
Probable space group: P -1
;
_chemical_formula_sum "Si O2"
_cell_formula_units_Z 16
_cell_length_a 16.399224
_cell_length_b 22.286755
_cell_length_c 27.363682
_cell_angle_alpha 11.843702
_cell_angle_beta 159.250126
_cell_angle_gamma 158.593671
_cell_volume 709.879648
_symmetry_space_group_name_H-M "P -1"
_symmetry_group_IT_number 2
_symmetry_cell_setting 'triclinic'
loop_
_space_group_symop_operation_xyz
x,y,z
-x,-y,-z
loop_
_atom_site_type_symbol
_atom_site_label
_atom_site_fract_x
_atom_site_fract_y
_atom_site_fract_z
Si Si1 0.396796 0.355984 0.004746
Si Si2 0.135967 0.788861 0.075587
Si Si3 0.999818 0.334803 0.451057
Si Si4 0.329601 0.286798 0.272028
Si Si5 0.447553 0.187487 0.867192
Si Si6 0.161499 0.664460 0.800680
Si Si7 0.170960 0.794279 0.381976
Si Si8 0.190059 0.331481 0.263141
O O1 0.611662 0.351844 0.092971
O O2 0.257587 0.022829 0.203902
O O3 0.500000 0.500000 0.000000
O O4 0.201814 0.538136 0.735481
O O5 0.106859 0.565565 0.283532
O O6 0.043652 0.583866 0.140561
O O7 0.388437 0.984297 0.044914
O O8 0.966154 0.017143 0.810268
O O9 0.211135 0.296072 0.634557
O O10 0.861860 0.018977 0.602772
O O11 0.586166 0.268237 0.410363
O O12 0.355102 0.319084 0.318468
O O13 0.231546 0.555830 0.978913
O O14 0.661552 0.462702 0.777052
O O15 0.500000 0.000000 0.000000
O O16 0.107658 0.991686 0.506005
O O17 0.000000 0.500000 0.500000
O O18 0.000000 0.500000 0.000000
#
# Coordination Sequence:
#
# PCOD9053463 Si02
#       8
#     2   2   2   2   2   2   2   2
#     4  11  19  40  68 105 147 190 231 282 350 427
#     4  11  23  43  73 106 144 188 235 291 351 424
#     4  11  22  44  74 104 146 187 237 289 351 422
#     4  12  23  44  73 105 146 190 234 289 359 419
#     4  12  29  48  72 106 134 185 246 295 360 424
#     4  12  24  42  76 109 137 191 242 282 361 433
#     4  11  22  39  68 105 151 189 228 286 356 414
#     4  12  28  52  72  98 146 185 235 307 353 421
#
# _framework density 22.539031999999999
#
# number of rings (size 3 to 8) (size 9 to 14) (size 15 to 20)
#    0.000    0.500    7.500    1.500    1.750    5.000 
#    0.000    1.250    0.000    0.000    0.000    0.000 
#    0.000    0.000    0.000    0.000    0.000    0.000 
#
# Total GULP energy -89532.059003 kJ/mol
# GULP energy per Si atom -5595.753688 kJ/mol
# Density = 2.248773 g / cm^3
# Si number density = 22.539032 Si / 1000 Ang^3
#
#
#
# Elastic Constant Matrix: (Units=GPa)
#
#
# Indices 1 2 3 4 5 6 
#
# 1 56.6578 -6.9647 21.1601 -1.8430 -5.5850 2.8538
# 2 -6.9647 99.7426 50.4126 -15.2639 7.9449 -11.5642
# 3 21.1601 50.4126 156.9462 -5.4127 -0.7817 -7.1382
# 4 -1.8430 -15.2639 -5.4127 42.7844 0.1227 2.8109
# 5 -5.5850 7.9449 -0.7817 0.1227 31.5958 -0.7234
# 6 2.8538 -11.5642 -7.1382 2.8109 -0.7234 31.7061
#
#
#
# Elastic Compliance Matrix: (Units=1/GPa)
#
#
# Indices 1 2 3 4 5 6 
#
# 1 0.019783 0.003088 -0.003662 0.001586 0.002588 -0.001560
# 2 0.003088 0.013828 -0.004576 0.004280 -0.002986 0.003288
# 3 -0.003662 -0.004576 0.008340 -0.000778 0.000727 0.000624
# 4 0.001586 0.004280 -0.000778 0.024937 -0.000935 -0.000989
# 5 0.002588 -0.002986 0.000727 -0.000935 0.032872 -0.000325
# 6 -0.001560 0.003288 0.000624 -0.000989 -0.000325 0.033100
#
#
# Mechanical properties :
#
#
# Convention : Reuss Voigt Hill
#
# Bulk Modulus (GPa) = 31.59491 49.17362 40.38426
# Shear Modulus (GPa) = 32.52848 37.79983 35.16415
#
# Velocity S-wave (km/s) = 3.80308 4.09966 3.95415
# Velocity P-wave (km/s) = 5.77346 6.65388 6.22924
#
# Compressibility (1/GPa) = 0.03165067
#
# Stress axis : x y z
#
# Youngs Moduli (GPa) = 50.54963 72.31599 119.89894
#
# Poissons Ratio (x) = -0.22332 0.43913
# Poissons Ratio (y) = -0.15610 0.54864
# Poissons Ratio (z) = 0.18514 0.33090
#
# Static dielectric constant tensor:
#      x y z
#    x 1.876090 0.018410 0.000160 
#    y 0.018410 1.852950 0.021390 
#    z 0.000160 0.021390 1.857330 
# 
# From -- ./inp_files/579394.got.cif
#   From: 2010.05.17/outbox.cif.g08.bks.cpg/sg2_290_cif.got.tgz:579394.got - 2010.06.03 11:33:40.
