data_PCOD9053070
_publ_section_title
;
Structure prediction by ZEFSAII (Michael W. Deem and Ramdas Pophale) SiO2 
 PCOD9053070
Probable space group: P -1
;
_chemical_formula_sum "Si O2"
_cell_formula_units_Z 16
_cell_length_a 8.723014
_cell_length_b 7.808410
_cell_length_c 14.266112
_cell_angle_alpha 68.402180
_cell_angle_beta 126.128194
_cell_angle_gamma 124.312839
_cell_volume 647.331043
_symmetry_space_group_name_H-M "P -1"
_symmetry_group_IT_number 2
_symmetry_cell_setting 'triclinic'
loop_
_space_group_symop_operation_xyz
x,y,z
-x,-y,-z
loop_
_atom_site_type_symbol
_atom_site_label
_atom_site_fract_x
_atom_site_fract_y
_atom_site_fract_z
Si Si1 0.968194 0.010627 0.737920
Si Si2 0.445066 0.171723 0.904218
Si Si3 0.853412 0.539885 0.012265
Si Si4 0.917550 0.572182 0.728104
Si Si5 0.212284 0.093131 0.122607
Si Si6 0.159212 0.406462 0.598794
Si Si7 0.551116 0.758458 0.336591
Si Si8 0.662256 0.214433 0.288338
O O1 0.918793 0.783299 0.727462
O O2 0.811956 0.007168 0.763867
O O3 0.200510 0.098998 0.852714
O O4 0.014708 0.189526 0.643614
O O5 0.473278 0.215967 0.792123
O O6 0.615803 0.367629 0.980474
O O7 0.500000 0.000000 0.000000
O O8 0.988092 0.556952 0.149792
O O9 0.797765 0.697230 0.905453
O O10 0.000000 0.500000 0.000000
O O11 0.670726 0.402887 0.663875
O O12 0.105309 0.671801 0.698940
O O13 0.445435 0.138564 0.162498
O O14 0.000000 0.000000 0.000000
O O15 0.282867 0.337937 0.580702
O O16 0.335891 0.602180 0.682447
O O17 0.000000 0.500000 0.500000
O O18 0.639194 0.992528 0.360656
#
# Coordination Sequence:
#
# PCOD9053070 Si02
#       8
#     2   2   2   2   2   2   2   2
#     4  11  23  44  68 101 146 194 242 295 364 429
#     4  11  18  34  63  93 132 190 238 269 344 429
#     4  12  21  36  61  91 141 202 237 267 346 425
#     4  12  23  42  73 102 147 196 239 294 362 432
#     4  12  27  40  63 110 156 193 241 286 347 445
#     4  11  27  53  80 103 139 191 250 320 379 423
#     4  11  24  47  71 103 148 186 235 309 370 434
#     4  12  27  47  72 109 148 188 250 304 354 443
#
# _framework density 24.716873
#
# number of rings (size 3 to 8) (size 9 to 14) (size 15 to 20)
#    0.000    0.500    6.250    3.000    7.000    1.000 
#    0.000    3.125    0.000    0.000    0.000    0.000 
#    0.000    0.000    0.000    0.000    0.000    0.000 
#
# Total GULP energy -89161.132045 kJ/mol
# GULP energy per Si atom -5572.570753 kJ/mol
# Density = 2.466062 g / cm^3
# Si number density = 24.716873 Si / 1000 Ang^3
#
#
#
# Elastic Constant Matrix: (Units=GPa)
#
#
# Indices 1 2 3 4 5 6 
#
# 1 97.7964 65.6597 17.2168 -6.8815 18.7571 9.1726
# 2 65.6597 100.7548 6.0500 -10.5372 3.7617 12.5773
# 3 17.2168 6.0500 67.5658 -12.1148 30.8658 2.1439
# 4 -6.8815 -10.5372 -12.1148 28.7807 -8.0551 10.1194
# 5 18.7571 3.7617 30.8658 -8.0551 32.4009 -4.2144
# 6 9.1726 12.5773 2.1439 10.1194 -4.2144 46.6895
#
#
#
# Elastic Compliance Matrix: (Units=1/GPa)
#
#
# Indices 1 2 3 4 5 6 
#
# 1 0.021736 -0.013875 0.001159 -0.002580 -0.012872 -0.001188
# 2 -0.013875 0.019898 -0.000119 0.007163 0.007156 -0.003535
# 3 0.001159 -0.000119 0.027827 0.006444 -0.026245 -0.005239
# 4 -0.002580 0.007163 0.006444 0.044489 0.004155 -0.010986
# 5 -0.012872 0.007156 -0.026245 0.004155 0.064393 0.006718
# 6 -0.001188 -0.003535 -0.005239 -0.010986 0.006718 0.025832
#
#
# Mechanical properties :
#
#
# Convention : Reuss Voigt Hill
#
# Bulk Modulus (GPa) = 22.83568 49.33001 36.08284
# Shear Modulus (GPa) = 20.45492 33.38692 26.92092
#
# Velocity S-wave (km/s) = 2.87987 3.67928 3.30384
# Velocity P-wave (km/s) = 4.50746 6.16853 5.40222
#
# Compressibility (1/GPa) = 0.04379112
#
# Stress axis : x y z
#
# Youngs Moduli (GPa) = 46.00727 50.25724 35.93677
#
# Poissons Ratio (x) = 0.69733 -0.04167
# Poissons Ratio (y) = 0.63836 0.00427
# Poissons Ratio (z) = -0.05334 0.00597
#
# Static dielectric constant tensor:
#      x y z
#    x 2.012820 0.083190 -0.151090 
#    y 0.083190 1.934850 0.071230 
#    z -0.151090 0.071230 2.048840 
# 
# From -- ./inp_files/556111.got.cif
#   From: 2010.05.17/outbox.cif.g08.bks.cpg/sg2_279_cif.got.tgz:556111.got - 2010.06.03 11:33:40.
