data_PCOD9053208
_publ_section_title
;
Structure prediction by ZEFSAII (Michael W. Deem and Ramdas Pophale) SiO2 
 PCOD9053208
Probable space group: P -1
;
_chemical_formula_sum "Si O2"
_cell_formula_units_Z 14
_cell_length_a 19.829657
_cell_length_b 9.212859
_cell_length_c 7.861477
_cell_angle_alpha 75.525560
_cell_angle_beta 57.732862
_cell_angle_gamma 39.577184
_cell_volume 738.113599
_symmetry_space_group_name_H-M "P -1"
_symmetry_group_IT_number 2
_symmetry_cell_setting 'triclinic'
loop_
_space_group_symop_operation_xyz
x,y,z
-x,-y,-z
loop_
_atom_site_type_symbol
_atom_site_label
_atom_site_fract_x
_atom_site_fract_y
_atom_site_fract_z
Si Si1 0.356748 0.278531 0.688328
Si Si2 0.277330 0.671206 0.336732
Si Si3 0.498635 0.127782 0.108415
Si Si4 0.567139 0.284305 0.737047
Si Si5 0.853526 0.184073 0.175498
Si Si6 0.380056 0.950999 0.607949
Si Si7 0.719202 0.194744 0.067024
O O1 0.233543 0.545369 0.834126
O O2 0.467508 0.240193 0.515997
O O3 0.421780 0.072315 0.796032
O O4 0.325731 0.199328 0.610159
O O5 0.360476 0.400695 0.260407
O O6 0.373692 0.649160 0.298001
O O7 0.177014 0.794080 0.588429
O O8 0.231751 0.814184 0.178786
O O9 0.570254 0.165219 0.923158
O O10 0.500000 0.000000 0.000000
O O11 0.631581 0.114203 0.537937
O O12 0.421030 0.526205 0.812314
O O13 0.803339 0.128027 0.131880
O O14 0.000000 0.000000 0.000000
O O15 0.311921 0.936649 0.833505
#
# Coordination Sequence:
#
# PCOD9053208 Si02
#       7
#     2   2   2   2   2   2   2
#     4  11  21  36  56  92 126 152 193 247 310 355
#     4  11  23  39  64  91 125 157 196 248 306 368
#     4  11  20  33  57  97 125 150 186 244 316 367
#     4  11  19  34  61  98 124 154 187 240 320 376
#     4  12  26  43  62  83 117 169 217 247 284 352
#     4  11  19  33  64  91 124 152 183 251 320 363
#     4  11  21  39  61  92 123 157 198 246 301 367
#
# _framework density 18.967269999999999
#
# number of rings (size 3 to 8) (size 9 to 14) (size 15 to 20)
#    0.000    0.857    4.286    7.286    0.000    0.571 
#    0.000    0.714    0.000    1.714    0.000    0.000 
#    0.000    0.000    0.000    0.000    0.000    0.000 
#
# Total GULP energy -78035.259015 kJ/mol
# GULP energy per Si atom -5573.947073 kJ/mol
# Density = 1.892410 g / cm^3
# Si number density = 18.967270 Si / 1000 Ang^3
#
#
#
# Elastic Constant Matrix: (Units=GPa)
#
#
# Indices 1 2 3 4 5 6 
#
# 1 100.4139 35.4441 45.7101 12.1743 4.1111 22.7359
# 2 35.4441 76.6630 53.1689 -8.2270 -18.1164 16.4305
# 3 45.7101 53.1689 139.0076 -8.0530 -1.0326 2.0400
# 4 12.1743 -8.2270 -8.0530 37.7808 -0.0285 -1.8432
# 5 4.1111 -18.1164 -1.0326 -0.0285 32.4334 0.7009
# 6 22.7359 16.4305 2.0400 -1.8432 0.7009 27.4201
#
#
#
# Elastic Compliance Matrix: (Units=1/GPa)
#
#
# Indices 1 2 3 4 5 6 
#
# 1 0.017331 -0.004404 -0.004341 -0.008050 -0.004546 -0.011833
# 2 -0.004404 0.028315 -0.008778 0.005105 0.016375 -0.012737
# 3 -0.004341 -0.008778 0.011968 0.002437 -0.004148 0.008238
# 4 -0.008050 0.005105 0.002437 0.030961 0.003860 0.005417
# 5 -0.004546 0.016375 -0.004148 0.003860 0.040567 -0.006511
# 6 -0.011833 -0.012737 0.008238 0.005417 -0.006511 0.053831
#
#
# Mechanical properties :
#
#
# Convention : Reuss Voigt Hill
#
# Bulk Modulus (GPa) = 44.30933 64.97006 54.63970
# Shear Modulus (GPa) = 22.16888 31.64430 26.90659
#
# Velocity S-wave (km/s) = 3.42248 4.08899 3.77049
# Velocity P-wave (km/s) = 6.24736 7.52471 6.91559
#
# Compressibility (1/GPa) = 0.02256861
#
# Stress axis : x y z
#
# Youngs Moduli (GPa) = 57.70117 35.31654 83.55548
#
# Poissons Ratio (x) = 0.15554 0.36269
# Poissons Ratio (y) = 0.25413 0.73343
# Poissons Ratio (z) = 0.25047 0.31000
#
# Static dielectric constant tensor:
#      x y z
#    x 1.767570 0.015680 0.091500 
#    y 0.015680 1.667120 -0.046210 
#    z 0.091500 -0.046210 1.760880 
# 
# From -- ./inp_files/274296.got.cif
#   From: 2010.05.17/outbox.cif.g08.bks.cpg/sg2_138_cif.got.tgz:274296.got - 2010.06.03 11:33:40.
