data_PCOD9053360
_publ_section_title
;
Structure prediction by ZEFSAII (Michael W. Deem and Ramdas Pophale) SiO2 
 PCOD9053360
Probable space group: P -1
;
_chemical_formula_sum "Si O2"
_cell_formula_units_Z 16
_cell_length_a 15.599892
_cell_length_b 11.775229
_cell_length_c 17.730723
_cell_angle_alpha 18.532668
_cell_angle_beta 137.033451
_cell_angle_gamma 137.315989
_cell_volume 692.637020
_symmetry_space_group_name_H-M "P -1"
_symmetry_group_IT_number 2
_symmetry_cell_setting 'triclinic'
loop_
_space_group_symop_operation_xyz
x,y,z
-x,-y,-z
loop_
_atom_site_type_symbol
_atom_site_label
_atom_site_fract_x
_atom_site_fract_y
_atom_site_fract_z
Si Si1 0.685763 0.830811 0.015761
Si Si2 0.772254 0.965157 0.525232
Si Si3 0.423396 0.081207 0.707830
Si Si4 0.262610 0.838580 0.316463
Si Si5 0.646871 0.028694 0.553841
Si Si6 0.370024 0.127475 0.810908
Si Si7 0.006998 0.337547 0.523007
Si Si8 0.152523 0.737773 0.028743
O O1 0.538578 0.863044 0.913608
O O2 0.715745 0.889384 0.910538
O O3 0.696609 0.454487 0.298793
O O4 0.784496 0.144474 0.924171
O O5 0.670918 0.999003 0.373224
O O6 0.686039 0.834211 0.626960
O O7 0.855899 0.684058 0.723645
O O8 0.879759 0.293830 0.418472
O O9 0.500000 0.500000 0.500000
O O10 0.349902 0.023464 0.776039
O O11 0.286863 0.055663 0.273591
O O12 0.361310 0.555073 0.546928
O O13 0.123981 0.580944 0.399662
O O14 0.500000 0.000000 0.500000
O O15 0.260654 0.921098 0.924086
O O16 0.500000 0.000000 0.000000
O O17 0.000000 0.500000 0.500000
O O18 0.035053 0.934233 0.812688
#
# Coordination Sequence:
#
# PCOD9053360 Si02
#       8
#     2   2   2   2   2   2   2   2
#     4  12  23  45  72 106 145 185 239 291 365 430
#     4  12  25  44  69 106 141 186 246 292 349 428
#     4  12  22  38  69 103 144 180 231 297 360 419
#     4  11  23  43  73  98 139 195 235 288 358 420
#     4  12  27  44  69 106 150 185 231 297 362 431
#     4  11  19  37  67 103 138 186 228 283 365 421
#     4  11  23  50  72  97 145 195 239 292 355 427
#     4  11  23  41  73 102 136 186 239 293 350 421
#
# _framework density 23.100123
#
# number of rings (size 3 to 8) (size 9 to 14) (size 15 to 20)
#    0.000    0.500    7.500    1.125    3.500    2.000 
#    0.000    9.375    0.000    0.000    0.000    0.000 
#    0.000    0.000    0.000    0.000    0.000    0.000 
#
# Total GULP energy -89483.343176 kJ/mol
# GULP energy per Si atom -5592.708949 kJ/mol
# Density = 2.304755 g / cm^3
# Si number density = 23.100123 Si / 1000 Ang^3
#
#
#
# Elastic Constant Matrix: (Units=GPa)
#
#
# Indices 1 2 3 4 5 6 
#
# 1 84.5809 23.4054 14.1310 13.8219 -4.0230 -24.0687
# 2 23.4054 139.3066 16.3491 27.9642 1.3773 -20.2534
# 3 14.1310 16.3491 42.5561 7.1160 8.7495 -18.3998
# 4 13.8219 27.9642 7.1160 33.9275 -5.1988 -7.5157
# 5 -4.0230 1.3773 8.7495 -5.1988 43.3909 10.9524
# 6 -24.0687 -20.2534 -18.3998 -7.5157 10.9524 49.0354
#
#
#
# Elastic Compliance Matrix: (Units=1/GPa)
#
#
# Indices 1 2 3 4 5 6 
#
# 1 0.014499 -0.000659 -0.001344 -0.003837 -0.000292 0.005817
# 2 -0.000659 0.009117 -0.000731 -0.006793 -0.001647 0.002495
# 3 -0.001344 -0.000731 0.032751 -0.004453 -0.010519 0.012995
# 4 -0.003837 -0.006793 -0.004453 0.038053 0.005776 -0.001818
# 5 -0.000292 -0.001647 -0.010519 0.005776 0.028470 -0.010244
# 6 0.005817 0.002495 0.012995 -0.001818 -0.010244 0.031165
#
#
# Mechanical properties :
#
#
# Convention : Reuss Voigt Hill
#
# Bulk Modulus (GPa) = 19.64699 41.57942 30.61321
# Shear Modulus (GPa) = 28.33013 39.44131 33.88572
#
# Velocity S-wave (km/s) = 3.50581 4.13656 3.83418
# Velocity P-wave (km/s) = 4.99111 6.39168 5.73432
#
# Compressibility (1/GPa) = 0.05089838
#
# Stress axis : x y z
#
# Youngs Moduli (GPa) = 68.97257 109.67929 30.53310
#
# Poissons Ratio (x) = 0.07231 0.04105
# Poissons Ratio (y) = 0.04547 0.02231
# Poissons Ratio (z) = 0.09273 0.08015
#
# Static dielectric constant tensor:
#      x y z
#    x 1.851390 -0.005850 0.039870 
#    y -0.005850 1.899240 -0.045360 
#    z 0.039870 -0.045360 1.913820 
# 
# From -- ./inp_files/575890.got.cif
#   From: 2010.05.17/outbox.cif.g08.bks.cpg/sg2_288_cif.got.tgz:575890.got - 2010.06.03 11:33:40.
