data_PCOD9053178
_publ_section_title
;
Structure prediction by ZEFSAII (Michael W. Deem and Ramdas Pophale) SiO2 
 PCOD9053178
Probable space group: P -1
;
_chemical_formula_sum "Si O2"
_cell_formula_units_Z 16
_cell_length_a 12.203215
_cell_length_b 15.384033
_cell_length_c 8.563407
_cell_angle_alpha 71.888435
_cell_angle_beta 90.399561
_cell_angle_gamma 146.791430
_cell_volume 731.263497
_symmetry_space_group_name_H-M "P -1"
_symmetry_group_IT_number 2
_symmetry_cell_setting 'triclinic'
loop_
_space_group_symop_operation_xyz
x,y,z
-x,-y,-z
loop_
_atom_site_type_symbol
_atom_site_label
_atom_site_fract_x
_atom_site_fract_y
_atom_site_fract_z
Si Si1 0.290924 0.902649 0.364372
Si Si2 0.104714 0.433329 0.281517
Si Si3 0.968654 0.126568 0.783402
Si Si4 0.623962 0.563116 0.170090
Si Si5 0.724704 0.119918 0.263555
Si Si6 0.040782 0.204701 0.237510
Si Si7 0.408973 0.252645 0.822308
Si Si8 0.771293 0.826779 0.456907
O O1 0.207010 0.929804 0.259041
O O2 0.355166 0.970005 0.510803
O O3 0.060995 0.672732 0.513502
O O4 0.512468 0.012764 0.241208
O O5 0.097314 0.317052 0.314244
O O6 0.370044 0.645413 0.184001
O O7 0.945017 0.346219 0.181895
O O8 0.182652 0.326913 0.764810
O O9 0.080185 0.141192 0.648540
O O10 0.824437 0.960606 0.996150
O O11 0.581151 0.637771 0.168280
O O12 0.395934 0.337670 0.323019
O O13 0.744203 0.644512 0.958501
O O14 0.840102 0.115099 0.194615
O O15 0.933922 0.031018 0.385400
O O16 0.393562 0.254979 0.636156
#
# Coordination Sequence:
#
# PCOD9053178 Si02
#       8
#     2   2   2   2   2   2   2   2
#     4   8  15  35  57  77  95 145 185 218 261 308
#     4   8  18  34  55  77 102 141 177 217 265 312
#     4  11  19  32  56  82 104 142 185 218 258 323
#     4  11  20  34  55  78 114 144 173 218 268 321
#     4   7  17  35  58  70 109 140 174 232 258 308
#     4   9  19  38  51  81 114 138 172 221 274 313
#     4  11  19  34  53  79 113 142 176 221 261 316
#     4  11  20  35  57  79 111 143 176 217 270 319
#
# _framework density 21.879937000000002
#
# number of rings (size 3 to 8) (size 9 to 14) (size 15 to 20)
#    1.500    0.750    2.500    3.750    0.000    0.500 
#    4.500    4.375    2.750    1.500    0.000    0.000 
#    0.000    0.000    0.000    0.000    0.000    0.000 
#
# Total GULP energy -89075.939094 kJ/mol
# GULP energy per Si atom -5567.246193 kJ/mol
# Density = 2.183014 g / cm^3
# Si number density = 21.879937 Si / 1000 Ang^3
#
#
#
# Elastic Constant Matrix: (Units=GPa)
#
#
# Indices 1 2 3 4 5 6 
#
# 1 84.0973 29.4799 28.8172 -14.5302 -12.9714 43.2128
# 2 29.4799 73.1927 31.8063 -14.3123 -7.1401 22.0099
# 3 28.8172 31.8063 122.8481 -23.9463 -13.7960 7.4594
# 4 -14.5302 -14.3123 -23.9463 33.1398 8.4117 -6.9467
# 5 -12.9714 -7.1401 -13.7960 8.4117 25.7591 -6.2137
# 6 43.2128 22.0099 7.4594 -6.9467 -6.2137 37.5918
#
#
#
# Elastic Compliance Matrix: (Units=1/GPa)
#
#
# Indices 1 2 3 4 5 6 
#
# 1 0.033016 0.000546 -0.004661 0.002577 0.004734 -0.036089
# 2 0.000546 0.018826 -0.003696 0.003579 -0.000134 -0.010277
# 3 -0.004661 -0.003696 0.011063 0.005123 0.002493 0.006685
# 4 0.002577 0.003579 0.005123 0.038427 -0.007569 -0.000225
# 5 0.004734 -0.000134 0.002493 -0.007569 0.045020 0.000185
# 6 -0.036089 -0.010277 0.006685 -0.000225 0.000185 0.072767
#
#
# Mechanical properties :
#
#
# Convention : Reuss Voigt Hill
#
# Bulk Modulus (GPa) = 21.14884 51.14943 36.14914
# Shear Modulus (GPa) = 19.95998 31.96711 25.96354
#
# Velocity S-wave (km/s) = 3.02362 3.82648 3.44850
# Velocity P-wave (km/s) = 4.67724 6.55368 5.69330
#
# Compressibility (1/GPa) = 0.04728391
#
# Stress axis : x y z
#
# Youngs Moduli (GPa) = 30.28789 53.11797 90.39244
#
# Poissons Ratio (x) = -0.02898 0.42129
# Poissons Ratio (y) = -0.01652 0.33405
# Poissons Ratio (z) = 0.14116 0.19630
#
# Static dielectric constant tensor:
#      x y z
#    x 1.850330 0.071050 0.001930 
#    y 0.071050 1.913970 0.008180 
#    z 0.001930 0.008180 1.818140 
# 
# From -- ./inp_files/435605.got.cif
#   From: 2010.05.17/outbox.cif.g08.bks.cpg/sg2_218_cif.got.tgz:435605.got - 2010.06.03 11:33:40.
