data_PCOD9053131
_publ_section_title
;
Structure prediction by ZEFSAII (Michael W. Deem and Ramdas Pophale) SiO2 
 PCOD9053131
Probable space group: P -1
;
_chemical_formula_sum "Si O2"
_cell_formula_units_Z 16
_cell_length_a 10.324338
_cell_length_b 18.655021
_cell_length_c 11.957454
_cell_angle_alpha 132.515740
_cell_angle_beta 68.468757
_cell_angle_gamma 149.261308
_cell_volume 714.339417
_symmetry_space_group_name_H-M "P -1"
_symmetry_group_IT_number 2
_symmetry_cell_setting 'triclinic'
loop_
_space_group_symop_operation_xyz
x,y,z
-x,-y,-z
loop_
_atom_site_type_symbol
_atom_site_label
_atom_site_fract_x
_atom_site_fract_y
_atom_site_fract_z
Si Si1 0.771039 0.654948 0.940345
Si Si2 0.782456 0.581607 0.202456
Si Si3 0.596887 0.836840 0.023487
Si Si4 0.245042 0.468908 0.403819
Si Si5 0.790597 0.203262 0.899111
Si Si6 0.737064 0.888390 0.781416
Si Si7 0.653840 0.177641 0.220704
Si Si8 0.150497 0.293550 0.443443
O O1 0.417908 0.468721 0.865133
O O2 0.792307 0.643383 0.788463
O O3 0.930694 0.665620 0.969344
O O4 0.977405 0.880249 0.121342
O O5 0.865877 0.687424 0.402773
O O6 0.070046 0.722667 0.189513
O O7 0.577787 0.360600 0.069402
O O8 0.364228 0.785311 0.026389
O O9 0.728523 0.878230 0.907310
O O10 0.891898 0.056179 0.233962
O O11 0.601741 0.715536 0.570285
O O12 0.084520 0.347576 0.444557
O O13 0.017761 0.402036 0.345755
O O14 0.518761 0.958243 0.753987
O O15 0.458882 0.790429 0.749747
O O16 0.500000 0.000000 0.000000
O O17 0.500000 0.500000 0.500000
#
# Coordination Sequence:
#
# PCOD9053131 Si02
#       8
#     2   2   2   2   2   2   2   2
#     4  11  23  44  66  93 133 165 216 276 313 379
#     4  12  27  41  66  95 131 178 212 258 328 394
#     4  12  23  43  66  95 134 166 218 268 318 386
#     4  12  20  37  66  96 125 164 212 270 325 372
#     4  11  23  45  67  91 131 176 214 259 329 382
#     4  11  21  35  67  99 123 163 217 269 323 372
#     4  11  18  39  65  92 128 165 212 271 316 371
#     4  12  24  41  65  95 135 167 211 271 327 380
#
# _framework density 22.398316999999999
#
# number of rings (size 3 to 8) (size 9 to 14) (size 15 to 20)
#    0.000    0.500    8.750    1.125    1.750    1.500 
#    0.000    2.500    0.000    5.250    0.000    0.000 
#    0.000    0.000    0.000    0.000    0.000    0.000 
#
# Total GULP energy -89136.975415 kJ/mol
# GULP energy per Si atom -5571.060963 kJ/mol
# Density = 2.234734 g / cm^3
# Si number density = 22.398317 Si / 1000 Ang^3
#
#
#
# Elastic Constant Matrix: (Units=GPa)
#
#
# Indices 1 2 3 4 5 6 
#
# 1 90.9698 20.0088 21.0308 -5.3752 13.5041 8.9775
# 2 20.0088 70.2737 35.5428 -9.9641 1.2672 9.5645
# 3 21.0308 35.5428 141.2165 9.4636 0.1961 -3.7255
# 4 -5.3752 -9.9641 9.4636 28.5256 0.7951 -1.3440
# 5 13.5041 1.2672 0.1961 0.7951 33.8978 7.6914
# 6 8.9775 9.5645 -3.7255 -1.3440 7.6914 32.7351
#
#
#
# Elastic Compliance Matrix: (Units=1/GPa)
#
#
# Indices 1 2 3 4 5 6 
#
# 1 0.012844 -0.002228 -0.001542 0.002195 -0.004653 -0.001863
# 2 -0.002228 0.019339 -0.005206 0.007762 0.001287 -0.005616
# 3 -0.001542 -0.005206 0.009026 -0.004983 0.000260 0.002705
# 4 0.002195 0.007762 -0.004983 0.039818 -0.001754 -0.001390
# 5 -0.004653 0.001287 0.000260 -0.001754 0.032905 -0.006874
# 6 -0.001863 -0.005616 0.002705 -0.001390 -0.006874 0.034566
#
#
# Mechanical properties :
#
#
# Convention : Reuss Voigt Hill
#
# Bulk Modulus (GPa) = 42.99744 50.62499 46.81121
# Shear Modulus (GPa) = 28.70236 34.09019 31.39627
#
# Velocity S-wave (km/s) = 3.58362 3.90551 3.74802
# Velocity P-wave (km/s) = 6.03005 6.55657 6.29881
#
# Compressibility (1/GPa) = 0.02325720
#
# Stress axis : x y z
#
# Youngs Moduli (GPa) = 77.86037 51.70860 110.78975
#
# Poissons Ratio (x) = 0.11523 0.17080
# Poissons Ratio (y) = 0.17350 0.57674
# Poissons Ratio (z) = 0.12003 0.26918
#
# Static dielectric constant tensor:
#      x y z
#    x 2.208780 0.004620 -0.105060 
#    y 0.004620 1.814400 0.010650 
#    z -0.105060 0.010650 1.998630 
# 
# From -- ./inp_files/438445.got.cif
#   From: 2010.05.17/outbox.cif.g08.bks.cpg/sg2_220_cif.got.tgz:438445.got - 2010.06.03 11:33:40.
