data_PCOD9053791
_publ_section_title
;
Structure prediction by ZEFSAII (Michael W. Deem and Ramdas Pophale) SiO2 
 PCOD9053791
Probable space group: P -1
;
_chemical_formula_sum "Si O2"
_cell_formula_units_Z 16
_cell_length_a 9.865276
_cell_length_b 4.944384
_cell_length_c 15.496483
_cell_angle_alpha 75.888849
_cell_angle_beta 124.628195
_cell_angle_gamma 109.933903
_cell_volume 583.492296
_symmetry_space_group_name_H-M "P -1"
_symmetry_group_IT_number 2
_symmetry_cell_setting 'triclinic'
loop_
_space_group_symop_operation_xyz
x,y,z
-x,-y,-z
loop_
_atom_site_type_symbol
_atom_site_label
_atom_site_fract_x
_atom_site_fract_y
_atom_site_fract_z
Si Si1 0.016493 0.391207 0.127410
Si Si2 0.503224 0.315637 0.699461
Si Si3 0.481149 0.555074 0.843390
Si Si4 0.214497 0.864664 0.680951
Si Si5 0.131033 0.509865 0.360425
Si Si6 0.350162 0.141647 0.407962
Si Si7 0.668334 0.192781 0.089719
Si Si8 0.776968 0.013423 0.854799
O O1 0.814502 0.288846 0.065915
O O2 0.063616 0.453085 0.241629
O O3 0.089775 0.701173 0.086039
O O4 0.885021 0.836008 0.853669
O O5 0.534863 0.342258 0.812783
O O6 0.570219 0.622828 0.655793
O O7 0.638460 0.131030 0.738618
O O8 0.306232 0.139521 0.635939
O O9 0.342875 0.662873 0.726955
O O10 0.656608 0.802913 0.895195
O O11 0.380284 0.541859 0.897619
O O12 0.252403 0.951015 0.790218
O O13 0.023913 0.670487 0.622378
O O14 0.285866 0.357068 0.432732
O O15 0.190439 0.854149 0.368120
O O16 0.500000 0.000000 0.500000
O O17 0.500000 0.000000 0.000000
#
# Coordination Sequence:
#
# PCOD9053791 Si02
#       8
#     2   2   2   2   2   2   2   2
#     4  11  21  38  67  98 126 177 233 273 333 390
#     4  11  21  40  71  96 133 177 238 275 339 417
#     4   9  19  38  65  94 131 172 228 269 338 393
#     4   8  22  37  69  97 123 184 230 269 327 406
#     4  11  22  42  64  96 137 171 231 273 330 422
#     4  12  27  43  67 101 139 175 217 291 354 395
#     4   9  21  41  63 100 142 175 223 291 345 389
#     4  11  20  37  63  96 127 171 234 284 308 406
#
# _framework density 27.421102000000001
#
# number of rings (size 3 to 8) (size 9 to 14) (size 15 to 20)
#    0.750    1.000    2.500    1.875    3.500    2.000 
#    0.000    5.000    0.000    0.000    0.000    0.000 
#    0.000    0.000    0.000    0.000    0.000    0.000 
#
# Total GULP energy -89328.397529 kJ/mol
# GULP energy per Si atom -5583.024846 kJ/mol
# Density = 2.735869 g / cm^3
# Si number density = 27.421102 Si / 1000 Ang^3
#
#
#
# Elastic Constant Matrix: (Units=GPa)
#
#
# Indices 1 2 3 4 5 6 
#
# 1 186.5189 99.0024 21.0900 1.1975 25.7056 38.9500
# 2 99.0024 198.4446 34.1528 -5.0855 18.9174 21.5350
# 3 21.0900 34.1528 78.3836 -12.1632 4.5342 18.2383
# 4 1.1975 -5.0855 -12.1632 37.0155 7.9284 7.6754
# 5 25.7056 18.9174 4.5342 7.9284 32.5442 11.7965
# 6 38.9500 21.5350 18.2383 7.6754 11.7965 69.2809
#
#
#
# Elastic Compliance Matrix: (Units=1/GPa)
#
#
# Indices 1 2 3 4 5 6 
#
# 1 0.008343 -0.003512 0.000356 0.000801 -0.003647 -0.003160
# 2 -0.003512 0.007267 -0.002147 0.000626 -0.001471 0.000462
# 3 0.000356 -0.002147 0.015526 0.005888 -0.001154 -0.004076
# 4 0.000801 0.000626 0.005888 0.031613 -0.007944 -0.004345
# 5 -0.003647 -0.001471 -0.001154 -0.007944 0.037538 -0.002700
# 6 -0.003160 0.000462 -0.004076 -0.004345 -0.002700 0.018081
#
#
# Mechanical properties :
#
#
# Convention : Reuss Voigt Hill
#
# Bulk Modulus (GPa) = 48.70799 85.75972 67.23386
# Shear Modulus (GPa) = 36.81431 48.37491 42.59461
#
# Velocity S-wave (km/s) = 3.66806 4.20473 3.94553
# Velocity P-wave (km/s) = 5.97839 7.41053 6.73265
#
# Compressibility (1/GPa) = 0.02053051
#
# Stress axis : x y z
#
# Youngs Moduli (GPa) = 119.86283 137.60824 64.40799
#
# Poissons Ratio (x) = 0.48333 -0.02294
# Poissons Ratio (y) = 0.42100 0.13826
# Poissons Ratio (z) = -0.04270 0.29539
#
# Static dielectric constant tensor:
#      x y z
#    x 2.150640 -0.013920 -0.106520 
#    y -0.013920 2.282570 -0.009360 
#    z -0.106520 -0.009360 2.314230 
# 
# From -- ./inp_files/549161.got.cif
#   From: 2010.05.17/outbox.cif.g08.bks.cpg/sg2_275_cif.got.tgz:549161.got - 2010.06.03 11:33:40.
