data_PCOD9053309
_publ_section_title
;
Structure prediction by ZEFSAII (Michael W. Deem and Ramdas Pophale) SiO2 
 PCOD9053309
Probable space group: P -1
;
_chemical_formula_sum "Si O2"
_cell_formula_units_Z 14
_cell_length_a 17.837618
_cell_length_b 21.906201
_cell_length_c 6.016963
_cell_angle_alpha 71.400898
_cell_angle_beta 81.491963
_cell_angle_gamma 19.433568
_cell_volume 648.518044
_symmetry_space_group_name_H-M "P -1"
_symmetry_group_IT_number 2
_symmetry_cell_setting 'triclinic'
loop_
_space_group_symop_operation_xyz
x,y,z
-x,-y,-z
loop_
_atom_site_type_symbol
_atom_site_label
_atom_site_fract_x
_atom_site_fract_y
_atom_site_fract_z
Si Si1 0.731161 0.361727 0.074022
Si Si2 0.150362 0.471083 0.898189
Si Si3 0.215709 0.312491 0.437543
Si Si4 0.377359 0.417625 0.877251
Si Si5 0.397874 0.933131 0.182139
Si Si6 0.085968 0.697352 0.307380
Si Si7 0.797704 0.006332 0.444011
O O1 0.654009 0.489427 0.091435
O O2 0.500000 0.500000 0.000000
O O3 0.822109 0.314313 0.851174
O O4 0.979710 0.135097 0.362897
O O5 0.175961 0.524018 0.896862
O O6 0.387589 0.262436 0.866792
O O7 0.880508 0.673386 0.661612
O O8 0.189718 0.390765 0.178478
O O9 0.485478 0.101904 0.689802
O O10 0.000000 0.500000 0.500000
O O11 0.334622 0.461256 0.580306
O O12 0.637932 0.177703 0.141894
O O13 0.358442 0.905759 0.401963
O O14 0.122071 0.168988 0.912233
O O15 0.927915 0.846124 0.420724
#
# Coordination Sequence:
#
# PCOD9053309 Si02
#       7
#     2   2   2   2   2   2   2
#     4  10  25  43  60  88 122 152 194 248 298 354
#     4  10  19  33  58  89 120 155 199 244 290 344
#     4   9  18  30  55  88 121 158 195 241 291 340
#     4  11  22  37  63  91 115 156 203 237 298 356
#     4  10  17  35  60  84 121 156 199 239 293 344
#     4  10  22  38  62  87 120 154 197 247 292 348
#     4  10  21  39  63  88 116 159 197 239 299 353
#
# _framework density 21.587679999999999
#
# number of rings (size 3 to 8) (size 9 to 14) (size 15 to 20)
#    0.000    2.000    2.857    0.000    2.000    2.857 
#    0.000    2.143    0.000   22.286    0.000    0.000 
#    0.000    0.000    0.000    0.000    0.000    0.000 
#
# Total GULP energy -78076.488261 kJ/mol
# GULP energy per Si atom -5576.892019 kJ/mol
# Density = 2.153855 g / cm^3
# Si number density = 21.587680 Si / 1000 Ang^3
#
#
#
# Elastic Constant Matrix: (Units=GPa)
#
#
# Indices 1 2 3 4 5 6 
#
# 1 135.3266 39.6392 40.3821 -12.5883 27.0486 -31.7746
# 2 39.6392 64.0509 49.1881 1.3984 16.5062 -30.7129
# 3 40.3821 49.1881 162.8100 -21.8864 18.8622 -27.3437
# 4 -12.5883 1.3984 -21.8864 25.3337 0.1968 -0.1095
# 5 27.0486 16.5062 18.8622 0.1968 23.7483 -8.5904
# 6 -31.7746 -30.7129 -27.3437 -0.1095 -8.5904 33.8292
#
#
#
# Elastic Compliance Matrix: (Units=1/GPa)
#
#
# Indices 1 2 3 4 5 6 
#
# 1 0.012349 -0.002139 0.001134 0.007351 -0.010688 0.007883
# 2 -0.002139 0.034984 -0.006409 -0.008368 -0.008634 0.022352
# 3 0.001134 -0.006409 0.009923 0.009530 -0.003968 0.002289
# 4 0.007351 -0.008368 0.009530 0.051911 -0.008764 0.004953
# 5 -0.010688 -0.008634 -0.003968 -0.008764 0.061521 -0.005491
# 6 0.007883 0.022352 0.002289 0.004953 -0.005491 0.057729
#
#
# Mechanical properties :
#
#
# Convention : Reuss Voigt Hill
#
# Bulk Modulus (GPa) = 23.57052 68.95626 46.26339
# Shear Modulus (GPa) = 19.42588 32.11413 25.77000
#
# Velocity S-wave (km/s) = 3.00302 3.86114 3.45880
# Velocity P-wave (km/s) = 4.79233 7.20345 6.11784
#
# Compressibility (1/GPa) = 0.04242588
#
# Stress axis : x y z
#
# Youngs Moduli (GPa) = 80.97988 28.58414 100.77823
#
# Poissons Ratio (x) = 0.06115 -0.11425
# Poissons Ratio (y) = 0.17324 0.64593
# Poissons Ratio (z) = -0.09181 0.18321
#
# Static dielectric constant tensor:
#      x y z
#    x 1.771290 0.019850 0.020670 
#    y 0.019850 1.824460 -0.043270 
#    z 0.020670 -0.043270 1.855340 
# 
# From -- ./inp_files/43506.got.cif
#   From: 2010.05.17/outbox.cif.g08.bks.cpg/sg2_22_cif.got.tgz:43506.got - 2010.06.03 11:33:40.
