data_PCOD9053957
_publ_section_title
;
Structure prediction by ZEFSAII (Michael W. Deem and Ramdas Pophale) SiO2 
 PCOD9053957
Probable space group: P -1
;
_chemical_formula_sum "Si O2"
_cell_formula_units_Z 14
_cell_length_a 14.554306
_cell_length_b 14.341406
_cell_length_c 8.878374
_cell_angle_alpha 106.311665
_cell_angle_beta 123.843149
_cell_angle_gamma 27.964762
_cell_volume 606.635057
_symmetry_space_group_name_H-M "P -1"
_symmetry_group_IT_number 2
_symmetry_cell_setting 'triclinic'
loop_
_space_group_symop_operation_xyz
x,y,z
-x,-y,-z
loop_
_atom_site_type_symbol
_atom_site_label
_atom_site_fract_x
_atom_site_fract_y
_atom_site_fract_z
Si Si1 0.541093 0.387702 0.685320
Si Si2 0.610223 0.279156 0.362759
Si Si3 0.654083 0.131113 0.871743
Si Si4 0.588749 0.025386 0.507166
Si Si5 0.604748 0.753089 0.872778
Si Si6 0.107601 0.503505 0.695539
Si Si7 0.073121 0.132426 0.704985
O O1 0.669600 0.260973 0.581654
O O2 0.508202 0.529803 0.735511
O O3 0.679720 0.218846 0.870240
O O4 0.230345 0.598381 0.489344
O O5 0.398039 0.360628 0.209679
O O6 0.848514 0.033000 0.378985
O O7 0.386087 0.326679 0.813742
O O8 0.612354 0.096002 0.673585
O O9 0.887259 0.913343 0.101105
O O10 0.888804 0.762636 0.607132
O O11 0.500000 0.000000 0.500000
O O12 0.400006 0.193441 0.267880
O O13 0.313547 0.007669 0.803211
O O14 0.836673 0.584209 0.127350
O O15 0.000000 0.500000 0.500000
#
# Coordination Sequence:
#
# PCOD9053957 Si02
#       7
#     2   2   2   2   2   2   2
#     4  11  20  39  65  83 124 162 193 246 301 349
#     4   9  21  39  59  92 120 156 202 240 297 361
#     4  11  23  39  60  92 117 156 207 243 292 363
#     4  12  24  41  62  88 120 159 204 249 297 362
#     4   9  22  44  59  88 127 151 197 253 294 353
#     4  11  24  44  62  90 121 157 201 252 301 354
#     4   9  21  39  60  87 122 156 199 242 299 350
#
# _framework density 23.078126000000001
#
# number of rings (size 3 to 8) (size 9 to 14) (size 15 to 20)
#    0.857    0.857    2.857    1.286    2.000    1.714 
#    2.571    2.857    0.000    0.000    0.000    0.000 
#    0.000    0.000    0.000    0.000    0.000    0.000 
#
# Total GULP energy -78206.076012 kJ/mol
# GULP energy per Si atom -5586.148287 kJ/mol
# Density = 2.302560 g / cm^3
# Si number density = 23.078126 Si / 1000 Ang^3
#
#
#
# Elastic Constant Matrix: (Units=GPa)
#
#
# Indices 1 2 3 4 5 6 
#
# 1 73.5227 -4.8769 21.5024 1.1919 -21.5476 4.6385
# 2 -4.8769 68.0268 22.7019 4.6109 -15.3845 0.1182
# 3 21.5024 22.7019 109.0908 13.9038 -26.8203 -3.0406
# 4 1.1919 4.6109 13.9038 20.0172 -6.6921 -0.4039
# 5 -21.5476 -15.3845 -26.8203 -6.6921 37.2765 -0.9119
# 6 4.6385 0.1182 -3.0406 -0.4039 -0.9119 14.1522
#
#
#
# Elastic Compliance Matrix: (Units=1/GPa)
#
#
# Indices 1 2 3 4 5 6 
#
# 1 0.018105 0.004363 -0.002322 0.003097 0.011013 -0.005671
# 2 0.004363 0.017679 -0.002661 0.000120 0.007885 -0.001638
# 3 -0.002322 -0.002661 0.012387 -0.005943 0.005494 0.003629
# 4 0.003097 0.000120 -0.005943 0.056441 0.007692 -0.000187
# 5 0.011013 0.007885 0.005494 0.007692 0.041791 0.000417
# 6 -0.005671 -0.001638 0.003629 -0.000187 0.000417 0.073334
#
#
# Mechanical properties :
#
#
# Convention : Reuss Voigt Hill
#
# Bulk Modulus (GPa) = 21.30744 36.58833 28.94789
# Shear Modulus (GPa) = 21.13084 28.37671 24.75378
#
# Velocity S-wave (km/s) = 3.02921 3.51036 3.27862
# Velocity P-wave (km/s) = 4.63547 5.68495 5.18682
#
# Compressibility (1/GPa) = 0.04693195
#
# Stress axis : x y z
#
# Youngs Moduli (GPa) = 55.23347 56.56409 80.72665
#
# Poissons Ratio (x) = -0.24681 0.18743
# Poissons Ratio (y) = -0.24100 0.21484
# Poissons Ratio (z) = 0.12824 0.15054
#
# Static dielectric constant tensor:
#      x y z
#    x 1.916680 -0.049220 0.014120 
#    y -0.049220 1.877990 0.010360 
#    z 0.014120 0.010360 1.739410 
# 
# From -- ./inp_files/315267.got.cif
#   From: 2010.05.17/outbox.cif.g08.bks.cpg/sg2_158_cif.got.tgz:315267.got - 2010.06.03 11:33:40.
