data_PCOD9053782
_publ_section_title
;
Structure prediction by ZEFSAII (Michael W. Deem and Ramdas Pophale) SiO2 
 PCOD9053782
Probable space group: P -1
;
_chemical_formula_sum "Si O2"
_cell_formula_units_Z 16
_cell_length_a 10.008681
_cell_length_b 15.251258
_cell_length_c 16.071595
_cell_angle_alpha 143.508134
_cell_angle_beta 36.235784
_cell_angle_gamma 130.816551
_cell_volume 862.315993
_symmetry_space_group_name_H-M "P -1"
_symmetry_group_IT_number 2
_symmetry_cell_setting 'triclinic'
loop_
_space_group_symop_operation_xyz
x,y,z
-x,-y,-z
loop_
_atom_site_type_symbol
_atom_site_label
_atom_site_fract_x
_atom_site_fract_y
_atom_site_fract_z
Si Si1 0.664824 0.492389 0.682299
Si Si2 0.852600 0.940737 0.756709
Si Si3 0.808368 0.491498 0.291387
Si Si4 0.632086 0.161725 0.153478
Si Si5 0.032284 0.118359 0.646508
Si Si6 0.064959 0.377269 0.495244
Si Si7 0.838913 0.430741 0.956649
Si Si8 0.485008 0.267819 0.478126
O O1 0.756572 0.613835 0.663593
O O2 0.647199 0.345718 0.522248
O O3 0.848195 0.466026 0.640991
O O4 0.417357 0.526276 0.866029
O O5 0.614971 0.878992 0.790495
O O6 0.991158 0.793440 0.590446
O O7 0.969514 0.044915 0.709170
O O8 0.794693 0.037995 0.940449
O O9 0.716783 0.324301 0.206118
O O10 0.832899 0.547876 0.416314
O O11 0.643773 0.601866 0.408619
O O12 0.050551 0.510642 0.139411
O O13 0.605776 0.172072 0.274049
O O14 0.871293 0.255992 0.814151
O O15 0.287503 0.179627 0.557647
O O16 0.000000 0.000000 0.500000
O O17 0.000000 0.500000 0.000000
#
# Coordination Sequence:
#
# PCOD9053782 Si02
#       8
#     2   2   2   2   2   2   2   2
#     4  11  24  41  64  88 120 161 204 249 300 351
#     4  11  23  35  57  94 123 154 194 253 299 356
#     4  11  20  37  64  90 116 154 205 252 292 349
#     4  11  21  33  61  91 118 150 203 251 291 346
#     4  11  21  35  58  92 123 149 194 251 305 343
#     4  11  24  42  62  87 125 160 199 246 305 362
#     4  11  22  37  65  92 117 154 207 254 288 349
#     4  11  20  37  62  89 116 159 203 248 295 347
#
# _framework density 18.554683000000001
#
# number of rings (size 3 to 8) (size 9 to 14) (size 15 to 20)
#    0.000    1.000    6.250    2.625    3.500    0.500 
#    0.000    1.250    2.750    0.000    0.000    0.000 
#    0.000    0.000    0.000    0.000    0.000    0.000 
#
# Total GULP energy -89392.578102 kJ/mol
# GULP energy per Si atom -5587.036131 kJ/mol
# Density = 1.851245 g / cm^3
# Si number density = 18.554683 Si / 1000 Ang^3
#
#
#
# Elastic Constant Matrix: (Units=GPa)
#
#
# Indices 1 2 3 4 5 6 
#
# 1 44.9554 21.7492 10.6097 -1.8384 4.4119 1.3567
# 2 21.7492 128.4753 40.1722 -8.5355 1.4237 -8.8149
# 3 10.6097 40.1722 98.7881 -8.5024 15.2742 -2.8847
# 4 -1.8384 -8.5355 -8.5024 40.5299 9.1594 8.4316
# 5 4.4119 1.4237 15.2742 9.1594 18.7916 -0.7786
# 6 1.3567 -8.8149 -2.8847 8.4316 -0.7786 20.2615
#
#
#
# Elastic Compliance Matrix: (Units=1/GPa)
#
#
# Indices 1 2 3 4 5 6 
#
# 1 0.025353 -0.004481 0.000400 0.003098 -0.007662 -0.005174
# 2 -0.004481 0.010075 -0.004236 -0.000922 0.004373 0.004632
# 3 0.000400 -0.004236 0.014506 0.006083 -0.014649 -0.002898
# 4 0.003098 -0.000922 0.006083 0.034147 -0.022860 -0.014831
# 5 -0.007662 0.004373 -0.014649 -0.022860 0.078264 0.012850
# 6 -0.005174 0.004632 -0.002898 -0.014831 0.012850 0.057969
#
#
# Mechanical properties :
#
#
# Convention : Reuss Voigt Hill
#
# Bulk Modulus (GPa) = 30.03116 46.36455 38.19786
# Shear Modulus (GPa) = 20.15740 29.22912 24.69326
#
# Velocity S-wave (km/s) = 3.29960 3.97331 3.65202
# Velocity P-wave (km/s) = 5.54408 6.78910 6.19793
#
# Compressibility (1/GPa) = 0.03329875
#
# Stress axis : x y z
#
# Youngs Moduli (GPa) = 39.44362 99.25785 68.93667
#
# Poissons Ratio (x) = 0.44478 -0.02755
# Poissons Ratio (y) = 0.17675 0.29201
# Poissons Ratio (z) = -0.01576 0.42045
#
# Static dielectric constant tensor:
#      x y z
#    x 1.613850 -0.012940 0.013420 
#    y -0.012940 1.692010 -0.010470 
#    z 0.013420 -0.010470 1.665640 
# 
# From -- ./inp_files/205328.got.cif
#   From: 2010.05.17/outbox.cif.g08.bks.cpg/sg2_103_cif.got.tgz:205328.got - 2010.06.03 11:33:40.
