data_PCOD9053243
_publ_section_title
;
Structure prediction by ZEFSAII (Michael W. Deem and Ramdas Pophale) SiO2 
 PCOD9053243
Probable space group: P -1
;
_chemical_formula_sum "Si O2"
_cell_formula_units_Z 16
_cell_length_a 12.730208
_cell_length_b 9.703751
_cell_length_c 13.946867
_cell_angle_alpha 135.624519
_cell_angle_beta 61.550481
_cell_angle_gamma 141.511815
_cell_volume 736.081230
_symmetry_space_group_name_H-M "P -1"
_symmetry_group_IT_number 2
_symmetry_cell_setting 'triclinic'
loop_
_space_group_symop_operation_xyz
x,y,z
-x,-y,-z
loop_
_atom_site_type_symbol
_atom_site_label
_atom_site_fract_x
_atom_site_fract_y
_atom_site_fract_z
Si Si1 0.294381 0.733334 0.218538
Si Si2 0.950449 0.258638 0.196233
Si Si3 0.858187 0.559523 0.469420
Si Si4 0.538596 0.330810 0.364450
Si Si5 0.315617 0.874375 0.500042
Si Si6 0.416489 0.679809 0.878571
Si Si7 0.425690 0.238236 0.965133
Si Si8 0.134889 0.057980 0.724461
O O1 0.290505 0.781591 0.356120
O O2 0.455886 0.798523 0.144108
O O3 0.111218 0.410390 0.131608
O O4 0.350552 0.003277 0.280767
O O5 0.950309 0.493196 0.337878
O O6 0.771884 0.017481 0.099866
O O7 0.938078 0.111329 0.225707
O O8 0.688689 0.424764 0.416920
O O9 0.802775 0.380818 0.500988
O O10 0.991291 0.878045 0.612649
O O11 0.500000 0.500000 0.500000
O O12 0.601249 0.398418 0.262576
O O13 0.500000 0.000000 0.500000
O O14 0.275875 0.056551 0.629928
O O15 0.231392 0.383214 0.852939
O O16 0.543449 0.712033 0.910309
O O17 0.500000 0.000000 0.000000
O O18 0.500000 0.500000 0.000000
#
# Coordination Sequence:
#
# PCOD9053243 Si02
#       8
#     2   2   2   2   2   2   2   2
#     4  12  22  42  71 103 142 178 239 300 350 421
#     4  11  21  43  73 110 140 176 241 310 358 422
#     4  11  21  40  68 107 146 177 228 308 370 413
#     4  12  27  45  70 104 141 198 242 283 367 439
#     4  11  19  34  70 109 138 168 223 301 360 416
#     4  12  26  50  69  93 152 197 233 291 358 435
#     4  12  26  47  73  98 139 201 243 291 362 422
#     4  11  22  41  71 107 141 181 232 294 372 422
#
# _framework density 21.736730999999999
#
# number of rings (size 3 to 8) (size 9 to 14) (size 15 to 20)
#    0.000    0.500    7.500    2.250    0.000    1.000 
#    2.250    0.625    0.000    0.000    0.000    0.000 
#    0.000    0.000    0.000    0.000    0.000    0.000 
#
# Total GULP energy -89140.656613 kJ/mol
# GULP energy per Si atom -5571.291038 kJ/mol
# Density = 2.168726 g / cm^3
# Si number density = 21.736731 Si / 1000 Ang^3
#
#
#
# Elastic Constant Matrix: (Units=GPa)
#
#
# Indices 1 2 3 4 5 6 
#
# 1 52.3222 42.1336 11.8654 8.9395 18.3881 -1.3438
# 2 42.1336 112.4139 29.8251 18.9348 14.3308 2.4220
# 3 11.8654 29.8251 44.4142 22.0427 7.5428 -14.3030
# 4 8.9395 18.9348 22.0427 47.6256 1.1560 7.3486
# 5 18.3881 14.3308 7.5428 1.1560 42.6546 3.2986
# 6 -1.3438 2.4220 -14.3030 7.3486 3.2986 34.9132
#
#
#
# Elastic Compliance Matrix: (Units=1/GPa)
#
#
# Indices 1 2 3 4 5 6 
#
# 1 0.031897 -0.011267 0.005237 -0.004613 -0.011245 0.006188
# 2 -0.011267 0.015556 -0.010823 0.001899 0.001999 -0.006535
# 3 0.005237 -0.010823 0.050977 -0.024345 -0.009128 0.027823
# 4 -0.004613 0.001899 -0.024345 0.035041 0.006116 -0.018236
# 5 -0.011245 0.001999 -0.009128 0.006116 0.029718 -0.008406
# 6 0.006188 -0.006535 0.027823 -0.018236 -0.008406 0.045365
#
#
# Mechanical properties :
#
#
# Convention : Reuss Voigt Hill
#
# Bulk Modulus (GPa) = 15.45041 41.86650 28.65845
# Shear Modulus (GPa) = 18.95119 33.39376 26.17247
#
# Velocity S-wave (km/s) = 2.95592 3.92380 3.47373
# Velocity P-wave (km/s) = 4.33282 6.31116 5.41314
#
# Compressibility (1/GPa) = 0.06472321
#
# Stress axis : x y z
#
# Youngs Moduli (GPa) = 31.35092 64.28212 19.61683
#
# Poissons Ratio (x) = 0.72430 -0.10273
# Poissons Ratio (y) = 0.35325 0.21231
# Poissons Ratio (z) = -0.16418 0.69572
#
# Static dielectric constant tensor:
#      x y z
#    x 1.783580 -0.074870 -0.074260 
#    y -0.074870 1.749100 -0.062140 
#    z -0.074260 -0.062140 1.682290 
# 
# From -- ./inp_files/516253.got.cif
#   From: 2010.05.17/outbox.cif.g08.bks.cpg/sg2_259_cif.got.tgz:516253.got - 2010.06.03 11:33:40.
