data_PCOD9053238
_publ_section_title
;
Structure prediction by ZEFSAII (Michael W. Deem and Ramdas Pophale) SiO2 
 PCOD9053238
Probable space group: P -1
;
_chemical_formula_sum "Si O2"
_cell_formula_units_Z 12
_cell_length_a 9.209770
_cell_length_b 6.824195
_cell_length_c 19.362098
_cell_angle_alpha 49.522817
_cell_angle_beta 142.571670
_cell_angle_gamma 132.774708
_cell_volume 526.166216
_symmetry_space_group_name_H-M "P -1"
_symmetry_group_IT_number 2
_symmetry_cell_setting 'triclinic'
loop_
_space_group_symop_operation_xyz
x,y,z
-x,-y,-z
loop_
_atom_site_type_symbol
_atom_site_label
_atom_site_fract_x
_atom_site_fract_y
_atom_site_fract_z
Si Si1 0.619607 0.153344 0.579806
Si Si2 0.203502 0.693975 0.168345
Si Si3 0.953370 0.099159 0.178115
Si Si4 0.735491 0.098517 0.247882
Si Si5 0.345442 0.269779 0.575695
Si Si6 0.243127 0.330406 0.901870
O O1 0.817243 0.018824 0.712907
O O2 0.407332 0.130860 0.562756
O O3 0.739826 0.477358 0.532849
O O4 0.500000 0.000000 0.500000
O O5 0.427455 0.943947 0.161314
O O6 0.372297 0.600035 0.310581
O O7 0.992227 0.777819 0.109121
O O8 0.059812 0.425950 0.129958
O O9 0.853636 0.066405 0.226637
O O10 0.749701 0.909214 0.090901
O O11 0.801488 0.419219 0.213934
O O12 0.808710 0.943598 0.375241
O O13 0.500000 0.500000 0.000000
#
# Coordination Sequence:
#
# PCOD9053238 Si02
#       6
#     2   2   2   2   2   2
#     4  11  19  34  64  89 117 164 196 229 297 352
#     4   9  20  42  58  84 123 153 192 250 292 340
#     4  11  21  38  64  87 119 156 203 241 288 361
#     4   9  22  40  60  89 122 153 198 249 296 346
#     4   9  20  37  57  86 122 155 189 240 290 345
#     4  11  24  41  63  87 117 158 199 249 304 349
#
# _framework density 22.806483
#
# number of rings (size 3 to 8) (size 9 to 14) (size 15 to 20)
#    1.000    1.000    3.333    0.000    0.000    8.000 
#    0.000    3.333    0.000    0.000    0.000    0.000 
#    0.000    0.000    0.000    0.000    0.000    0.000 
#
# Total GULP energy -67027.059165 kJ/mol
# GULP energy per Si atom -5585.588264 kJ/mol
# Density = 2.275457 g / cm^3
# Si number density = 22.806483 Si / 1000 Ang^3
#
#
#
# Elastic Constant Matrix: (Units=GPa)
#
#
# Indices 1 2 3 4 5 6 
#
# 1 85.1536 70.9027 9.3740 5.1844 5.7597 6.9670
# 2 70.9027 120.5903 5.1505 21.4733 -9.8058 -14.3726
# 3 9.3740 5.1505 57.0336 13.2349 -7.5991 -4.8289
# 4 5.1844 21.4733 13.2349 37.9151 -3.9783 -8.1066
# 5 5.7597 -9.8058 -7.5991 -3.9783 30.7550 4.0190
# 6 6.9670 -14.3726 -4.8289 -8.1066 4.0190 41.0853
#
#
#
# Elastic Compliance Matrix: (Units=1/GPa)
#
#
# Indices 1 2 3 4 5 6 
#
# 1 0.032977 -0.022800 -0.007756 0.007238 -0.012884 -0.011791
# 2 -0.022800 0.025367 0.006152 -0.009996 0.011227 0.010393
# 3 -0.007756 0.006152 0.021460 -0.008387 0.007157 0.003635
# 4 0.007238 -0.009996 -0.008387 0.033987 -0.002379 0.001229
# 5 -0.012884 0.011227 0.007157 -0.002379 0.039627 0.002607
# 6 -0.011791 0.010393 0.003635 0.001229 0.002607 0.030389
#
#
# Mechanical properties :
#
#
# Convention : Reuss Voigt Hill
#
# Bulk Modulus (GPa) = 32.26130 48.18131 40.22131
# Shear Modulus (GPa) = 20.58069 33.77445 27.17757
#
# Velocity S-wave (km/s) = 3.00727 3.85244 3.45579
# Velocity P-wave (km/s) = 5.12197 6.40003 5.79633
#
# Compressibility (1/GPa) = 0.03099689
#
# Stress axis : x y z
#
# Youngs Moduli (GPa) = 30.32433 39.42168 46.59814
#
# Poissons Ratio (x) = 0.89880 0.36140
# Poissons Ratio (y) = 0.69139 -0.28667
# Poissons Ratio (z) = 0.23518 -0.24252
#
# Static dielectric constant tensor:
#      x y z
#    x 1.791950 0.026240 -0.002830 
#    y 0.026240 1.831140 0.027020 
#    z -0.002830 0.027020 1.976080 
# 
# From -- ./inp_files/50997.got.cif
#   From: 2010.05.17/outbox.cif.g08.bks.cpg/sg2_26_cif.got.tgz:50997.got - 2010.06.03 11:33:40.
