data_PCOD9053692
_publ_section_title
;
Structure prediction by ZEFSAII (Michael W. Deem and Ramdas Pophale) SiO2 
 PCOD9053692
Probable space group: P -1
;
_chemical_formula_sum "Si O2"
_cell_formula_units_Z 12
_cell_length_a 15.109163
_cell_length_b 8.375190
_cell_length_c 12.621124
_cell_angle_alpha 144.442876
_cell_angle_beta 29.082344
_cell_angle_gamma 132.474331
_cell_volume 447.811750
_symmetry_space_group_name_H-M "P -1"
_symmetry_group_IT_number 2
_symmetry_cell_setting 'triclinic'
loop_
_space_group_symop_operation_xyz
x,y,z
-x,-y,-z
loop_
_atom_site_type_symbol
_atom_site_label
_atom_site_fract_x
_atom_site_fract_y
_atom_site_fract_z
Si Si1 0.585177 0.315467 0.168021
Si Si2 0.800560 0.330274 0.728542
Si Si3 0.554146 0.790407 0.038624
Si Si4 0.019085 0.737709 0.190782
Si Si5 0.118077 0.548827 0.616585
Si Si6 0.639790 0.106804 0.326914
O O1 0.451378 0.597834 0.463746
O O2 0.491168 0.062546 0.176045
O O3 0.680401 0.320957 0.956175
O O4 0.765025 0.285704 0.034862
O O5 0.638391 0.337767 0.815515
O O6 0.942145 0.555132 0.725290
O O7 0.931299 0.043926 0.418327
O O8 0.637497 0.899786 0.118603
O O9 0.705519 0.609371 0.711580
O O10 0.932939 0.654375 0.346464
O O11 0.000000 0.500000 0.000000
O O12 0.182336 0.817109 0.752623
O O13 0.500000 0.000000 0.500000
#
# Coordination Sequence:
#
# PCOD9053692 Si02
#       6
#     2   2   2   2   2   2
#     4  11  20  41  68 103 134 174 223 283 335 405
#     4  11  21  39  69 109 138 168 222 290 346 395
#     4  12  22  44  76 100 133 178 228 287 343 398
#     4  11  20  35  67 109 142 167 220 289 348 398
#     4  11  23  43  67 100 140 175 226 281 343 398
#     4  12  28  46  67  98 142 187 230 276 339 409
#
# _framework density 26.796973999999999
#
# number of rings (size 3 to 8) (size 9 to 14) (size 15 to 20)
#    0.000    0.667    5.000    5.000    0.000    0.667 
#    0.000    4.167    0.000    0.000    0.000    0.000 
#    0.000    0.000    0.000    0.000    0.000    0.000 
#
# Total GULP energy -67229.490718 kJ/mol
# GULP energy per Si atom -5602.457560 kJ/mol
# Density = 2.673598 g / cm^3
# Si number density = 26.796974 Si / 1000 Ang^3
#
#
#
# Elastic Constant Matrix: (Units=GPa)
#
#
# Indices 1 2 3 4 5 6 
#
# 1 162.9844 54.0191 78.0510 8.3845 -37.1416 51.9442
# 2 54.0191 150.7396 55.5478 -2.1288 -5.6158 38.3544
# 3 78.0510 55.5478 116.8120 17.1931 4.4649 12.0681
# 4 8.3845 -2.1288 17.1931 48.2192 8.8595 13.6468
# 5 -37.1416 -5.6158 4.4649 8.8595 47.5773 -19.3025
# 6 51.9442 38.3544 12.0681 13.6468 -19.3025 68.4414
#
#
#
# Elastic Compliance Matrix: (Units=1/GPa)
#
#
# Indices 1 2 3 4 5 6 
#
# 1 0.015647 0.000693 -0.010562 0.001529 0.009778 -0.007948
# 2 0.000693 0.009875 -0.005070 0.004119 -0.001145 -0.006310
# 3 -0.010562 -0.005070 0.018412 -0.005646 -0.006748 0.006833
# 4 0.001529 0.004119 -0.005646 0.026628 -0.006670 -0.009664
# 5 0.009778 -0.001145 -0.006748 -0.006670 0.032367 0.004868
# 6 -0.007948 -0.006310 0.006833 -0.009664 0.004868 0.026275
#
#
# Mechanical properties :
#
#
# Convention : Reuss Voigt Hill
#
# Bulk Modulus (GPa) = 71.14125 89.53022 80.33574
# Shear Modulus (GPa) = 30.53141 49.04210 39.78676
#
# Velocity S-wave (km/s) = 3.37910 4.28265 3.85742
# Velocity P-wave (km/s) = 6.46764 7.61169 7.06287
#
# Compressibility (1/GPa) = 0.01405654
#
# Stress axis : x y z
#
# Youngs Moduli (GPa) = 63.91137 101.26790 54.31289
#
# Poissons Ratio (x) = -0.07020 0.57365
# Poissons Ratio (y) = -0.04431 0.27535
# Poissons Ratio (z) = 0.67503 0.51339
#
# Static dielectric constant tensor:
#      x y z
#    x 2.213510 0.062040 0.001660 
#    y 0.062040 2.958320 -0.164480 
#    z 0.001660 -0.164480 2.035760 
# 
# From -- ./inp_files/231571.got.cif
#   From: 2010.05.17/outbox.cif.g08.bks.cpg/sg2_116_cif.got.tgz:231571.got - 2010.06.03 11:33:40.
