data_PCOD9053107
_publ_section_title
;
Structure prediction by ZEFSAII (Michael W. Deem and Ramdas Pophale) SiO2 
 PCOD9053107
Probable space group: P -1
;
_chemical_formula_sum "Si O2"
_cell_formula_units_Z 16
_cell_length_a 14.786624
_cell_length_b 11.417603
_cell_length_c 11.530894
_cell_angle_alpha 39.247950
_cell_angle_beta 63.061966
_cell_angle_gamma 43.381151
_cell_volume 818.501385
_symmetry_space_group_name_H-M "P -1"
_symmetry_group_IT_number 2
_symmetry_cell_setting 'triclinic'
loop_
_space_group_symop_operation_xyz
x,y,z
-x,-y,-z
loop_
_atom_site_type_symbol
_atom_site_label
_atom_site_fract_x
_atom_site_fract_y
_atom_site_fract_z
Si Si1 0.985609 0.001065 0.848538
Si Si2 0.240240 0.444210 0.073630
Si Si3 0.463589 0.493688 0.892536
Si Si4 0.746586 0.027329 0.983041
Si Si5 0.722182 0.980447 0.496109
Si Si6 0.857651 0.618458 0.052955
Si Si7 0.888975 0.784770 0.313579
Si Si8 0.985191 0.852772 0.531136
O O1 0.040286 0.098962 0.823403
O O2 0.989754 0.094144 0.649595
O O3 0.094699 0.699737 0.007803
O O4 0.834170 0.109584 0.867927
O O5 0.290762 0.212181 0.301435
O O6 0.342241 0.492365 0.973841
O O7 0.222488 0.389745 0.995136
O O8 0.592785 0.251299 0.937260
O O9 0.410592 0.732663 0.664483
O O10 0.500000 0.500000 0.000000
O O11 0.776333 0.885263 0.954723
O O12 0.814964 0.834644 0.198376
O O13 0.784715 0.909000 0.385307
O O14 0.835678 0.940876 0.542573
O O15 0.905251 0.429096 0.274878
O O16 0.000000 0.500000 0.000000
O O17 0.000000 0.500000 0.500000
O O18 0.000000 0.000000 0.500000
#
# Coordination Sequence:
#
# PCOD9053107 Si02
#       8
#     2   2   2   2   2   2   2   2
#     4  11  21  39  67 102 131 178 223 290 337 392
#     4  12  23  44  75  99 137 185 227 275 351 400
#     4  12  26  50  65  96 145 185 228 281 338 415
#     4  12  24  42  67  98 137 179 227 280 341 404
#     4  11  23  42  68  99 134 184 223 278 341 406
#     4  12  22  41  71 102 135 172 227 291 336 400
#     4  11  22  40  66 102 136 164 235 293 332 395
#     4  11  18  36  68 103 135 171 225 279 343 398
#
# _framework density 19.547920000000001
#
# number of rings (size 3 to 8) (size 9 to 14) (size 15 to 20)
#    0.000    0.500    7.500    2.625    0.000    2.000 
#    4.500    0.625    0.000    0.000    0.000    0.000 
#    0.000    0.000    0.000    0.000    0.000    0.000 
#
# Total GULP energy -89390.598840 kJ/mol
# GULP energy per Si atom -5586.912427 kJ/mol
# Density = 1.950343 g / cm^3
# Si number density = 19.547920 Si / 1000 Ang^3
#
#
#
# Elastic Constant Matrix: (Units=GPa)
#
#
# Indices 1 2 3 4 5 6 
#
# 1 80.1514 17.0785 6.9660 5.4389 7.2124 18.9121
# 2 17.0785 90.3155 1.3626 -5.3536 1.0033 6.7071
# 3 6.9660 1.3626 112.5785 -12.7642 -3.0486 -4.7953
# 4 5.4389 -5.3536 -12.7642 20.0606 4.5211 0.7326
# 5 7.2124 1.0033 -3.0486 4.5211 23.8346 2.7690
# 6 18.9121 6.7071 -4.7953 0.7326 2.7690 34.9493
#
#
#
# Elastic Compliance Matrix: (Units=1/GPa)
#
#
# Indices 1 2 3 4 5 6 
#
# 1 0.015696 -0.002629 -0.001951 -0.005239 -0.002976 -0.007911
# 2 -0.002629 0.011884 0.000459 0.004289 -0.000360 -0.000857
# 3 -0.001951 0.000459 0.009867 0.006784 0.000296 0.002156
# 4 -0.005239 0.004289 0.006784 0.058703 -0.009146 0.002437
# 5 -0.002976 -0.000360 0.000296 -0.009146 0.044835 -0.001641
# 6 -0.007911 -0.000857 0.002156 0.002437 -0.001641 0.033433
#
#
# Mechanical properties :
#
#
# Convention : Reuss Voigt Hill
#
# Bulk Modulus (GPa) = 34.23998 37.09554 35.66776
# Shear Modulus (GPa) = 25.98832 32.94479 29.46656
#
# Velocity S-wave (km/s) = 3.65014 4.10974 3.88674
# Velocity P-wave (km/s) = 5.94295 6.44499 6.19905
#
# Compressibility (1/GPa) = 0.02920562
#
# Stress axis : x y z
#
# Youngs Moduli (GPa) = 63.71043 84.14479 101.34923
#
# Poissons Ratio (x) = 0.22119 0.19773
# Poissons Ratio (y) = 0.16747 -0.04650
# Poissons Ratio (z) = 0.12430 -0.03861
#
# Static dielectric constant tensor:
#      x y z
#    x 1.743210 0.074190 0.038250 
#    y 0.074190 1.761310 0.030650 
#    z 0.038250 0.030650 1.765030 
# 
# From -- ./inp_files/450989.got.cif
#   From: 2010.05.17/outbox.cif.g08.bks.cpg/sg2_226_cif.got.tgz:450989.got - 2010.06.03 11:33:40.
