data_PCOD9053030
_publ_section_title
;
Structure prediction by ZEFSAII (Michael W. Deem and Ramdas Pophale) SiO2 
 PCOD9053030
Probable space group: P -1
;
_chemical_formula_sum "Si O2"
_cell_formula_units_Z 14
_cell_length_a 14.012952
_cell_length_b 9.729633
_cell_length_c 14.004363
_cell_angle_alpha 117.788197
_cell_angle_beta 30.083802
_cell_angle_gamma 135.385334
_cell_volume 608.362244
_symmetry_space_group_name_H-M "P -1"
_symmetry_group_IT_number 2
_symmetry_cell_setting 'triclinic'
loop_
_space_group_symop_operation_xyz
x,y,z
-x,-y,-z
loop_
_atom_site_type_symbol
_atom_site_label
_atom_site_fract_x
_atom_site_fract_y
_atom_site_fract_z
Si Si1 0.844194 0.381502 0.980227
Si Si2 0.604521 0.781017 0.814457
Si Si3 0.063822 0.672667 0.570930
Si Si4 0.675593 0.874850 0.575255
Si Si5 0.799933 0.221377 0.311178
Si Si6 0.848675 0.025962 0.882493
Si Si7 0.281568 0.323128 0.003587
O O1 0.869664 0.220325 0.937254
O O2 0.107998 0.623426 0.806670
O O3 0.674096 0.294725 0.999796
O O4 0.633776 0.341536 0.220932
O O5 0.765540 0.900635 0.616041
O O6 0.710472 0.908768 0.862515
O O7 0.526247 0.555130 0.822359
O O8 0.164350 0.667823 0.583791
O O9 0.000000 0.500000 0.500000
O O10 0.805087 0.628490 0.810194
O O11 0.269645 0.914996 0.429658
O O12 0.856528 0.878117 0.350320
O O13 0.019967 0.208540 0.127615
O O14 0.500000 0.000000 0.500000
O O15 0.700567 0.844160 0.034260
#
# Coordination Sequence:
#
# PCOD9053030 Si02
#       7
#     2   2   2   2   2   2   2
#     4   9  21  33  56  81 107 156 193 229 279 351
#     4   9  18  32  50  78 117 154 181 222 290 346
#     4   9  18  31  55  83 115 142 185 239 279 331
#     4   9  20  33  50  84 119 145 184 239 283 331
#     4   9  19  40  60  77 111 160 191 228 293 347
#     4  11  18  32  53  81 119 147 189 231 290 336
#     4   8  19  33  52  80 112 154 183 237 284 337
#
# _framework density 23.012606000000002
#
# number of rings (size 3 to 8) (size 9 to 14) (size 15 to 20)
#    1.714    1.143    0.000    1.286    4.000    0.000 
#    0.000    1.429    0.000    0.857    0.000    0.000 
#    0.000    0.000    0.000    0.000    0.000    0.000 
#
# Total GULP energy -78037.437453 kJ/mol
# GULP energy per Si atom -5574.102675 kJ/mol
# Density = 2.296023 g / cm^3
# Si number density = 23.012606 Si / 1000 Ang^3
#
#
#
# Elastic Constant Matrix: (Units=GPa)
#
#
# Indices 1 2 3 4 5 6 
#
# 1 86.3301 22.5418 5.5051 -5.6842 2.8281 -14.8964
# 2 22.5418 66.4618 27.0293 -4.1387 -2.1538 -31.6923
# 3 5.5051 27.0293 71.6368 -20.0825 11.9497 -2.4998
# 4 -5.6842 -4.1387 -20.0825 20.8474 -11.4346 2.3451
# 5 2.8281 -2.1538 11.9497 -11.4346 24.9972 -12.5986
# 6 -14.8964 -31.6923 -2.4998 2.3451 -12.5986 35.7902
#
#
#
# Elastic Compliance Matrix: (Units=1/GPa)
#
#
# Indices 1 2 3 4 5 6 
#
# 1 0.013116 -0.003980 0.001750 0.004430 0.000308 0.001875
# 2 -0.003980 0.073456 -0.033233 0.010517 0.070397 0.085159
# 3 0.001750 -0.033233 0.034177 0.013091 -0.032951 -0.038769
# 4 0.004430 0.010517 0.013091 0.085826 0.044562 0.022133
# 5 0.000308 0.070397 -0.032951 0.044562 0.134968 0.104754
# 6 0.001875 0.085159 -0.038769 0.022133 0.104754 0.136846
#
#
# Mechanical properties :
#
#
# Convention : Reuss Voigt Hill
#
# Bulk Modulus (GPa) = 20.07116 37.17569 28.62342
# Shear Modulus (GPa) = 8.83512 27.61713 18.22612
#
# Velocity S-wave (km/s) = 1.96153 3.46799 2.81731
# Velocity P-wave (km/s) = 3.72436 5.67675 4.80085
#
# Compressibility (1/GPa) = 0.04982274
#
# Stress axis : x y z
#
# Youngs Moduli (GPa) = 76.24114 13.61361 29.25909
#
# Poissons Ratio (x) = 0.05419 -0.05120
# Poissons Ratio (y) = 0.30347 0.97236
# Poissons Ratio (z) = -0.13340 0.45242
#
# Static dielectric constant tensor:
#      x y z
#    x 1.956230 -0.000910 -0.081150 
#    y -0.000910 1.831200 -0.028820 
#    z -0.081150 -0.028820 1.965520 
# 
# From -- ./inp_files/572016.got.cif
#   From: 2010.05.17/outbox.cif.g08.bks.cpg/sg2_287_cif.got.tgz:572016.got - 2010.06.03 11:33:40.
