data_PCOD9053669
_publ_section_title
;
Structure prediction by ZEFSAII (Michael W. Deem and Ramdas Pophale) SiO2 
 PCOD9053669
Probable space group: P -1
;
_chemical_formula_sum "Si O2"
_cell_formula_units_Z 16
_cell_length_a 13.017384
_cell_length_b 18.924314
_cell_length_c 22.346493
_cell_angle_alpha 17.857511
_cell_angle_beta 154.189680
_cell_angle_gamma 144.570739
_cell_volume 697.605748
_symmetry_space_group_name_H-M "P -1"
_symmetry_group_IT_number 2
_symmetry_cell_setting 'triclinic'
loop_
_space_group_symop_operation_xyz
x,y,z
-x,-y,-z
loop_
_atom_site_type_symbol
_atom_site_label
_atom_site_fract_x
_atom_site_fract_y
_atom_site_fract_z
Si Si1 0.492845 0.093274 0.715049
Si Si2 0.252401 0.042760 0.294282
Si Si3 0.513633 0.756003 0.278300
Si Si4 0.093497 0.076624 0.716661
Si Si5 0.389544 0.849343 0.392993
Si Si6 0.900322 0.951880 0.598887
Si Si7 0.947393 0.441574 0.172006
Si Si8 0.376521 0.619021 0.050612
O O1 0.556321 0.084580 0.826083
O O2 0.673684 0.123570 0.732641
O O3 0.228837 0.314611 0.398007
O O4 0.458379 0.834338 0.892258
O O5 0.500000 0.000000 0.500000
O O6 0.271407 0.015465 0.254212
O O7 0.092035 0.322961 0.998008
O O8 0.113021 0.851069 0.398009
O O9 0.500000 0.500000 0.500000
O O10 0.777821 0.757191 0.387484
O O11 0.320687 0.873530 0.030342
O O12 0.947199 0.964959 0.682678
O O13 0.666485 0.875416 0.518884
O O14 0.414979 0.577474 0.645401
O O15 0.886847 0.216634 0.353631
O O16 0.147191 0.759528 0.858624
O O17 0.745407 0.510700 0.957581
#
# Coordination Sequence:
#
# PCOD9053669 Si02
#       8
#     2   2   2   2   2   2   2   2
#     4  11  23  41  65  99 126 167 232 275 328 385
#     4  12  25  41  62 104 144 181 209 259 341 412
#     4  11  25  44  72  98 122 174 229 293 325 365
#     4  11  24  43  66  97 136 164 228 276 321 395
#     4  12  24  37  63 100 142 176 209 260 341 408
#     4  11  20  37  63 101 131 171 217 277 329 389
#     4  11  20  37  63  96 139 173 219 269 329 394
#     4  11  20  35  61  97 135 171 213 277 331 384
#
# _framework density 22.935590999999999
#
# number of rings (size 3 to 8) (size 9 to 14) (size 15 to 20)
#    0.000    0.750    7.500    1.875    3.500    0.500 
#    2.250    0.625    0.000    1.500    0.000    0.000 
#    0.000    0.000    0.000    0.000    0.000    0.000 
#
# Total GULP energy -89250.898761 kJ/mol
# GULP energy per Si atom -5578.181173 kJ/mol
# Density = 2.288339 g / cm^3
# Si number density = 22.935591 Si / 1000 Ang^3
#
#
#
# Elastic Constant Matrix: (Units=GPa)
#
#
# Indices 1 2 3 4 5 6 
#
# 1 139.8346 15.7010 42.3185 -23.9149 -9.8728 -6.5402
# 2 15.7010 34.6200 -2.7138 -20.4842 4.9746 17.1482
# 3 42.3185 -2.7138 -21.1421 -45.3670 39.0143 32.1732
# 4 -23.9149 -20.4842 -45.3670 30.7211 2.7563 8.2047
# 5 -9.8728 4.9746 39.0143 2.7563 0.7840 -11.6114
# 6 -6.5402 17.1482 32.1732 8.2047 -11.6114 21.6946
#
#
#
# Elastic Compliance Matrix: (Units=1/GPa)
#
#
# Indices 1 2 3 4 5 6 
#
# 1 0.008418 0.001933 0.000683 0.009008 0.003233 -0.001679
# 2 0.001933 0.038033 -0.008913 0.014574 0.021245 -0.010403
# 3 0.000683 -0.008913 0.004220 -0.003166 0.014618 0.010014
# 4 0.009008 0.014574 -0.003166 0.041200 0.037238 0.000240
# 5 0.003233 0.021245 0.014618 0.037238 0.063640 -0.017518
# 6 -0.001679 -0.010403 0.010014 0.000240 -0.017518 0.029493
#
#
# Mechanical properties :
#
#
# Convention : Reuss Voigt Hill
#
# Bulk Modulus (GPa) = 26.26326 29.32486 27.79406
# Shear Modulus (GPa) = 23.77656 17.17374 20.47515
#
# Velocity S-wave (km/s) = 3.22322 2.73936 2.99109
# Velocity P-wave (km/s) = 5.03269 4.77692 4.90647
#
# Compressibility (1/GPa) = 0.03807600
#
# Stress axis : x y z
#
# Youngs Moduli (GPa) = 118.79239 26.29279 236.98764
#
# Poissons Ratio (x) = -0.05082 -0.16180
# Poissons Ratio (y) = -0.22961 2.11228
# Poissons Ratio (z) = -0.08110 0.23435
#
# Static dielectric constant tensor:
#      x y z
#    x 2.041250 0.012130 0.011400 
#    y 0.012130 1.913610 0.041830 
#    z 0.011400 0.041830 1.869590 
# 
# From -- ./inp_files/595966.got.cif
#   From: 2010.05.17/outbox.cif.g08.bks.cpg/sg2_298_cif.got.tgz:595966.got - 2010.06.03 11:33:40.
