data_PCOD9053150
_publ_section_title
;
Structure prediction by ZEFSAII (Michael W. Deem and Ramdas Pophale) SiO2 
 PCOD9053150
Probable space group: P -1
;
_chemical_formula_sum "Si O2"
_cell_formula_units_Z 14
_cell_length_a 7.185416
_cell_length_b 11.878220
_cell_length_c 15.410802
_cell_angle_alpha 27.605742
_cell_angle_beta 93.796511
_cell_angle_gamma 107.386447
_cell_volume 519.701061
_symmetry_space_group_name_H-M "P -1"
_symmetry_group_IT_number 2
_symmetry_cell_setting 'triclinic'
loop_
_space_group_symop_operation_xyz
x,y,z
-x,-y,-z
loop_
_atom_site_type_symbol
_atom_site_label
_atom_site_fract_x
_atom_site_fract_y
_atom_site_fract_z
Si Si1 0.533095 0.983782 0.693077
Si Si2 0.313592 0.624888 0.780454
Si Si3 0.944658 0.897849 0.744930
Si Si4 0.328848 0.507331 0.329800
Si Si5 0.199772 0.235369 0.901986
Si Si6 0.270161 0.454345 0.168324
Si Si7 0.238118 0.762852 0.313710
O O1 0.411297 0.916564 0.641564
O O2 0.749176 0.964309 0.697119
O O3 0.624166 0.220304 0.609628
O O4 0.356336 0.722231 0.925060
O O5 0.200704 0.501821 0.766582
O O6 0.531709 0.606092 0.790077
O O7 0.136941 0.370840 0.010888
O O8 0.938953 0.795233 0.716264
O O9 0.173259 0.180655 0.578474
O O10 0.580120 0.622786 0.242660
O O11 0.242418 0.511873 0.227205
O O12 0.318699 0.709075 0.262656
O O13 0.225821 0.044320 0.107229
O O14 0.000000 0.000000 0.000000
O O15 0.000000 0.500000 0.500000
#
# Coordination Sequence:
#
# PCOD9053150 Si02
#       7
#     2   2   2   2   2   2   2
#     4   9  15  29  51  78 105 136 177 225 259 305
#     4   8  15  31  52  72 103 142 182 214 256 314
#     4   9  14  27  48  81 103 130 177 228 261 298
#     4  11  19  30  52  82 110 136 176 231 268 312
#     4  11  23  38  54  78 113 147 176 219 277 322
#     4   8  15  25  47  77 108 128 172 229 267 294
#     4  12  21  35  56  83 110 140 181 224 269 318
#
# _framework density 26.938562999999998
#
# number of rings (size 3 to 8) (size 9 to 14) (size 15 to 20)
#    0.000    2.286    5.714    2.571    0.000    0.000 
#    0.000    2.857    0.000    1.714    0.000    0.000 
#    0.000    0.000    0.000    0.000    0.000    0.000 
#
# Total GULP energy -78242.279649 kJ/mol
# GULP energy per Si atom -5588.734261 kJ/mol
# Density = 2.687725 g / cm^3
# Si number density = 26.938563 Si / 1000 Ang^3
#
#
#
# Elastic Constant Matrix: (Units=GPa)
#
#
# Indices 1 2 3 4 5 6 
#
# 1 81.0909 37.4717 51.9368 0.5592 -18.2160 10.5394
# 2 37.4717 266.7051 41.5025 -17.3404 -14.3736 0.9564
# 3 51.9368 41.5025 118.5338 -28.9940 -19.2198 -1.0909
# 4 0.5592 -17.3404 -28.9940 56.3993 7.4235 -14.3129
# 5 -18.2160 -14.3736 -19.2198 7.4235 46.5517 -5.2563
# 6 10.5394 0.9564 -1.0909 -14.3129 -5.2563 16.0794
#
#
#
# Elastic Compliance Matrix: (Units=1/GPa)
#
#
# Indices 1 2 3 4 5 6 
#
# 1 0.029908 -0.002560 -0.016858 -0.019529 0.002885 -0.037035
# 2 -0.002560 0.004224 0.000337 0.002379 0.000483 0.003726
# 3 -0.016858 0.000337 0.020810 0.018090 0.002531 0.029372
# 4 -0.019529 0.002379 0.018090 0.040684 -0.000279 0.050009
# 5 0.002885 0.000483 0.002531 -0.000279 0.024529 0.006022
# 6 -0.037035 0.003726 0.029372 0.050009 0.006022 0.134721
#
#
# Mechanical properties :
#
#
# Convention : Reuss Voigt Hill
#
# Bulk Modulus (GPa) = 59.59071 80.90575 70.24823
# Shear Modulus (GPa) = 16.74301 46.16733 31.45517
#
# Velocity S-wave (km/s) = 2.49575 4.14430 3.42082
# Velocity P-wave (km/s) = 5.52033 7.28004 6.46038
#
# Compressibility (1/GPa) = 0.01678114
#
# Stress axis : x y z
#
# Youngs Moduli (GPa) = 33.43549 236.74104 48.05270
#
# Poissons Ratio (x) = 0.60609 0.81008
# Poissons Ratio (y) = 0.08560 -0.01621
# Poissons Ratio (z) = 0.56366 -0.07988
#
# Static dielectric constant tensor:
#      x y z
#    x 2.200430 -0.022510 0.115230 
#    y -0.022510 2.228910 -0.025290 
#    z 0.115230 -0.025290 2.108710 
# 
# From -- ./inp_files/258215.got.cif
#   From: 2010.05.17/outbox.cif.g08.bks.cpg/sg2_130_cif.got.tgz:258215.got - 2010.06.03 11:33:40.
