data_PCOD9053289
_publ_section_title
;
Structure prediction by ZEFSAII (Michael W. Deem and Ramdas Pophale) SiO2 
 PCOD9053289
Probable space group: P -1
;
_chemical_formula_sum "Si O2"
_cell_formula_units_Z 12
_cell_length_a 14.961678
_cell_length_b 6.985444
_cell_length_c 9.412270
_cell_angle_alpha 131.039434
_cell_angle_beta 75.788434
_cell_angle_gamma 131.740387
_cell_volume 520.560873
_symmetry_space_group_name_H-M "P -1"
_symmetry_group_IT_number 2
_symmetry_cell_setting 'triclinic'
loop_
_space_group_symop_operation_xyz
x,y,z
-x,-y,-z
loop_
_atom_site_type_symbol
_atom_site_label
_atom_site_fract_x
_atom_site_fract_y
_atom_site_fract_z
Si Si1 0.075076 0.762536 0.320230
Si Si2 0.207773 0.525374 0.156098
Si Si3 0.857101 0.650137 0.223626
Si Si4 0.576033 0.348580 0.736817
Si Si5 0.574148 0.126169 0.180174
Si Si6 0.348609 0.254869 0.359664
O O1 0.100117 0.521831 0.246903
O O2 0.950179 0.595869 0.200713
O O3 0.087272 0.988393 0.552096
O O4 0.198607 0.047740 0.311518
O O5 0.277653 0.455127 0.191777
O O6 0.328675 0.939663 0.277459
O O7 0.160598 0.341959 0.932869
O O8 0.719888 0.331987 0.189756
O O9 0.587277 0.604693 0.749948
O O10 0.500000 0.000000 0.500000
O O11 0.497069 0.196396 0.839233
O O12 0.590572 0.432671 0.401066
O O13 0.500000 0.000000 0.000000
#
# Coordination Sequence:
#
# PCOD9053289 Si02
#       6
#     2   2   2   2   2   2
#     4   8  19  35  61  82 109 147 191 232 280 334
#     4  10  19  35  64  79 110 154 187 227 287 335
#     4  10  17  35  60  84 111 147 189 233 279 332
#     4  10  20  35  57  82 118 149 184 234 279 332
#     4  10  18  33  56  79 115 151 179 232 283 325
#     4   8  20  36  56  86 105 149 192 225 286 323
#
# _framework density 23.052057000000001
#
# number of rings (size 3 to 8) (size 9 to 14) (size 15 to 20)
#    1.000    1.667    1.667    0.500    0.000    2.667 
#    0.000    1.667   18.333   10.000    0.000    0.000 
#    0.000    0.000    0.000    0.000    0.000    0.000 
#
# Total GULP energy -66923.868835 kJ/mol
# GULP energy per Si atom -5576.989070 kJ/mol
# Density = 2.299959 g / cm^3
# Si number density = 23.052057 Si / 1000 Ang^3
#
#
#
# Elastic Constant Matrix: (Units=GPa)
#
#
# Indices 1 2 3 4 5 6 
#
# 1 90.8421 13.8756 40.4832 -10.0723 30.0068 12.3939
# 2 13.8756 49.3381 27.7280 -13.1543 8.4909 -4.0174
# 3 40.4832 27.7280 120.2031 -5.1433 14.1977 9.1970
# 4 -10.0723 -13.1543 -5.1433 14.7311 4.3913 1.9825
# 5 30.0068 8.4909 14.1977 4.3913 41.1886 12.3695
# 6 12.3939 -4.0174 9.1970 1.9825 12.3695 33.6588
#
#
#
# Elastic Compliance Matrix: (Units=1/GPa)
#
#
# Indices 1 2 3 4 5 6 
#
# 1 0.020536 0.006064 -0.005340 0.022622 -0.016598 -0.000612
# 2 0.006064 0.036012 -0.007504 0.037284 -0.015519 0.007623
# 3 -0.005340 -0.007504 0.011401 -0.006916 0.003076 -0.002768
# 4 0.022622 0.037284 -0.006916 0.124499 -0.036258 0.004002
# 5 -0.016598 -0.015519 0.003076 -0.036258 0.045757 -0.011261
# 6 -0.000612 0.007623 -0.002768 0.004002 -0.011261 0.035504
#
#
# Mechanical properties :
#
#
# Convention : Reuss Voigt Hill
#
# Bulk Modulus (GPa) = 18.38621 47.17299 32.77960
# Shear Modulus (GPa) = 16.37196 29.80213 23.08704
#
# Velocity S-wave (km/s) = 2.66788 3.59948 3.16811
# Velocity P-wave (km/s) = 4.18131 6.14680 5.25673
#
# Compressibility (1/GPa) = 0.05438857
#
# Stress axis : x y z
#
# Youngs Moduli (GPa) = 48.69487 27.76832 87.70940
#
# Poissons Ratio (x) = -0.16838 0.46835
# Poissons Ratio (y) = -0.29527 0.65820
# Poissons Ratio (z) = 0.26002 0.20838
#
# Static dielectric constant tensor:
#      x y z
#    x 1.919040 0.023090 -0.056560 
#    y 0.023090 1.859910 0.019110 
#    z -0.056560 0.019110 1.853100 
# 
# From -- ./inp_files/162907.got.cif
#   From: 2010.05.17/outbox.cif.g08.bks.cpg/sg2_82_cif.got.tgz:162907.got - 2010.06.03 11:33:40.
