data_PCOD9053323
_publ_section_title
;
Structure prediction by ZEFSAII (Michael W. Deem and Ramdas Pophale) SiO2 
 PCOD9053323
Probable space group: P -1
;
_chemical_formula_sum "Si O2"
_cell_formula_units_Z 14
_cell_length_a 9.205257
_cell_length_b 14.090277
_cell_length_c 17.202260
_cell_angle_alpha 156.715851
_cell_angle_beta 130.746555
_cell_angle_gamma 50.975135
_cell_volume 664.806769
_symmetry_space_group_name_H-M "P -1"
_symmetry_group_IT_number 2
_symmetry_cell_setting 'triclinic'
loop_
_space_group_symop_operation_xyz
x,y,z
-x,-y,-z
loop_
_atom_site_type_symbol
_atom_site_label
_atom_site_fract_x
_atom_site_fract_y
_atom_site_fract_z
Si Si1 0.210275 0.856937 0.963344
Si Si2 0.335610 0.534668 0.033392
Si Si3 0.838224 0.339152 0.360764
Si Si4 0.558277 0.774916 0.586635
Si Si5 0.643597 0.675040 0.360053
Si Si6 0.161811 0.047829 0.654255
Si Si7 0.936145 0.022044 0.711496
O O1 0.251087 0.813008 0.853286
O O2 0.229943 0.583603 0.795788
O O3 0.351304 0.007335 0.174507
O O4 0.000000 0.000000 0.000000
O O5 0.441772 0.635128 0.220880
O O6 0.164449 0.736431 0.102356
O O7 0.500000 0.500000 0.000000
O O8 0.258361 0.283164 0.837671
O O9 0.668046 0.530548 0.476270
O O10 0.000000 0.500000 0.500000
O O11 0.942136 0.157225 0.321889
O O12 0.612449 0.757515 0.500759
O O13 0.329690 0.827027 0.551933
O O14 0.762732 0.870402 0.508170
O O15 0.000000 0.000000 0.500000
O O16 0.064486 0.088684 0.734796
#
# Coordination Sequence:
#
# PCOD9053323 Si02
#       7
#     2   2   2   2   2   2   2
#     4  11  19  36  71  99 138 177 237 286 337 396
#     4  12  26  44  75 101 134 191 242 287 352 415
#     4  11  22  41  69 105 139 182 234 295 336 417
#     4  11  22  44  73  99 144 185 235 284 346 416
#     4  11  22  42  72 104 132 181 241 288 335 419
#     4  12  27  48  69 103 149 182 229 297 356 417
#     4  12  24  44  68 107 145 180 231 292 355 410
#
# _framework density 21.05875
#
# number of rings (size 3 to 8) (size 9 to 14) (size 15 to 20)
#    0.000    0.571    5.714    3.429    2.000    0.571 
#    2.571    0.714    0.000    0.000    0.000    0.000 
#    0.000    0.000    0.000    0.000    0.000    0.000 
#
# Total GULP energy -78289.355572 kJ/mol
# GULP energy per Si atom -5592.096827 kJ/mol
# Density = 2.101082 g / cm^3
# Si number density = 21.058750 Si / 1000 Ang^3
#
#
#
# Elastic Constant Matrix: (Units=GPa)
#
#
# Indices 1 2 3 4 5 6 
#
# 1 116.4141 46.3858 41.8492 16.4342 -6.6539 -4.6289
# 2 46.3858 136.6515 55.1320 17.7110 -1.0962 -18.0256
# 3 41.8492 55.1320 113.2229 -2.3013 -12.9401 0.4886
# 4 16.4342 17.7110 -2.3013 55.6584 -8.1753 -8.3880
# 5 -6.6539 -1.0962 -12.9401 -8.1753 30.8316 8.0348
# 6 -4.6289 -18.0256 0.4886 -8.3880 8.0348 40.9880
#
#
#
# Elastic Compliance Matrix: (Units=1/GPa)
#
#
# Indices 1 2 3 4 5 6 
#
# 1 0.010918 -0.002209 -0.002964 -0.002631 0.000421 -0.000324
# 2 -0.002209 0.011179 -0.005208 -0.003012 -0.004358 0.004967
# 3 -0.002964 -0.005208 0.013301 0.003543 0.006569 -0.003346
# 4 -0.002631 -0.003012 0.003543 0.020946 0.005989 0.001449
# 5 0.000421 -0.004358 0.006569 0.005989 0.038890 -0.008345
# 6 -0.000324 0.004967 -0.003346 0.001449 -0.008345 0.028517
#
#
# Mechanical properties :
#
#
# Convention : Reuss Voigt Hill
#
# Bulk Modulus (GPa) = 68.32023 72.55807 70.43915
# Shear Modulus (GPa) = 33.46884 40.35704 36.91294
#
# Velocity S-wave (km/s) = 3.99094 4.38242 4.19125
# Velocity P-wave (km/s) = 7.33143 7.75483 7.54610
#
# Compressibility (1/GPa) = 0.01463695
#
# Stress axis : x y z
#
# Youngs Moduli (GPa) = 91.59069 89.45018 75.18292
#
# Poissons Ratio (x) = 0.19757 0.22285
# Poissons Ratio (y) = 0.20229 0.39155
# Poissons Ratio (z) = 0.27148 0.46586
#
# Static dielectric constant tensor:
#      x y z
#    x 1.747340 -0.009540 -0.020590 
#    y -0.009540 1.814540 0.001810 
#    z -0.020590 0.001810 1.764060 
# 
# From -- ./inp_files/561476.got.cif
#   From: 2010.05.17/outbox.cif.g08.bks.cpg/sg2_281_cif.got.tgz:561476.got - 2010.06.03 11:33:40.
