data_PCOD9053390
_publ_section_title
;
Structure prediction by ZEFSAII (Michael W. Deem and Ramdas Pophale) SiO2 
 PCOD9053390
Probable space group: P -1
;
_chemical_formula_sum "Si O2"
_cell_formula_units_Z 16
_cell_length_a 15.350700
_cell_length_b 9.647466
_cell_length_c 22.483104
_cell_angle_alpha 52.506112
_cell_angle_beta 159.860858
_cell_angle_gamma 117.488710
_cell_volume 832.737815
_symmetry_space_group_name_H-M "P -1"
_symmetry_group_IT_number 2
_symmetry_cell_setting 'triclinic'
loop_
_space_group_symop_operation_xyz
x,y,z
-x,-y,-z
loop_
_atom_site_type_symbol
_atom_site_label
_atom_site_fract_x
_atom_site_fract_y
_atom_site_fract_z
Si Si1 0.237013 0.451662 0.944282
Si Si2 0.929131 0.120463 0.309147
Si Si3 0.633802 0.848447 0.341071
Si Si4 0.418562 0.755717 0.669490
Si Si5 0.699446 0.355036 0.618850
Si Si6 0.306157 0.961747 0.225560
Si Si7 0.242425 0.579590 0.493351
Si Si8 0.619504 0.810844 0.999518
O O1 0.108592 0.680357 0.798714
O O2 0.995137 0.370623 0.814489
O O3 0.453652 0.370953 0.157273
O O4 0.382572 0.359732 0.999690
O O5 0.629318 0.129314 0.129320
O O6 0.093972 0.116800 0.476856
O O7 0.126472 0.931394 0.450520
O O8 0.490674 0.866157 0.310026
O O9 0.721816 0.639098 0.425436
O O10 0.439395 0.011156 0.129520
O O11 0.383243 0.634148 0.624547
O O12 0.627109 0.857707 0.763950
O O13 0.500000 0.500000 0.500000
O O14 0.664344 0.164343 0.664345
O O15 0.631390 0.400787 0.494550
O O16 0.000000 0.000000 0.000000
O O17 0.920510 0.725440 0.244555
#
# Coordination Sequence:
#
# PCOD9053390 Si02
#       8
#     2   2   2   2   2   2   2   2
#     4  11  21  39  64  94 121 164 208 260 300 369
#     4  11  22  39  68  93 120 165 219 256 301 369
#     4  11  21  39  64  94 121 164 208 260 300 369
#     4  11  25  41  59  94 133 160 204 262 313 367
#     4  11  19  38  65  87 118 163 208 250 304 368
#     4  11  19  38  65  87 118 163 208 250 304 368
#     4  11  25  41  59  94 133 160 204 262 313 367
#     4  11  22  39  68  93 120 165 219 256 301 369
#
# _framework density 19.213730999999999
#
# number of rings (size 3 to 8) (size 9 to 14) (size 15 to 20)
#    0.000    1.000    7.500    2.250    0.000    2.000 
#    0.000    3.750    0.000    0.000    0.000    0.000 
#    0.000    0.000    0.000    0.000    0.000    0.000 
#
# Total GULP energy -89274.541981 kJ/mol
# GULP energy per Si atom -5579.658874 kJ/mol
# Density = 1.917000 g / cm^3
# Si number density = 19.213731 Si / 1000 Ang^3
#
#
#
# Elastic Constant Matrix: (Units=GPa)
#
#
# Indices 1 2 3 4 5 6 
#
# 1 53.2472 22.4543 16.9981 7.4114 1.4691 5.7541
# 2 22.4543 75.7015 14.9852 -3.3348 -13.6488 -11.4688
# 3 16.9981 14.9852 67.8082 -7.3828 -5.1329 -0.8971
# 4 7.4114 -3.3348 -7.3828 31.4822 1.0068 -10.1198
# 5 1.4691 -13.6488 -5.1329 1.0068 35.3908 2.8094
# 6 5.7541 -11.4688 -0.8971 -10.1198 2.8094 31.0062
#
#
#
# Elastic Compliance Matrix: (Units=1/GPa)
#
#
# Indices 1 2 3 4 5 6 
#
# 1 0.029122 -0.010831 -0.006972 -0.013884 -0.004915 -0.013698
# 2 -0.010831 0.019759 -0.000103 0.008032 0.006929 0.011310
# 3 -0.006972 -0.000103 0.017490 0.006880 0.002289 0.003800
# 4 -0.013884 0.008032 0.006880 0.043829 0.001847 0.019884
# 5 -0.004915 0.006929 0.002289 0.001847 0.031308 0.001307
# 6 -0.013698 0.011310 0.003800 0.019884 0.001307 0.045458
#
#
# Mechanical properties :
#
#
# Convention : Reuss Voigt Hill
#
# Bulk Modulus (GPa) = 32.72187 33.95913 33.34050
# Shear Modulus (GPa) = 21.46248 29.06378 25.26313
#
# Velocity S-wave (km/s) = 3.34584 3.89351 3.63002
# Velocity P-wave (km/s) = 5.65629 6.15835 5.91265
#
# Compressibility (1/GPa) = 0.03056060
#
# Stress axis : x y z
#
# Youngs Moduli (GPa) = 34.33868 50.60919 57.17397
#
# Poissons Ratio (x) = 0.54815 0.39859
# Poissons Ratio (y) = 0.37192 0.00588
# Poissons Ratio (z) = 0.23939 0.00521
#
# Static dielectric constant tensor:
#      x y z
#    x 1.753170 0.089000 -0.022480 
#    y 0.089000 1.733840 -0.070330 
#    z -0.022480 -0.070330 1.744760 
# 
# From -- ./inp_files/313985.got.cif
#   From: 2010.05.17/outbox.cif.g08.bks.cpg/sg2_157_cif.got.tgz:313985.got - 2010.06.03 11:33:40.
