data_PCOD9053389
_publ_section_title
;
Structure prediction by ZEFSAII (Michael W. Deem and Ramdas Pophale) SiO2 
 PCOD9053389
Probable space group: P -1
;
_chemical_formula_sum "Si O2"
_cell_formula_units_Z 14
_cell_length_a 9.186910
_cell_length_b 10.094826
_cell_length_c 8.564391
_cell_angle_alpha 70.470813
_cell_angle_beta 75.850153
_cell_angle_gamma 92.290794
_cell_volume 719.395049
_symmetry_space_group_name_H-M "P -1"
_symmetry_group_IT_number 2
_symmetry_cell_setting 'triclinic'
loop_
_space_group_symop_operation_xyz
x,y,z
-x,-y,-z
loop_
_atom_site_type_symbol
_atom_site_label
_atom_site_fract_x
_atom_site_fract_y
_atom_site_fract_z
Si Si1 0.436614 0.947796 0.204916
Si Si2 0.948104 0.838765 0.636129
Si Si3 0.368629 0.150839 0.400895
Si Si4 0.886220 0.364466 0.543620
Si Si5 0.445165 0.653696 0.480555
Si Si6 0.141395 0.980262 0.774790
Si Si7 0.143741 0.869470 0.146670
O O1 0.479057 0.791593 0.299385
O O2 0.255286 0.938571 0.225109
O O3 0.458082 0.054484 0.303504
O O4 0.500000 0.000000 0.000000
O O5 0.767870 0.797693 0.685398
O O6 0.024118 0.737839 0.541499
O O7 0.000000 0.000000 0.500000
O O8 0.032152 0.849654 0.776148
O O9 0.479245 0.274715 0.409174
O O10 0.270067 0.053708 0.596242
O O11 0.735936 0.379944 0.479322
O O12 0.848096 0.292678 0.751291
O O13 0.000000 0.500000 0.500000
O O14 0.500000 0.500000 0.500000
O O15 0.025621 0.092111 0.805104
O O16 0.202001 0.925725 0.941749
#
# Coordination Sequence:
#
# PCOD9053389 Si02
#       7
#     2   2   2   2   2   2   2
#     4  11  23  40  62  93 126 161 207 259 308 363
#     4  10  17  35  60  87 114 153 203 245 296 352
#     4  11  20  38  63  93 122 164 204 256 308 367
#     4  11  22  39  59  86 124 163 200 250 305 368
#     4  11  24  39  60  92 126 168 205 246 316 373
#     4  10  18  33  64  93 118 148 205 250 302 353
#     4  10  19  34  58  94 118 153 199 255 293 357
#
# _framework density 19.460796999999999
#
# number of rings (size 3 to 8) (size 9 to 14) (size 15 to 20)
#    0.000    1.429    4.286    4.714    0.000    1.143 
#    0.000    1.429    0.000    1.714    0.000    0.000 
#    0.000    0.000    0.000    0.000    0.000    0.000 
#
# Total GULP energy -77938.099309 kJ/mol
# GULP energy per Si atom -5567.007093 kJ/mol
# Density = 1.941650 g / cm^3
# Si number density = 19.460797 Si / 1000 Ang^3
#
#
#
# Elastic Constant Matrix: (Units=GPa)
#
#
# Indices 1 2 3 4 5 6 
#
# 1 121.5546 63.4505 19.2520 2.8817 13.7441 8.8330
# 2 63.4505 151.6322 45.9139 11.7868 8.5159 8.7199
# 3 19.2520 45.9139 70.6190 14.7515 3.9954 -0.1471
# 4 2.8817 11.7868 14.7515 13.4516 -1.2805 2.6041
# 5 13.7441 8.5159 3.9954 -1.2805 36.2524 8.2575
# 6 8.8330 8.7199 -0.1471 2.6041 8.2575 41.6561
#
#
#
# Elastic Compliance Matrix: (Units=1/GPa)
#
#
# Indices 1 2 3 4 5 6 
#
# 1 0.010916 -0.004393 -0.000341 0.001805 -0.002787 -0.000957
# 2 -0.004393 0.010170 -0.004920 -0.002371 -0.000023 -0.001062
# 3 -0.000341 -0.004920 0.021863 -0.020403 -0.002518 0.002954
# 4 0.001805 -0.002371 -0.020403 0.100609 0.007434 -0.007722
# 5 -0.002787 -0.000023 -0.002518 0.007434 0.030538 -0.005931
# 6 -0.000957 -0.001062 0.002954 -0.007722 -0.005931 0.026100
#
#
# Mechanical properties :
#
#
# Convention : Reuss Voigt Hill
#
# Bulk Modulus (GPa) = 42.30051 66.78207 54.54129
# Shear Modulus (GPa) = 21.98935 32.61798 27.30366
#
# Velocity S-wave (km/s) = 3.36509 4.09845 3.74974
# Velocity P-wave (km/s) = 6.07305 7.53572 6.84357
#
# Compressibility (1/GPa) = 0.02364038
#
# Stress axis : x y z
#
# Youngs Moduli (GPa) = 91.60970 98.33158 45.74015
#
# Poissons Ratio (x) = 0.43200 0.01559
# Poissons Ratio (y) = 0.40247 0.22503
# Poissons Ratio (z) = 0.03122 0.48378
#
# Static dielectric constant tensor:
#      x y z
#    x 1.806090 0.035500 0.034740 
#    y 0.035500 1.710900 0.001650 
#    z 0.034740 0.001650 1.740780 
# 
# From -- ./inp_files/153820.got.cif
#   From: 2010.05.17/outbox.cif.g08.bks.cpg/sg2_77_cif.got.tgz:153820.got - 2010.06.03 11:33:40.
