data_PCOD9053585
_publ_section_title
;
Structure prediction by ZEFSAII (Michael W. Deem and Ramdas Pophale) SiO2 
 PCOD9053585
Probable space group: P -1
;
_chemical_formula_sum "Si O2"
_cell_formula_units_Z 16
_cell_length_a 18.403067
_cell_length_b 13.977929
_cell_length_c 12.918432
_cell_angle_alpha 126.571785
_cell_angle_beta 43.971394
_cell_angle_gamma 160.097954
_cell_volume 737.996244
_symmetry_space_group_name_H-M "P -1"
_symmetry_group_IT_number 2
_symmetry_cell_setting 'triclinic'
loop_
_space_group_symop_operation_xyz
x,y,z
-x,-y,-z
loop_
_atom_site_type_symbol
_atom_site_label
_atom_site_fract_x
_atom_site_fract_y
_atom_site_fract_z
Si Si1 0.207700 0.642998 0.092169
Si Si2 0.259552 0.424573 0.930233
Si Si3 0.654157 0.279937 0.555806
Si Si4 0.830322 0.440852 0.262030
Si Si5 0.652438 0.202517 0.730399
Si Si6 0.894047 0.846132 0.884921
Si Si7 0.724867 0.973282 0.929216
Si Si8 0.457935 0.309197 0.852806
O O1 0.998009 0.493848 0.141243
O O2 0.162306 0.623249 0.248479
O O3 0.199641 0.492241 0.989003
O O4 0.500000 0.000000 0.000000
O O5 0.566020 0.745356 0.851763
O O6 0.110955 0.258755 0.088195
O O7 0.150845 0.195215 0.834649
O O8 0.823837 0.486609 0.414368
O O9 0.457578 0.185920 0.713229
O O10 0.500000 0.000000 0.500000
O O11 0.769584 0.373320 0.612243
O O12 0.541773 0.108549 0.300862
O O13 0.991237 0.691917 0.182431
O O14 0.452326 0.095333 0.908023
O O15 0.758258 0.650730 0.797087
O O16 0.679704 0.718167 0.067157
O O17 0.697165 0.870662 0.996009
#
# Coordination Sequence:
#
# PCOD9053585 Si02
#       8
#     2   2   2   2   2   2   2   2
#     4  11  21  32  55  89 113 145 179 230 290 334
#     4   9  18  31  48  83 108 129 188 237 267 324
#     4   9  20  34  53  80 116 148 180 226 281 341
#     4  11  20  33  54  80 117 153 166 225 296 326
#     4   9  19  34  47  76 114 144 186 214 255 345
#     4   9  18  32  56  77 103 146 185 237 266 301
#     4   9  17  31  51  78 107 136 180 229 266 332
#     4   9  18  34  56  81 103 141 192 226 273 327
#
# _framework density 21.680326999999998
#
# number of rings (size 3 to 8) (size 9 to 14) (size 15 to 20)
#    0.000    2.500    2.500    1.125    5.250    0.500 
#    0.000    0.000    2.750    7.500    0.000    0.000 
#    0.000    0.000    0.000    0.000    0.000    0.000 
#
# Total GULP energy -89208.622158 kJ/mol
# GULP energy per Si atom -5575.538885 kJ/mol
# Density = 2.163098 g / cm^3
# Si number density = 21.680327 Si / 1000 Ang^3
#
#
#
# Elastic Constant Matrix: (Units=GPa)
#
#
# Indices 1 2 3 4 5 6 
#
# 1 66.7621 22.9738 9.1768 2.9273 8.5930 -11.2897
# 2 22.9738 115.0283 16.8491 7.2740 8.0061 -6.8913
# 3 9.1768 16.8491 53.6868 3.6494 14.2005 -14.7309
# 4 2.9273 7.2740 3.6494 21.9556 -5.0025 3.9824
# 5 8.5930 8.0061 14.2005 -5.0025 27.8902 3.2789
# 6 -11.2897 -6.8913 -14.7309 3.9824 3.2789 38.9299
#
#
#
# Elastic Compliance Matrix: (Units=1/GPa)
#
#
# Indices 1 2 3 4 5 6 
#
# 1 0.017874 -0.002646 0.001783 -0.004628 -0.007246 0.006474
# 2 -0.002646 0.009849 -0.001729 -0.003177 -0.001795 0.000798
# 3 0.001783 -0.001729 0.027993 -0.010811 -0.017821 0.013410
# 4 -0.004628 -0.003177 -0.010811 0.055861 0.019430 -0.013346
# 5 -0.007246 -0.001795 -0.017821 0.019430 0.052997 -0.015614
# 6 0.006474 0.000798 0.013410 -0.013346 -0.015614 0.035461
#
#
# Mechanical properties :
#
#
# Convention : Reuss Voigt Hill
#
# Bulk Modulus (GPa) = 19.78980 37.05296 28.42138
# Shear Modulus (GPa) = 22.51611 30.18699 26.35155
#
# Velocity S-wave (km/s) = 3.22615 3.73549 3.49013
# Velocity P-wave (km/s) = 4.79846 5.97770 5.42025
#
# Compressibility (1/GPa) = 0.05053108
#
# Stress axis : x y z
#
# Youngs Moduli (GPa) = 55.94591 101.53416 35.72362
#
# Poissons Ratio (x) = 0.26868 -0.06369
# Poissons Ratio (y) = 0.14805 0.06176
# Poissons Ratio (z) = -0.09974 0.17555
#
# Static dielectric constant tensor:
#      x y z
#    x 1.887820 0.041460 0.014310 
#    y 0.041460 1.884960 0.004730 
#    z 0.014310 0.004730 1.800720 
# 
# From -- ./inp_files/541357.got.cif
#   From: 2010.05.17/outbox.cif.g08.bks.cpg/sg2_271_cif.got.tgz:541357.got - 2010.06.03 11:33:40.
