data_PCOD9053028
_publ_section_title
;
Structure prediction by ZEFSAII (Michael W. Deem and Ramdas Pophale) SiO2 
 PCOD9053028
Probable space group: P -1
;
_chemical_formula_sum "Si O2"
_cell_formula_units_Z 16
_cell_length_a 8.795581
_cell_length_b 8.088729
_cell_length_c 13.354519
_cell_angle_alpha 128.218819
_cell_angle_beta 61.988374
_cell_angle_gamma 103.799212
_cell_volume 657.153244
_symmetry_space_group_name_H-M "P -1"
_symmetry_group_IT_number 2
_symmetry_cell_setting 'triclinic'
loop_
_space_group_symop_operation_xyz
x,y,z
-x,-y,-z
loop_
_atom_site_type_symbol
_atom_site_label
_atom_site_fract_x
_atom_site_fract_y
_atom_site_fract_z
Si Si1 0.354925 0.850897 0.769488
Si Si2 0.304356 0.470461 0.087957
Si Si3 0.234409 0.123327 0.325723
Si Si4 0.301614 0.035661 0.046906
Si Si5 0.771508 0.740053 0.152739
Si Si6 0.102553 0.010647 0.627516
Si Si7 0.253240 0.595262 0.526387
Si Si8 0.380438 0.741222 0.346043
O O1 0.557851 0.906532 0.728181
O O2 0.332760 0.655854 0.630274
O O3 0.240672 0.043531 0.826070
O O4 0.278991 0.846949 0.904152
O O5 0.283404 0.252649 0.071900
O O6 0.280907 0.639038 0.247199
O O7 0.500000 0.500000 0.000000
O O8 0.201103 0.447329 0.006886
O O9 0.216046 0.062040 0.190855
O O10 0.186966 0.366002 0.460604
O O11 0.080777 0.997470 0.371027
O O12 0.500000 0.000000 0.000000
O O13 0.576797 0.743928 0.255664
O O14 0.885866 0.786454 0.230234
O O15 0.123895 0.792152 0.605438
O O16 0.278734 0.964047 0.490871
O O17 0.380597 0.596268 0.391385
#
# Coordination Sequence:
#
# PCOD9053028 Si02
#       8
#     2   2   2   2   2   2   2   2
#     4   9  19  30  48  71  93 127 159 197 228 283
#     4   9  16  29  50  76  88 118 168 209 226 274
#     4  11  18  32  47  70 101 125 156 191 246 288
#     4   9  17  30  47  68  99 127 155 193 245 288
#     4   9  17  33  50  71  94 119 167 197 233 279
#     4   9  19  29  48  72  95 128 151 198 244 278
#     4   9  18  30  49  68  95 122 161 189 239 275
#     4   9  17  30  53  70  91 126 159 200 235 281
#
# _framework density 24.347441
#
# number of rings (size 3 to 8) (size 9 to 14) (size 15 to 20)
#    0.750    2.000    1.250    1.125    0.000    0.000 
#    0.000    7.500    0.000    0.000    0.000   16.625 
#    0.000    0.000    0.000    0.000    0.000    0.000 
#
# Total GULP energy -89073.888697 kJ/mol
# GULP energy per Si atom -5567.118044 kJ/mol
# Density = 2.429202 g / cm^3
# Si number density = 24.347441 Si / 1000 Ang^3
#
#
#
# Elastic Constant Matrix: (Units=GPa)
#
#
# Indices 1 2 3 4 5 6 
#
# 1 47.3587 16.2882 59.9305 6.1523 17.4993 -5.2250
# 2 16.2882 19.1219 26.5625 -5.0810 9.8595 -0.0910
# 3 59.9305 26.5625 178.1085 -1.4960 46.9942 3.5388
# 4 6.1523 -5.0810 -1.4960 28.6230 2.9379 -1.9922
# 5 17.4993 9.8595 46.9942 2.9379 48.1566 10.0192
# 6 -5.2250 -0.0910 3.5388 -1.9922 10.0192 13.7663
#
#
#
# Elastic Compliance Matrix: (Units=1/GPa)
#
#
# Indices 1 2 3 4 5 6 
#
# 1 0.054921 -0.029508 -0.013311 -0.015400 -0.005340 0.025730
# 2 -0.029508 0.088864 -0.001151 0.022700 -0.007389 -0.001654
# 3 -0.013311 -0.001151 0.011999 0.003708 -0.006223 -0.003079
# 4 -0.015400 0.022700 0.003708 0.043392 -0.006176 0.004126
# 5 -0.005340 -0.007389 -0.006223 -0.006176 0.036477 -0.027918
# 6 0.025730 -0.001654 -0.003079 0.004126 -0.027918 0.104103
#
#
# Mechanical properties :
#
#
# Convention : Reuss Voigt Hill
#
# Bulk Modulus (GPa) = 14.73959 50.01684 32.37821
# Shear Modulus (GPa) = 11.10346 27.56303 19.33325
#
# Velocity S-wave (km/s) = 2.13783 3.36828 2.82096
# Velocity P-wave (km/s) = 3.48723 5.97617 4.89261
#
# Compressibility (1/GPa) = 0.06784450
#
# Stress axis : x y z
#
# Youngs Moduli (GPa) = 18.20796 11.25319 83.33841
#
# Poissons Ratio (x) = 0.33206 1.10930
# Poissons Ratio (y) = 0.53728 0.09590
# Poissons Ratio (z) = 0.24236 0.01295
#
# Static dielectric constant tensor:
#      x y z
#    x 1.942190 -0.025960 0.005920 
#    y -0.025960 1.964950 -0.035360 
#    z 0.005920 -0.035360 2.059430 
# 
# From -- ./inp_files/499499.got.cif
#   From: 2010.05.17/outbox.cif.g08.bks.cpg/sg2_250_cif.got.tgz:499499.got - 2010.06.03 11:33:40.
