data_PCOD9053467
_publ_section_title
;
Structure prediction by ZEFSAII (Michael W. Deem and Ramdas Pophale) SiO2 
 PCOD9053467
Probable space group: P -1
;
_chemical_formula_sum "Si O2"
_cell_formula_units_Z 10
_cell_length_a 7.138606
_cell_length_b 11.660127
_cell_length_c 9.473838
_cell_angle_alpha 105.110974
_cell_angle_beta 52.239986
_cell_angle_gamma 72.442254
_cell_volume 479.506369
_symmetry_space_group_name_H-M "P -1"
_symmetry_group_IT_number 2
_symmetry_cell_setting 'triclinic'
loop_
_space_group_symop_operation_xyz
x,y,z
-x,-y,-z
loop_
_atom_site_type_symbol
_atom_site_label
_atom_site_fract_x
_atom_site_fract_y
_atom_site_fract_z
Si Si1 0.723215 0.088736 0.547559
Si Si2 0.187190 0.070577 0.838341
Si Si3 0.795583 0.325083 0.650215
Si Si4 0.450377 0.133918 0.154042
Si Si5 0.633624 0.327497 0.046840
O O1 0.451887 0.088285 0.719827
O O2 0.650773 0.250108 0.627112
O O3 0.812335 0.007398 0.329922
O O4 0.000000 0.000000 0.500000
O O5 0.287689 0.954280 0.880084
O O6 0.884512 0.237471 0.022204
O O7 0.607036 0.498553 0.755928
O O8 0.131843 0.231001 0.409048
O O9 0.782574 0.313896 0.822891
O O10 0.483092 0.243270 0.083166
O O11 0.500000 0.000000 0.000000
#
# Coordination Sequence:
#
# PCOD9053467 Si02
#       5
#     2   2   2   2   2
#     4  11  19  40  70  97 129 175 223 269 329 391
#     4  11  22  39  68  99 127 173 232 267 320 404
#     4  11  23  43  67  95 138 175 214 279 338 387
#     4  12  24  43  69  97 134 179 224 274 325 394
#     4  11  24  41  65 102 134 172 221 274 336 394
#
# _framework density 20.854780999999999
#
# number of rings (size 3 to 8) (size 9 to 14) (size 15 to 20)
#    0.000    0.800    4.000    4.800    0.000    0.800 
#    0.000    6.000    0.000    0.000    0.000    0.000 
#    0.000    0.000    0.000    0.000    0.000    0.000 
#
# Total GULP energy -55909.430465 kJ/mol
# GULP energy per Si atom -5590.943046 kJ/mol
# Density = 2.080731 g / cm^3
# Si number density = 20.854781 Si / 1000 Ang^3
#
#
#
# Elastic Constant Matrix: (Units=GPa)
#
#
# Indices 1 2 3 4 5 6 
#
# 1 115.9284 49.2188 40.3644 17.3349 6.1032 -0.1610
# 2 49.2188 171.5548 68.6478 30.7788 -0.6919 8.8266
# 3 40.3644 68.6478 136.0147 21.6331 -14.1870 0.0528
# 4 17.3349 30.7788 21.6331 42.1192 7.2296 1.0601
# 5 6.1032 -0.6919 -14.1870 7.2296 22.8052 -0.4439
# 6 -0.1610 8.8266 0.0528 1.0601 -0.4439 39.4439
#
#
#
# Elastic Compliance Matrix: (Units=1/GPa)
#
#
# Indices 1 2 3 4 5 6 
#
# 1 0.010673 -0.001936 -0.002457 -0.001022 -0.004110 0.000461
# 2 -0.001936 0.008363 -0.003056 -0.003702 0.000010 -0.001776
# 3 -0.002457 -0.003056 0.011185 -0.004036 0.008819 0.000867
# 4 -0.001022 -0.003702 -0.004036 0.031038 -0.012192 -0.000142
# 5 -0.004110 0.000010 0.008819 -0.012192 0.054319 0.000908
# 6 0.000461 -0.001776 0.000867 -0.000142 0.000908 0.025765
#
#
# Mechanical properties :
#
#
# Convention : Reuss Voigt Hill
#
# Bulk Modulus (GPa) = 65.25590 82.21776 73.73683
# Shear Modulus (GPa) = 30.98911 38.55813 34.77362
#
# Velocity S-wave (km/s) = 3.85898 4.30453 4.08783
# Velocity P-wave (km/s) = 7.15641 8.01342 7.59701
#
# Compressibility (1/GPa) = 0.01532429
#
# Stress axis : x y z
#
# Youngs Moduli (GPa) = 93.69233 119.57745 89.40557
#
# Poissons Ratio (x) = 0.23150 0.21964
# Poissons Ratio (y) = 0.18139 0.27320
# Poissons Ratio (z) = 0.23017 0.36540
#
# Static dielectric constant tensor:
#      x y z
#    x 1.751800 0.001350 -0.022600 
#    y 0.001350 1.800570 -0.038030 
#    z -0.022600 -0.038030 1.778780 
# 
# From -- ./inp_files/18405.got.cif
#   From: 2010.05.17/outbox.cif.g08.bks.cpg/sg2_10_cif.got.tgz:18405.got - 2010.06.03 11:33:40.
