data_PCOD9053989
_publ_section_title
;
Structure prediction by ZEFSAII (Michael W. Deem and Ramdas Pophale) SiO2 
 PCOD9053989
Probable space group: P -1
;
_chemical_formula_sum "Si O2"
_cell_formula_units_Z 16
_cell_length_a 17.179384
_cell_length_b 9.518745
_cell_length_c 8.798593
_cell_angle_alpha 55.077771
_cell_angle_beta 73.573420
_cell_angle_gamma 38.045976
_cell_volume 685.673833
_symmetry_space_group_name_H-M "P -1"
_symmetry_group_IT_number 2
_symmetry_cell_setting 'triclinic'
loop_
_space_group_symop_operation_xyz
x,y,z
-x,-y,-z
loop_
_atom_site_type_symbol
_atom_site_label
_atom_site_fract_x
_atom_site_fract_y
_atom_site_fract_z
Si Si1 0.607871 0.055811 0.057091
Si Si2 0.170905 0.556930 0.818485
Si Si3 0.882550 0.961063 0.686805
Si Si4 0.403091 0.590915 0.366394
Si Si5 0.635758 0.084281 0.377889
Si Si6 0.305387 0.617896 0.865731
Si Si7 0.869456 0.608648 0.760387
Si Si8 0.092315 0.007924 0.986117
O O1 0.632578 0.051980 0.222387
O O2 0.706925 0.738902 0.150631
O O3 0.634645 0.181608 0.861009
O O4 0.449341 0.284453 0.987126
O O5 0.201316 0.698259 0.764291
O O6 0.030484 0.777523 0.671485
O O7 0.161612 0.469698 0.037070
O O8 0.882480 0.769117 0.736958
O O9 0.726138 0.273418 0.567049
O O10 0.892109 0.980878 0.851546
O O11 0.500000 0.500000 0.500000
O O12 0.489705 0.312296 0.392866
O O13 0.668039 0.231605 0.284361
O O14 0.749784 0.801535 0.587001
O O15 0.233687 0.744427 0.990436
O O16 0.007748 0.315788 0.787296
O O17 0.000000 0.000000 0.000000
#
# Coordination Sequence:
#
# PCOD9053989 Si02
#       8
#     2   2   2   2   2   2   2   2
#     4  11  23  41  67  93 136 175 212 266 330 387
#     4  11  22  42  67  94 125 176 217 263 328 388
#     4  11  21  38  69  93 123 167 229 260 314 375
#     4  11  20  39  68  97 123 169 229 266 301 384
#     4  11  24  42  64 100 129 170 219 267 326 379
#     4  11  23  41  65  94 131 172 210 267 338 378
#     4  11  23  41  68  94 126 170 225 264 309 390
#     4  11  21  40  67  98 126 167 213 273 320 379
#
# _framework density 23.334710000000001
#
# number of rings (size 3 to 8) (size 9 to 14) (size 15 to 20)
#    0.000    1.000    5.000    4.875    1.750    0.500 
#    0.000    2.500    2.750    0.000    0.000    0.000 
#    0.000    0.000    0.000    0.000    0.000    0.000 
#
# Total GULP energy -89386.347296 kJ/mol
# GULP energy per Si atom -5586.646706 kJ/mol
# Density = 2.328160 g / cm^3
# Si number density = 23.334710 Si / 1000 Ang^3
#
#
#
# Elastic Constant Matrix: (Units=GPa)
#
#
# Indices 1 2 3 4 5 6 
#
# 1 76.0279 18.7613 12.3309 -0.4433 29.7536 -10.2323
# 2 18.7613 140.3910 9.1821 -3.5077 15.8775 -15.6244
# 3 12.3309 9.1821 70.1278 5.6218 21.0183 1.9264
# 4 -0.4433 -3.5077 5.6218 29.6690 -3.2859 14.4628
# 5 29.7536 15.8775 21.0183 -3.2859 28.8687 -2.6278
# 6 -10.2323 -15.6244 1.9264 14.4628 -2.6278 38.3328
#
#
#
# Elastic Compliance Matrix: (Units=1/GPa)
#
#
# Indices 1 2 3 4 5 6 
#
# 1 0.024675 0.000319 0.004769 -0.007250 -0.029248 0.007207
# 2 0.000319 0.007955 0.000353 -0.001355 -0.004797 0.003492
# 3 0.004769 0.000353 0.019932 -0.006655 -0.020238 0.001539
# 4 -0.007250 -0.001355 -0.006655 0.045375 0.016577 -0.018136
# 5 -0.029248 -0.004797 -0.020238 0.016577 0.083198 -0.009296
# 6 0.007207 0.003492 0.001539 -0.018136 -0.009296 0.035563
#
#
# Mechanical properties :
#
#
# Convention : Reuss Voigt Hill
#
# Bulk Modulus (GPa) = 15.76216 40.78835 28.27525
# Shear Modulus (GPa) = 22.03016 35.79228 28.91122
#
# Velocity S-wave (km/s) = 3.07594 3.92071 3.52373
# Velocity P-wave (km/s) = 4.40281 6.16551 5.35716
#
# Compressibility (1/GPa) = 0.06344310
#
# Stress axis : x y z
#
# Youngs Moduli (GPa) = 40.52747 125.71392 50.17089
#
# Poissons Ratio (x) = -0.04016 -0.23925
# Poissons Ratio (y) = -0.01295 -0.01771
# Poissons Ratio (z) = -0.19326 -0.04437
#
# Static dielectric constant tensor:
#      x y z
#    x 1.880100 -0.054570 0.001730 
#    y -0.054570 1.917600 -0.006660 
#    z 0.001730 -0.006660 1.925440 
# 
# From -- ./inp_files/328564.got.cif
#   From: 2010.05.17/outbox.cif.g08.bks.cpg/sg2_165_cif.got.tgz:328564.got - 2010.06.03 11:33:40.
