data_PCOD9053487
_publ_section_title
;
Structure prediction by ZEFSAII (Michael W. Deem and Ramdas Pophale) SiO2 
 PCOD9053487
Probable space group: P -1
;
_chemical_formula_sum "Si O2"
_cell_formula_units_Z 16
_cell_length_a 9.131869
_cell_length_b 15.528648
_cell_length_c 5.950868
_cell_angle_alpha 80.156112
_cell_angle_beta 70.903747
_cell_angle_gamma 60.464448
_cell_volume 693.754552
_symmetry_space_group_name_H-M "P -1"
_symmetry_group_IT_number 2
_symmetry_cell_setting 'triclinic'
loop_
_space_group_symop_operation_xyz
x,y,z
-x,-y,-z
loop_
_atom_site_type_symbol
_atom_site_label
_atom_site_fract_x
_atom_site_fract_y
_atom_site_fract_z
Si Si1 0.498350 0.451059 0.273414
Si Si2 0.080532 0.343165 0.975518
Si Si3 0.843156 0.246863 0.275897
Si Si4 0.104090 0.119553 0.491419
Si Si5 0.670307 0.816273 0.398805
Si Si6 0.151455 0.462425 0.257628
Si Si7 0.689523 0.975160 0.997408
Si Si8 0.727219 0.091786 0.274871
O O1 0.500000 0.500000 0.500000
O O2 0.664741 0.345070 0.273142
O O3 0.324342 0.440253 0.320217
O O4 0.500000 0.500000 0.000000
O O5 0.229803 0.286984 0.736743
O O6 0.917790 0.443689 0.918368
O O7 0.157924 0.374508 0.137305
O O8 0.992802 0.273666 0.106108
O O9 0.815783 0.161239 0.210673
O O10 0.904897 0.205318 0.518722
O O11 0.224894 0.174374 0.442847
O O12 0.145464 0.021282 0.657789
O O13 0.166267 0.068489 0.242437
O O14 0.709562 0.892998 0.202485
O O15 0.462377 0.859492 0.523283
O O16 0.000000 0.500000 0.500000
O O17 0.682170 0.073437 0.056371
O O18 0.500000 0.000000 0.000000
#
# Coordination Sequence:
#
# PCOD9053487 Si02
#       8
#     2   2   2   2   2   2   2   2
#     4  12  29  54  82 116 159 199 257 331 404 466
#     4  11  26  47  73 110 141 197 250 312 392 464
#     4  12  27  47  70 108 151 199 249 314 394 464
#     4  11  23  44  69 103 149 197 249 308 372 459
#     4  11  23  40  74 102 137 194 259 301 373 457
#     4  11  27  50  80 105 150 191 259 324 393 465
#     4  11  19  41  69  95 139 190 245 313 361 441
#     4  11  25  43  68 109 145 195 255 311 374 444
#
# _framework density 23.062913000000002
#
# number of rings (size 3 to 8) (size 9 to 14) (size 15 to 20)
#    0.000    0.750    5.000    1.875    7.000    1.500 
#    4.500    0.000    0.000    0.000    0.000    0.000 
#    0.000    0.000    0.000    0.000    0.000    0.000 
#
# Total GULP energy -89154.761324 kJ/mol
# GULP energy per Si atom -5572.172583 kJ/mol
# Density = 2.301042 g / cm^3
# Si number density = 23.062913 Si / 1000 Ang^3
#
#
#
# Elastic Constant Matrix: (Units=GPa)
#
#
# Indices 1 2 3 4 5 6 
#
# 1 175.5036 73.8948 47.8741 15.1268 24.9605 3.7830
# 2 73.8948 143.7794 45.2061 1.4549 16.8920 7.7800
# 3 47.8741 45.2061 75.9870 21.1915 10.7434 15.1143
# 4 15.1268 1.4549 21.1915 39.0823 1.1405 5.8981
# 5 24.9605 16.8920 10.7434 1.1405 24.4042 1.0763
# 6 3.7830 7.7800 15.1143 5.8981 1.0763 54.1420
#
#
#
# Elastic Compliance Matrix: (Units=1/GPa)
#
#
# Indices 1 2 3 4 5 6 
#
# 1 0.008565 -0.002995 -0.002490 -0.001818 -0.005543 0.000835
# 2 -0.002995 0.010234 -0.004839 0.003499 -0.002043 -0.000251
# 3 -0.002490 -0.004839 0.021577 -0.009862 -0.002964 -0.004021
# 4 -0.001818 0.003499 -0.009862 0.031607 0.002351 -0.001113
# 5 -0.005543 -0.002043 -0.002964 0.002351 0.049243 0.000273
# 6 0.000835 -0.000251 -0.004021 -0.001113 0.000273 0.019686
#
#
# Mechanical properties :
#
#
# Convention : Reuss Voigt Hill
#
# Bulk Modulus (GPa) = 50.68701 81.02445 65.85573
# Shear Modulus (GPa) = 29.73796 38.74536 34.24166
#
# Velocity S-wave (km/s) = 3.59476 4.10321 3.85737
# Velocity P-wave (km/s) = 6.26539 7.59320 6.96103
#
# Compressibility (1/GPa) = 0.01972892
#
# Stress axis : x y z
#
# Youngs Moduli (GPa) = 116.75373 97.71658 46.34565
#
# Poissons Ratio (x) = 0.29262 0.11541
# Poissons Ratio (y) = 0.34963 0.22425
# Poissons Ratio (z) = 0.29074 0.47281
#
# Static dielectric constant tensor:
#      x y z
#    x 0.614690 1.015270 -0.593280 
#    y 1.015270 1.025800 0.479220 
#    z -0.593280 0.479220 1.607210 
# 
# From -- ./inp_files/38600.got.cif
#   From: 2010.05.17/outbox.cif.g08.bks.cpg/sg2_20_cif.got.tgz:38600.got - 2010.06.03 11:33:40.
