data_PCOD9053494
_publ_section_title
;
Structure prediction by ZEFSAII (Michael W. Deem and Ramdas Pophale) SiO2 
 PCOD9053494
Probable space group: P -1
;
_chemical_formula_sum "Si O2"
_cell_formula_units_Z 16
_cell_length_a 8.124213
_cell_length_b 14.360497
_cell_length_c 12.307332
_cell_angle_alpha 129.556723
_cell_angle_beta 63.195456
_cell_angle_gamma 75.933308
_cell_volume 629.827740
_symmetry_space_group_name_H-M "P -1"
_symmetry_group_IT_number 2
_symmetry_cell_setting 'triclinic'
loop_
_space_group_symop_operation_xyz
x,y,z
-x,-y,-z
loop_
_atom_site_type_symbol
_atom_site_label
_atom_site_fract_x
_atom_site_fract_y
_atom_site_fract_z
Si Si1 0.498488 0.135574 0.643870
Si Si2 0.318104 0.302090 0.388773
Si Si3 0.577824 0.173380 0.984443
Si Si4 0.474454 0.397953 0.790729
Si Si5 0.069935 0.327858 0.100642
Si Si6 0.852719 0.221359 0.767849
Si Si7 0.904830 0.911913 0.988106
Si Si8 0.050024 0.735863 0.590408
O O1 0.471790 0.258541 0.658284
O O2 0.500000 0.000000 0.500000
O O3 0.227042 0.293268 0.920479
O O4 0.812436 0.982163 0.495932
O O5 0.459595 0.275716 0.213776
O O6 0.560809 0.096762 0.219154
O O7 0.058686 0.341698 0.466324
O O8 0.210459 0.459174 0.618370
O O9 0.314259 0.239158 0.051811
O O10 0.710793 0.208122 0.892770
O O11 0.823290 0.949735 0.770665
O O12 0.669538 0.303411 0.772440
O O13 0.645048 0.386245 0.641346
O O14 0.187290 0.618007 0.066156
O O15 0.025019 0.205737 0.016764
O O16 0.039247 0.763868 0.741999
O O17 0.000000 0.000000 0.000000
#
# Coordination Sequence:
#
# PCOD9053494 Si02
#       8
#     2   2   2   2   2   2   2   2
#     4  12  28  46  64  94 138 179 217 263 327 397
#     4  11  24  41  69 101 127 164 221 272 318 384
#     4  11  19  41  71 100 129 161 213 278 327 370
#     4  11  24  41  69 100 124 171 223 274 325 376
#     4  12  24  42  70  95 128 173 216 267 326 379
#     4  11  24  43  70  97 129 168 221 280 322 379
#     4  11  26  43  62  96 137 176 205 262 326 388
#     4  11  21  41  68  99 131 164 217 271 325 378
#
# _framework density 25.403770999999999
#
# number of rings (size 3 to 8) (size 9 to 14) (size 15 to 20)
#    0.000    0.750    5.000    3.000    5.250    1.000 
#    2.250    0.000    0.000    0.000    0.000    0.000 
#    0.000    0.000    0.000    0.000    0.000    0.000 
#
# Total GULP energy -89619.910591 kJ/mol
# GULP energy per Si atom -5601.244412 kJ/mol
# Density = 2.534595 g / cm^3
# Si number density = 25.403771 Si / 1000 Ang^3
#
#
#
# Elastic Constant Matrix: (Units=GPa)
#
#
# Indices 1 2 3 4 5 6 
#
# 1 52.8663 23.2849 9.1642 1.0623 5.9432 16.2372
# 2 23.2849 93.4552 26.4073 -1.5636 0.8730 24.2412
# 3 9.1642 26.4073 130.3914 11.7464 9.1238 6.3865
# 4 1.0623 -1.5636 11.7464 42.7637 3.6165 2.2938
# 5 5.9432 0.8730 9.1238 3.6165 11.8020 9.4359
# 6 16.2372 24.2412 6.3865 2.2938 9.4359 42.3539
#
#
#
# Elastic Compliance Matrix: (Units=1/GPa)
#
#
# Indices 1 2 3 4 5 6 
#
# 1 0.023177 -0.004522 0.000040 0.000149 -0.007747 -0.004585
# 2 -0.004522 0.014855 -0.003076 0.001108 0.010105 -0.008616
# 3 0.000040 -0.003076 0.008911 -0.002017 -0.007874 0.002265
# 4 0.000149 0.001108 -0.002017 0.024485 -0.005757 -0.000431
# 5 -0.007747 0.010105 -0.007874 -0.005757 0.117765 -0.027551
# 6 -0.004585 -0.008616 0.002265 -0.000431 -0.027551 0.036120
#
#
# Mechanical properties :
#
#
# Convention : Reuss Voigt Hill
#
# Bulk Modulus (GPa) = 31.41850 43.82507 37.62179
# Shear Modulus (GPa) = 19.91747 33.90768 26.91258
#
# Velocity S-wave (km/s) = 2.80310 3.65739 3.25836
# Velocity P-wave (km/s) = 4.78236 5.92656 5.38494
#
# Compressibility (1/GPa) = 0.03182838
#
# Stress axis : x y z
#
# Youngs Moduli (GPa) = 43.14711 67.31695 112.22072
#
# Poissons Ratio (x) = 0.30438 -0.00450
# Poissons Ratio (y) = 0.19510 0.34514
# Poissons Ratio (z) = -0.00173 0.20704
#
# Static dielectric constant tensor:
#      x y z
#    x 2.097390 -0.003540 0.017870 
#    y -0.003540 1.969240 -0.004460 
#    z 0.017870 -0.004460 1.945160 
# 
# From -- ./inp_files/274510.got.cif
#   From: 2010.05.17/outbox.cif.g08.bks.cpg/sg2_138_cif.got.tgz:274510.got - 2010.06.03 11:33:40.
