data_PCOD9053778
_publ_section_title
;
Structure prediction by ZEFSAII (Michael W. Deem and Ramdas Pophale) SiO2 
 PCOD9053778
Probable space group: P -1
;
_chemical_formula_sum "Si O2"
_cell_formula_units_Z 16
_cell_length_a 12.661972
_cell_length_b 6.076380
_cell_length_c 14.577075
_cell_angle_alpha 95.502650
_cell_angle_beta 130.143469
_cell_angle_gamma 106.831326
_cell_volume 756.953887
_symmetry_space_group_name_H-M "P -1"
_symmetry_group_IT_number 2
_symmetry_cell_setting 'triclinic'
loop_
_space_group_symop_operation_xyz
x,y,z
-x,-y,-z
loop_
_atom_site_type_symbol
_atom_site_label
_atom_site_fract_x
_atom_site_fract_y
_atom_site_fract_z
Si Si1 0.868667 0.407867 0.284543
Si Si2 0.207902 0.297223 0.893994
Si Si3 0.542648 0.006026 0.379790
Si Si4 0.569351 0.445539 0.830123
Si Si5 0.095457 0.215315 0.344696
Si Si6 0.723557 0.484538 0.380329
Si Si7 0.406382 0.106587 0.894076
Si Si8 0.629807 0.784546 0.592554
O O1 0.804085 0.490944 0.164179
O O2 0.849113 0.541813 0.370605
O O3 0.024119 0.405687 0.334043
O O4 0.753082 0.125204 0.235741
O O5 0.351533 0.265045 0.932754
O O6 0.257931 0.361047 0.030822
O O7 0.051402 0.049862 0.769337
O O8 0.449049 0.732816 0.272277
O O9 0.623227 0.959591 0.513092
O O10 0.669464 0.224172 0.395173
O O11 0.419643 0.106042 0.343650
O O12 0.440451 0.542786 0.750954
O O13 0.505060 0.252313 0.869846
O O14 0.203193 0.280492 0.499203
O O15 0.211888 0.238110 0.328696
O O16 0.500000 0.000000 0.000000
O O17 0.500000 0.500000 0.500000
#
# Coordination Sequence:
#
# PCOD9053778 Si02
#       8
#     2   2   2   2   2   2   2   2
#     4  11  23  38  61  97 144 176 206 259 327 387
#     4  11  25  39  60  97 142 179 205 260 327 389
#     4  11  24  39  74  97 121 162 227 278 316 370
#     4  12  22  39  67  97 132 170 227 263 307 384
#     4  11  26  41  63  98 133 173 212 270 330 388
#     4  12  23  42  65 101 132 171 221 264 314 390
#     4  11  20  37  61  94 133 184 222 250 307 386
#     4  11  23  48  69  95 122 166 225 275 327 381
#
# _framework density 21.137350999999999
#
# number of rings (size 3 to 8) (size 9 to 14) (size 15 to 20)
#    0.000    0.750    6.250    1.500    1.750    0.500 
#    0.000    0.625    0.000    3.750    0.000    0.000 
#    0.000    0.000    0.000    0.000    0.000    0.000 
#
# Total GULP energy -89165.563222 kJ/mol
# GULP energy per Si atom -5572.847701 kJ/mol
# Density = 2.108924 g / cm^3
# Si number density = 21.137351 Si / 1000 Ang^3
#
#
#
# Elastic Constant Matrix: (Units=GPa)
#
#
# Indices 1 2 3 4 5 6 
#
# 1 116.3901 9.7765 12.1981 -1.8441 18.1583 -21.2701
# 2 9.7765 53.4484 20.0554 -7.6369 15.1765 3.1512
# 3 12.1981 20.0554 88.4049 14.0149 3.8041 8.0716
# 4 -1.8441 -7.6369 14.0149 44.3947 -4.8190 -2.8740
# 5 18.1583 15.1765 3.8041 -4.8190 25.3348 6.8577
# 6 -21.2701 3.1512 8.0716 -2.8740 6.8577 23.4374
#
#
#
# Elastic Compliance Matrix: (Units=1/GPa)
#
#
# Indices 1 2 3 4 5 6 
#
# 1 0.015076 0.002622 -0.004054 0.001820 -0.016798 0.019864
# 2 0.002622 0.026165 -0.007049 0.005405 -0.017371 0.007035
# 3 -0.004054 -0.007049 0.015129 -0.006132 0.006564 -0.010614
# 4 0.001820 0.005405 -0.006132 0.025830 -0.000421 0.006327
# 5 -0.016798 -0.017371 0.006564 -0.000421 0.070560 -0.035867
# 6 0.019864 0.007035 -0.010614 0.006327 -0.035867 0.074674
#
#
# Mechanical properties :
#
#
# Convention : Reuss Voigt Hill
#
# Bulk Modulus (GPa) = 25.37583 38.03371 31.70477
# Shear Modulus (GPa) = 19.41496 33.04760 26.23128
#
# Velocity S-wave (km/s) = 3.03399 3.95836 3.52659
# Velocity P-wave (km/s) = 4.92998 6.23892 5.62267
#
# Compressibility (1/GPa) = 0.03940758
#
# Stress axis : x y z
#
# Youngs Moduli (GPa) = 66.32993 38.21890 66.09840
#
# Poissons Ratio (x) = -0.10023 0.26799
# Poissons Ratio (y) = -0.17395 0.46595
# Poissons Ratio (z) = 0.26893 0.26942
#
# Static dielectric constant tensor:
#      x y z
#    x 1.817310 -0.025700 -0.016690 
#    y -0.025700 1.786710 0.032130 
#    z -0.016690 0.032130 1.885690 
# 
# From -- ./inp_files/482155.got.cif
#   From: 2010.05.17/outbox.cif.g08.bks.cpg/sg2_242_cif.got.tgz:482155.got - 2010.06.03 11:33:40.
