data_PCOD9053805
_publ_section_title
;
Structure prediction by ZEFSAII (Michael W. Deem and Ramdas Pophale) SiO2 
 PCOD9053805
Probable space group: P -1
;
_chemical_formula_sum "Si O2"
_cell_formula_units_Z 16
_cell_length_a 11.711242
_cell_length_b 7.380360
_cell_length_c 16.834585
_cell_angle_alpha 139.637450
_cell_angle_beta 63.662058
_cell_angle_gamma 130.634004
_cell_volume 711.023863
_symmetry_space_group_name_H-M "P -1"
_symmetry_group_IT_number 2
_symmetry_cell_setting 'triclinic'
loop_
_space_group_symop_operation_xyz
x,y,z
-x,-y,-z
loop_
_atom_site_type_symbol
_atom_site_label
_atom_site_fract_x
_atom_site_fract_y
_atom_site_fract_z
Si Si1 0.596653 0.343810 0.438504
Si Si2 0.936858 0.820876 0.543614
Si Si3 0.401717 0.763977 0.781417
Si Si4 0.420196 0.685604 0.979162
Si Si5 0.928144 0.241683 0.297293
Si Si6 0.582854 0.748820 0.288888
Si Si7 0.073751 0.521192 0.801085
Si Si8 0.057495 0.300637 0.962409
O O1 0.500000 0.500000 0.500000
O O2 0.754972 0.601930 0.518645
O O3 0.623371 0.272197 0.316361
O O4 0.523785 0.996454 0.392529
O O5 0.996810 0.570286 0.440448
O O6 0.000000 0.000000 0.500000
O O7 0.989979 0.119277 0.689024
O O8 0.447557 0.513562 0.719823
O O9 0.238770 0.655370 0.830838
O O10 0.518033 0.140389 0.897616
O O11 0.239098 0.487054 0.968961
O O12 0.467048 0.450909 0.845728
O O13 0.500000 0.000000 0.000000
O O14 0.910336 0.355472 0.253071
O O15 0.765155 0.990801 0.303897
O O16 0.004107 0.040480 0.181293
O O17 0.995829 0.679102 0.926144
O O18 0.000000 0.500000 0.000000
#
# Coordination Sequence:
#
# PCOD9053805 Si02
#       8
#     2   2   2   2   2   2   2   2
#     4  11  23  39  61  86 119 159 203 247 292 348
#     4   9  18  39  61  82 120 156 198 242 295 366
#     4  11  21  39  65  84 121 164 191 243 310 349
#     4   9  20  38  60  86 123 156 196 242 299 366
#     4   9  18  38  59  87 119 154 199 243 295 365
#     4   9  19  40  59  87 118 155 199 242 295 368
#     4  11  20  37  65  88 118 161 196 250 306 344
#     4  11  22  37  59  92 122 154 202 254 292 350
#
# _framework density 22.502761
#
# number of rings (size 3 to 8) (size 9 to 14) (size 15 to 20)
#    0.000    2.000    3.750    2.625    1.750    1.000 
#    0.000   13.125    0.000    0.000    0.000    0.000 
#    0.000    0.000    0.000    0.000    0.000    0.000 
#
# Total GULP energy -89145.140430 kJ/mol
# GULP energy per Si atom -5571.571277 kJ/mol
# Density = 2.245154 g / cm^3
# Si number density = 22.502761 Si / 1000 Ang^3
#
#
#
# Elastic Constant Matrix: (Units=GPa)
#
#
# Indices 1 2 3 4 5 6 
#
# 1 75.3137 6.2501 43.6852 6.7167 -11.1933 -7.6347
# 2 6.2501 33.2134 14.0630 -0.1451 4.3468 -13.4328
# 3 43.6852 14.0630 118.7034 20.2905 -32.5505 -5.7523
# 4 6.7167 -0.1451 20.2905 37.3394 -7.5709 0.9708
# 5 -11.1933 4.3468 -32.5505 -7.5709 41.9208 1.1716
# 6 -7.6347 -13.4328 -5.7523 0.9708 1.1716 32.8214
#
#
#
# Elastic Compliance Matrix: (Units=1/GPa)
#
#
# Indices 1 2 3 4 5 6 
#
# 1 0.017178 0.000894 -0.006468 0.000227 -0.000578 0.003242
# 2 0.000894 0.040797 -0.007369 0.001587 -0.009872 0.015919
# 3 -0.006468 -0.007369 0.015171 -0.005035 0.009965 -0.002068
# 4 0.000227 0.001587 -0.005035 0.029795 0.001399 -0.001111
# 5 -0.000578 -0.009872 0.009965 0.001399 0.032816 -0.003641
# 6 0.003242 0.015919 -0.002068 -0.001111 -0.003641 0.037538
#
#
# Mechanical properties :
#
#
# Convention : Reuss Voigt Hill
#
# Bulk Modulus (GPa) = 21.15964 39.46968 30.31466
# Shear Modulus (GPa) = 23.26294 33.29847 28.28070
#
# Velocity S-wave (km/s) = 3.21874 3.85093 3.54894
# Velocity P-wave (km/s) = 4.82050 6.11153 5.50400
#
# Compressibility (1/GPa) = 0.04725977
#
# Stress axis : x y z
#
# Youngs Moduli (GPa) = 58.21491 24.51132 65.91661
#
# Poissons Ratio (x) = -0.02191 0.42633
# Poissons Ratio (y) = -0.05203 0.48575
# Poissons Ratio (z) = 0.37652 0.18063
#
# Static dielectric constant tensor:
#      x y z
#    x 2.627420 -0.135590 0.512780 
#    y -0.135590 1.909280 -0.094690 
#    z 0.512780 -0.094690 2.328900 
# 
# From -- ./inp_files/531491.got.cif
#   From: 2010.05.17/outbox.cif.g08.bks.cpg/sg2_266_cif.got.tgz:531491.got - 2010.06.03 11:33:40.
