data_PCOD9053159
_publ_section_title
;
Structure prediction by ZEFSAII (Michael W. Deem and Ramdas Pophale) SiO2 
 PCOD9053159
Probable space group: P -1
;
_chemical_formula_sum "Si O2"
_cell_formula_units_Z 16
_cell_length_a 20.876401
_cell_length_b 10.707640
_cell_length_c 15.492609
_cell_angle_alpha 43.683548
_cell_angle_beta 155.735894
_cell_angle_gamma 149.317477
_cell_volume 694.945576
_symmetry_space_group_name_H-M "P -1"
_symmetry_group_IT_number 2
_symmetry_cell_setting 'triclinic'
loop_
_space_group_symop_operation_xyz
x,y,z
-x,-y,-z
loop_
_atom_site_type_symbol
_atom_site_label
_atom_site_fract_x
_atom_site_fract_y
_atom_site_fract_z
Si Si1 0.523567 0.030031 0.251306
Si Si2 0.299070 0.609524 0.984866
Si Si3 0.910668 0.248791 0.245714
Si Si4 0.331859 0.260038 0.477203
Si Si5 0.065340 0.211529 0.037461
Si Si6 0.785581 0.946481 0.394727
Si Si7 0.688198 0.198966 0.563551
Si Si8 0.850729 0.554438 0.300565
O O1 0.632971 0.928224 0.403959
O O2 0.577323 0.084440 0.390917
O O3 0.639835 0.299117 0.216821
O O4 0.268220 0.842319 0.001608
O O5 0.140788 0.648590 0.791506
O O6 0.219122 0.446677 0.881185
O O7 0.267538 0.468054 0.103955
O O8 0.553924 0.866976 0.156005
O O9 0.847823 0.013022 0.337126
O O10 0.162876 0.493974 0.405888
O O11 0.500000 0.500000 0.500000
O O12 0.113321 0.163077 0.212122
O O13 0.299366 0.278014 0.530212
O O14 0.875502 0.203207 0.808590
O O15 0.000000 0.000000 0.000000
O O16 0.003590 0.190772 0.591545
O O17 0.500000 0.000000 0.500000
O O18 0.000000 0.500000 0.500000
#
# Coordination Sequence:
#
# PCOD9053159 Si02
#       8
#     2   2   2   2   2   2   2   2
#     4  12  21  36  60  87 121 157 200 248 302 359
#     4  11  19  31  50  85 127 152 189 243 300 356
#     4  11  20  35  57  86 118 156 200 248 300 351
#     4  12  21  33  54  90 129 162 189 235 306 370
#     4  11  21  37  58  87 122 161 199 237 301 368
#     4  12  20  31  53  86 128 156 187 247 304 352
#     4  11  25  43  62  86 119 159 205 255 300 350
#     4  12  18  28  52  84 117 158 191 241 305 350
#
# _framework density 23.023385999999999
#
# number of rings (size 3 to 8) (size 9 to 14) (size 15 to 20)
#    0.000    0.500    8.750    2.625    0.000    0.500 
#    0.000    0.000    0.000    0.750    0.000    2.625 
#    0.000    0.000    0.000    0.000    0.000    0.000 
#
# Total GULP energy -89075.889294 kJ/mol
# GULP energy per Si atom -5567.243081 kJ/mol
# Density = 2.297098 g / cm^3
# Si number density = 23.023386 Si / 1000 Ang^3
#
#
#
# Elastic Constant Matrix: (Units=GPa)
#
#
# Indices 1 2 3 4 5 6 
#
# 1 55.1628 31.5969 53.1093 -1.0685 -3.2488 30.2711
# 2 31.5969 100.0151 34.8201 15.1542 11.3985 43.9311
# 3 53.1093 34.8201 119.3237 1.4766 -37.1595 27.9332
# 4 -1.0685 15.1542 1.4766 49.4788 15.6424 -3.5972
# 5 -3.2488 11.3985 -37.1595 15.6424 35.4486 -0.1678
# 6 30.2711 43.9311 27.9332 -3.5972 -0.1678 33.6483
#
#
#
# Elastic Compliance Matrix: (Units=1/GPa)
#
#
# Indices 1 2 3 4 5 6 
#
# 1 0.074952 0.021746 -0.037987 0.004839 -0.042382 -0.063980
# 2 0.021746 0.036169 -0.013064 -0.008011 -0.020066 -0.056897
# 3 -0.037987 -0.013064 0.040560 -0.012230 0.048711 0.016495
# 4 0.004839 -0.008011 -0.012230 0.032105 -0.023875 0.019572
# 5 -0.042382 -0.020066 0.048711 -0.023875 0.092479 0.021797
# 6 -0.063980 -0.056897 0.016495 0.019572 0.021797 0.150070
#
#
# Mechanical properties :
#
#
# Convention : Reuss Voigt Hill
#
# Bulk Modulus (GPa) = 10.74436 57.06157 33.90296
# Shear Modulus (GPa) = 9.69052 34.04682 21.86867
#
# Velocity S-wave (km/s) = 2.05381 3.84968 3.08530
# Velocity P-wave (km/s) = 3.20952 6.67818 5.23923
#
# Compressibility (1/GPa) = 0.09307212
#
# Stress axis : x y z
#
# Youngs Moduli (GPa) = 13.34181 27.64794 24.65507
#
# Poissons Ratio (x) = -0.60123 0.93656
# Poissons Ratio (y) = -0.29013 0.32208
# Poissons Ratio (z) = 0.50681 0.36118
#
# Static dielectric constant tensor:
#      x y z
#    x 1.883060 0.005230 -0.016800 
#    y 0.005230 2.095500 0.075760 
#    z -0.016800 0.075760 1.994730 
# 
# From -- ./inp_files/540963.got.cif
#   From: 2010.05.17/outbox.cif.g08.bks.cpg/sg2_271_cif.got.tgz:540963.got - 2010.06.03 11:33:40.
