data_PCOD9053499
_publ_section_title
;
Structure prediction by ZEFSAII (Michael W. Deem and Ramdas Pophale) SiO2 
 PCOD9053499
Probable space group: P -1
;
_chemical_formula_sum "Si O2"
_cell_formula_units_Z 10
_cell_length_a 9.114762
_cell_length_b 11.240203
_cell_length_c 6.612292
_cell_angle_alpha 60.484676
_cell_angle_beta 112.501185
_cell_angle_gamma 133.789437
_cell_volume 424.629027
_symmetry_space_group_name_H-M "P -1"
_symmetry_group_IT_number 2
_symmetry_cell_setting 'triclinic'
loop_
_space_group_symop_operation_xyz
x,y,z
-x,-y,-z
loop_
_atom_site_type_symbol
_atom_site_label
_atom_site_fract_x
_atom_site_fract_y
_atom_site_fract_z
Si Si1 0.105739 0.844609 0.587329
Si Si2 0.594880 0.758899 0.449094
Si Si3 0.241559 0.390298 0.099073
Si Si4 0.812987 0.812072 0.144565
Si Si5 0.219273 0.638200 0.609201
O O1 0.232880 0.791897 0.597868
O O2 0.926726 0.773773 0.391621
O O3 0.231236 0.051147 0.516174
O O4 0.012924 0.257215 0.183975
O O5 0.621436 0.616618 0.658838
O O6 0.644909 0.795842 0.206688
O O7 0.384161 0.702725 0.466610
O O8 0.273785 0.313223 0.985320
O O9 0.258766 0.549970 0.882901
O O10 0.000000 0.000000 0.000000
O O11 0.000000 0.500000 0.500000
#
# Coordination Sequence:
#
# PCOD9053499 Si02
#       5
#     2   2   2   2   2
#     4  11  22  43  69  94 128 170 216 262 319 382
#     4  11  24  42  71  95 123 175 221 254 314 392
#     4  11  22  44  69  93 129 171 212 267 318 379
#     4  11  19  41  72  98 123 163 223 268 309 378
#     4  12  26  44  61  98 140 166 206 272 326 369
#
# _framework density 23.549970999999999
#
# number of rings (size 3 to 8) (size 9 to 14) (size 15 to 20)
#    0.000    0.800    6.000    3.000    0.000    0.800 
#    7.200    2.000    0.000    0.000    0.000    0.000 
#    0.000    0.000    0.000    0.000    0.000    0.000 
#
# Total GULP energy -55910.468892 kJ/mol
# GULP energy per Si atom -5591.046889 kJ/mol
# Density = 2.349637 g / cm^3
# Si number density = 23.549971 Si / 1000 Ang^3
#
#
#
# Elastic Constant Matrix: (Units=GPa)
#
#
# Indices 1 2 3 4 5 6 
#
# 1 198.9494 23.4587 58.5311 -5.4811 -37.3639 0.9605
# 2 23.4587 70.3686 30.7476 10.7427 -2.1572 -4.9884
# 3 58.5311 30.7476 94.0513 -0.0595 -26.7508 -14.1554
# 4 -5.4811 10.7427 -0.0595 33.6649 -0.5121 0.9618
# 5 -37.3639 -2.1572 -26.7508 -0.5121 41.7793 -4.4451
# 6 0.9605 -4.9884 -14.1554 0.9618 -4.4451 33.0081
#
#
#
# Elastic Compliance Matrix: (Units=1/GPa)
#
#
# Indices 1 2 3 4 5 6 
#
# 1 0.006832 -0.001232 -0.002836 0.001595 0.004133 -0.001091
# 2 -0.001232 0.018239 -0.006535 -0.006088 -0.004466 -0.000434
# 3 -0.002836 -0.006535 0.018631 0.001569 0.009966 0.008381
# 4 0.001595 -0.006088 0.001569 0.031972 0.002412 -0.000900
# 5 0.004133 -0.004466 0.009966 0.002412 0.034672 0.008078
# 6 -0.001091 -0.000434 0.008381 -0.000900 0.008078 0.034970
#
#
# Mechanical properties :
#
#
# Convention : Reuss Voigt Hill
#
# Bulk Modulus (GPa) = 44.45541 65.42712 54.94126
# Shear Modulus (GPa) = 28.73213 38.39925 33.56569
#
# Velocity S-wave (km/s) = 3.49671 4.04238 3.77941
# Velocity P-wave (km/s) = 5.93470 7.04488 6.51349
#
# Compressibility (1/GPa) = 0.02249445
#
# Stress axis : x y z
#
# Youngs Moduli (GPa) = 146.37848 54.82767 53.67317
#
# Poissons Ratio (x) = 0.06756 0.15223
# Poissons Ratio (y) = 0.18037 0.35077
# Poissons Ratio (z) = 0.41516 0.35831
#
# Static dielectric constant tensor:
#      x y z
#    x 1.931120 0.037860 -0.034460 
#    y 0.037860 1.908800 -0.022190 
#    z -0.034460 -0.022190 1.940890 
# 
# From -- ./inp_files/167213.got.cif
#   From: 2010.05.17/outbox.cif.g08.bks.cpg/sg2_84_cif.got.tgz:167213.got - 2010.06.03 11:33:40.
