data_PCOD9053118
_publ_section_title
;
Structure prediction by ZEFSAII (Michael W. Deem and Ramdas Pophale) SiO2 
 PCOD9053118
Probable space group: P -1
;
_chemical_formula_sum "Si O2"
_cell_formula_units_Z 14
_cell_length_a 8.932309
_cell_length_b 11.957704
_cell_length_c 14.851976
_cell_angle_alpha 121.240843
_cell_angle_beta 48.119382
_cell_angle_gamma 82.677392
_cell_volume 674.610452
_symmetry_space_group_name_H-M "P -1"
_symmetry_group_IT_number 2
_symmetry_cell_setting 'triclinic'
loop_
_space_group_symop_operation_xyz
x,y,z
-x,-y,-z
loop_
_atom_site_type_symbol
_atom_site_label
_atom_site_fract_x
_atom_site_fract_y
_atom_site_fract_z
Si Si1 0.575577 0.487787 0.862016
Si Si2 0.781866 0.241517 0.038641
Si Si3 0.824320 0.990792 0.808965
Si Si4 0.841323 0.681656 0.070511
Si Si5 0.771689 0.120622 0.559591
Si Si6 0.137653 0.559609 0.522583
Si Si7 0.158036 0.382094 0.166526
O O1 0.311668 0.682523 0.994853
O O2 0.625723 0.331680 0.724135
O O3 0.840649 0.464662 0.744800
O O4 0.500000 0.500000 0.000000
O O5 0.481883 0.405863 0.287477
O O6 0.020422 0.239823 0.960194
O O7 0.851831 0.053035 0.920268
O O8 0.051273 0.953778 0.634335
O O9 0.941703 0.784754 0.676350
O O10 0.480413 0.167251 0.982797
O O11 0.495102 0.853727 0.313920
O O12 0.855462 0.622397 0.937295
O O13 0.000000 0.500000 0.000000
O O14 0.000000 0.000000 0.500000
O O15 0.000000 0.500000 0.500000
O O16 0.100034 0.555579 0.642979
#
# Coordination Sequence:
#
# PCOD9053118 Si02
#       7
#     2   2   2   2   2   2   2
#     4  11  18  38  62  96 124 169 219 271 321 386
#     4  11  24  40  63  94 134 172 215 272 333 382
#     4  11  22  41  66  99 130 167 227 275 320 397
#     4  12  23  42  65  97 140 174 212 277 340 391
#     4  12  21  37  66  96 132 170 225 271 327 397
#     4  12  22  43  71  97 125 175 228 272 322 395
#     4  11  23  38  69  97 126 177 222 267 327 394
#
# _framework density 20.752718999999999
#
# number of rings (size 3 to 8) (size 9 to 14) (size 15 to 20)
#    0.000    0.571    8.571    1.286    0.000    1.143 
#    0.000    2.143    0.000    0.000    0.000    0.000 
#    0.000    0.000    0.000    0.000    0.000    0.000 
#
# Total GULP energy -78047.028243 kJ/mol
# GULP energy per Si atom -5574.787732 kJ/mol
# Density = 2.070549 g / cm^3
# Si number density = 20.752719 Si / 1000 Ang^3
#
#
#
# Elastic Constant Matrix: (Units=GPa)
#
#
# Indices 1 2 3 4 5 6 
#
# 1 90.5274 24.3002 35.8339 -4.6173 -2.6775 26.4749
# 2 24.3002 79.2165 50.3616 -20.5250 -1.3248 14.0408
# 3 35.8339 50.3616 128.2964 -22.6901 5.4283 18.8184
# 4 -4.6173 -20.5250 -22.6901 40.8909 8.4690 10.2656
# 5 -2.6775 -1.3248 5.4283 8.4690 35.3983 -2.0397
# 6 26.4749 14.0408 18.8184 10.2656 -2.0397 33.6281
#
#
#
# Elastic Compliance Matrix: (Units=1/GPa)
#
#
# Indices 1 2 3 4 5 6 
#
# 1 0.015634 -0.000626 -0.001683 0.003616 -0.000152 -0.012218
# 2 -0.000626 0.019630 -0.004588 0.009562 -0.001366 -0.008138
# 3 -0.001683 -0.004588 0.012286 0.006664 -0.004118 -0.005919
# 4 0.003616 0.009562 0.006664 0.041842 -0.011787 -0.024056
# 5 -0.000152 -0.001366 -0.004118 -0.011787 0.032131 0.008542
# 6 -0.012218 -0.008138 -0.005919 -0.024056 0.008542 0.053928
#
#
# Mechanical properties :
#
#
# Convention : Reuss Voigt Hill
#
# Bulk Modulus (GPa) = 29.62403 57.67020 43.64712
# Shear Modulus (GPa) = 24.93818 34.48642 29.71230
#
# Velocity S-wave (km/s) = 3.47029 4.08091 3.78793
# Velocity P-wave (km/s) = 5.51026 7.07493 6.34104
#
# Compressibility (1/GPa) = 0.03375638
#
# Stress axis : x y z
#
# Youngs Moduli (GPa) = 63.96436 50.94366 81.39078
#
# Poissons Ratio (x) = 0.03188 0.13696
# Poissons Ratio (y) = 0.04003 0.37343
# Poissons Ratio (z) = 0.10763 0.23373
#
# Static dielectric constant tensor:
#      x y z
#    x 1.776410 -0.019800 -0.064280 
#    y -0.019800 1.646600 -0.165090 
#    z -0.064280 -0.165090 1.597820 
# 
# From -- ./inp_files/200665.got.cif
#   From: 2010.05.17/outbox.cif.g08.bks.cpg/sg2_101_cif.got.tgz:200665.got - 2010.06.03 11:33:40.
