data_PCOD9053004
_publ_section_title
;
Structure prediction by ZEFSAII (Michael W. Deem and Ramdas Pophale) SiO2 
 PCOD9053004
Probable space group: P -1
;
_chemical_formula_sum "Si O2"
_cell_formula_units_Z 16
_cell_length_a 9.090048
_cell_length_b 9.249818
_cell_length_c 10.291742
_cell_angle_alpha 104.972362
_cell_angle_beta 125.387264
_cell_angle_gamma 79.282714
_cell_volume 680.799649
_symmetry_space_group_name_H-M "P -1"
_symmetry_group_IT_number 2
_symmetry_cell_setting 'triclinic'
loop_
_space_group_symop_operation_xyz
x,y,z
-x,-y,-z
loop_
_atom_site_type_symbol
_atom_site_label
_atom_site_fract_x
_atom_site_fract_y
_atom_site_fract_z
Si Si1 0.557144 0.513673 0.827857
Si Si2 0.320401 0.245009 0.588666
Si Si3 0.665476 0.216546 0.101279
Si Si4 0.664057 0.676082 0.684231
Si Si5 0.087930 0.917565 0.151618
Si Si6 0.924291 0.364782 0.060978
Si Si7 0.556084 0.007482 0.772996
Si Si8 0.972283 0.105372 0.388253
O O1 0.437287 0.367846 0.749980
O O2 0.471118 0.647866 0.900175
O O3 0.552905 0.560121 0.684082
O O4 0.766956 0.484791 0.967704
O O5 0.364492 0.274057 0.467426
O O6 0.103883 0.245111 0.494215
O O7 0.376059 0.079161 0.632824
O O8 0.824153 0.277788 0.104919
O O9 0.418102 0.913158 0.056856
O O10 0.765685 0.158490 0.269087
O O11 0.615238 0.833601 0.769779
O O12 0.872760 0.612993 0.784391
O O13 0.299235 0.927639 0.239156
O O14 0.024860 0.004249 0.266012
O O15 0.047949 0.744984 0.074963
O O16 0.000000 0.000000 0.000000
O O17 0.000000 0.000000 0.500000
#
# Coordination Sequence:
#
# PCOD9053004 Si02
#       8
#     2   2   2   2   2   2   2   2
#     4  12  28  42  70 104 145 187 235 287 348 435
#     4  12  25  45  67 102 145 188 224 289 367 421
#     4  11  23  49  69  97 146 184 239 287 362 413
#     4  12  24  45  71 107 138 180 243 297 348 414
#     4  11  17  42  75  97 130 181 237 289 344 410
#     4  11  21  46  73  97 135 197 236 282 348 430
#     4  11  22  41  80  96 127 189 238 292 346 413
#     4  12  26  44  72 109 140 182 240 302 359 410
#
# _framework density 23.501776
#
# number of rings (size 3 to 8) (size 9 to 14) (size 15 to 20)
#    0.000    0.500    8.750    1.500    1.750    1.000 
#    4.500    0.000    0.000    0.000    0.000    0.000 
#    0.000    0.000    0.000    0.000    0.000    0.000 
#
# Total GULP energy -89401.491026 kJ/mol
# GULP energy per Si atom -5587.593189 kJ/mol
# Density = 2.344828 g / cm^3
# Si number density = 23.501776 Si / 1000 Ang^3
#
#
#
# Elastic Constant Matrix: (Units=GPa)
#
#
# Indices 1 2 3 4 5 6 
#
# 1 84.6765 48.8343 45.7260 1.2296 -4.6683 -11.4563
# 2 48.8343 105.7081 49.2525 -14.0397 -1.4976 -18.8529
# 3 45.7260 49.2525 101.6698 -22.3253 -1.3644 -11.3662
# 4 1.2296 -14.0397 -22.3253 34.3840 4.3752 -1.0603
# 5 -4.6683 -1.4976 -1.3644 4.3752 31.9755 -11.9335
# 6 -11.4563 -18.8529 -11.3662 -1.0603 -11.9335 52.9888
#
#
#
# Elastic Compliance Matrix: (Units=1/GPa)
#
#
# Indices 1 2 3 4 5 6 
#
# 1 0.020340 -0.006771 -0.007659 -0.008934 0.003942 0.001055
# 2 -0.006771 0.015175 -0.002899 0.004630 0.000258 0.003464
# 3 -0.007659 -0.002899 0.017032 0.010384 -0.001648 0.000803
# 4 -0.008934 0.004630 0.010384 0.038767 -0.005387 0.001506
# 5 0.003942 0.000258 -0.001648 -0.005387 0.035710 0.008525
# 6 0.001055 0.003464 0.000803 0.001506 0.008525 0.022455
#
#
# Mechanical properties :
#
#
# Convention : Reuss Voigt Hill
#
# Bulk Modulus (GPa) = 55.89472 64.40888 60.15180
# Shear Modulus (GPa) = 26.30205 33.75242 30.02724
#
# Velocity S-wave (km/s) = 3.34900 3.79379 3.57831
# Velocity P-wave (km/s) = 6.22810 6.83051 6.53625
#
# Compressibility (1/GPa) = 0.01789078
#
# Stress axis : x y z
#
# Youngs Moduli (GPa) = 49.16421 65.89817 58.71174
#
# Poissons Ratio (x) = 0.44617 0.44967
# Poissons Ratio (y) = 0.33287 0.17019
# Poissons Ratio (z) = 0.37655 0.19102
#
# Static dielectric constant tensor:
#      x y z
#    x 1.890320 0.025710 0.033720 
#    y 0.025710 1.934450 -0.024450 
#    z 0.033720 -0.024450 1.941710 
# 
# From -- ./inp_files/379680.got.cif
#   From: 2010.05.17/outbox.cif.g08.bks.cpg/sg2_190_cif.got.tgz:379680.got - 2010.06.03 11:33:40.
