data_PCOD9053806
_publ_section_title
;
Structure prediction by ZEFSAII (Michael W. Deem and Ramdas Pophale) SiO2 
 PCOD9053806
Probable space group: P -1
;
_chemical_formula_sum "Si O2"
_cell_formula_units_Z 16
_cell_length_a 14.802123
_cell_length_b 8.719569
_cell_length_c 11.880377
_cell_angle_alpha 96.397516
_cell_angle_beta 28.181955
_cell_angle_gamma 101.267362
_cell_volume 704.070270
_symmetry_space_group_name_H-M "P -1"
_symmetry_group_IT_number 2
_symmetry_cell_setting 'triclinic'
loop_
_space_group_symop_operation_xyz
x,y,z
-x,-y,-z
loop_
_atom_site_type_symbol
_atom_site_label
_atom_site_fract_x
_atom_site_fract_y
_atom_site_fract_z
Si Si1 0.639087 0.886087 0.292716
Si Si2 0.517213 0.890774 0.837364
Si Si3 0.071048 0.360673 0.346573
Si Si4 0.777488 0.169515 0.030746
Si Si5 0.459164 0.400352 0.798012
Si Si6 0.637757 0.243537 0.784366
Si Si7 0.913470 0.857518 0.497565
Si Si8 0.498497 0.353982 0.407799
O O1 0.549721 0.752692 0.286637
O O2 0.664037 0.783921 0.366949
O O3 0.500000 0.000000 0.500000
O O4 0.802978 0.017684 0.062185
O O5 0.434016 0.867438 0.803056
O O6 0.740232 0.889873 0.614207
O O7 0.502897 0.071532 0.892945
O O8 0.394853 0.759950 0.045394
O O9 0.164077 0.277541 0.338448
O O10 0.000000 0.500000 0.500000
O O11 0.868776 0.254692 0.514219
O O12 0.235024 0.401363 0.076083
O O13 0.719526 0.314830 0.172466
O O14 0.928960 0.190102 0.763852
O O15 0.572757 0.368972 0.783685
O O16 0.541361 0.567107 0.660841
O O17 0.000000 0.000000 0.500000
O O18 0.500000 0.500000 0.500000
#
# Coordination Sequence:
#
# PCOD9053806 Si02
#       8
#     2   2   2   2   2   2   2   2
#     4   9  19  37  65  89 108 155 214 257 299 347
#     4  11  21  35  61  93 125 160 201 245 291 363
#     4  12  25  37  56  91 133 167 197 231 294 379
#     4  11  20  37  65  91 121 159 199 251 305 350
#     4  11  21  39  63  86 124 169 189 247 312 346
#     4  11  22  37  59  90 129 163 200 240 294 365
#     4  12  21  36  59  90 131 164 194 241 294 367
#     4   9  21  40  64  87 114 158 214 253 300 356
#
# _framework density 22.725004999999999
#
# number of rings (size 3 to 8) (size 9 to 14) (size 15 to 20)
#    0.000    1.250    5.000    2.250    0.000    1.500 
#    0.000    0.000    0.000   30.000    0.000    0.000 
#    0.000    0.000    0.000    0.000    0.000    0.000 
#
# Total GULP energy -89150.148860 kJ/mol
# GULP energy per Si atom -5571.884304 kJ/mol
# Density = 2.267328 g / cm^3
# Si number density = 22.725005 Si / 1000 Ang^3
#
#
#
# Elastic Constant Matrix: (Units=GPa)
#
#
# Indices 1 2 3 4 5 6 
#
# 1 70.1454 19.1571 48.9520 -13.3975 15.6433 -31.8731
# 2 19.1571 106.5091 18.2068 1.8432 13.8659 -22.5437
# 3 48.9520 18.2068 80.7647 6.0994 10.6337 -6.6321
# 4 -13.3975 1.8432 6.0994 36.1234 -9.1198 16.3446
# 5 15.6433 13.8659 10.6337 -9.1198 36.9835 -5.9787
# 6 -31.8731 -22.5437 -6.6321 16.3446 -5.9787 43.5485
#
#
#
# Elastic Compliance Matrix: (Units=1/GPa)
#
#
# Indices 1 2 3 4 5 6 
#
# 1 0.049322 0.002946 -0.027742 0.007610 -0.007339 0.029536
# 2 0.002946 0.011863 -0.002833 -0.004150 -0.004479 0.008809
# 3 -0.027742 -0.002833 0.029357 -0.008778 -0.000075 -0.014016
# 4 0.007610 -0.004150 -0.008778 0.039660 0.008766 -0.011597
# 5 -0.007339 -0.004479 -0.000075 0.008766 0.032960 -0.006467
# 6 0.029536 0.008809 -0.014016 -0.011597 -0.006467 0.050470
#
#
# Mechanical properties :
#
#
# Convention : Reuss Voigt Hill
#
# Bulk Modulus (GPa) = 28.34187 47.78346 38.06267
# Shear Modulus (GPa) = 17.81572 34.73796 26.27684
#
# Velocity S-wave (km/s) = 2.80298 3.91400 3.40412
# Velocity P-wave (km/s) = 4.79316 6.44192 5.67771
#
# Compressibility (1/GPa) = 0.03528348
#
# Stress axis : x y z
#
# Youngs Moduli (GPa) = 20.27487 84.29852 34.06381
#
# Poissons Ratio (x) = -0.24836 0.94499
# Poissons Ratio (y) = -0.05973 0.09652
# Poissons Ratio (z) = 0.56246 0.23886
#
# Static dielectric constant tensor:
#      x y z
#    x 1.331130 -0.999220 -0.261210 
#    y -0.999220 0.187450 -0.471460 
#    z -0.261210 -0.471460 1.812730 
# 
# From -- ./inp_files/447465.got.cif
#   From: 2010.05.17/outbox.cif.g08.bks.cpg/sg2_224_cif.got.tgz:447465.got - 2010.06.03 11:33:40.
