data_PCOD9053326
_publ_section_title
;
Structure prediction by ZEFSAII (Michael W. Deem and Ramdas Pophale) SiO2 
 PCOD9053326
Probable space group: P -1
;
_chemical_formula_sum "Si O2"
_cell_formula_units_Z 16
_cell_length_a 9.987657
_cell_length_b 14.847580
_cell_length_c 9.218338
_cell_angle_alpha 51.034155
_cell_angle_beta 44.744363
_cell_angle_gamma 47.906185
_cell_volume 682.864527
_symmetry_space_group_name_H-M "P -1"
_symmetry_group_IT_number 2
_symmetry_cell_setting 'triclinic'
loop_
_space_group_symop_operation_xyz
x,y,z
-x,-y,-z
loop_
_atom_site_type_symbol
_atom_site_label
_atom_site_fract_x
_atom_site_fract_y
_atom_site_fract_z
Si Si1 0.570990 0.366093 0.663283
Si Si2 0.333492 0.871010 0.335172
Si Si3 0.135984 0.391580 0.900553
Si Si4 0.041737 0.426827 0.391314
Si Si5 0.644038 0.130083 0.336849
Si Si6 0.243480 0.137198 0.129580
Si Si7 0.224909 0.146425 0.484127
Si Si8 0.516575 0.379696 0.018492
O O1 0.500000 0.500000 0.500000
O O2 0.718380 0.236939 0.596901
O O3 0.361392 0.342624 0.845324
O O4 0.603642 0.382058 0.789865
O O5 0.357647 0.845782 0.514123
O O6 0.185314 0.018039 0.268563
O O7 0.553190 0.875160 0.108191
O O8 0.125028 0.465139 0.688031
O O9 0.074524 0.273007 0.067973
O O10 0.000000 0.500000 0.000000
O O11 0.049356 0.285516 0.515599
O O12 0.274727 0.398811 0.182932
O O13 0.000000 0.500000 0.500000
O O14 0.421179 0.135824 0.444287
O O15 0.657289 0.246829 0.121812
O O16 0.803370 0.983964 0.333662
O O17 0.274141 0.141352 0.277130
O O18 0.500000 0.500000 0.000000
#
# Coordination Sequence:
#
# PCOD9053326 Si02
#       8
#     2   2   2   2   2   2   2   2
#     4  11  23  37  59  83 109 144 184 229 273 324
#     4   9  17  30  50  80 104 137 185 224 268 313
#     4  11  19  37  57  81 113 144 180 227 274 318
#     4  11  23  35  55  85 113 145 182 223 273 327
#     4   9  17  30  52  75 107 142 177 226 269 316
#     4   9  17  29  51  77 108 139 179 229 264 316
#     4   9  17  31  48  77 109 141 180 222 271 314
#     4  11  23  39  56  81 113 146 183 225 274 326
#
# _framework density 23.430710000000001
#
# number of rings (size 3 to 8) (size 9 to 14) (size 15 to 20)
#    0.000    2.000    2.500    3.000    8.750    1.000 
#    0.000    0.000    0.000    3.000    0.000    0.000 
#    0.000    0.000    0.000    0.000    0.000    0.000 
#
# Total GULP energy -89175.407211 kJ/mol
# GULP energy per Si atom -5573.462951 kJ/mol
# Density = 2.337738 g / cm^3
# Si number density = 23.430710 Si / 1000 Ang^3
#
#
#
# Elastic Constant Matrix: (Units=GPa)
#
#
# Indices 1 2 3 4 5 6 
#
# 1 49.5013 29.6718 28.2107 4.4470 13.4363 17.0942
# 2 29.6718 188.0769 90.0068 -48.3669 23.2592 45.2520
# 3 28.2107 90.0068 142.7984 -29.9114 34.1190 22.7830
# 4 4.4470 -48.3669 -29.9114 55.5405 -1.3751 -2.6132
# 5 13.4363 23.2592 34.1190 -1.3751 41.8569 12.7429
# 6 17.0942 45.2520 22.7830 -2.6132 12.7429 40.4049
#
#
#
# Elastic Compliance Matrix: (Units=1/GPa)
#
#
# Indices 1 2 3 4 5 6 
#
# 1 0.027207 -0.002401 -0.003554 -0.006552 -0.002780 -0.006364
# 2 -0.002401 0.011922 -0.003947 0.008004 0.000605 -0.009784
# 3 -0.003554 -0.003947 0.012370 0.003400 -0.007062 0.001397
# 4 -0.006552 0.008004 0.003400 0.027006 -0.002535 -0.005563
# 5 -0.002780 0.000605 -0.007062 -0.002535 0.031866 -0.005733
# 6 -0.006364 -0.009784 0.001397 -0.005563 -0.005733 0.039061
#
#
# Mechanical properties :
#
#
# Convention : Reuss Voigt Hill
#
# Bulk Modulus (GPa) = 31.55228 75.12835 53.34032
# Shear Modulus (GPa) = 27.80837 43.05962 35.43399
#
# Velocity S-wave (km/s) = 3.44878 4.29154 3.89303
# Velocity P-wave (km/s) = 5.41796 7.52928 6.55913
#
# Compressibility (1/GPa) = 0.03169343
#
# Stress axis : x y z
#
# Youngs Moduli (GPa) = 36.75483 83.87547 80.84251
#
# Poissons Ratio (x) = 0.20141 0.28733
# Poissons Ratio (y) = 0.08826 0.31912
# Poissons Ratio (z) = 0.13064 0.33110
#
# Static dielectric constant tensor:
#      x y z
#    x 0.394540 -3.062460 -0.732090 
#    y -3.062460 -3.809730 -1.335770 
#    z -0.732090 -1.335770 1.633720 
# 
# From -- ./inp_files/253989.got.cif
#   From: 2010.05.17/outbox.cif.g08.bks.cpg/sg2_127_cif.got.tgz:253989.got - 2010.06.03 11:33:40.
