data_PCOD9053843
_publ_section_title
;
Structure prediction by ZEFSAII (Michael W. Deem and Ramdas Pophale) SiO2 
 PCOD9053843
Probable space group: P -1
;
_chemical_formula_sum "Si O2"
_cell_formula_units_Z 14
_cell_length_a 30.717542
_cell_length_b 9.523485
_cell_length_c 20.243054
_cell_angle_alpha 145.519248
_cell_angle_beta 165.126522
_cell_angle_gamma 28.979053
_cell_volume 725.702390
_symmetry_space_group_name_H-M "P -1"
_symmetry_group_IT_number 2
_symmetry_cell_setting 'triclinic'
loop_
_space_group_symop_operation_xyz
x,y,z
-x,-y,-z
loop_
_atom_site_type_symbol
_atom_site_label
_atom_site_fract_x
_atom_site_fract_y
_atom_site_fract_z
Si Si1 0.566429 0.338946 0.749630
Si Si2 0.167722 0.157367 0.597010
Si Si3 0.443774 0.986639 0.809545
Si Si4 0.643476 0.014508 0.860950
Si Si5 0.722896 0.822534 0.693862
Si Si6 0.070312 0.666135 0.295165
Si Si7 0.432071 0.305248 0.788847
O O1 0.519281 0.647700 0.778426
O O2 0.610424 0.290498 0.874359
O O3 0.369825 0.317441 0.448839
O O4 0.735726 0.059963 0.847980
O O5 0.000000 0.500000 0.500000
O O6 0.264424 0.124199 0.653503
O O7 0.084952 0.942155 0.400481
O O8 0.360973 0.030313 0.879647
O O9 0.383279 0.153182 0.716354
O O10 0.462389 0.989249 0.556813
O O11 0.611372 0.077924 0.915217
O O12 0.863255 0.764012 0.065140
O O13 0.892558 0.556021 0.796534
O O14 0.248721 0.492034 0.542264
O O15 0.500000 0.500000 0.000000
#
# Coordination Sequence:
#
# PCOD9053843 Si02
#       7
#     2   2   2   2   2   2   2
#     4   9  17  39  61  81 108 141 188 232 275 318
#     4  11  23  34  57  84 107 142 186 236 275 317
#     4  11  22  38  55  79 117 143 180 233 270 324
#     4   9  20  35  57  82 110 143 184 226 270 323
#     4   8  18  36  61  85 104 141 186 232 279 317
#     4  11  20  38  58  82 113 145 186 225 277 329
#     4  11  23  37  53  78 116 158 181 212 274 338
#
# _framework density 19.291656
#
# number of rings (size 3 to 8) (size 9 to 14) (size 15 to 20)
#    0.857    1.143    2.857    0.857    4.000    2.286 
#    0.000    2.857    0.000    1.714    0.000    0.000 
#    0.000    0.000    0.000    0.000    0.000    0.000 
#
# Total GULP energy -78007.240122 kJ/mol
# GULP energy per Si atom -5571.945723 kJ/mol
# Density = 1.924775 g / cm^3
# Si number density = 19.291656 Si / 1000 Ang^3
#
#
#
# Elastic Constant Matrix: (Units=GPa)
#
#
# Indices 1 2 3 4 5 6 
#
# 1 138.6745 63.6787 28.6978 -6.8067 0.1974 -17.6945
# 2 63.6787 105.8089 25.2825 -4.5402 8.0498 -14.4888
# 3 28.6978 25.2825 62.1434 -8.5752 8.5512 -13.8904
# 4 -6.8067 -4.5402 -8.5752 26.7951 -11.1946 3.6687
# 5 0.1974 8.0498 8.5512 -11.1946 26.5675 -10.0164
# 6 -17.6945 -14.4888 -13.8904 3.6687 -10.0164 38.4607
#
#
#
# Elastic Compliance Matrix: (Units=1/GPa)
#
#
# Indices 1 2 3 4 5 6 
#
# 1 0.010848 -0.005827 -0.002263 0.002564 0.004599 0.002932
# 2 -0.005827 0.013879 -0.002476 -0.001589 -0.003719 0.000836
# 3 -0.002263 -0.002476 0.019951 0.003781 -0.002467 0.004228
# 4 0.002564 -0.001589 0.003781 0.046911 0.020025 0.002687
# 5 0.004599 -0.003719 -0.002467 0.020025 0.052315 0.011538
# 6 0.002932 0.000836 0.004228 0.002687 0.011538 0.031940
#
#
# Mechanical properties :
#
#
# Convention : Reuss Voigt Hill
#
# Bulk Modulus (GPa) = 42.47009 60.21610 51.34310
# Shear Modulus (GPa) = 24.41133 30.96252 27.68692
#
# Velocity S-wave (km/s) = 3.56108 4.01055 3.79248
# Velocity P-wave (km/s) = 6.24267 7.26136 6.77120
#
# Compressibility (1/GPa) = 0.02354598
#
# Stress axis : x y z
#
# Youngs Moduli (GPa) = 92.17981 72.05376 50.12389
#
# Poissons Ratio (x) = 0.41982 0.11343
# Poissons Ratio (y) = 0.53709 0.12412
# Poissons Ratio (z) = 0.20860 0.17842
#
# Static dielectric constant tensor:
#      x y z
#    x 1.671550 -0.029970 -0.013000 
#    y -0.029970 1.693390 -0.009790 
#    z -0.013000 -0.009790 1.739960 
# 
# From -- ./inp_files/445491.got.cif
#   From: 2010.05.17/outbox.cif.g08.bks.cpg/sg2_223_cif.got.tgz:445491.got - 2010.06.03 11:33:40.
