data_PCOD9053894
_publ_section_title
;
Structure prediction by ZEFSAII (Michael W. Deem and Ramdas Pophale) SiO2 
 PCOD9053894
Probable space group: P -1
;
_chemical_formula_sum "Si O2"
_cell_formula_units_Z 16
_cell_length_a 11.856435
_cell_length_b 14.800502
_cell_length_c 11.766439
_cell_angle_alpha 28.116846
_cell_angle_beta 53.833106
_cell_angle_gamma 42.636764
_cell_volume 647.868579
_symmetry_space_group_name_H-M "P -1"
_symmetry_group_IT_number 2
_symmetry_cell_setting 'triclinic'
loop_
_space_group_symop_operation_xyz
x,y,z
-x,-y,-z
loop_
_atom_site_type_symbol
_atom_site_label
_atom_site_fract_x
_atom_site_fract_y
_atom_site_fract_z
Si Si1 0.244324 0.152763 0.433172
Si Si2 0.877710 0.801685 0.043820
Si Si3 0.559221 0.664764 0.825108
Si Si4 0.462601 0.543402 0.713899
Si Si5 0.256764 0.473110 0.528971
Si Si6 0.753623 0.912318 0.744357
Si Si7 0.503558 0.790404 0.118113
Si Si8 0.985633 0.965097 0.179969
O O1 0.267876 0.342997 0.264648
O O2 0.164688 0.204463 0.296627
O O3 0.159839 0.067521 0.662852
O O4 0.428850 0.913512 0.569961
O O5 0.867786 0.799273 0.915338
O O6 0.694675 0.022394 0.952580
O O7 0.016942 0.839882 0.963069
O O8 0.877367 0.592264 0.332842
O O9 0.500000 0.500000 0.000000
O O10 0.540417 0.632500 0.004978
O O11 0.641919 0.516823 0.647589
O O12 0.460812 0.439008 0.709875
O O13 0.316166 0.814224 0.517475
O O14 0.403095 0.281305 0.736739
O O15 0.156018 0.716708 0.382248
O O16 0.597127 0.887167 0.885791
O O17 0.000000 0.000000 0.000000
#
# Coordination Sequence:
#
# PCOD9053894 Si02
#       8
#     2   2   2   2   2   2   2   2
#     4  11  26  45  62  96 138 171 221 277 326 395
#     4  11  23  41  68 101 135 177 220 274 333 386
#     4  11  24  41  68  96 123 175 224 271 334 385
#     4  12  19  34  67  99 126 167 215 274 328 377
#     4  11  22  39  67 100 130 169 219 274 324 390
#     4  11  21  39  66 100 133 166 222 283 324 384
#     4  11  20  38  67 104 133 165 225 278 331 378
#     4  12  28  46  65  93 136 182 222 267 331 406
#
# _framework density 24.696368
#
# number of rings (size 3 to 8) (size 9 to 14) (size 15 to 20)
#    0.000    0.750    6.250    2.625    0.000    3.000 
#    0.000    2.500    0.000    0.000    0.000    0.000 
#    0.000    0.000    0.000    0.000    0.000    0.000 
#
# Total GULP energy -89372.362571 kJ/mol
# GULP energy per Si atom -5585.772661 kJ/mol
# Density = 2.464016 g / cm^3
# Si number density = 24.696368 Si / 1000 Ang^3
#
#
#
# Elastic Constant Matrix: (Units=GPa)
#
#
# Indices 1 2 3 4 5 6 
#
# 1 122.0964 31.2573 46.6555 14.1066 -44.1659 30.6601
# 2 31.2573 53.3759 21.3582 7.5944 -13.8139 19.1765
# 3 46.6555 21.3582 105.0595 20.7017 -37.4985 5.9269
# 4 14.1066 7.5944 20.7017 54.8699 2.3064 -7.6841
# 5 -44.1659 -13.8139 -37.4985 2.3064 47.5801 -5.7221
# 6 30.6601 19.1765 5.9269 -7.6841 -5.7221 27.4598
#
#
#
# Elastic Compliance Matrix: (Units=1/GPa)
#
#
# Indices 1 2 3 4 5 6 
#
# 1 0.021563 0.002480 -0.000276 -0.010013 0.018022 -0.024794
# 2 0.002480 0.029338 -0.001738 -0.007636 0.006986 -0.023563
# 3 -0.000276 -0.001738 0.015377 -0.006130 0.011522 -0.001112
# 4 -0.010013 -0.007636 -0.006130 0.027955 -0.014987 0.022535
# 5 0.018022 0.006986 0.011522 -0.014987 0.046947 -0.021898
# 6 -0.024794 -0.023563 -0.001112 0.022535 -0.021898 0.082539
#
#
# Mechanical properties :
#
#
# Convention : Reuss Voigt Hill
#
# Bulk Modulus (GPa) = 14.87872 53.23042 34.05457
# Shear Modulus (GPa) = 20.39225 38.06601 29.22913
#
# Velocity S-wave (km/s) = 2.87665 3.93028 3.44399
# Velocity P-wave (km/s) = 4.13173 6.49591 5.44371
#
# Compressibility (1/GPa) = 0.06721007
#
# Stress axis : x y z
#
# Youngs Moduli (GPa) = 46.37615 34.08499 65.03050
#
# Poissons Ratio (x) = -0.08452 0.01793
# Poissons Ratio (y) = -0.11500 0.11303
# Poissons Ratio (z) = 0.01279 0.05925
#
# Static dielectric constant tensor:
#      x y z
#    x 2.040610 -0.008730 -0.013510 
#    y -0.008730 2.009800 0.018730 
#    z -0.013510 0.018730 2.006380 
# 
# From -- ./inp_files/428747.got.cif
#   From: 2010.05.17/outbox.cif.g08.bks.cpg/sg2_215_cif.got.tgz:428747.got - 2010.06.03 11:33:40.
