data_PCOD9053479
_publ_section_title
;
Structure prediction by ZEFSAII (Michael W. Deem and Ramdas Pophale) SiO2 
 PCOD9053479
Probable space group: P -1
;
_chemical_formula_sum "Si O2"
_cell_formula_units_Z 14
_cell_length_a 13.044702
_cell_length_b 15.524126
_cell_length_c 8.939473
_cell_angle_alpha 134.578571
_cell_angle_beta 53.301176
_cell_angle_gamma 150.324635
_cell_volume 638.010978
_symmetry_space_group_name_H-M "P -1"
_symmetry_group_IT_number 2
_symmetry_cell_setting 'triclinic'
loop_
_space_group_symop_operation_xyz
x,y,z
-x,-y,-z
loop_
_atom_site_type_symbol
_atom_site_label
_atom_site_fract_x
_atom_site_fract_y
_atom_site_fract_z
Si Si1 0.935001 0.233656 0.051486
Si Si2 0.491226 0.952227 0.125667
Si Si3 0.081859 0.198433 0.153255
Si Si4 0.779110 0.478000 0.080576
Si Si5 0.482537 0.479881 0.668857
Si Si6 0.815207 0.950448 0.564347
Si Si7 0.116827 0.812971 0.432496
O O1 0.063990 0.239101 0.051428
O O2 0.730960 0.135950 0.188833
O O3 0.071090 0.434180 0.086598
O O4 0.832528 0.071537 0.815005
O O5 0.333238 0.913160 0.317714
O O6 0.391300 0.745127 0.989954
O O7 0.500000 0.000000 0.000000
O O8 0.308289 0.357431 0.222546
O O9 0.957756 0.211555 0.367849
O O10 0.000000 0.000000 0.000000
O O11 0.668690 0.519125 0.172267
O O12 0.934027 0.614985 0.252422
O O13 0.500000 0.500000 0.500000
O O14 0.389397 0.279199 0.535330
O O15 0.859691 0.035408 0.468235
O O16 0.000000 0.000000 0.500000
#
# Coordination Sequence:
#
# PCOD9053479 Si02
#       7
#     2   2   2   2   2   2   2
#     4  11  25  44  67 102 144 178 227 295 339 403
#     4  12  24  44  75  99 131 189 240 281 337 404
#     4  12  26  44  66 104 146 180 223 288 357 407
#     4  11  23  43  70 105 134 176 242 282 334 419
#     4  12  22  39  72  99 134 182 230 278 351 416
#     4  11  19  41  66  98 131 174 231 281 335 407
#     4  11  24  41  70  97 137 181 229 284 330 418
#
# _framework density 21.943194999999999
#
# number of rings (size 3 to 8) (size 9 to 14) (size 15 to 20)
#    0.000    0.571    7.143    3.857    0.000    1.143 
#    2.571    0.714    0.000    0.000    0.000    0.000 
#    0.000    0.000    0.000    0.000    0.000    0.000 
#
# Total GULP energy -78093.636255 kJ/mol
# GULP energy per Si atom -5578.116875 kJ/mol
# Density = 2.189325 g / cm^3
# Si number density = 21.943195 Si / 1000 Ang^3
#
#
#
# Elastic Constant Matrix: (Units=GPa)
#
#
# Indices 1 2 3 4 5 6 
#
# 1 86.8629 24.5371 12.8011 -3.3111 17.8695 5.0444
# 2 24.5371 113.6836 21.6516 0.5014 18.7701 -4.2336
# 3 12.8011 21.6516 45.0385 -13.6986 9.7432 6.8057
# 4 -3.3111 0.5014 -13.6986 31.8352 15.7053 -11.1504
# 5 17.8695 18.7701 9.7432 15.7053 29.4675 -4.8134
# 6 5.0444 -4.2336 6.8057 -11.1504 -4.8134 53.5180
#
#
#
# Elastic Compliance Matrix: (Units=1/GPa)
#
#
# Indices 1 2 3 4 5 6 
#
# 1 0.014836 -0.001454 0.002411 0.009033 -0.013875 -0.001186
# 2 -0.001454 0.010661 -0.003378 0.001240 -0.005257 0.001195
# 3 0.002411 -0.003378 0.038976 0.030729 -0.028844 -0.001643
# 4 0.009033 0.001240 0.030729 0.074987 -0.055417 0.005978
# 5 -0.013875 -0.005257 -0.028844 -0.055417 0.084877 0.000648
# 6 -0.001186 0.001195 -0.001643 0.005978 0.000648 0.020404
#
#
# Mechanical properties :
#
#
# Convention : Reuss Voigt Hill
#
# Bulk Modulus (GPa) = 16.77024 40.39607 28.58315
# Shear Modulus (GPa) = 18.55558 35.40382 26.97970
#
# Velocity S-wave (km/s) = 2.91111 4.02111 3.51026
# Velocity P-wave (km/s) = 4.35414 6.32522 5.42987
#
# Compressibility (1/GPa) = 0.05962945
#
# Stress axis : x y z
#
# Youngs Moduli (GPa) = 67.40567 93.80325 25.65660
#
# Poissons Ratio (x) = 0.13642 -0.06185
# Poissons Ratio (y) = 0.09803 0.08667
# Poissons Ratio (z) = -0.16249 0.31686
#
# Static dielectric constant tensor:
#      x y z
#    x 1.862530 -0.097960 0.006880 
#    y -0.097960 2.132210 -0.215170 
#    z 0.006880 -0.215170 1.965410 
# 
# From -- ./inp_files/180896.got.cif
#   From: 2010.05.17/outbox.cif.g08.bks.cpg/sg2_91_cif.got.tgz:180896.got - 2010.06.03 11:33:40.
