data_PCOD9053325
_publ_section_title
;
Structure prediction by ZEFSAII (Michael W. Deem and Ramdas Pophale) SiO2 
 PCOD9053325
Probable space group: P -1
;
_chemical_formula_sum "Si O2"
_cell_formula_units_Z 12
_cell_length_a 9.802240
_cell_length_b 16.067244
_cell_length_c 20.444131
_cell_angle_alpha 17.637611
_cell_angle_beta 143.482872
_cell_angle_gamma 145.075420
_cell_volume 553.887703
_symmetry_space_group_name_H-M "P -1"
_symmetry_group_IT_number 2
_symmetry_cell_setting 'triclinic'
loop_
_space_group_symop_operation_xyz
x,y,z
-x,-y,-z
loop_
_atom_site_type_symbol
_atom_site_label
_atom_site_fract_x
_atom_site_fract_y
_atom_site_fract_z
Si Si1 0.741308 0.044681 0.360030
Si Si2 0.585863 0.025133 0.836697
Si Si3 0.359492 0.113206 0.805734
Si Si4 0.523145 0.350700 0.328405
Si Si5 0.952728 0.497330 0.561135
Si Si6 0.093837 0.362328 0.074785
O O1 0.616589 0.963802 0.302333
O O2 0.573765 0.847838 0.497329
O O3 0.794478 0.388941 0.121822
O O4 0.000000 0.000000 0.500000
O O5 0.549339 0.198967 0.755757
O O6 0.834492 0.177588 0.782357
O O7 0.553497 0.693682 0.092179
O O8 0.244404 0.343558 0.618541
O O9 0.133533 0.868184 0.871234
O O10 0.500000 0.000000 0.000000
O O11 0.312793 0.254034 0.266030
O O12 0.793914 0.350702 0.420078
O O13 0.000000 0.500000 0.500000
O O14 0.000000 0.500000 0.000000
#
# Coordination Sequence:
#
# PCOD9053325 Si02
#       6
#     2   2   2   2   2   2
#     4  11  19  36  74  98 134 181 232 274 346 407
#     4  11  23  45  71 102 136 185 236 278 342 418
#     4  12  26  46  72 107 138 181 239 283 338 422
#     4  11  22  43  72  99 141 182 229 284 349 408
#     4  12  26  43  71 102 146 184 222 287 362 398
#     4  11  22  43  70 102 134 184 232 284 342 409
#
# _framework density 21.665040999999999
#
# number of rings (size 3 to 8) (size 9 to 14) (size 15 to 20)
#    0.000    0.667    6.667    2.000    2.333    0.667 
#    3.000    0.833    0.000    0.000    0.000    0.000 
#    0.000    0.000    0.000    0.000    0.000    0.000 
#
# Total GULP energy -67039.730881 kJ/mol
# GULP energy per Si atom -5586.644240 kJ/mol
# Density = 2.161573 g / cm^3
# Si number density = 21.665041 Si / 1000 Ang^3
#
#
#
# Elastic Constant Matrix: (Units=GPa)
#
#
# Indices 1 2 3 4 5 6 
#
# 1 87.8794 18.4914 47.3002 -8.4181 -25.1316 15.0572
# 2 18.4914 88.0917 18.4603 10.9508 -9.1556 14.4925
# 3 47.3002 18.4603 119.4415 12.1824 -23.2375 1.2067
# 4 -8.4181 10.9508 12.1824 46.4244 11.5992 4.4949
# 5 -25.1316 -9.1556 -23.2375 11.5992 46.1875 -4.4954
# 6 15.0572 14.4925 1.2067 4.4949 -4.4954 37.0790
#
#
#
# Elastic Compliance Matrix: (Units=1/GPa)
#
#
# Indices 1 2 3 4 5 6 
#
# 1 0.018035 -0.001491 -0.006487 0.004865 0.004391 -0.006587
# 2 -0.001491 0.013042 -0.000690 -0.003261 0.001871 -0.003847
# 3 -0.006487 -0.000690 0.012453 -0.005743 0.004404 0.003729
# 4 0.004865 -0.003261 -0.005743 0.027210 -0.008190 -0.004806
# 5 0.004391 0.001871 0.004404 -0.008190 0.028862 0.001834
# 6 -0.006587 -0.003847 0.003729 -0.004806 0.001834 0.031832
#
#
# Mechanical properties :
#
#
# Convention : Reuss Voigt Hill
#
# Bulk Modulus (GPa) = 38.17621 51.54627 44.86124
# Shear Modulus (GPa) = 31.74598 40.01556 35.88077
#
# Velocity S-wave (km/s) = 3.83209 4.30235 4.07401
# Velocity P-wave (km/s) = 6.10240 6.96594 6.54842
#
# Compressibility (1/GPa) = 0.02619432
#
# Stress axis : x y z
#
# Youngs Moduli (GPa) = 55.44805 76.67434 80.30453
#
# Poissons Ratio (x) = 0.11432 0.52093
# Poissons Ratio (y) = 0.08267 0.05539
# Poissons Ratio (z) = 0.35969 0.05288
#
# Static dielectric constant tensor:
#      x y z
#    x 1.801800 0.011860 0.008150 
#    y 0.011860 1.825600 -0.036410 
#    z 0.008150 -0.036410 1.838020 
# 
# From -- ./inp_files/331076.got.cif
#   From: 2010.05.17/outbox.cif.g08.bks.cpg/sg2_166_cif.got.tgz:331076.got - 2010.06.03 11:33:40.
