data_PCOD9053306
_publ_section_title
;
Structure prediction by ZEFSAII (Michael W. Deem and Ramdas Pophale) SiO2 
 PCOD9053306
Probable space group: P -1
;
_chemical_formula_sum "Si O2"
_cell_formula_units_Z 16
_cell_length_a 9.348469
_cell_length_b 18.682116
_cell_length_c 21.843870
_cell_angle_alpha 18.239405
_cell_angle_beta 43.069722
_cell_angle_gamma 41.808278
_cell_volume 791.324005
_symmetry_space_group_name_H-M "P -1"
_symmetry_group_IT_number 2
_symmetry_cell_setting 'triclinic'
loop_
_space_group_symop_operation_xyz
x,y,z
-x,-y,-z
loop_
_atom_site_type_symbol
_atom_site_label
_atom_site_fract_x
_atom_site_fract_y
_atom_site_fract_z
Si Si1 0.531175 0.051372 0.779961
Si Si2 0.060381 0.725523 0.766045
Si Si3 0.536648 0.441466 0.821875
Si Si4 0.559434 0.504145 0.325269
Si Si5 0.639411 0.663693 0.291166
Si Si6 0.023673 0.910640 0.756336
Si Si7 0.868592 0.626426 0.649102
Si Si8 0.937848 0.587629 0.796553
O O1 0.525719 0.267796 0.560105
O O2 0.372673 0.132635 0.820858
O O3 0.769424 0.985115 0.789196
O O4 0.497979 0.820082 0.944302
O O5 0.312599 0.634646 0.746164
O O6 0.920331 0.768645 0.712257
O O7 0.027308 0.911811 0.679755
O O8 0.000000 0.500000 0.000000
O O9 0.583600 0.443501 0.732994
O O10 0.713079 0.507149 0.756273
O O11 0.534435 0.701892 0.225363
O O12 0.807158 0.465191 0.256997
O O13 0.500000 0.500000 0.500000
O O14 0.885033 0.520691 0.319324
O O15 0.110200 0.650535 0.966975
O O16 0.139155 0.106020 0.585382
O O17 0.819656 0.637598 0.728152
#
# Coordination Sequence:
#
# PCOD9053306 Si02
#       8
#     2   2   2   2   2   2   2   2
#     4  11  19  36  63  80 109 152 183 229 277 317
#     4   9  18  36  60  83 106 143 198 222 258 350
#     4  11  23  38  55  85 120 142 178 239 280 316
#     4   9  18  36  57  87 106 141 198 222 260 350
#     4   9  18  36  60  83 106 143 198 222 258 350
#     4  11  19  36  63  80 109 152 183 229 277 317
#     4  11  23  38  55  85 120 142 178 239 280 316
#     4   9  18  36  57  87 106 141 198 222 260 350
#
# _framework density 20.219277999999999
#
# number of rings (size 3 to 8) (size 9 to 14) (size 15 to 20)
#    0.000    2.000    7.500    0.000    0.000    3.000 
#    0.000    5.000    0.000    0.000    0.000    0.000 
#    0.000    0.000    0.000    0.000    0.000    0.000 
#
# Total GULP energy -89170.768901 kJ/mol
# GULP energy per Si atom -5573.173056 kJ/mol
# Density = 2.017326 g / cm^3
# Si number density = 20.219278 Si / 1000 Ang^3
#
#
#
# Elastic Constant Matrix: (Units=GPa)
#
#
# Indices 1 2 3 4 5 6 
#
# 1 107.8237 6.4336 33.5783 7.3591 -14.4294 22.3140
# 2 6.4336 61.8677 -3.6611 -1.2456 1.6947 17.8572
# 3 33.5783 -3.6611 91.6585 -5.2246 -10.1088 11.6092
# 4 7.3591 -1.2456 -5.2246 25.5058 10.4331 1.2903
# 5 -14.4294 1.6947 -10.1088 10.4331 28.1896 -1.3127
# 6 22.3140 17.8572 11.6092 1.2903 -1.3127 24.2083
#
#
#
# Elastic Compliance Matrix: (Units=1/GPa)
#
#
# Indices 1 2 3 4 5 6 
#
# 1 0.014236 0.001339 -0.003189 -0.007493 0.008290 -0.011732
# 2 0.001339 0.021714 0.002748 0.002824 -0.001555 -0.018804
# 3 -0.003189 0.002748 0.013244 0.003471 0.001409 -0.005548
# 4 -0.007493 0.002824 0.003471 0.051141 -0.021722 -0.000745
# 5 0.008290 -0.001555 0.001409 -0.021722 0.048197 -0.003398
# 6 -0.011732 -0.018804 -0.005548 -0.000745 -0.003398 0.068509
#
#
# Mechanical properties :
#
#
# Convention : Reuss Voigt Hill
#
# Bulk Modulus (GPa) = 19.61139 37.11683 28.36411
# Shear Modulus (GPa) = 21.52932 30.58070 26.05501
#
# Velocity S-wave (km/s) = 3.26665 3.89325 3.59363
# Velocity P-wave (km/s) = 4.89372 6.21344 5.59264
#
# Compressibility (1/GPa) = 0.05099078
#
# Stress axis : x y z
#
# Youngs Moduli (GPa) = 70.24332 46.05337 75.50674
#
# Poissons Ratio (x) = -0.06168 0.24077
# Poissons Ratio (y) = -0.09407 -0.20748
# Poissons Ratio (z) = 0.22399 -0.12655
#
# Static dielectric constant tensor:
#      x y z
#    x 1.714630 0.046970 0.021680 
#    y 0.046970 1.767330 -0.017500 
#    z 0.021680 -0.017500 1.774650 
# 
# From -- ./inp_files/217991.got.cif
#   From: 2010.05.17/outbox.cif.g08.bks.cpg/sg2_109_cif.got.tgz:217991.got - 2010.06.03 11:33:40.
