data_PCOD9053006
_publ_section_title
;
Structure prediction by ZEFSAII (Michael W. Deem and Ramdas Pophale) SiO2 
 PCOD9053006
Probable space group: P -1
;
_chemical_formula_sum "Si O2"
_cell_formula_units_Z 16
_cell_length_a 9.778738
_cell_length_b 13.167778
_cell_length_c 13.688275
_cell_angle_alpha 56.484512
_cell_angle_beta 32.216575
_cell_angle_gamma 74.808554
_cell_volume 695.030881
_symmetry_space_group_name_H-M "P -1"
_symmetry_group_IT_number 2
_symmetry_cell_setting 'triclinic'
loop_
_space_group_symop_operation_xyz
x,y,z
-x,-y,-z
loop_
_atom_site_type_symbol
_atom_site_label
_atom_site_fract_x
_atom_site_fract_y
_atom_site_fract_z
Si Si1 0.286159 0.082393 0.460982
Si Si2 0.263512 0.580103 0.194479
Si Si3 0.911195 0.150256 0.031289
Si Si4 0.430355 0.876369 0.930459
Si Si5 0.553106 0.394436 0.160080
Si Si6 0.274626 0.089920 0.987491
Si Si7 0.153010 0.458548 0.802293
Si Si8 0.368588 0.590035 0.398166
O O1 0.581558 0.072660 0.313113
O O2 0.312366 0.081305 0.327382
O O3 0.344330 0.232360 0.385671
O O4 0.985374 0.971808 0.744376
O O5 0.409817 0.494049 0.197242
O O6 0.920198 0.491420 0.445301
O O7 0.375470 0.733192 0.086042
O O8 0.350768 0.600640 0.014997
O O9 0.852922 0.160913 0.947088
O O10 0.112167 0.088706 0.983737
O O11 0.053170 0.305250 0.902007
O O12 0.442308 0.999069 0.923282
O O13 0.843927 0.447510 0.020204
O O14 0.483676 0.248711 0.795889
O O15 0.280171 0.565815 0.579713
O O16 0.410022 0.474393 0.709294
#
# Coordination Sequence:
#
# PCOD9053006 Si02
#       8
#     2   2   2   2   2   2   2   2
#     4   8  17  30  44  71  96 123 166 204 233 290
#     4   9  15  30  50  71  90 131 168 201 239 291
#     4   8  15  29  46  69  94 126 164 201 233 286
#     4   9  18  30  47  72  95 125 171 203 232 291
#     4   8  14  28  52  66  88 132 172 194 236 288
#     4  11  18  27  48  72 100 130 154 199 257 293
#     4   8  13  27  46  72  92 125 166 204 235 290
#     4   9  16  25  45  74 100 120 160 203 251 288
#
# _framework density 23.020558999999999
#
# number of rings (size 3 to 8) (size 9 to 14) (size 15 to 20)
#    0.750    2.500    2.500    0.750    0.000    0.000 
#    0.000    1.250    0.000   18.000    0.000    8.750 
#    0.000    0.000    0.000    0.000    0.000    0.000 
#
# Total GULP energy -89227.131738 kJ/mol
# GULP energy per Si atom -5576.695734 kJ/mol
# Density = 2.296816 g / cm^3
# Si number density = 23.020559 Si / 1000 Ang^3
#
#
#
# Elastic Constant Matrix: (Units=GPa)
#
#
# Indices 1 2 3 4 5 6 
#
# 1 80.4198 37.3976 10.0487 -0.3739 -15.4887 -6.7717
# 2 37.3976 130.3737 57.0891 -0.2560 2.0076 -34.4825
# 3 10.0487 57.0891 126.2778 -17.8064 -13.0936 17.2113
# 4 -0.3739 -0.2560 -17.8064 13.5652 -0.1889 3.4549
# 5 -15.4887 2.0076 -13.0936 -0.1889 8.4224 21.9122
# 6 -6.7717 -34.4825 17.2113 3.4549 21.9122 6.6343
#
#
#
# Elastic Compliance Matrix: (Units=1/GPa)
#
#
# Indices 1 2 3 4 5 6 
#
# 1 0.014366 -0.001142 -0.002070 -0.004349 0.002527 0.008013
# 2 -0.001142 0.006399 -0.000556 0.001125 0.011878 -0.006282
# 3 -0.002070 -0.000556 0.007334 0.007598 -0.010628 0.007121
# 4 -0.004349 0.001125 0.007598 0.080678 -0.021372 0.010273
# 5 0.002527 0.011878 -0.010628 -0.021372 0.021662 0.031473
# 6 0.008013 -0.006282 0.007121 0.010273 0.031473 -0.001514
#
#
# Mechanical properties :
#
#
# Convention : Reuss Voigt Hill
#
# Bulk Modulus (GPa) = 48.63195 60.68245 54.65720
# Shear Modulus (GPa) = 34.88814 21.22678 28.05746
#
# Velocity S-wave (km/s) = 3.89719 3.03987 3.49492
# Velocity P-wave (km/s) = 6.43600 6.22402 6.33090
#
# Compressibility (1/GPa) = 0.02056262
#
# Stress axis : x y z
#
# Youngs Moduli (GPa) = 69.60904 156.27107 136.35592
#
# Poissons Ratio (x) = 0.17852 0.28227
# Poissons Ratio (y) = 0.07952 0.07577
# Poissons Ratio (z) = 0.14410 0.08683
#
# Static dielectric constant tensor:
#      x y z
#    x 1.952220 -0.012480 0.009690 
#    y -0.012480 1.828380 0.031320 
#    z 0.009690 0.031320 1.849750 
# 
# From -- ./inp_files/598210.got.cif
#   From: 2010.05.17/outbox.cif.g08.bks.cpg/sg2_300_cif.got.tgz:598210.got - 2010.06.03 11:33:40.
