data_PCOD9053597
_publ_section_title
;
Structure prediction by ZEFSAII (Michael W. Deem and Ramdas Pophale) SiO2 
 PCOD9053597
Probable space group: P -1
;
_chemical_formula_sum "Si O2"
_cell_formula_units_Z 14
_cell_length_a 7.512259
_cell_length_b 11.985437
_cell_length_c 7.812533
_cell_angle_alpha 49.740495
_cell_angle_beta 92.381051
_cell_angle_gamma 82.937368
_cell_volume 525.882637
_symmetry_space_group_name_H-M "P -1"
_symmetry_group_IT_number 2
_symmetry_cell_setting 'triclinic'
loop_
_space_group_symop_operation_xyz
x,y,z
-x,-y,-z
loop_
_atom_site_type_symbol
_atom_site_label
_atom_site_fract_x
_atom_site_fract_y
_atom_site_fract_z
Si Si1 0.574866 0.147535 0.799148
Si Si2 0.727183 0.761446 0.885955
Si Si3 0.290631 0.507122 0.039940
Si Si4 0.244189 0.409714 0.602939
Si Si5 0.700088 0.208451 0.075432
Si Si6 0.924054 0.339239 0.444918
Si Si7 0.179470 0.926056 0.429049
O O1 0.431177 0.302459 0.663304
O O2 0.639911 0.134755 0.618935
O O3 0.732439 0.146460 0.948366
O O4 0.500000 0.000000 0.000000
O O5 0.743449 0.659337 0.818553
O O6 0.511003 0.799388 0.880835
O O7 0.823296 0.900014 0.743855
O O8 0.808947 0.668095 0.147091
O O9 0.500000 0.500000 0.000000
O O10 0.274639 0.619899 0.085314
O O11 0.157323 0.594829 0.804039
O O12 0.227863 0.577362 0.507248
O O13 0.100266 0.390278 0.472903
O O14 0.803778 0.122244 0.325015
O O15 0.954220 0.162027 0.589863
#
# Coordination Sequence:
#
# PCOD9053597 Si02
#       7
#     2   2   2   2   2   2   2
#     4  11  21  35  57  86 117 146 183 239 287 322
#     4   9  16  29  51  78 106 143 181 225 280 319
#     4   8  15  30  53  77 103 145 186 225 273 324
#     4   9  18  36  53  78 120 151 180 232 285 337
#     4   9  18  33  53  79 113 144 185 234 275 330
#     4   9  19  33  56  83 111 151 191 225 282 341
#     4  11  20  33  58  88 109 144 196 234 274 336
#
# _framework density 26.621908000000001
#
# number of rings (size 3 to 8) (size 9 to 14) (size 15 to 20)
#    0.000    2.571    2.857    1.286    0.000    1.143 
#    0.000    0.000    0.000   10.286    0.000   26.000 
#    0.000    0.000    0.000    0.000    0.000    0.000 
#
# Total GULP energy -78229.258917 kJ/mol
# GULP energy per Si atom -5587.804208 kJ/mol
# Density = 2.656132 g / cm^3
# Si number density = 26.621908 Si / 1000 Ang^3
#
#
#
# Elastic Constant Matrix: (Units=GPa)
#
#
# Indices 1 2 3 4 5 6 
#
# 1 91.4456 34.3695 37.5164 -0.1866 -0.7849 6.8044
# 2 34.3695 220.5986 54.7309 -10.2431 -20.5200 26.9026
# 3 37.5164 54.7309 68.2555 0.8764 -4.9015 6.7318
# 4 -0.1866 -10.2431 0.8764 44.7208 15.3199 -10.2762
# 5 -0.7849 -20.5200 -4.9015 15.3199 22.5128 5.2566
# 6 6.8044 26.9026 6.7318 -10.2762 5.2566 47.0214
#
#
#
# Elastic Compliance Matrix: (Units=1/GPa)
#
#
# Indices 1 2 3 4 5 6 
#
# 1 0.014220 -0.000442 -0.007576 0.000692 -0.001945 -0.000352
# 2 -0.000442 0.006825 -0.004197 -0.002062 0.007759 -0.004558
# 3 -0.007576 -0.004197 0.022450 -0.002443 0.002587 -0.000540
# 4 0.000692 -0.002062 -0.002443 0.034607 -0.028788 0.012211
# 5 -0.001945 0.007759 0.002587 -0.028788 0.076090 -0.019326
# 6 -0.000352 -0.004558 -0.000540 0.012211 -0.019326 0.028832
#
#
# Mechanical properties :
#
#
# Convention : Reuss Voigt Hill
#
# Bulk Modulus (GPa) = 52.44584 70.39258 61.41921
# Shear Modulus (GPa) = 23.38536 39.76319 31.57428
#
# Velocity S-wave (km/s) = 2.96704 3.86894 3.44761
# Velocity P-wave (km/s) = 5.61077 6.81596 6.24252
#
# Compressibility (1/GPa) = 0.01906729
#
# Stress axis : x y z
#
# Youngs Moduli (GPa) = 70.32117 146.51950 44.54283
#
# Poissons Ratio (x) = 0.06475 0.33745
# Poissons Ratio (y) = 0.03108 0.18693
# Poissons Ratio (z) = 0.53274 0.61488
#
# Static dielectric constant tensor:
#      x y z
#    x 2.145190 -0.045430 -0.049040 
#    y -0.045430 2.076510 -0.036580 
#    z -0.049040 -0.036580 2.154060 
# 
# From -- ./inp_files/174531.got.cif
#   From: 2010.05.17/outbox.cif.g08.bks.cpg/sg2_88_cif.got.tgz:174531.got - 2010.06.03 11:33:40.
