data_PCOD9053970
_publ_section_title
;
Structure prediction by ZEFSAII (Michael W. Deem and Ramdas Pophale) SiO2 
 PCOD9053970
Probable space group: P -1
;
_chemical_formula_sum "Si O2"
_cell_formula_units_Z 14
_cell_length_a 11.825825
_cell_length_b 22.294815
_cell_length_c 5.645985
_cell_angle_alpha 126.546212
_cell_angle_beta 127.214267
_cell_angle_gamma 31.732549
_cell_volume 611.716048
_symmetry_space_group_name_H-M "P -1"
_symmetry_group_IT_number 2
_symmetry_cell_setting 'triclinic'
loop_
_space_group_symop_operation_xyz
x,y,z
-x,-y,-z
loop_
_atom_site_type_symbol
_atom_site_label
_atom_site_fract_x
_atom_site_fract_y
_atom_site_fract_z
Si Si1 0.564963 0.301442 0.903219
Si Si2 0.916276 0.721063 0.506334
Si Si3 0.923815 0.066621 0.310962
Si Si4 0.697620 0.372925 0.553724
Si Si5 0.574907 0.743714 0.016154
Si Si6 0.163287 0.479635 0.487222
Si Si7 0.053790 0.791756 0.135990
O O1 0.482813 0.254887 0.781073
O O2 0.374857 0.413466 0.763812
O O3 0.799730 0.219014 0.885299
O O4 0.608189 0.327663 0.262851
O O5 0.085062 0.686062 0.444526
O O6 0.042064 0.600566 0.509777
O O7 0.698579 0.772668 0.240729
O O8 0.878681 0.807218 0.833375
O O9 0.009778 0.118408 0.548154
O O10 0.656378 0.166871 0.204032
O O11 0.000000 0.000000 0.500000
O O12 0.000000 0.000000 0.000000
O O13 0.500000 0.500000 0.500000
O O14 0.768873 0.337278 0.829164
O O15 0.744995 0.614593 0.816901
O O16 0.000000 0.500000 0.500000
#
# Coordination Sequence:
#
# PCOD9053970 Si02
#       7
#     2   2   2   2   2   2   2
#     4  11  20  39  66  94 148 188 242 279 347 426
#     4  11  26  39  67 107 152 191 226 296 377 434
#     4  12  28  52  84 104 134 195 262 322 379 430
#     4  11  22  37  64 100 151 188 232 280 363 447
#     4  12  25  45  69 107 145 186 246 309 355 445
#     4  12  24  37  66 106 154 195 236 278 363 454
#     4  11  24  46  68 105 140 187 244 307 357 442
#
# _framework density 22.886436
#
# number of rings (size 3 to 8) (size 9 to 14) (size 15 to 20)
#    0.000    0.571    4.286    3.857    6.000    2.286 
#    0.000    1.429    0.000    0.000    0.000    0.000 
#    0.000    0.000    0.000    0.000    0.000    0.000 
#
# Total GULP energy -78151.283771 kJ/mol
# GULP energy per Si atom -5582.234555 kJ/mol
# Density = 2.283435 g / cm^3
# Si number density = 22.886436 Si / 1000 Ang^3
#
#
#
# Elastic Constant Matrix: (Units=GPa)
#
#
# Indices 1 2 3 4 5 6 
#
# 1 118.4087 19.9719 42.0993 6.9892 14.5216 -3.7117
# 2 19.9719 70.3523 39.6351 -3.3523 7.4034 14.2897
# 3 42.0993 39.6351 139.0249 2.9919 31.1430 -5.0943
# 4 6.9892 -3.3523 2.9919 35.1143 -2.2230 -7.4154
# 5 14.5216 7.4034 31.1430 -2.2230 44.3714 -9.1155
# 6 -3.7117 14.2897 -5.0943 -7.4154 -9.1155 26.3937
#
#
#
# Elastic Compliance Matrix: (Units=1/GPa)
#
#
# Indices 1 2 3 4 5 6 
#
# 1 0.009784 -0.001733 -0.002095 -0.001822 -0.001342 0.000934
# 2 -0.001733 0.020604 -0.005435 -0.000098 -0.001748 -0.013079
# 3 -0.002095 -0.005435 0.010705 -0.000805 -0.005424 0.002614
# 4 -0.001822 -0.000098 -0.000805 0.031342 0.004826 0.010113
# 5 -0.001342 -0.001748 -0.005424 0.004826 0.029639 0.011303
# 6 0.000934 -0.013079 0.002614 0.010113 0.011303 0.052350
#
#
# Mechanical properties :
#
#
# Convention : Reuss Voigt Hill
#
# Bulk Modulus (GPa) = 44.31069 59.02206 51.66637
# Shear Modulus (GPa) = 27.70547 36.24784 31.97665
#
# Velocity S-wave (km/s) = 3.48309 3.98403 3.74195
# Velocity P-wave (km/s) = 5.96482 6.85627 6.42602
#
# Compressibility (1/GPa) = 0.02256792
#
# Stress axis : x y z
#
# Youngs Moduli (GPa) = 102.21050 48.53477 93.41458
#
# Poissons Ratio (x) = 0.08410 0.19567
# Poissons Ratio (y) = 0.17710 0.50770
# Poissons Ratio (z) = 0.21409 0.26378
#
# Static dielectric constant tensor:
#      x y z
#    x 1.893690 0.032990 -0.028800 
#    y 0.032990 1.944490 0.094560 
#    z -0.028800 0.094560 1.974710 
# 
# From -- ./inp_files/55450.got.cif
#   From: 2010.05.17/outbox.cif.g08.bks.cpg/sg2_28_cif.got.tgz:55450.got - 2010.06.03 11:33:40.
