data_PCOD9053842
_publ_section_title
;
Structure prediction by ZEFSAII (Michael W. Deem and Ramdas Pophale) SiO2 
 PCOD9053842
Probable space group: P -1
;
_chemical_formula_sum "Si O2"
_cell_formula_units_Z 16
_cell_length_a 14.629505
_cell_length_b 11.246435
_cell_length_c 17.001782
_cell_angle_alpha 150.429530
_cell_angle_beta 146.550140
_cell_angle_gamma 33.909787
_cell_volume 702.842788
_symmetry_space_group_name_H-M "P -1"
_symmetry_group_IT_number 2
_symmetry_cell_setting 'triclinic'
loop_
_space_group_symop_operation_xyz
x,y,z
-x,-y,-z
loop_
_atom_site_type_symbol
_atom_site_label
_atom_site_fract_x
_atom_site_fract_y
_atom_site_fract_z
Si Si1 0.257629 0.343451 0.819234
Si Si2 0.975438 0.146801 0.308264
Si Si3 0.264358 0.147091 0.998376
Si Si4 0.497136 0.217597 0.340293
Si Si5 0.369706 0.111484 0.616456
Si Si6 0.040568 0.202594 0.201844
Si Si7 0.409067 0.397913 0.119453
Si Si8 0.341375 0.323965 0.550892
O O1 0.355770 0.332003 0.799115
O O2 0.057740 0.520565 0.753846
O O3 0.324655 0.031083 0.705418
O O4 0.317253 0.462544 0.005410
O O5 0.977422 0.181232 0.234462
O O6 0.825764 0.410309 0.388154
O O7 0.170323 0.105629 0.459240
O O8 0.912492 0.913796 0.152825
O O9 0.333069 0.209708 0.166969
O O10 0.275548 0.354372 0.061830
O O11 0.421071 0.874879 0.926875
O O12 0.500000 0.500000 0.500000
O O13 0.499748 0.137223 0.385847
O O14 0.411327 0.180264 0.600612
O O15 0.242371 0.176907 0.344643
O O16 0.000000 0.000000 0.000000
O O17 0.499170 0.598618 0.322495
#
# Coordination Sequence:
#
# PCOD9053842 Si02
#       8
#     2   2   2   2   2   2   2   2
#     4   9  18  36  57  86 118 150 198 245 294 346
#     4  10  17  36  62  82 119 155 194 244 293 359
#     4   9  19  35  55  84 115 158 196 237 295 349
#     4   9  18  36  58  81 114 150 200 246 278 353
#     4   9  17  32  58  85 110 149 201 231 295 342
#     4  11  21  37  59  91 122 150 194 249 302 348
#     4   9  19  34  57  84 118 155 193 241 296 352
#     4  10  17  35  62  86 116 154 193 242 301 356
#
# _framework density 22.764693000000001
#
# number of rings (size 3 to 8) (size 9 to 14) (size 15 to 20)
#    0.750    1.750    2.500    0.750    0.000    1.500 
#    6.750    3.125    0.000    0.000    0.000    0.000 
#    0.000    0.000    0.000    0.000    0.000    0.000 
#
# Total GULP energy -89204.953329 kJ/mol
# GULP energy per Si atom -5575.309583 kJ/mol
# Density = 2.271288 g / cm^3
# Si number density = 22.764693 Si / 1000 Ang^3
#
#
#
# Elastic Constant Matrix: (Units=GPa)
#
#
# Indices 1 2 3 4 5 6 
#
# 1 95.2846 34.7458 70.5163 -17.5559 11.3303 17.4195
# 2 34.7458 61.0812 47.0397 -6.4789 -2.3484 3.0356
# 3 70.5163 47.0397 170.2243 -10.7653 -2.3085 24.2048
# 4 -17.5559 -6.4789 -10.7653 29.5480 13.8147 -6.5864
# 5 11.3303 -2.3484 -2.3085 13.8147 40.9090 -1.2599
# 6 17.4195 3.0356 24.2048 -6.5864 -1.2599 28.5009
#
#
#
# Elastic Compliance Matrix: (Units=1/GPa)
#
#
# Indices 1 2 3 4 5 6 
#
# 1 0.022238 -0.006856 -0.005859 0.013906 -0.011739 -0.005191
# 2 -0.006856 0.023435 -0.004414 -0.000978 0.003491 0.005371
# 3 -0.005859 -0.004414 0.010085 -0.003269 0.002884 -0.005142
# 4 0.013906 -0.000978 -0.003269 0.051949 -0.021467 0.005437
# 5 -0.011739 0.003491 0.002884 -0.021467 0.035338 0.000955
# 6 -0.005191 0.005371 -0.005142 0.005437 0.000955 0.043352
#
#
# Mechanical properties :
#
#
# Convention : Reuss Voigt Hill
#
# Bulk Modulus (GPa) = 46.51381 70.13262 58.32321
# Shear Modulus (GPa) = 21.94694 31.41080 26.67887
#
# Velocity S-wave (km/s) = 3.10833 3.71860 3.42708
# Velocity P-wave (km/s) = 5.77573 7.02224 6.42926
#
# Compressibility (1/GPa) = 0.02149899
#
# Stress axis : x y z
#
# Youngs Moduli (GPa) = 44.96750 42.67210 99.15632
#
# Poissons Ratio (x) = 0.29256 0.58099
# Poissons Ratio (y) = 0.30830 0.43767
# Poissons Ratio (z) = 0.26348 0.18835
#
# Static dielectric constant tensor:
#      x y z
#    x 1.908860 -0.045050 -0.053720 
#    y -0.045050 1.908490 0.062950 
#    z -0.053720 0.062950 1.845920 
# 
# From -- ./inp_files/575810.got.cif
#   From: 2010.05.17/outbox.cif.g08.bks.cpg/sg2_288_cif.got.tgz:575810.got - 2010.06.03 11:33:40.
