data_PCOD9053781
_publ_section_title
;
Structure prediction by ZEFSAII (Michael W. Deem and Ramdas Pophale) SiO2 
 PCOD9053781
Probable space group: P -1
;
_chemical_formula_sum "Si O2"
_cell_formula_units_Z 14
_cell_length_a 11.318052
_cell_length_b 10.299861
_cell_length_c 8.820486
_cell_angle_alpha 104.125960
_cell_angle_beta 39.428962
_cell_angle_gamma 80.220368
_cell_volume 515.069941
_symmetry_space_group_name_H-M "P -1"
_symmetry_group_IT_number 2
_symmetry_cell_setting 'triclinic'
loop_
_space_group_symop_operation_xyz
x,y,z
-x,-y,-z
loop_
_atom_site_type_symbol
_atom_site_label
_atom_site_fract_x
_atom_site_fract_y
_atom_site_fract_z
Si Si1 0.876531 0.601712 0.002350
Si Si2 0.681170 0.466215 0.684698
Si Si3 0.948478 0.695195 0.479308
Si Si4 0.401859 0.667165 0.550731
Si Si5 0.507270 0.168505 0.130750
Si Si6 0.938967 0.103886 0.790539
Si Si7 0.306653 0.086418 0.590363
O O1 0.614354 0.667952 0.289141
O O2 0.883802 0.756224 0.075130
O O3 0.985789 0.469548 0.722008
O O4 0.000000 0.500000 0.000000
O O5 0.916834 0.366709 0.516195
O O6 0.698629 0.347852 0.506953
O O7 0.570436 0.643996 0.764716
O O8 0.500000 0.500000 0.000000
O O9 0.045651 0.769845 0.293514
O O10 0.672053 0.821734 0.811050
O O11 0.500000 0.500000 0.500000
O O12 0.229828 0.812055 0.874953
O O13 0.404136 0.141881 0.375684
O O14 0.785867 0.060620 0.831237
O O15 0.190237 0.008241 0.596393
O O16 0.500000 0.000000 0.500000
#
# Coordination Sequence:
#
# PCOD9053781 Si02
#       7
#     2   2   2   2   2   2   2
#     4  12  18  34  60  86 123 150 199 249 303 345
#     4  12  21  34  56  94 134 153 195 249 309 365
#     4  11  22  35  56  97 125 155 192 253 309 364
#     4  12  18  32  57  89 123 155 190 245 306 348
#     4  11  21  37  59  84 125 161 192 245 304 350
#     4  11  20  37  62  85 123 154 200 254 302 360
#     4  11  25  39  59  92 122 159 207 252 299 358
#
# _framework density 27.180775000000001
#
# number of rings (size 3 to 8) (size 9 to 14) (size 15 to 20)
#    0.000    0.571   10.000    0.429    2.000    0.571 
#    0.000    0.000    0.000    0.857    0.000    6.000 
#    0.000    0.000    0.000    0.000    0.000    0.000 
#
# Total GULP energy -78202.484256 kJ/mol
# GULP energy per Si atom -5585.891733 kJ/mol
# Density = 2.711891 g / cm^3
# Si number density = 27.180775 Si / 1000 Ang^3
#
#
#
# Elastic Constant Matrix: (Units=GPa)
#
#
# Indices 1 2 3 4 5 6 
#
# 1 242.3595 50.0456 38.8678 0.1508 -31.7910 -31.4632
# 2 50.0456 69.3048 41.6530 -11.8562 -6.4805 -17.5394
# 3 38.8678 41.6530 137.3453 -24.8282 -32.8180 0.1491
# 4 0.1508 -11.8562 -24.8282 40.1395 5.0302 -8.4225
# 5 -31.7910 -6.4805 -32.8180 5.0302 61.8343 5.9082
# 6 -31.4632 -17.5394 0.1491 -8.4225 5.9082 43.3836
#
#
#
# Elastic Compliance Matrix: (Units=1/GPa)
#
#
# Indices 1 2 3 4 5 6 
#
# 1 0.005380 -0.003170 -0.000203 -0.000907 0.002195 0.002146
# 2 -0.003170 0.023087 -0.006018 0.005372 -0.003663 0.008597
# 3 -0.000203 -0.006018 0.011085 0.003909 0.005074 -0.002551
# 4 -0.000907 0.005372 0.003909 0.030645 -0.001047 0.007593
# 5 0.002195 -0.003663 0.005074 -0.001047 0.019965 -0.002829
# 6 0.002146 0.008597 -0.002551 0.007593 -0.002829 0.029951
#
#
# Mechanical properties :
#
#
# Convention : Reuss Voigt Hill
#
# Bulk Modulus (GPa) = 48.14451 78.90470 63.52460
# Shear Modulus (GPa) = 34.28890 50.30104 42.29497
#
# Velocity S-wave (km/s) = 3.55563 4.30654 3.94897
# Velocity P-wave (km/s) = 5.88284 7.33628 6.64939
#
# Compressibility (1/GPa) = 0.02077080
#
# Stress axis : x y z
#
# Youngs Moduli (GPa) = 185.86254 43.31399 90.20956
#
# Poissons Ratio (x) = 0.13730 0.01832
# Poissons Ratio (y) = 0.58916 0.54289
# Poissons Ratio (z) = 0.03774 0.26067
#
# Static dielectric constant tensor:
#      x y z
#    x 2.186950 0.161870 0.042030 
#    y 0.161870 2.220430 0.012940 
#    z 0.042030 0.012940 1.954910 
# 
# From -- ./inp_files/258357.got.cif
#   From: 2010.05.17/outbox.cif.g08.bks.cpg/sg2_130_cif.got.tgz:258357.got - 2010.06.03 11:33:40.
