data_PCOD9053517
_publ_section_title
;
Structure prediction by ZEFSAII (Michael W. Deem and Ramdas Pophale) SiO2 
 PCOD9053517
Probable space group: P -1
;
_chemical_formula_sum "Si O2"
_cell_formula_units_Z 14
_cell_length_a 9.500780
_cell_length_b 19.196598
_cell_length_c 7.671106
_cell_angle_alpha 125.129959
_cell_angle_beta 80.130079
_cell_angle_gamma 142.018462
_cell_volume 583.119598
_symmetry_space_group_name_H-M "P -1"
_symmetry_group_IT_number 2
_symmetry_cell_setting 'triclinic'
loop_
_space_group_symop_operation_xyz
x,y,z
-x,-y,-z
loop_
_atom_site_type_symbol
_atom_site_label
_atom_site_fract_x
_atom_site_fract_y
_atom_site_fract_z
Si Si1 0.710304 0.444610 0.132319
Si Si2 0.571807 0.324544 0.602937
Si Si3 0.509907 0.845606 0.102610
Si Si4 0.919496 0.862445 0.760240
Si Si5 0.242926 0.323989 0.135160
Si Si6 0.968654 0.597414 0.642933
Si Si7 0.195974 0.015966 0.426989
O O1 0.537067 0.442987 0.174254
O O2 0.962404 0.583775 0.414453
O O3 0.727638 0.427174 0.899569
O O4 0.534160 0.279009 0.027522
O O5 0.777072 0.431682 0.550076
O O6 0.393495 0.148831 0.421354
O O7 0.318037 0.257281 0.508428
O O8 0.582916 0.907638 0.372944
O O9 0.786246 0.016519 0.195595
O O10 0.252481 0.744840 0.901117
O O11 0.808251 0.749977 0.778436
O O12 0.000000 0.000000 0.000000
O O13 0.188009 0.394241 0.272291
O O14 0.015645 0.165214 0.832174
O O15 0.000000 0.000000 0.500000
#
# Coordination Sequence:
#
# PCOD9053517 Si02
#       7
#     2   2   2   2   2   2   2
#     4  11  22  43  68  95 129 179 230 257 314 421
#     4  11  22  42  73  96 126 180 224 266 328 392
#     4  11  23  43  69  97 131 174 224 275 329 389
#     4  12  19  39  75  97 119 179 232 269 317 392
#     4  12  23  41  69 101 132 171 228 276 322 397
#     4  12  28  43  60 105 148 162 205 292 348 375
#     4  11  19  42  71  98 119 173 240 265 301 409
#
# _framework density 24.008797000000001
#
# number of rings (size 3 to 8) (size 9 to 14) (size 15 to 20)
#    0.000    0.571    8.571    0.857    0.000    4.000 
#    5.143    0.000    0.000    0.000    0.000    0.000 
#    0.000    0.000    0.000    0.000    0.000    0.000 
#
# Total GULP energy -78159.726317 kJ/mol
# GULP energy per Si atom -5582.837594 kJ/mol
# Density = 2.395415 g / cm^3
# Si number density = 24.008797 Si / 1000 Ang^3
#
#
#
# Elastic Constant Matrix: (Units=GPa)
#
#
# Indices 1 2 3 4 5 6 
#
# 1 52.0634 -15.1374 26.2941 -10.1454 15.8344 -16.3455
# 2 -15.1374 78.7557 19.8113 -15.4744 20.7962 9.3585
# 3 26.2941 19.8113 174.7697 -28.3654 45.0445 -7.1050
# 4 -10.1454 -15.4744 -28.3654 39.7556 -2.9891 7.3363
# 5 15.8344 20.7962 45.0445 -2.9891 46.4163 3.6235
# 6 -16.3455 9.3585 -7.1050 7.3363 3.6235 18.9667
#
#
#
# Elastic Compliance Matrix: (Units=1/GPa)
#
#
# Indices 1 2 3 4 5 6 
#
# 1 0.039029 0.010755 0.000650 0.007607 -0.020581 0.029562
# 2 0.010755 0.020280 0.001098 0.010823 -0.012965 -0.002036
# 3 0.000650 0.001098 0.008929 0.005733 -0.009237 0.002910
# 4 0.007607 0.010823 0.005733 0.036263 -0.009989 -0.008755
# 5 -0.020581 -0.012965 -0.009237 -0.009989 0.044208 -0.019382
# 6 0.029562 -0.002036 0.002910 -0.008755 -0.019382 0.087384
#
#
# Mechanical properties :
#
#
# Convention : Reuss Voigt Hill
#
# Bulk Modulus (GPa) = 10.72444 40.83609 25.78026
# Shear Modulus (GPa) = 20.64680 39.33577 29.99129
#
# Velocity S-wave (km/s) = 2.93570 4.05209 3.53821
# Velocity P-wave (km/s) = 3.99596 6.24006 5.23956
#
# Compressibility (1/GPa) = 0.09324499
#
# Stress axis : x y z
#
# Youngs Moduli (GPa) = 25.62198 49.30848 111.99541
#
# Poissons Ratio (x) = -0.53030 -0.07280
# Poissons Ratio (y) = -0.27556 -0.12303
# Poissons Ratio (z) = -0.01665 -0.05416
#
# Static dielectric constant tensor:
#      x y z
#    x 1.983220 0.039660 -0.021240 
#    y 0.039660 1.933330 -0.034530 
#    z -0.021240 -0.034530 2.002990 
# 
# From -- ./inp_files/218355.got.cif
#   From: 2010.05.17/outbox.cif.g08.bks.cpg/sg2_110_cif.got.tgz:218355.got - 2010.06.03 11:33:40.
