data_PCOD9053889
_publ_section_title
;
Structure prediction by ZEFSAII (Michael W. Deem and Ramdas Pophale) SiO2 
 PCOD9053889
Probable space group: P -1
;
_chemical_formula_sum "Si O2"
_cell_formula_units_Z 16
_cell_length_a 8.736998
_cell_length_b 19.699072
_cell_length_c 17.888148
_cell_angle_alpha 20.829384
_cell_angle_beta 147.203008
_cell_angle_gamma 143.355670
_cell_volume 590.758556
_symmetry_space_group_name_H-M "P -1"
_symmetry_group_IT_number 2
_symmetry_cell_setting 'triclinic'
loop_
_space_group_symop_operation_xyz
x,y,z
-x,-y,-z
loop_
_atom_site_type_symbol
_atom_site_label
_atom_site_fract_x
_atom_site_fract_y
_atom_site_fract_z
Si Si1 0.979566 0.271455 0.507282
Si Si2 0.873330 0.148571 0.420689
Si Si3 0.471928 0.116179 0.943384
Si Si4 0.563604 0.554446 0.057486
Si Si5 0.161681 0.809126 0.848735
Si Si6 0.653032 0.577319 0.735468
Si Si7 0.296948 0.027631 0.190806
Si Si8 0.170622 0.771013 0.267761
O O1 0.874516 0.480636 0.262209
O O2 0.991373 0.212643 0.485454
O O3 0.265007 0.268375 0.674477
O O4 0.769415 0.091772 0.638025
O O5 0.114601 0.246653 0.364374
O O6 0.891236 0.927209 0.633616
O O7 0.571611 0.241760 0.196357
O O8 0.723119 0.207628 0.001941
O O9 0.500000 0.000000 0.000000
O O10 0.357374 0.939334 0.130076
O O11 0.431027 0.442827 0.191401
O O12 0.500000 0.500000 0.000000
O O13 0.395512 0.920145 0.773864
O O14 0.177439 0.597373 0.042690
O O15 0.370513 0.601684 0.543073
O O16 0.138140 0.864317 0.239336
O O17 0.124998 0.218448 0.909993
#
# Coordination Sequence:
#
# PCOD9053889 Si02
#       8
#     2   2   2   2   2   2   2   2
#     4  10  18  37  68  87 121 164 205 244 300 363
#     4  11  22  42  62  89 122 165 207 249 308 353
#     4  10  17  35  62  91 126 163 193 240 304 370
#     4  10  23  40  65  88 114 166 209 254 305 354
#     4  11  23  36  63  95 124 162 199 247 312 359
#     4  12  22  40  63  93 125 155 208 253 301 372
#     4   9  17  34  58  88 122 160 196 238 298 363
#     4   9  17  31  58  86 119 161 197 234 299 363
#
# _framework density 27.083824
#
# number of rings (size 3 to 8) (size 9 to 14) (size 15 to 20)
#    0.000    1.750    5.000    1.125    0.000    1.000 
#    0.000    5.000    0.000    7.500    0.000    0.000 
#    0.000    0.000    0.000    0.000    0.000    0.000 
#
# Total GULP energy -89214.766086 kJ/mol
# GULP energy per Si atom -5575.922880 kJ/mol
# Density = 2.702218 g / cm^3
# Si number density = 27.083824 Si / 1000 Ang^3
#
#
#
# Elastic Constant Matrix: (Units=GPa)
#
#
# Indices 1 2 3 4 5 6 
#
# 1 86.4468 25.7911 40.9017 0.7453 6.7991 -34.2873
# 2 25.7911 58.0005 49.3461 7.6086 7.9781 -14.9172
# 3 40.9017 49.3461 216.8970 30.4150 53.0569 -5.1078
# 4 0.7453 7.6086 30.4150 53.9817 -5.4483 4.9242
# 5 6.7991 7.9781 53.0569 -5.4483 56.6587 3.3385
# 6 -34.2873 -14.9172 -5.1078 4.9242 3.3385 39.4954
#
#
#
# Elastic Compliance Matrix: (Units=1/GPa)
#
#
# Indices 1 2 3 4 5 6 
#
# 1 0.020020 -0.002342 -0.002774 0.000100 -0.000418 0.016160
# 2 -0.002342 0.024228 -0.005047 -0.001019 0.001115 0.006498
# 3 -0.002774 -0.005047 0.008728 -0.004743 -0.007470 -0.001963
# 4 0.000100 -0.001019 -0.004743 0.022436 0.006984 -0.004299
# 5 -0.000418 0.001115 -0.007470 0.006984 0.025441 -0.003929
# 6 0.016160 0.006498 -0.001963 -0.004299 -0.003929 0.042417
#
#
# Mechanical properties :
#
#
# Convention : Reuss Voigt Hill
#
# Bulk Modulus (GPa) = 30.62769 65.93580 48.28174
# Shear Modulus (GPa) = 28.65644 46.38086 37.51865
#
# Velocity S-wave (km/s) = 3.25632 4.14272 3.72597
# Velocity P-wave (km/s) = 5.04690 6.87610 6.03125
#
# Compressibility (1/GPa) = 0.03265019
#
# Stress axis : x y z
#
# Youngs Moduli (GPa) = 49.94886 41.27390 114.57278
#
# Poissons Ratio (x) = 0.09667 0.31781
# Poissons Ratio (y) = 0.11698 0.57830
# Poissons Ratio (z) = 0.13855 0.20833
#
# Static dielectric constant tensor:
#      x y z
#    x 2.053120 0.153070 -0.075770 
#    y 0.153070 2.144910 0.165750 
#    z -0.075770 0.165750 2.214010 
# 
# From -- ./inp_files/562570.got.cif
#   From: 2010.05.17/outbox.cif.g08.bks.cpg/sg2_282_cif.got.tgz:562570.got - 2010.06.03 11:33:40.
