data_PCOD9053867
_publ_section_title
;
Structure prediction by ZEFSAII (Michael W. Deem and Ramdas Pophale) SiO2 
 PCOD9053867
Probable space group: P -1
;
_chemical_formula_sum "Si O2"
_cell_formula_units_Z 16
_cell_length_a 15.539972
_cell_length_b 21.253589
_cell_length_c 24.130081
_cell_angle_alpha 161.541634
_cell_angle_beta 162.411079
_cell_angle_gamma 23.924065
_cell_volume 758.440118
_symmetry_space_group_name_H-M "P -1"
_symmetry_group_IT_number 2
_symmetry_cell_setting 'triclinic'
loop_
_space_group_symop_operation_xyz
x,y,z
-x,-y,-z
loop_
_atom_site_type_symbol
_atom_site_label
_atom_site_fract_x
_atom_site_fract_y
_atom_site_fract_z
Si Si1 0.590980 0.601706 0.325013
Si Si2 0.733911 0.250752 0.307434
Si Si3 0.456769 0.683343 0.083281
Si Si4 0.112028 0.395389 0.893946
Si Si5 0.677590 0.016952 0.567891
Si Si6 0.072394 0.435617 0.397866
Si Si7 0.887659 0.810881 0.162525
Si Si8 0.984325 0.261924 0.587922
O O1 0.851722 0.571391 0.416230
O O2 0.707854 0.674837 0.516364
O O3 0.353323 0.756572 0.280970
O O4 0.441802 0.404883 0.085287
O O5 0.772323 0.309937 0.445181
O O6 0.001082 0.087162 0.321041
O O7 0.774927 0.435390 0.445636
O O8 0.438305 0.166513 0.040895
O O9 0.508428 0.887976 0.314500
O O10 0.720083 0.653139 0.177275
O O11 0.500000 0.500000 0.000000
O O12 0.144269 0.691972 0.873140
O O13 0.097119 0.242580 0.807646
O O14 0.928277 0.344072 0.684472
O O15 0.023635 0.613719 0.048865
O O16 0.500000 0.000000 0.500000
O O17 0.017271 0.019690 0.407591
#
# Coordination Sequence:
#
# PCOD9053867 Si02
#       8
#     2   2   2   2   2   2   2   2
#     4  11  22  39  65  97 125 171 218 257 336 391
#     4  11  22  42  68  94 134 169 214 278 328 383
#     4  11  20  38  63  95 130 167 207 268 330 384
#     4  11  23  42  70  91 133 180 220 268 331 392
#     4  11  22  37  64  96 129 167 213 265 325 394
#     4  11  21  39  66  94 131 165 210 267 329 397
#     4  11  25  45  64  97 131 177 226 270 322 391
#     4  11  23  40  67  97 130 174 221 271 324 391
#
# _framework density 21.095931
#
# number of rings (size 3 to 8) (size 9 to 14) (size 15 to 20)
#    0.000    1.000    6.250    2.250    0.000    1.000 
#    0.000    1.250    0.000    0.000    0.000    0.000 
#    0.000    0.000    0.000    0.000    0.000    0.000 
#
# Total GULP energy -89299.184350 kJ/mol
# GULP energy per Si atom -5581.199022 kJ/mol
# Density = 2.104792 g / cm^3
# Si number density = 21.095931 Si / 1000 Ang^3
#
#
#
# Elastic Constant Matrix: (Units=GPa)
#
#
# Indices 1 2 3 4 5 6 
#
# 1 139.6727 21.5347 32.9593 2.7619 -9.5371 31.2517
# 2 21.5347 41.8923 14.7705 -6.7610 1.8474 12.8041
# 3 32.9593 14.7705 79.1667 -0.7062 11.9703 4.2440
# 4 2.7619 -6.7610 -0.7062 35.0356 8.1562 2.5461
# 5 -9.5371 1.8474 11.9703 8.1562 35.8714 10.1873
# 6 31.2517 12.8041 4.2440 2.5461 10.1873 20.0289
#
#
#
# Elastic Compliance Matrix: (Units=1/GPa)
#
#
# Indices 1 2 3 4 5 6 
#
# 1 0.019574 0.004891 -0.009981 -0.002592 0.020735 -0.041771
# 2 0.004891 0.035487 -0.008354 0.006331 0.010703 -0.034797
# 3 -0.009981 -0.008354 0.019465 0.001514 -0.016103 0.024787
# 4 -0.002592 0.006331 0.001514 0.032049 -0.008834 0.000095
# 5 0.020735 0.010703 -0.016103 -0.008834 0.058517 -0.064424
# 6 -0.041771 -0.034797 0.024787 0.000095 -0.064424 0.164853
#
#
# Mechanical properties :
#
#
# Convention : Reuss Voigt Hill
#
# Bulk Modulus (GPa) = 20.99107 44.36229 32.67668
# Shear Modulus (GPa) = 13.41523 30.95166 22.18344
#
# Velocity S-wave (km/s) = 2.52447 3.83454 3.24628
# Velocity P-wave (km/s) = 4.29758 6.37804 5.43823
#
# Compressibility (1/GPa) = 0.04763930
#
# Stress axis : x y z
#
# Youngs Moduli (GPa) = 51.08840 28.17933 51.37424
#
# Poissons Ratio (x) = -0.13784 0.51276
# Poissons Ratio (y) = -0.24989 0.42917
# Poissons Ratio (z) = 0.50991 0.23541
#
# Static dielectric constant tensor:
#      x y z
#    x 1.770860 -0.119380 -0.052040 
#    y -0.119380 1.681750 -0.062090 
#    z -0.052040 -0.062090 1.725960 
# 
# From -- ./inp_files/433744.got.cif
#   From: 2010.05.17/outbox.cif.g08.bks.cpg/sg2_217_cif.got.tgz:433744.got - 2010.06.03 11:33:40.
