data_PCOD9053953
_publ_section_title
;
Structure prediction by ZEFSAII (Michael W. Deem and Ramdas Pophale) SiO2 
 PCOD9053953
Probable space group: P -1
;
_chemical_formula_sum "Si O2"
_cell_formula_units_Z 16
_cell_length_a 11.046878
_cell_length_b 8.564114
_cell_length_c 14.006794
_cell_angle_alpha 83.998430
_cell_angle_beta 147.607350
_cell_angle_gamma 108.869891
_cell_volume 633.533284
_symmetry_space_group_name_H-M "P -1"
_symmetry_group_IT_number 2
_symmetry_cell_setting 'triclinic'
loop_
_space_group_symop_operation_xyz
x,y,z
-x,-y,-z
loop_
_atom_site_type_symbol
_atom_site_label
_atom_site_fract_x
_atom_site_fract_y
_atom_site_fract_z
Si Si1 0.854291 0.022439 0.593761
Si Si2 0.845947 0.759724 0.042224
Si Si3 0.415916 0.297249 0.456889
Si Si4 0.503194 0.804120 0.670978
Si Si5 0.063836 0.436700 0.445890
Si Si6 0.188475 0.697198 0.143563
Si Si7 0.378427 0.596663 0.979681
Si Si8 0.322851 0.182051 0.676765
O O1 0.614692 0.065216 0.440114
O O2 0.046911 0.150437 0.790524
O O3 0.795058 0.828557 0.603467
O O4 0.861594 0.003183 0.485177
O O5 0.741361 0.551964 0.007882
O O6 0.031590 0.797393 0.071992
O O7 0.634061 0.813925 0.858565
O O8 0.500000 0.500000 0.500000
O O9 0.332051 0.203741 0.306785
O O10 0.669573 0.297976 0.663911
O O11 0.270029 0.612410 0.524740
O O12 0.197621 0.312992 0.563919
O O13 0.000000 0.500000 0.500000
O O14 0.823704 0.370488 0.220126
O O15 0.409794 0.766571 0.206561
O O16 0.000000 0.500000 0.000000
O O17 0.500000 0.500000 0.000000
O O18 0.580477 0.773662 0.152868
#
# Coordination Sequence:
#
# PCOD9053953 Si02
#       8
#     2   2   2   2   2   2   2   2
#     4  11  26  45  66 103 149 182 230 289 353 411
#     4  12  24  43  69 103 142 193 228 284 353 406
#     4  11  23  41  63  94 141 186 224 284 338 414
#     4  12  23  43  67 100 142 187 235 281 346 413
#     4  12  23  45  76 101 132 185 237 292 348 412
#     4  11  20  39  65 100 142 176 234 279 340 416
#     4  12  23  45  75 102 134 182 241 290 341 417
#     4  11  25  43  67 106 138 178 236 286 348 418
#
# _framework density 25.255185000000001
#
# number of rings (size 3 to 8) (size 9 to 14) (size 15 to 20)
#    0.000    0.500    6.250    2.625    1.750    1.500 
#    9.000    2.500    0.000    3.000    0.000    0.000 
#    0.000    0.000    0.000    0.000    0.000    0.000 
#
# Total GULP energy -89335.897754 kJ/mol
# GULP energy per Si atom -5583.493610 kJ/mol
# Density = 2.519770 g / cm^3
# Si number density = 25.255185 Si / 1000 Ang^3
#
#
#
# Elastic Constant Matrix: (Units=GPa)
#
#
# Indices 1 2 3 4 5 6 
#
# 1 133.1960 1.0727 30.3489 3.3824 -27.1625 -22.8671
# 2 1.0727 80.5595 21.4027 9.9528 -11.1924 -10.7083
# 3 30.3489 21.4027 211.5445 3.8070 -47.3399 -18.8919
# 4 3.3824 9.9528 3.8070 43.0909 -10.0979 -12.6762
# 5 -27.1625 -11.1924 -47.3399 -10.0979 44.0615 9.2498
# 6 -22.8671 -10.7083 -18.8919 -12.6762 9.2498 34.8233
#
#
#
# Elastic Compliance Matrix: (Units=1/GPa)
#
#
# Indices 1 2 3 4 5 6 
#
# 1 0.009582 0.001135 0.000292 0.002075 0.005717 0.006036
# 2 0.001135 0.013548 -0.000685 -0.001633 0.002333 0.003326
# 3 0.000292 -0.000685 0.006474 0.001868 0.006898 0.002341
# 4 0.002075 -0.001633 0.001868 0.027911 0.007140 0.010138
# 5 0.005717 0.002333 0.006898 0.007140 0.035574 0.001364
# 6 0.006036 0.003326 0.002341 0.010138 0.001364 0.038301
#
#
# Mechanical properties :
#
#
# Convention : Reuss Voigt Hill
#
# Bulk Modulus (GPa) = 32.16852 58.99431 45.58142
# Shear Modulus (GPa) = 35.64607 49.22684 42.43645
#
# Velocity S-wave (km/s) = 3.76098 4.41974 4.10360
# Velocity P-wave (km/s) = 5.62361 7.03246 6.36712
#
# Compressibility (1/GPa) = 0.03108629
#
# Stress axis : x y z
#
# Youngs Moduli (GPa) = 104.36751 73.81172 154.47219
#
# Poissons Ratio (x) = -0.08379 -0.04504
# Poissons Ratio (y) = -0.11847 0.10583
# Poissons Ratio (z) = -0.03043 0.05057
#
# Static dielectric constant tensor:
#      x y z
#    x 28.923490 -7.252180 6.466030 
#    y -7.252180 3.999430 -1.703890 
#    z 6.466030 -1.703890 3.570470 
# 
# From -- ./inp_files/515583.got.cif
#   From: 2010.05.17/outbox.cif.g08.bks.cpg/sg2_258_cif.got.tgz:515583.got - 2010.06.03 11:33:40.
