data_PCOD9053094
_publ_section_title
;
Structure prediction by ZEFSAII (Michael W. Deem and Ramdas Pophale) SiO2 
 PCOD9053094
Probable space group: P -1
;
_chemical_formula_sum "Si O2"
_cell_formula_units_Z 16
_cell_length_a 16.208655
_cell_length_b 10.224489
_cell_length_c 11.620297
_cell_angle_alpha 116.082408
_cell_angle_beta 37.297691
_cell_angle_gamma 91.190164
_cell_volume 834.945504
_symmetry_space_group_name_H-M "P -1"
_symmetry_group_IT_number 2
_symmetry_cell_setting 'triclinic'
loop_
_space_group_symop_operation_xyz
x,y,z
-x,-y,-z
loop_
_atom_site_type_symbol
_atom_site_label
_atom_site_fract_x
_atom_site_fract_y
_atom_site_fract_z
Si Si1 0.666810 0.956690 0.446908
Si Si2 0.430311 0.403481 0.676937
Si Si3 0.277481 0.560268 0.652007
Si Si4 0.657880 0.976207 0.212039
Si Si5 0.857901 0.649365 0.303849
Si Si6 0.086940 0.037403 0.250386
Si Si7 0.923594 0.277435 0.746767
Si Si8 0.949540 0.980370 0.173687
O O1 0.464472 0.072934 0.712727
O O2 0.727586 0.814577 0.427580
O O3 0.758531 0.046425 0.408486
O O4 0.740721 0.875288 0.203567
O O5 0.352966 0.474999 0.661570
O O6 0.574252 0.430890 0.558091
O O7 0.531071 0.187522 0.475885
O O8 0.259607 0.526649 0.988943
O O9 0.234638 0.439008 0.585036
O O10 0.098541 0.762770 0.945128
O O11 0.761247 0.980520 0.994351
O O12 0.949490 0.701018 0.310705
O O13 0.000000 0.500000 0.000000
O O14 0.116965 0.855288 0.200119
O O15 0.961141 0.088761 0.303631
O O16 0.013944 0.180714 0.489331
O O17 0.000000 0.000000 0.000000
#
# Coordination Sequence:
#
# PCOD9053094 Si02
#       8
#     2   2   2   2   2   2   2   2
#     4  11  21  33  58  90 114 149 197 245 287 331
#     4  11  18  36  57  87 110 153 196 240 283 338
#     4  11  20  31  60  87 115 144 206 242 283 331
#     4  11  22  36  59  88 119 150 196 246 288 341
#     4  12  19  35  57  89 117 150 199 244 283 343
#     4  11  21  39  55  90 120 154 193 238 300 348
#     4  11  23  35  60  87 121 155 192 242 298 342
#     4  12  20  37  61  90 113 153 197 243 283 349
#
# _framework density 19.162928999999998
#
# number of rings (size 3 to 8) (size 9 to 14) (size 15 to 20)
#    0.000    0.750    8.750    0.750    0.000    0.000 
#    0.000    1.875    0.000   15.000    0.000    0.000 
#    0.000    0.000    0.000    0.000    0.000    0.000 
#
# Total GULP energy -89106.686371 kJ/mol
# GULP energy per Si atom -5569.167898 kJ/mol
# Density = 1.911931 g / cm^3
# Si number density = 19.162929 Si / 1000 Ang^3
#
#
#
# Elastic Constant Matrix: (Units=GPa)
#
#
# Indices 1 2 3 4 5 6 
#
# 1 132.0382 43.4425 59.8999 -17.5156 2.4659 21.5631
# 2 43.4425 69.0209 37.7260 -21.3858 0.5435 13.4687
# 3 59.8999 37.7260 86.3576 -19.6535 6.8303 16.1340
# 4 -17.5156 -21.3858 -19.6535 29.0583 6.6097 -4.9024
# 5 2.4659 0.5435 6.8303 6.6097 34.0290 -9.7612
# 6 21.5631 13.4687 16.1340 -4.9024 -9.7612 24.7485
#
#
#
# Elastic Compliance Matrix: (Units=1/GPa)
#
#
# Indices 1 2 3 4 5 6 
#
# 1 0.012306 -0.003342 -0.005854 0.000366 -0.001323 -0.005537
# 2 -0.003342 0.023901 -0.003650 0.012849 -0.003818 -0.006677
# 3 -0.005854 -0.003650 0.021351 0.008623 -0.007834 -0.008215
# 4 0.000366 0.012849 0.008623 0.051792 -0.014421 -0.008361
# 5 -0.001323 -0.003818 -0.007834 -0.014421 0.040017 0.021264
# 6 -0.005537 -0.006677 -0.008215 -0.008361 0.021264 0.060950
#
#
# Mechanical properties :
#
#
# Convention : Reuss Voigt Hill
#
# Bulk Modulus (GPa) = 31.37944 63.28374 47.33159
# Shear Modulus (GPa) = 20.27330 27.32370 23.79850
#
# Velocity S-wave (km/s) = 3.25613 3.78016 3.52789
# Velocity P-wave (km/s) = 5.52695 7.22139 6.43023
#
# Compressibility (1/GPa) = 0.03186800
#
# Stress axis : x y z
#
# Youngs Moduli (GPa) = 81.26120 41.83945 46.83618
#
# Poissons Ratio (x) = 0.13982 0.27416
# Poissons Ratio (y) = 0.27156 0.17093
# Poissons Ratio (z) = 0.47567 0.15270
#
# Static dielectric constant tensor:
#      x y z
#    x 1.721190 0.037010 -0.024720 
#    y 0.037010 1.812540 0.021700 
#    z -0.024720 0.021700 1.681210 
# 
# From -- ./inp_files/452545.got.cif
#   From: 2010.05.17/outbox.cif.g08.bks.cpg/sg2_227_cif.got.tgz:452545.got - 2010.06.03 11:33:40.
