data_PCOD9053223
_publ_section_title
;
Structure prediction by ZEFSAII (Michael W. Deem and Ramdas Pophale) SiO2 
 PCOD9053223
Probable space group: P -1
;
_chemical_formula_sum "Si O2"
_cell_formula_units_Z 16
_cell_length_a 11.574653
_cell_length_b 11.449803
_cell_length_c 20.450074
_cell_angle_alpha 146.182916
_cell_angle_beta 152.388002
_cell_angle_gamma 49.695041
_cell_volume 655.821199
_symmetry_space_group_name_H-M "P -1"
_symmetry_group_IT_number 2
_symmetry_cell_setting 'triclinic'
loop_
_space_group_symop_operation_xyz
x,y,z
-x,-y,-z
loop_
_atom_site_type_symbol
_atom_site_label
_atom_site_fract_x
_atom_site_fract_y
_atom_site_fract_z
Si Si1 0.175167 0.672052 0.012278
Si Si2 0.919796 0.225544 0.334165
Si Si3 0.393518 0.764885 0.639057
Si Si4 0.435892 0.879285 0.012599
Si Si5 0.387293 0.553692 0.317994
Si Si6 0.486304 0.210934 0.633219
Si Si7 0.762016 0.835462 0.734286
Si Si8 0.154481 0.546695 0.801983
O O1 0.381532 0.743163 0.208261
O O2 0.110460 0.899579 0.071058
O O3 0.256240 0.580697 0.943299
O O4 0.899931 0.496520 0.818540
O O5 0.000000 0.500000 0.500000
O O6 0.180546 0.184194 0.468358
O O7 0.685790 0.054132 0.181522
O O8 0.812276 0.140481 0.167934
O O9 0.487075 0.626799 0.677250
O O10 0.537404 0.745498 0.635342
O O11 0.077318 0.691042 0.437630
O O12 0.523451 0.013546 0.845447
O O13 0.361141 0.622575 0.880614
O O14 0.376009 0.573304 0.244077
O O15 0.598376 0.776738 0.557693
O O16 0.500000 0.000000 0.500000
O O17 0.960623 0.698153 0.771898
#
# Coordination Sequence:
#
# PCOD9053223 Si02
#       8
#     2   2   2   2   2   2   2   2
#     4  12  22  37  60  96 142 179 213 274 347 402
#     4  11  26  51  68  98 132 178 236 275 329 407
#     4  11  20  35  67 100 132 171 231 282 327 391
#     4  11  23  40  74  92 122 180 228 282 324 390
#     4  11  21  38  58  97 139 181 215 276 343 396
#     4  12  27  44  68 100 142 179 222 281 340 401
#     4  11  19  34  59  98 142 171 221 287 330 393
#     4  11  20  34  61 100 134 173 226 272 336 395
#
# _framework density 24.396894
#
# number of rings (size 3 to 8) (size 9 to 14) (size 15 to 20)
#    0.000    0.750    5.000    5.250    1.750    0.000 
#    4.500    0.625    0.000    1.500    0.000    0.000 
#    0.000    0.000    0.000    0.000    0.000    0.000 
#
# Total GULP energy -89325.158480 kJ/mol
# GULP energy per Si atom -5582.822405 kJ/mol
# Density = 2.434137 g / cm^3
# Si number density = 24.396894 Si / 1000 Ang^3
#
#
#
# Elastic Constant Matrix: (Units=GPa)
#
#
# Indices 1 2 3 4 5 6 
#
# 1 82.2311 20.5275 43.8276 -12.6484 10.1233 27.3058
# 2 20.5275 60.6122 28.1795 -25.7094 -4.8259 16.4902
# 3 43.8276 28.1795 151.4197 -16.9135 -1.8572 5.5899
# 4 -12.6484 -25.7094 -16.9135 30.6348 18.3713 -5.2098
# 5 10.1233 -4.8259 -1.8572 18.3713 48.7672 4.6614
# 6 27.3058 16.4902 5.5899 -5.2098 4.6614 39.6112
#
#
#
# Elastic Compliance Matrix: (Units=1/GPa)
#
#
# Indices 1 2 3 4 5 6 
#
# 1 0.020658 0.002188 -0.004947 0.009515 -0.006658 -0.012418
# 2 0.002188 0.031019 -0.003025 0.027915 -0.007109 -0.009487
# 3 -0.004947 -0.003025 0.008519 0.000355 0.000589 0.003445
# 4 0.009515 0.027915 0.000355 0.075649 -0.027212 -0.005078
# 5 -0.006658 -0.007109 0.000589 -0.027212 0.031440 0.000187
# 6 -0.012418 -0.009487 0.003445 -0.005078 0.000187 0.036579
#
#
# Mechanical properties :
#
#
# Convention : Reuss Voigt Hill
#
# Bulk Modulus (GPa) = 20.56419 53.25913 36.91166
# Shear Modulus (GPa) = 21.58509 37.25121 29.41815
#
# Velocity S-wave (km/s) = 2.97770 3.91177 3.47625
# Velocity P-wave (km/s) = 4.50217 6.50233 5.59240
#
# Compressibility (1/GPa) = 0.04862823
#
# Stress axis : x y z
#
# Youngs Moduli (GPa) = 48.40709 32.23805 117.38961
#
# Poissons Ratio (x) = -0.07054 0.58072
# Poissons Ratio (y) = -0.10591 0.35509
# Poissons Ratio (z) = 0.23947 0.09752
#
# Static dielectric constant tensor:
#      x y z
#    x 2.126410 -0.450000 0.079730 
#    y -0.450000 3.578590 -0.179080 
#    z 0.079730 -0.179080 1.973850 
# 
# From -- ./inp_files/595138.got.cif
#   From: 2010.05.17/outbox.cif.g08.bks.cpg/sg2_298_cif.got.tgz:595138.got - 2010.06.03 11:33:40.
