data_PCOD9053515
_publ_section_title
;
Structure prediction by ZEFSAII (Michael W. Deem and Ramdas Pophale) SiO2 
 PCOD9053515
Probable space group: P -1
;
_chemical_formula_sum "Si O2"
_cell_formula_units_Z 16
_cell_length_a 15.757517
_cell_length_b 25.154662
_cell_length_c 18.261216
_cell_angle_alpha 161.885663
_cell_angle_beta 151.248311
_cell_angle_gamma 19.258055
_cell_volume 727.219224
_symmetry_space_group_name_H-M "P -1"
_symmetry_group_IT_number 2
_symmetry_cell_setting 'triclinic'
loop_
_space_group_symop_operation_xyz
x,y,z
-x,-y,-z
loop_
_atom_site_type_symbol
_atom_site_label
_atom_site_fract_x
_atom_site_fract_y
_atom_site_fract_z
Si Si1 0.237608 0.355428 0.612670
Si Si2 0.076251 0.749621 0.733620
Si Si3 0.252100 0.629402 0.098739
Si Si4 0.455853 0.272449 0.310780
Si Si5 0.200105 0.168517 0.887106
Si Si6 0.798289 0.940775 0.419126
Si Si7 0.775713 0.231693 0.387220
Si Si8 0.843867 0.291057 0.093143
O O1 0.536115 0.112610 0.494175
O O2 0.118748 0.553871 0.715566
O O3 0.141085 0.242692 0.422239
O O4 0.163800 0.542860 0.865067
O O5 0.294601 0.551417 0.579957
O O6 0.175881 0.652608 0.763540
O O7 0.000000 0.000000 0.000000
O O8 0.190798 0.870545 0.352957
O O9 0.561154 0.406856 0.020100
O O10 0.091946 0.694633 0.136258
O O11 0.694929 0.151391 0.282125
O O12 0.578639 0.102345 0.255363
O O13 0.263048 0.299740 0.148940
O O14 0.223849 0.149791 0.792216
O O15 0.047347 0.752875 0.416753
O O16 0.500000 0.500000 0.500000
O O17 0.943497 0.002075 0.154776
#
# Coordination Sequence:
#
# PCOD9053515 Si02
#       8
#     2   2   2   2   2   2   2   2
#     4  11  21  43  73 101 133 176 242 292 333 409
#     4  12  27  45  66 100 143 187 228 281 354 419
#     4  11  19  42  69 104 136 171 230 298 342 400
#     4  11  24  43  65 102 142 180 226 283 355 411
#     4  11  23  39  72 107 139 173 226 296 348 406
#     4  11  22  40  69 108 137 178 230 287 352 407
#     4  12  25  43  66  97 148 185 226 280 347 421
#     4  11  23  42  72 102 133 184 233 285 346 406
#
# _framework density 22.001618000000001
#
# number of rings (size 3 to 8) (size 9 to 14) (size 15 to 20)
#    0.000    0.750    5.000    3.750    5.250    0.000 
#    0.000    2.500    0.000    0.000    0.000    0.000 
#    0.000    0.000    0.000    0.000    0.000    0.000 
#
# Total GULP energy -89108.168805 kJ/mol
# GULP energy per Si atom -5569.260550 kJ/mol
# Density = 2.195154 g / cm^3
# Si number density = 22.001618 Si / 1000 Ang^3
#
#
#
# Elastic Constant Matrix: (Units=GPa)
#
#
# Indices 1 2 3 4 5 6 
#
# 1 53.5549 3.1041 15.1732 -1.3702 -23.1972 -7.4406
# 2 3.1041 64.7133 27.5639 12.3010 -23.1212 7.9120
# 3 15.1732 27.5639 113.9366 3.1743 -16.0429 0.8083
# 4 -1.3702 12.3010 3.1743 30.1418 -5.3868 -4.5803
# 5 -23.1972 -23.1212 -16.0429 -5.3868 39.7700 2.7716
# 6 -7.4406 7.9120 0.8083 -4.5803 2.7716 27.6031
#
#
#
# Elastic Compliance Matrix: (Units=1/GPa)
#
#
# Indices 1 2 3 4 5 6 
#
# 1 0.027733 0.004962 -0.002463 0.003489 0.018200 0.004877
# 2 0.004962 0.025094 -0.004297 -0.008147 0.015247 -0.008612
# 3 -0.002463 -0.004297 0.010155 0.000667 0.000227 0.000358
# 4 0.003489 -0.008147 0.000667 0.038398 0.002112 0.009415
# 5 0.018200 0.015247 0.000227 0.002112 0.045258 -0.003665
# 6 0.004877 -0.008612 0.000358 0.009415 -0.003665 0.041931
#
#
# Mechanical properties :
#
#
# Convention : Reuss Voigt Hill
#
# Bulk Modulus (GPa) = 16.83884 35.98747 26.41315
# Shear Modulus (GPa) = 23.58954 31.92721 27.75837
#
# Velocity S-wave (km/s) = 3.27796 3.81350 3.55583
# Velocity P-wave (km/s) = 4.69007 5.98186 5.37491
#
# Compressibility (1/GPa) = 0.05938653
#
# Stress axis : x y z
#
# Youngs Moduli (GPa) = 36.05860 39.85049 98.47217
#
# Poissons Ratio (x) = -0.19774 0.24251
# Poissons Ratio (y) = -0.17892 0.42310
# Poissons Ratio (z) = 0.08880 0.17123
#
# Static dielectric constant tensor:
#      x y z
#    x 1.270580 0.316210 -0.072330 
#    y 0.316210 1.724170 0.057720 
#    z -0.072330 0.057720 1.769900 
# 
# From -- ./inp_files/392635.got.cif
#   From: 2010.05.17/outbox.cif.g08.bks.cpg/sg2_197_cif.got.tgz:392635.got - 2010.06.03 11:33:40.
