data_PCOD9053508
_publ_section_title
;
Structure prediction by ZEFSAII (Michael W. Deem and Ramdas Pophale) SiO2 
 PCOD9053508
Probable space group: P -1
;
_chemical_formula_sum "Si O2"
_cell_formula_units_Z 16
_cell_length_a 22.402631
_cell_length_b 15.375678
_cell_length_c 7.346983
_cell_angle_alpha 49.907988
_cell_angle_beta 125.499222
_cell_angle_gamma 161.278498
_cell_volume 616.977013
_symmetry_space_group_name_H-M "P -1"
_symmetry_group_IT_number 2
_symmetry_cell_setting 'triclinic'
loop_
_space_group_symop_operation_xyz
x,y,z
-x,-y,-z
loop_
_atom_site_type_symbol
_atom_site_label
_atom_site_fract_x
_atom_site_fract_y
_atom_site_fract_z
Si Si1 0.194820 0.243550 0.436768
Si Si2 0.975630 0.398301 0.835959
Si Si3 0.749880 0.933327 0.328318
Si Si4 0.653819 0.155070 0.945022
Si Si5 0.177036 0.999425 0.192783
Si Si6 0.085516 0.425977 0.478698
Si Si7 0.580278 0.452047 0.255823
Si Si8 0.557838 0.343527 0.969635
O O1 0.213392 0.133392 0.610051
O O2 0.350828 0.513478 0.488231
O O3 0.240377 0.351203 0.171526
O O4 0.000000 0.000000 0.500000
O O5 0.196079 0.693086 0.860716
O O6 0.883038 0.186309 0.808901
O O7 0.915055 0.442366 0.650229
O O8 0.884923 0.223492 0.098202
O O9 0.548551 0.694420 0.247933
O O10 0.849847 0.063521 0.529043
O O11 0.547066 0.912180 0.958061
O O12 0.782425 0.408271 0.681255
O O13 0.500000 0.000000 0.000000
O O14 0.934287 0.678610 0.241478
O O15 0.400865 0.267942 0.245808
O O16 0.247421 0.222166 0.942798
O O17 0.539869 0.319168 0.186197
#
# Coordination Sequence:
#
# PCOD9053508 Si02
#       8
#     2   2   2   2   2   2   2   2
#     4  12  28  43  69 102 142 191 228 282 356 423
#     4  11  20  40  68  97 140 174 227 285 340 410
#     4  11  19  42  65  96 134 176 234 286 336 403
#     4  11  25  43  66  99 144 188 226 286 348 416
#     4  11  21  39  71 107 138 172 234 301 339 403
#     4  11  21  38  69 102 131 182 237 277 346 416
#     4  11  23  44  69 105 143 176 230 298 347 402
#     4  12  23  45  73 101 138 185 236 288 347 408
#
# _framework density 25.932894999999998
#
# number of rings (size 3 to 8) (size 9 to 14) (size 15 to 20)
#    0.000    0.750    5.000    3.750    3.500    0.500 
#    0.000    1.875    0.000    0.000    0.000    0.000 
#    0.000    0.000    0.000    0.000    0.000    0.000 
#
# Total GULP energy -89241.199954 kJ/mol
# GULP energy per Si atom -5577.574997 kJ/mol
# Density = 2.587387 g / cm^3
# Si number density = 25.932895 Si / 1000 Ang^3
#
#
#
# Elastic Constant Matrix: (Units=GPa)
#
#
# Indices 1 2 3 4 5 6 
#
# 1 148.3497 56.3965 50.5095 -11.9401 -19.4296 -0.0149
# 2 56.3965 66.0338 16.3901 -12.7566 -4.2735 -5.9780
# 3 50.5095 16.3901 101.8094 -26.9403 -25.5555 12.5756
# 4 -11.9401 -12.7566 -26.9403 45.4391 9.5207 -14.2787
# 5 -19.4296 -4.2735 -25.5555 9.5207 38.2313 -6.5692
# 6 -0.0149 -5.9780 12.5756 -14.2787 -6.5692 53.8643
#
#
#
# Elastic Compliance Matrix: (Units=1/GPa)
#
#
# Indices 1 2 3 4 5 6 
#
# 1 0.012022 -0.009585 -0.004448 -0.002879 0.002704 -0.000455
# 2 -0.009585 0.024495 0.001656 0.007015 -0.002098 0.003933
# 3 -0.004448 0.001656 0.015226 0.006751 0.006281 -0.000817
# 4 -0.002879 0.007015 0.006751 0.029878 -0.002434 0.006825
# 5 0.002704 -0.002098 0.006281 -0.002434 0.032376 0.001605
# 6 -0.000455 0.003933 -0.000817 0.006825 0.001605 0.021197
#
#
# Mechanical properties :
#
#
# Convention : Reuss Voigt Hill
#
# Bulk Modulus (GPa) = 37.05327 62.53168 49.79247
# Shear Modulus (GPa) = 29.59560 40.36673 34.98117
#
# Velocity S-wave (km/s) = 3.38189 3.94964 3.67674
# Velocity P-wave (km/s) = 5.43771 6.70558 6.10465
#
# Compressibility (1/GPa) = 0.02698817
#
# Stress axis : x y z
#
# Youngs Moduli (GPa) = 83.18397 40.82516 65.67623
#
# Poissons Ratio (x) = 0.39133 0.29212
# Poissons Ratio (y) = 0.79736 -0.10877
# Poissons Ratio (z) = 0.36999 -0.06761
#
# Static dielectric constant tensor:
#      x y z
#    x 2.054940 0.034790 -0.055150 
#    y 0.034790 2.276500 0.068140 
#    z -0.055150 0.068140 2.145890 
# 
# From -- ./inp_files/347541.got.cif
#   From: 2010.05.17/outbox.cif.g08.bks.cpg/sg2_174_cif.got.tgz:347541.got - 2010.06.03 11:33:40.
