data_PCOD9053954
_publ_section_title
;
Structure prediction by ZEFSAII (Michael W. Deem and Ramdas Pophale) SiO2 
 PCOD9053954
Probable space group: P -1
;
_chemical_formula_sum "Si O2"
_cell_formula_units_Z 16
_cell_length_a 15.265672
_cell_length_b 15.860679
_cell_length_c 9.537018
_cell_angle_alpha 36.634898
_cell_angle_beta 133.598135
_cell_angle_gamma 150.824596
_cell_volume 671.218346
_symmetry_space_group_name_H-M "P -1"
_symmetry_group_IT_number 2
_symmetry_cell_setting 'triclinic'
loop_
_space_group_symop_operation_xyz
x,y,z
-x,-y,-z
loop_
_atom_site_type_symbol
_atom_site_label
_atom_site_fract_x
_atom_site_fract_y
_atom_site_fract_z
Si Si1 0.175801 0.394763 0.074481
Si Si2 0.314080 0.220368 0.521702
Si Si3 0.246218 0.857515 0.798073
Si Si4 0.962774 0.485165 0.788655
Si Si5 0.848320 0.566411 0.316473
Si Si6 0.557402 0.077791 0.619762
Si Si7 0.599079 0.810400 0.036497
Si Si8 0.617792 0.595347 0.146068
O O1 0.109064 0.337629 0.916463
O O2 0.061129 0.419579 0.982502
O O3 0.177952 0.234981 0.340114
O O4 0.383228 0.623148 0.021524
O O5 0.359940 0.235387 0.714161
O O6 0.487494 0.418010 0.357860
O O7 0.257778 0.022495 0.656411
O O8 0.402009 0.961635 0.718562
O O9 0.065756 0.678138 0.748506
O O10 0.231846 0.724092 0.082021
O O11 0.972634 0.567411 0.538806
O O12 0.787037 0.642511 0.244052
O O13 0.672721 0.318044 0.430298
O O14 0.500000 0.000000 0.500000
O O15 0.663604 0.025814 0.840860
O O16 0.673995 0.795837 0.001739
O O17 0.500000 0.500000 0.000000
#
# Coordination Sequence:
#
# PCOD9053954 Si02
#       8
#     2   2   2   2   2   2   2   2
#     4  11  22  44  64  96 139 172 213 270 333 394
#     4  11  24  40  68  96 132 171 224 275 327 386
#     4  11  25  44  64  96 132 177 219 275 324 388
#     4  11  26  44  64  93 139 180 218 257 336 401
#     4  12  23  40  72  99 131 174 217 273 330 392
#     4  12  22  41  68 100 132 163 223 283 323 379
#     4  11  23  38  66 102 130 171 212 280 333 379
#     4  11  20  39  65 101 134 165 215 277 334 377
#
# _framework density 23.837250999999998
#
# number of rings (size 3 to 8) (size 9 to 14) (size 15 to 20)
#    0.000    0.750    6.250    2.625    1.750    3.500 
#    0.000    1.875    0.000    0.000    0.000    0.000 
#    0.000    0.000    0.000    0.000    0.000    0.000 
#
# Total GULP energy -89503.584093 kJ/mol
# GULP energy per Si atom -5593.974006 kJ/mol
# Density = 2.378300 g / cm^3
# Si number density = 23.837251 Si / 1000 Ang^3
#
#
#
# Elastic Constant Matrix: (Units=GPa)
#
#
# Indices 1 2 3 4 5 6 
#
# 1 119.7265 39.4570 40.7355 14.4725 19.4353 -34.5041
# 2 39.4570 56.2230 23.3442 3.9298 3.1627 -24.8668
# 3 40.7355 23.3442 140.5429 31.9123 1.6896 -15.8353
# 4 14.4725 3.9298 31.9123 35.7814 -15.1134 -4.0090
# 5 19.4353 3.1627 1.6896 -15.1134 33.6999 -1.8878
# 6 -34.5041 -24.8668 -15.8353 -4.0090 -1.8878 33.0805
#
#
#
# Elastic Compliance Matrix: (Units=1/GPa)
#
#
# Indices 1 2 3 4 5 6 
#
# 1 0.016865 -0.005142 -0.000217 -0.010346 -0.013222 0.011612
# 2 -0.005142 0.029021 -0.002549 0.004299 0.003190 0.015935
# 3 -0.000217 -0.002549 0.010214 -0.010665 -0.004864 0.001177
# 4 -0.010346 0.004299 -0.010665 0.053214 0.029710 -0.004521
# 5 -0.013222 0.003190 -0.004864 0.029710 0.050161 -0.007258
# 6 0.011612 0.015935 0.001177 -0.004521 -0.007258 0.053921
#
#
# Mechanical properties :
#
#
# Convention : Reuss Voigt Hill
#
# Bulk Modulus (GPa) = 24.82441 58.17399 41.49920
# Shear Modulus (GPa) = 20.60659 34.70941 27.65800
#
# Velocity S-wave (km/s) = 2.94338 3.82003 3.40999
# Velocity P-wave (km/s) = 4.68914 6.62680 5.74032
#
# Compressibility (1/GPa) = 0.04028294
#
# Stress axis : x y z
#
# Youngs Moduli (GPa) = 59.29578 34.45735 97.90207
#
# Poissons Ratio (x) = 0.17719 0.02128
# Poissons Ratio (y) = 0.30491 0.24956
# Poissons Ratio (z) = 0.01289 0.08783
#
# Static dielectric constant tensor:
#      x y z
#    x 1.938060 0.040050 -0.024350 
#    y 0.040050 1.930240 -0.005350 
#    z -0.024350 -0.005350 1.945010 
# 
# From -- ./inp_files/312438.got.cif
#   From: 2010.05.17/outbox.cif.g08.bks.cpg/sg2_157_cif.got.tgz:312438.got - 2010.06.03 11:33:40.
