data_PCOD9053320
_publ_section_title
;
Structure prediction by ZEFSAII (Michael W. Deem and Ramdas Pophale) SiO2 
 PCOD9053320
Probable space group: P -1
;
_chemical_formula_sum "Si O2"
_cell_formula_units_Z 14
_cell_length_a 11.773632
_cell_length_b 9.931336
_cell_length_c 8.803163
_cell_angle_alpha 120.506944
_cell_angle_beta 71.986857
_cell_angle_gamma 64.263606
_cell_volume 583.900310
_symmetry_space_group_name_H-M "P -1"
_symmetry_group_IT_number 2
_symmetry_cell_setting 'triclinic'
loop_
_space_group_symop_operation_xyz
x,y,z
-x,-y,-z
loop_
_atom_site_type_symbol
_atom_site_label
_atom_site_fract_x
_atom_site_fract_y
_atom_site_fract_z
Si Si1 0.855062 0.183964 0.847548
Si Si2 0.900741 0.750429 0.236309
Si Si3 0.175498 0.361617 0.263754
Si Si4 0.365630 0.973680 0.748798
Si Si5 0.807705 0.303043 0.599568
Si Si6 0.644965 0.943521 0.716487
Si Si7 0.457322 0.668502 0.802626
O O1 0.793356 0.226807 0.721999
O O2 0.958358 0.248133 0.843692
O O3 0.692497 0.316949 0.099058
O O4 0.005145 0.917611 0.669611
O O5 0.729477 0.961664 0.332812
O O6 0.817814 0.807442 0.469907
O O7 0.000000 0.500000 0.000000
O O8 0.191339 0.512781 0.265640
O O9 0.000000 0.500000 0.500000
O O10 0.316494 0.213945 0.253617
O O11 0.209447 0.189338 0.038001
O O12 0.502485 0.987953 0.700367
O O13 0.440890 0.760919 0.695853
O O14 0.646214 0.427504 0.628327
O O15 0.587610 0.155713 0.948604
#
# Coordination Sequence:
#
# PCOD9053320 Si02
#       7
#     2   2   2   2   2   2   2
#     4  11  25  40  63 100 130 170 221 267 324 395
#     4  12  27  45  63  91 136 175 212 267 333 392
#     4  11  19  36  70  99 126 165 218 273 320 370
#     4  11  22  42  64 100 132 170 215 258 327 395
#     4  11  20  41  65  99 132 163 220 274 325 373
#     4  11  21  41  68  99 127 166 222 270 312 389
#     4  11  22  43  74  97 130 167 218 280 321 373
#
# _framework density 23.976696
#
# number of rings (size 3 to 8) (size 9 to 14) (size 15 to 20)
#    0.000    0.857    2.857    7.714    0.000    0.571 
#    2.571    0.714    0.000    0.000    0.000    0.000 
#    0.000    0.000    0.000    0.000    0.000    0.000 
#
# Total GULP energy -78333.038624 kJ/mol
# GULP energy per Si atom -5595.217045 kJ/mol
# Density = 2.392212 g / cm^3
# Si number density = 23.976696 Si / 1000 Ang^3
#
#
#
# Elastic Constant Matrix: (Units=GPa)
#
#
# Indices 1 2 3 4 5 6 
#
# 1 105.3678 46.1125 7.7222 -6.0540 -19.6572 -6.1354
# 2 46.1125 140.1175 27.1519 11.9746 -9.7763 -18.1294
# 3 7.7222 27.1519 75.0502 3.3369 -15.9044 -2.3105
# 4 -6.0540 11.9746 3.3369 34.4895 1.3372 -7.7166
# 5 -19.6572 -9.7763 -15.9044 1.3372 36.1349 1.3806
# 6 -6.1354 -18.1294 -2.3105 -7.7166 1.3806 35.9744
#
#
#
# Elastic Compliance Matrix: (Units=1/GPa)
#
#
# Indices 1 2 3 4 5 6 
#
# 1 0.012617 -0.004205 0.001402 0.003438 0.006192 0.000623
# 2 -0.004205 0.009741 -0.003069 -0.003026 -0.001020 0.003385
# 3 0.001402 -0.003069 0.015764 -0.000638 0.006921 -0.000698
# 4 0.003438 -0.003026 -0.000638 0.032060 -0.000642 0.005922
# 5 0.006192 -0.001020 0.006921 -0.000642 0.033854 -0.000451
# 6 0.000623 0.003385 -0.000698 0.005922 -0.000451 0.030852
#
#
# Mechanical properties :
#
#
# Convention : Reuss Voigt Hill
#
# Bulk Modulus (GPa) = 37.91169 53.61210 45.76189
# Shear Modulus (GPa) = 32.16988 37.28968 34.72978
#
# Velocity S-wave (km/s) = 3.66692 3.94794 3.81002
# Velocity P-wave (km/s) = 5.81159 6.57193 6.20342
#
# Compressibility (1/GPa) = 0.02637709
#
# Stress axis : x y z
#
# Youngs Moduli (GPa) = 79.25761 102.66059 63.43574
#
# Poissons Ratio (x) = 0.43170 -0.08891
# Poissons Ratio (y) = 0.33329 0.19467
# Poissons Ratio (z) = -0.11109 0.31505
#
# Static dielectric constant tensor:
#      x y z
#    x 1.969280 -0.047160 0.032180 
#    y -0.047160 1.920600 0.043840 
#    z 0.032180 0.043840 1.895600 
# 
# From -- ./inp_files/182321.got.cif
#   From: 2010.05.17/outbox.cif.g08.bks.cpg/sg2_92_cif.got.tgz:182321.got - 2010.06.03 11:33:40.
