data_PCOD9053087
_publ_section_title
;
Structure prediction by ZEFSAII (Michael W. Deem and Ramdas Pophale) SiO2 
 PCOD9053087
Probable space group: P -1
;
_chemical_formula_sum "Si O2"
_cell_formula_units_Z 16
_cell_length_a 12.248849
_cell_length_b 23.473836
_cell_length_c 29.531828
_cell_angle_alpha 10.002741
_cell_angle_beta 149.888438
_cell_angle_gamma 150.508460
_cell_volume 723.009567
_symmetry_space_group_name_H-M "P -1"
_symmetry_group_IT_number 2
_symmetry_cell_setting 'triclinic'
loop_
_space_group_symop_operation_xyz
x,y,z
-x,-y,-z
loop_
_atom_site_type_symbol
_atom_site_label
_atom_site_fract_x
_atom_site_fract_y
_atom_site_fract_z
Si Si1 0.099343 0.705999 0.134210
Si Si2 0.990480 0.467496 0.376841
Si Si3 0.483429 0.251593 0.338194
Si Si4 0.143477 0.466018 0.533158
Si Si5 0.349341 0.384043 0.403691
Si Si6 0.902570 0.264774 0.019308
Si Si7 0.717040 0.383987 0.187386
Si Si8 0.114524 0.642490 0.883660
O O1 0.105742 0.706436 0.190489
O O2 0.260303 0.488345 0.338657
O O3 0.845105 0.544330 0.153420
O O4 0.151674 0.072771 0.844137
O O5 0.044935 0.555028 0.380183
O O6 0.726356 0.411680 0.318421
O O7 0.063796 0.113034 0.670848
O O8 0.500000 0.000000 0.500000
O O9 0.350326 0.011256 0.517778
O O10 0.342029 0.506792 0.069039
O O11 0.399403 0.660066 0.473551
O O12 0.000000 0.500000 0.500000
O O13 0.321440 0.682973 0.125702
O O14 0.186559 0.041914 0.596959
O O15 0.097802 0.471960 0.895623
O O16 0.944836 0.460786 0.927570
O O17 0.500000 0.500000 0.000000
O O18 0.000000 0.500000 0.000000
#
# Coordination Sequence:
#
# PCOD9053087 Si02
#       8
#     2   2   2   2   2   2   2   2
#     4  11  24  46  72  99 141 186 245 288 349 428
#     4  12  24  44  76 106 140 188 242 295 355 424
#     4  12  22  39  68 105 141 180 233 288 356 424
#     4  12  29  50  71 103 143 189 247 301 352 418
#     4  11  26  48  72 100 144 192 235 294 352 425
#     4  11  22  42  71 103 137 186 234 283 358 424
#     4  11  18  35  67 101 138 182 225 283 349 413
#     4  12  25  43  67 108 148 177 234 290 354 433
#
# _framework density 22.129721
#
# number of rings (size 3 to 8) (size 9 to 14) (size 15 to 20)
#    0.000    0.500    6.250    3.000    1.750    3.000 
#    2.250    0.000    0.000    0.000    0.000    0.000 
#    0.000    0.000    0.000    0.000    0.000    0.000 
#
# Total GULP energy -89434.341675 kJ/mol
# GULP energy per Si atom -5589.646355 kJ/mol
# Density = 2.207935 g / cm^3
# Si number density = 22.129721 Si / 1000 Ang^3
#
#
#
# Elastic Constant Matrix: (Units=GPa)
#
#
# Indices 1 2 3 4 5 6 
#
# 1 103.7922 36.0328 -5.7130 17.3429 -4.3193 -31.2048
# 2 36.0328 96.1880 -15.0300 24.3600 5.2812 -3.8975
# 3 -5.7130 -15.0300 54.7553 10.1396 2.7589 1.1527
# 4 17.3429 24.3600 10.1396 30.1568 -0.6393 -2.5726
# 5 -4.3193 5.2812 2.7589 -0.6393 40.4192 6.0482
# 6 -31.2048 -3.8975 1.1527 -2.5726 6.0482 32.1750
#
#
#
# Elastic Compliance Matrix: (Units=1/GPa)
#
#
# Indices 1 2 3 4 5 6 
#
# 1 0.016536 -0.003986 0.001331 -0.005453 -0.000149 0.015099
# 2 -0.003986 0.016436 0.006807 -0.013561 -0.002854 -0.002666
# 3 0.001331 0.006807 0.022980 -0.013989 -0.002637 0.000669
# 4 -0.005453 -0.013561 -0.013989 0.051776 0.003401 -0.002929
# 5 -0.000149 -0.002854 -0.002637 0.003401 0.026084 -0.005026
# 6 0.015099 -0.002666 0.000669 -0.002929 -0.005026 0.046087
#
#
# Mechanical properties :
#
#
# Convention : Reuss Voigt Hill
#
# Bulk Modulus (GPa) = 15.56297 31.70168 23.63233
# Shear Modulus (GPa) = 25.90497 36.51323 31.20910
#
# Velocity S-wave (km/s) = 3.42511 4.06638 3.75944
# Velocity P-wave (km/s) = 4.76337 6.03355 5.43569
#
# Compressibility (1/GPa) = 0.06425508
#
# Stress axis : x y z
#
# Youngs Moduli (GPa) = 60.47470 60.84179 43.51682
#
# Poissons Ratio (x) = 0.24250 -0.05790
# Poissons Ratio (y) = 0.24104 -0.29622
# Poissons Ratio (z) = -0.08047 -0.41414
#
# Static dielectric constant tensor:
#      x y z
#    x 1.870200 -0.059790 0.005280 
#    y -0.059790 1.927230 0.066210 
#    z 0.005280 0.066210 1.902910 
# 
# From -- ./inp_files/614516.got.cif
#   From: 2010.05.17/outbox.cif.g08.bks.cpg/sg2_308_cif.got.tgz:614516.got - 2010.06.03 11:33:40.
