data_PCOD9053943
_publ_section_title
;
Structure prediction by ZEFSAII (Michael W. Deem and Ramdas Pophale) SiO2 
 PCOD9053943
Probable space group: P -1
;
_chemical_formula_sum "Si O2"
_cell_formula_units_Z 14
_cell_length_a 11.805183
_cell_length_b 19.211595
_cell_length_c 14.722258
_cell_angle_alpha 32.263976
_cell_angle_beta 144.647667
_cell_angle_gamma 159.996508
_cell_volume 605.665051
_symmetry_space_group_name_H-M "P -1"
_symmetry_group_IT_number 2
_symmetry_cell_setting 'triclinic'
loop_
_space_group_symop_operation_xyz
x,y,z
-x,-y,-z
loop_
_atom_site_type_symbol
_atom_site_label
_atom_site_fract_x
_atom_site_fract_y
_atom_site_fract_z
Si Si1 0.781379 0.437250 0.166327
Si Si2 0.238558 0.329016 0.859482
Si Si3 0.273021 0.905578 0.063014
Si Si4 0.529134 0.520881 0.345894
Si Si5 0.655542 0.326520 0.407617
Si Si6 0.592199 0.340304 0.732551
Si Si7 0.154879 0.943755 0.637746
O O1 0.705426 0.324907 0.336090
O O2 0.014572 0.480812 0.203653
O O3 0.453601 0.319795 0.037366
O O4 0.008253 0.681107 0.079703
O O5 0.218331 0.327338 0.739578
O O6 0.426320 0.563656 0.755253
O O7 0.902291 0.150190 0.894916
O O8 0.392448 0.099469 0.878030
O O9 0.578958 0.976161 0.209247
O O10 0.557793 0.398094 0.551387
O O11 0.544251 0.638809 0.301828
O O12 0.155580 0.320165 0.283238
O O13 0.000000 0.500000 0.500000
O O14 0.365833 0.084912 0.528591
O O15 0.000000 0.000000 0.500000
#
# Coordination Sequence:
#
# PCOD9053943 Si02
#       7
#     2   2   2   2   2   2   2
#     4  11  23  40  67  97 130 166 210 266 317 378
#     4  11  23  41  66  96 130 168 208 267 317 378
#     4  11  24  42  67 100 127 166 214 265 318 372
#     4  11  26  45  65  91 129 174 213 260 327 375
#     4  11  20  39  63  99 132 163 205 267 320 372
#     4  11  26  45  64  92 130 169 217 267 311 386
#     4  12  23  38  70  98 127 169 212 261 320 381
#
# _framework density 23.115086000000002
#
# number of rings (size 3 to 8) (size 9 to 14) (size 15 to 20)
#    0.000    0.857    4.286    4.714    4.000    2.857 
#    0.000    0.714    0.000    0.000    0.000    0.000 
#    0.000    0.000    0.000    0.000    0.000    0.000 
#
# Total GULP energy -78357.773119 kJ/mol
# GULP energy per Si atom -5596.983794 kJ/mol
# Density = 2.306247 g / cm^3
# Si number density = 23.115086 Si / 1000 Ang^3
#
#
#
# Elastic Constant Matrix: (Units=GPa)
#
#
# Indices 1 2 3 4 5 6 
#
# 1 110.6981 17.0727 52.4693 -10.1351 -25.4232 38.7431
# 2 17.0727 42.1749 30.9270 4.4751 -3.3901 23.9756
# 3 52.4693 30.9270 130.4612 3.7110 -7.4786 18.4772
# 4 -10.1351 4.4751 3.7110 37.1370 13.7501 -4.6882
# 5 -25.4232 -3.3901 -7.4786 13.7501 33.1335 -5.4187
# 6 38.7431 23.9756 18.4772 -4.6882 -5.4187 31.4765
#
#
#
# Elastic Compliance Matrix: (Units=1/GPa)
#
#
# Indices 1 2 3 4 5 6 
#
# 1 0.030498 0.024564 -0.010021 -0.006565 0.018501 -0.048160
# 2 0.024564 0.069613 -0.014431 -0.015983 0.017210 -0.074206
# 3 -0.010021 -0.014431 0.012659 0.001279 -0.004330 0.015340
# 4 -0.006565 -0.015983 0.001279 0.036311 -0.017882 0.021834
# 5 0.018501 0.017210 -0.004330 -0.017882 0.048046 -0.027732
# 6 -0.048160 -0.074206 0.015340 0.021834 -0.027732 0.137044
#
#
# Mechanical properties :
#
#
# Convention : Reuss Voigt Hill
#
# Bulk Modulus (GPa) = 8.84986 53.80802 31.32894
# Shear Modulus (GPa) = 13.45489 32.54040 22.99765
#
# Velocity S-wave (km/s) = 2.41526 3.75608 3.15766
# Velocity P-wave (km/s) = 3.40806 6.49151 5.18433
#
# Compressibility (1/GPa) = 0.11299617
#
# Stress axis : x y z
#
# Youngs Moduli (GPa) = 32.78880 14.36503 78.99486
#
# Poissons Ratio (x) = -0.35287 0.79160
# Poissons Ratio (y) = -0.80544 1.13996
# Poissons Ratio (z) = 0.32857 0.20730
#
# Static dielectric constant tensor:
#      x y z
#    x 1.889400 0.013480 -0.013110 
#    y 0.013480 1.844320 0.012920 
#    z -0.013110 0.012920 1.883180 
# 
# From -- ./inp_files/206849.got.cif
#   From: 2010.05.17/outbox.cif.g08.bks.cpg/sg2_104_cif.got.tgz:206849.got - 2010.06.03 11:33:40.
