data_PCOD9053378
_publ_section_title
;
Structure prediction by ZEFSAII (Michael W. Deem and Ramdas Pophale) SiO2 
 PCOD9053378
Probable space group: P -1
;
_chemical_formula_sum "Si O2"
_cell_formula_units_Z 14
_cell_length_a 21.220614
_cell_length_b 27.852874
_cell_length_c 13.008006
_cell_angle_alpha 161.056090
_cell_angle_beta 150.515667
_cell_angle_gamma 17.506815
_cell_volume 710.616724
_symmetry_space_group_name_H-M "P -1"
_symmetry_group_IT_number 2
_symmetry_cell_setting 'triclinic'
loop_
_space_group_symop_operation_xyz
x,y,z
-x,-y,-z
loop_
_atom_site_type_symbol
_atom_site_label
_atom_site_fract_x
_atom_site_fract_y
_atom_site_fract_z
Si Si1 0.273411 0.385279 0.041745
Si Si2 0.437905 0.314020 0.337443
Si Si3 0.248578 0.704410 0.268124
Si Si4 0.766566 0.500832 0.354146
Si Si5 0.790632 0.763954 0.800359
Si Si6 0.852392 0.421018 0.950853
Si Si7 0.234828 0.177845 0.424279
O O1 0.187107 0.302195 0.718989
O O2 0.537562 0.124372 0.865328
O O3 0.262269 0.444266 0.262470
O O4 0.165874 0.595265 0.229274
O O5 0.578653 0.326747 0.537444
O O6 0.336400 0.425245 0.531354
O O7 0.611414 0.015014 0.986070
O O8 0.252618 0.593186 0.147645
O O9 0.288082 0.573863 0.956245
O O10 0.000000 0.000000 0.500000
O O11 0.693446 0.723046 0.646817
O O12 0.030285 0.276566 0.292605
O O13 0.000000 0.500000 0.500000
O O14 0.899701 0.782033 0.068370
O O15 0.742991 0.688845 0.338654
#
# Coordination Sequence:
#
# PCOD9053378 Si02
#       7
#     2   2   2   2   2   2   2
#     4   9  19  36  62  88 112 149 202 242 288 341
#     4  12  24  36  56  93 124 155 184 242 315 347
#     4  12  22  38  62  85 117 160 201 241 281 354
#     4  11  23  37  59  88 124 150 191 252 300 343
#     4  11  19  38  63  87 109 152 212 244 278 338
#     4   9  18  34  61  85 107 145 205 243 270 330
#     4   8  18  36  61  88 107 151 199 249 277 338
#
# _framework density 19.701197000000001
#
# number of rings (size 3 to 8) (size 9 to 14) (size 15 to 20)
#    0.857    0.857    2.857    3.429    0.000    1.143 
#    0.000    0.000    0.000    1.714    0.000    0.000 
#    0.000    0.000    0.000    0.000    0.000    0.000 
#
# Total GULP energy -78004.180648 kJ/mol
# GULP energy per Si atom -5571.727189 kJ/mol
# Density = 1.965636 g / cm^3
# Si number density = 19.701197 Si / 1000 Ang^3
#
#
#
# Elastic Constant Matrix: (Units=GPa)
#
#
# Indices 1 2 3 4 5 6 
#
# 1 108.1819 14.2216 33.6006 -8.1228 -9.6272 23.2782
# 2 14.2216 50.5030 2.9746 -11.8943 -1.5113 27.7264
# 3 33.6006 2.9746 46.0789 -17.3119 -10.6703 10.0742
# 4 -8.1228 -11.8943 -17.3119 26.8775 2.8049 -9.8159
# 5 -9.6272 -1.5113 -10.6703 2.8049 23.2286 -11.4468
# 6 23.2782 27.7264 10.0742 -9.8159 -11.4468 32.1288
#
#
#
# Elastic Compliance Matrix: (Units=1/GPa)
#
#
# Indices 1 2 3 4 5 6 
#
# 1 0.014100 0.001168 -0.011097 -0.005962 -0.003847 -0.010936
# 2 0.001168 0.045836 0.005646 0.009478 -0.017515 -0.045516
# 3 -0.011097 0.005646 0.041422 0.025408 0.012995 0.002572
# 4 -0.005962 0.009478 0.025408 0.058332 0.006947 0.008470
# 5 -0.003847 -0.017515 0.012995 0.006947 0.064659 0.038987
# 6 -0.010936 -0.045516 0.002572 0.008470 0.038987 0.093999
#
#
# Mechanical properties :
#
#
# Convention : Reuss Voigt Hill
#
# Bulk Modulus (GPa) = 10.77678 34.03972 22.40825
# Shear Modulus (GPa) = 13.97249 26.71145 20.34197
#
# Velocity S-wave (km/s) = 2.66601 3.68615 3.21678
# Velocity P-wave (km/s) = 3.86766 5.95252 5.01952
#
# Compressibility (1/GPa) = 0.09279205
#
# Stress axis : x y z
#
# Youngs Moduli (GPa) = 70.92195 21.81677 24.14173
#
# Poissons Ratio (x) = -0.02548 0.26790
# Poissons Ratio (y) = -0.08283 -0.13630
# Poissons Ratio (z) = 0.78701 -0.12317
#
# Static dielectric constant tensor:
#      x y z
#    x 1.739740 0.042150 -0.050920 
#    y 0.042150 1.712790 -0.030270 
#    z -0.050920 -0.030270 1.728940 
# 
# From -- ./inp_files/473043.got.cif
#   From: 2010.05.17/outbox.cif.g08.bks.cpg/sg2_237_cif.got.tgz:473043.got - 2010.06.03 11:33:40.
