data_PCOD9053041
_publ_section_title
;
Structure prediction by ZEFSAII (Michael W. Deem and Ramdas Pophale) SiO2 
 PCOD9053041
Probable space group: P -1
;
_chemical_formula_sum "Si O2"
_cell_formula_units_Z 16
_cell_length_a 15.792067
_cell_length_b 6.122025
_cell_length_c 29.186894
_cell_angle_alpha 107.074152
_cell_angle_beta 164.407767
_cell_angle_gamma 67.294603
_cell_volume 663.995453
_symmetry_space_group_name_H-M "P -1"
_symmetry_group_IT_number 2
_symmetry_cell_setting 'triclinic'
loop_
_space_group_symop_operation_xyz
x,y,z
-x,-y,-z
loop_
_atom_site_type_symbol
_atom_site_label
_atom_site_fract_x
_atom_site_fract_y
_atom_site_fract_z
Si Si1 0.957728 0.203354 0.658450
Si Si2 0.283131 0.251266 0.653989
Si Si3 0.093653 0.487002 0.263896
Si Si4 0.978285 0.039024 0.562313
Si Si5 0.371234 0.471694 0.102760
Si Si6 0.610900 0.950250 0.501505
Si Si7 0.867927 0.266573 0.792629
Si Si8 0.391464 0.716081 0.033303
O O1 0.819177 0.184489 0.534550
O O2 0.977300 0.954112 0.680675
O O3 0.819614 0.426880 0.637248
O O4 0.312380 0.220586 0.830311
O O5 0.606185 0.317928 0.838316
O O6 0.000000 0.500000 0.500000
O O7 0.120662 0.189889 0.611544
O O8 0.296694 0.037368 0.612547
O O9 0.043619 0.688610 0.210947
O O10 0.380806 0.227457 0.379239
O O11 0.766910 0.418712 0.092823
O O12 0.316767 0.789813 0.736778
O O13 0.463594 0.551309 0.106371
O O14 0.012848 0.436420 0.908412
O O15 0.500000 0.000000 0.500000
O O16 0.505787 0.747356 0.409189
O O17 0.102777 0.986269 0.912464
#
# Coordination Sequence:
#
# PCOD9053041 Si02
#       8
#     2   2   2   2   2   2   2   2
#     4  12  21  37  58  83 117 150 196 238 279 333
#     4   9  18  34  55  84 123 144 175 232 305 346
#     4  10  23  39  55  77 115 158 193 232 284 334
#     4  10  20  34  55  91 116 145 184 239 291 339
#     4  10  17  35  59  82 116 147 187 229 290 345
#     4  11  24  41  54  77 116 164 195 232 277 335
#     4  10  20  39  56  79 116 154 197 224 287 337
#     4  10  21  36  55  88 111 147 193 243 284 327
#
# _framework density 24.096551000000002
#
# number of rings (size 3 to 8) (size 9 to 14) (size 15 to 20)
#    0.000    1.750    3.750    0.750    0.000    1.500 
#    0.000    0.000    0.000    0.750    0.000   22.750 
#    0.000    0.000    0.000    0.000    0.000    0.000 
#
# Total GULP energy -89223.810722 kJ/mol
# GULP energy per Si atom -5576.488170 kJ/mol
# Density = 2.404171 g / cm^3
# Si number density = 24.096551 Si / 1000 Ang^3
#
#
#
# Elastic Constant Matrix: (Units=GPa)
#
#
# Indices 1 2 3 4 5 6 
#
# 1 87.3825 40.7282 32.5857 15.9572 -25.7835 3.9046
# 2 40.7282 118.1995 56.7478 33.2344 -14.6851 19.9802
# 3 32.5857 56.7478 111.5891 65.6633 -30.4721 -1.8344
# 4 15.9572 33.2344 65.6633 77.6290 -7.4995 -15.2212
# 5 -25.7835 -14.6851 -30.4721 -7.4995 31.8021 14.7122
# 6 3.9046 19.9802 -1.8344 -15.2212 14.7122 44.6640
#
#
#
# Elastic Compliance Matrix: (Units=1/GPa)
#
#
# Indices 1 2 3 4 5 6 
#
# 1 0.019490 -0.002773 0.008025 -0.009452 0.025405 -0.011723
# 2 -0.002773 0.014217 -0.001790 -0.005386 0.005951 -0.009987
# 3 0.008025 -0.001790 0.043822 -0.038497 0.051653 -0.028235
# 4 -0.009452 -0.005386 -0.038497 0.051828 -0.051617 0.036320
# 5 0.025405 0.005951 0.051653 -0.051617 0.119778 -0.059807
# 6 -0.011723 -0.009987 -0.028235 0.036320 -0.059807 0.058800
#
#
# Mechanical properties :
#
#
# Convention : Reuss Voigt Hill
#
# Bulk Modulus (GPa) = 11.84085 64.14384 37.99234
# Shear Modulus (GPa) = 15.19008 43.29297 29.24153
#
# Velocity S-wave (km/s) = 2.51347 4.24328 3.48733
# Velocity P-wave (km/s) = 3.65348 7.11931 5.65829
#
# Compressibility (1/GPa) = 0.08445342
#
# Stress axis : x y z
#
# Youngs Moduli (GPa) = 51.30941 70.33796 22.81939
#
# Poissons Ratio (x) = 0.19506 -0.18313
# Poissons Ratio (y) = 0.14229 0.04085
# Poissons Ratio (z) = -0.41178 0.12591
#
# Static dielectric constant tensor:
#      x y z
#    x 1.940300 0.024750 0.075240 
#    y 0.024750 1.973160 0.067500 
#    z 0.075240 0.067500 2.108860 
# 
# From -- ./inp_files/82519.got.cif
#   From: 2010.05.17/outbox.cif.g08.bks.cpg/sg2_42_cif.got.tgz:82519.got - 2010.06.03 11:33:40.
