data_PCOD9053626
_publ_section_title
;
Structure prediction by ZEFSAII (Michael W. Deem and Ramdas Pophale) SiO2 
 PCOD9053626
Probable space group: P -1
;
_chemical_formula_sum "Si O2"
_cell_formula_units_Z 16
_cell_length_a 13.724460
_cell_length_b 9.285546
_cell_length_c 16.771310
_cell_angle_alpha 113.912049
_cell_angle_beta 134.924268
_cell_angle_gamma 30.973750
_cell_volume 650.827373
_symmetry_space_group_name_H-M "P -1"
_symmetry_group_IT_number 2
_symmetry_cell_setting 'triclinic'
loop_
_space_group_symop_operation_xyz
x,y,z
-x,-y,-z
loop_
_atom_site_type_symbol
_atom_site_label
_atom_site_fract_x
_atom_site_fract_y
_atom_site_fract_z
Si Si1 0.628589 0.677656 0.486295
Si Si2 0.539539 0.285142 0.437890
Si Si3 0.292912 0.832896 0.910438
Si Si4 0.754710 0.571122 0.028310
Si Si5 0.010013 0.534638 0.715072
Si Si6 0.345114 0.768982 0.215221
Si Si7 0.846807 0.325629 0.284740
Si Si8 0.214255 0.553329 0.147023
O O1 0.607284 0.666905 0.565428
O O2 0.939788 0.449623 0.604174
O O3 0.557972 0.595930 0.374303
O O4 0.331059 0.072245 0.378972
O O5 0.500000 0.500000 0.500000
O O6 0.415967 0.358578 0.297848
O O7 0.886293 0.902970 0.554771
O O8 0.081137 0.919539 0.765328
O O9 0.500000 0.500000 0.000000
O O10 0.481451 0.745670 0.940182
O O11 0.109787 0.121046 0.930638
O O12 0.816342 0.651558 0.143615
O O13 0.737770 0.618970 0.934933
O O14 0.045409 0.169937 0.123867
O O15 0.150997 0.537216 0.748310
O O16 0.544252 0.608539 0.218693
O O17 0.258440 0.675990 0.155290
#
# Coordination Sequence:
#
# PCOD9053626 Si02
#       8
#     2   2   2   2   2   2   2   2
#     4   9  19  38  59  81 112 154 193 236 286 335
#     4  11  21  39  57  82 117 155 192 232 288 345
#     4  12  19  33  57  85 118 148 185 242 291 332
#     4  11  22  35  56  90 118 149 190 239 291 337
#     4   9  19  37  60  81 113 153 191 240 286 331
#     4  11  20  34  58  90 118 143 191 244 290 340
#     4  11  21  34  57  90 118 148 191 236 292 343
#     4  12  22  35  56  88 118 152 188 237 292 341
#
# _framework density 24.584091999999998
#
# number of rings (size 3 to 8) (size 9 to 14) (size 15 to 20)
#    0.000    1.250    6.250    1.875    0.000    1.000 
#    2.250    0.625    0.000    0.750    0.000    0.000 
#    0.000    0.000    0.000    0.000    0.000    0.000 
#
# Total GULP energy -89376.225324 kJ/mol
# GULP energy per Si atom -5586.014083 kJ/mol
# Density = 2.452814 g / cm^3
# Si number density = 24.584092 Si / 1000 Ang^3
#
#
#
# Elastic Constant Matrix: (Units=GPa)
#
#
# Indices 1 2 3 4 5 6 
#
# 1 111.0229 43.9890 40.0456 7.7615 5.3364 -22.3134
# 2 43.9890 71.9221 25.7891 7.7825 -2.8386 -27.3334
# 3 40.0456 25.7891 177.1415 27.0474 -20.9868 -16.0991
# 4 7.7615 7.7825 27.0474 26.3729 -2.5000 -3.2685
# 5 5.3364 -2.8386 -20.9868 -2.5000 40.5086 -1.6325
# 6 -22.3134 -27.3334 -16.0991 -3.2685 -1.6325 36.6191
#
#
#
# Elastic Compliance Matrix: (Units=1/GPa)
#
#
# Indices 1 2 3 4 5 6 
#
# 1 0.012915 -0.006545 -0.002229 0.000346 -0.003217 0.001892
# 2 -0.006545 0.023409 0.000116 -0.003166 0.002906 0.013382
# 3 -0.002229 0.000116 0.007798 -0.006783 0.003993 0.001729
# 4 0.000346 -0.003166 -0.006783 0.045471 -0.001020 -0.001121
# 5 -0.003217 0.002906 0.003993 -0.001020 0.027444 0.003097
# 6 0.001892 0.013382 0.001729 -0.001121 0.003097 0.039248
#
#
# Mechanical properties :
#
#
# Convention : Reuss Voigt Hill
#
# Bulk Modulus (GPa) = 37.30639 64.41487 50.86063
# Shear Modulus (GPa) = 27.39167 37.38430 32.38799
#
# Velocity S-wave (km/s) = 3.34159 3.90381 3.63359
# Velocity P-wave (km/s) = 5.48600 6.82483 6.19171
#
# Compressibility (1/GPa) = 0.02680506
#
# Stress axis : x y z
#
# Youngs Moduli (GPa) = 77.42866 42.71867 128.23651
#
# Poissons Ratio (x) = 0.27961 0.28581
# Poissons Ratio (y) = 0.50681 -0.01484
# Poissons Ratio (z) = 0.17257 -0.00494
#
# Static dielectric constant tensor:
#      x y z
#    x 1.934110 0.052580 0.047930 
#    y 0.052580 2.047310 0.106140 
#    z 0.047930 0.106140 2.166440 
# 
# From -- ./inp_files/427795.got.cif
#   From: 2010.05.17/outbox.cif.g08.bks.cpg/sg2_214_cif.got.tgz:427795.got - 2010.06.03 11:33:40.
