data_PCOD9053646
_publ_section_title
;
Structure prediction by ZEFSAII (Michael W. Deem and Ramdas Pophale) SiO2 
 PCOD9053646
Probable space group: P -1
;
_chemical_formula_sum "Si O2"
_cell_formula_units_Z 14
_cell_length_a 8.922419
_cell_length_b 9.880253
_cell_length_c 14.436877
_cell_angle_alpha 29.384340
_cell_angle_beta 105.986228
_cell_angle_gamma 95.763397
_cell_volume 573.442368
_symmetry_space_group_name_H-M "P -1"
_symmetry_group_IT_number 2
_symmetry_cell_setting 'triclinic'
loop_
_space_group_symop_operation_xyz
x,y,z
-x,-y,-z
loop_
_atom_site_type_symbol
_atom_site_label
_atom_site_fract_x
_atom_site_fract_y
_atom_site_fract_z
Si Si1 0.316580 0.266396 0.618873
Si Si2 0.637581 0.607351 0.742699
Si Si3 0.620626 0.266281 0.775677
Si Si4 0.499883 0.818286 0.783296
Si Si5 0.055461 0.190199 0.318643
Si Si6 0.858244 0.992817 0.130362
Si Si7 0.853533 0.843140 0.855768
O O1 0.472390 0.162581 0.776234
O O2 0.319658 0.566003 0.396099
O O3 0.348936 0.041845 0.673903
O O4 0.165942 0.260520 0.659784
O O5 0.553094 0.515651 0.694102
O O6 0.523561 0.784289 0.697326
O O7 0.780396 0.743154 0.659207
O O8 0.748118 0.288923 0.986707
O O9 0.766297 0.030416 0.993387
O O10 0.660380 0.902892 0.794145
O O11 0.500000 0.500000 0.000000
O O12 0.102515 0.077271 0.288755
O O13 0.000000 0.000000 0.500000
O O14 0.922263 0.499569 0.093390
O O15 0.038690 0.017667 0.143749
#
# Coordination Sequence:
#
# PCOD9053646 Si02
#       7
#     2   2   2   2   2   2   2
#     4  11  21  35  61  76 111 149 182 230 279 321
#     4   8  18  34  51  82 107 131 189 221 260 330
#     4   9  21  37  54  84 102 148 200 216 261 345
#     4  11  20  35  55  87 115 145 170 234 294 318
#     4   9  17  30  54  78 107 143 180 224 266 319
#     4   9  18  36  57  76 107 144 187 229 260 331
#     4   9  20  33  50  83 112 134 189 223 269 333
#
# _framework density 24.413961
#
# number of rings (size 3 to 8) (size 9 to 14) (size 15 to 20)
#    0.857    1.714    1.429    1.286    2.000    0.571 
#    0.000    5.000    0.000    3.429    0.000    0.000 
#    0.000    0.000    0.000    0.000    0.000    0.000 
#
# Total GULP energy -78155.452855 kJ/mol
# GULP energy per Si atom -5582.532347 kJ/mol
# Density = 2.435839 g / cm^3
# Si number density = 24.413961 Si / 1000 Ang^3
#
#
#
# Elastic Constant Matrix: (Units=GPa)
#
#
# Indices 1 2 3 4 5 6 
#
# 1 68.3938 26.8525 54.3406 7.2910 -13.9593 -12.0581
# 2 26.8525 89.5694 18.3342 18.8420 5.1881 3.2658
# 3 54.3406 18.3342 121.1422 17.4476 -37.4391 -5.5034
# 4 7.2910 18.8420 17.4476 30.6985 2.8135 0.5855
# 5 -13.9593 5.1881 -37.4391 2.8135 45.2736 -4.7892
# 6 -12.0581 3.2658 -5.5034 0.5855 -4.7892 21.0364
#
#
#
# Elastic Compliance Matrix: (Units=1/GPa)
#
#
# Indices 1 2 3 4 5 6 
#
# 1 0.029416 -0.008028 -0.011137 0.003772 0.002195 0.015589
# 2 -0.008028 0.015498 0.000793 -0.007555 -0.003917 -0.007482
# 3 -0.011137 0.000793 0.018396 -0.009463 0.012424 0.001398
# 4 0.003772 -0.007555 -0.009463 0.042534 -0.008683 -0.002301
# 5 0.002195 -0.003917 0.012424 -0.008683 0.035448 0.013428
# 6 0.015589 -0.007482 0.001398 -0.002301 0.013428 0.061121
#
#
# Mechanical properties :
#
#
# Convention : Reuss Voigt Hill
#
# Bulk Modulus (GPa) = 37.64136 53.12889 45.38513
# Shear Modulus (GPa) = 20.16033 31.37357 25.76695
#
# Velocity S-wave (km/s) = 2.87674 3.58867 3.25225
# Velocity P-wave (km/s) = 5.14642 6.24342 5.72127
#
# Compressibility (1/GPa) = 0.02656652
#
# Stress axis : x y z
#
# Youngs Moduli (GPa) = 33.99520 64.52498 54.35824
#
# Poissons Ratio (x) = 0.51802 0.60538
# Poissons Ratio (y) = 0.27292 -0.04312
# Poissons Ratio (z) = 0.37860 -0.05118
#
# Static dielectric constant tensor:
#      x y z
#    x 1.920590 -0.007890 0.007450 
#    y -0.007890 1.942310 0.015890 
#    z 0.007450 0.015890 2.007710 
# 
# From -- ./inp_files/497320.got.cif
#   From: 2010.05.17/outbox.cif.g08.bks.cpg/sg2_249_cif.got.tgz:497320.got - 2010.06.03 11:33:40.
