data_PCOD9053672
_publ_section_title
;
Structure prediction by ZEFSAII (Michael W. Deem and Ramdas Pophale) SiO2 
 PCOD9053672
Probable space group: P -1
;
_chemical_formula_sum "Si O2"
_cell_formula_units_Z 16
_cell_length_a 10.969027
_cell_length_b 14.165324
_cell_length_c 7.938375
_cell_angle_alpha 102.062235
_cell_angle_beta 140.121468
_cell_angle_gamma 61.164369
_cell_volume 663.664216
_symmetry_space_group_name_H-M "P -1"
_symmetry_group_IT_number 2
_symmetry_cell_setting 'triclinic'
loop_
_space_group_symop_operation_xyz
x,y,z
-x,-y,-z
loop_
_atom_site_type_symbol
_atom_site_label
_atom_site_fract_x
_atom_site_fract_y
_atom_site_fract_z
Si Si1 0.578600 0.403111 0.739475
Si Si2 0.654854 0.152469 0.269162
Si Si3 0.830255 0.624812 0.783581
Si Si4 0.012997 0.935462 0.723374
Si Si5 0.709234 0.353554 0.478961
Si Si6 0.788112 0.794428 0.091129
Si Si7 0.267342 0.038198 0.170110
Si Si8 0.973216 0.760476 0.763528
O O1 0.381291 0.381316 0.494567
O O2 0.703424 0.386066 0.683899
O O3 0.470630 0.527750 0.742257
O O4 0.766735 0.313241 0.022199
O O5 0.823226 0.109018 0.277336
O O6 0.628445 0.267009 0.348733
O O7 0.410620 0.176573 0.982163
O O8 0.792791 0.057180 0.518230
O O9 0.760179 0.722439 0.883767
O O10 0.899981 0.673034 0.712639
O O11 0.000000 0.500000 0.000000
O O12 0.906304 0.855279 0.587188
O O13 0.176000 0.952531 0.032427
O O14 0.952356 0.291719 0.632542
O O15 0.739490 0.912773 0.005225
O O16 0.084069 0.152781 0.109865
O O17 0.500000 0.000000 0.500000
#
# Coordination Sequence:
#
# PCOD9053672 Si02
#       8
#     2   2   2   2   2   2   2   2
#     4  11  20  35  65  94 131 158 206 274 321 372
#     4  11  24  44  66  88 132 172 221 260 301 395
#     4  11  20  35  61  98 128 160 202 266 325 370
#     4  11  25  45  63  91 128 179 214 258 323 376
#     4  11  20  38  64  99 125 165 215 263 318 378
#     4  11  21  36  62  96 122 164 214 261 317 376
#     4  11  23  40  64  96 129 160 208 274 327 376
#     4  11  24  39  62  97 127 160 209 267 329 377
#
# _framework density 24.108578999999999
#
# number of rings (size 3 to 8) (size 9 to 14) (size 15 to 20)
#    0.000    1.000    6.250    1.875    3.500    0.500 
#    2.250    0.625    0.000    1.500    0.000    0.000 
#    0.000    0.000    0.000    0.000    0.000    0.000 
#
# Total GULP energy -89192.412924 kJ/mol
# GULP energy per Si atom -5574.525808 kJ/mol
# Density = 2.405371 g / cm^3
# Si number density = 24.108579 Si / 1000 Ang^3
#
#
#
# Elastic Constant Matrix: (Units=GPa)
#
#
# Indices 1 2 3 4 5 6 
#
# 1 89.5153 34.5804 16.6739 -0.9475 34.4554 9.2898
# 2 34.5804 136.5619 50.9865 -12.5238 18.1996 18.8378
# 3 16.6739 50.9865 89.3437 -11.9983 32.9297 6.7685
# 4 -0.9475 -12.5238 -11.9983 14.6806 -3.0707 -2.3720
# 5 34.4554 18.1996 32.9297 -3.0707 34.1410 3.2018
# 6 9.2898 18.8378 6.7685 -2.3720 3.2018 24.9394
#
#
#
# Elastic Compliance Matrix: (Units=1/GPa)
#
#
# Indices 1 2 3 4 5 6 
#
# 1 0.023182 -0.005153 0.009602 -0.001870 -0.029730 -0.003710
# 2 -0.005153 0.011507 -0.007164 0.004204 0.006852 -0.005308
# 3 0.009602 -0.007164 0.025767 0.009252 -0.029851 -0.000447
# 4 -0.001870 0.004204 0.009252 0.079096 -0.002430 0.002845
# 5 -0.029730 0.006852 -0.029851 -0.002430 0.083934 0.002994
# 6 -0.003710 -0.005308 -0.000447 0.002845 0.002994 0.045496
#
#
# Mechanical properties :
#
#
# Convention : Reuss Voigt Hill
#
# Bulk Modulus (GPa) = 18.17289 57.76694 37.96992
# Shear Modulus (GPa) = 17.07926 28.96421 23.02174
#
# Velocity S-wave (km/s) = 2.66452 3.46989 3.09353
# Velocity P-wave (km/s) = 4.12560 6.32983 5.34262
#
# Compressibility (1/GPa) = 0.05502701
#
# Stress axis : x y z
#
# Youngs Moduli (GPa) = 43.13712 86.90633 38.80887
#
# Poissons Ratio (x) = 0.44780 -0.37263
# Poissons Ratio (y) = 0.22227 0.27801
# Poissons Ratio (z) = -0.41419 0.62256
#
# Static dielectric constant tensor:
#      x y z
#    x 2.091760 0.056480 -0.106010 
#    y 0.056480 1.895110 -0.015260 
#    z -0.106010 -0.015260 2.031800 
# 
# From -- ./inp_files/270564.got.cif
#   From: 2010.05.17/outbox.cif.g08.bks.cpg/sg2_136_cif.got.tgz:270564.got - 2010.06.03 11:33:40.
