data_PCOD9053739
_publ_section_title
;
Structure prediction by ZEFSAII (Michael W. Deem and Ramdas Pophale) SiO2 
 PCOD9053739
Probable space group: P -1
;
_chemical_formula_sum "Si O2"
_cell_formula_units_Z 16
_cell_length_a 9.605443
_cell_length_b 15.971148
_cell_length_c 8.105331
_cell_angle_alpha 136.748519
_cell_angle_beta 117.438742
_cell_angle_gamma 76.992493
_cell_volume 743.560209
_symmetry_space_group_name_H-M "P -1"
_symmetry_group_IT_number 2
_symmetry_cell_setting 'triclinic'
loop_
_space_group_symop_operation_xyz
x,y,z
-x,-y,-z
loop_
_atom_site_type_symbol
_atom_site_label
_atom_site_fract_x
_atom_site_fract_y
_atom_site_fract_z
Si Si1 0.858332 0.886342 0.801237
Si Si2 0.203122 0.551390 0.592960
Si Si3 0.282098 0.670157 0.495273
Si Si4 0.090204 0.316418 0.725163
Si Si5 0.060258 0.875214 0.400105
Si Si6 0.338510 0.945439 0.922549
Si Si7 0.998800 0.284782 0.137609
Si Si8 0.336019 0.540616 0.022247
O O1 0.866134 0.785549 0.522736
O O2 0.890787 0.808994 0.869936
O O3 0.707217 0.952141 0.832311
O O4 0.000000 0.000000 0.000000
O O5 0.312516 0.580243 0.532839
O O6 0.099620 0.414616 0.314444
O O7 0.262451 0.557939 0.825285
O O8 0.097746 0.660820 0.692494
O O9 0.344407 0.808868 0.795179
O O10 0.089477 0.652843 0.335021
O O11 0.358758 0.649751 0.329162
O O12 0.080329 0.234994 0.770400
O O13 0.216332 0.436841 0.913946
O O14 0.192529 0.914400 0.667595
O O15 0.119862 0.802762 0.175344
O O16 0.000000 0.000000 0.500000
O O17 0.500000 0.000000 0.000000
O O18 0.500000 0.500000 0.000000
#
# Coordination Sequence:
#
# PCOD9053739 Si02
#       8
#     2   2   2   2   2   2   2   2
#     4  12  19  39  67  91 124 172 224 261 323 405
#     4  11  21  41  67  95 132 174 219 284 339 389
#     4  11  23  44  70  96 129 179 233 272 339 408
#     4  11  21  41  66  94 126 173 224 277 329 397
#     4  11  21  39  66  99 126 172 233 280 321 404
#     4  11  25  41  65  98 139 176 212 284 349 399
#     4  11  20  36  66  98 122 161 229 280 317 389
#     4  12  27  43  63 101 143 176 218 282 351 410
#
# _framework density 21.518097000000001
#
# number of rings (size 3 to 8) (size 9 to 14) (size 15 to 20)
#    0.000    0.750    6.250    3.375    1.750    0.500 
#    2.250    0.000    0.000    3.000    0.000    0.000 
#    0.000    0.000    0.000    0.000    0.000    0.000 
#
# Total GULP energy -89128.525347 kJ/mol
# GULP energy per Si atom -5570.532834 kJ/mol
# Density = 2.146912 g / cm^3
# Si number density = 21.518097 Si / 1000 Ang^3
#
#
#
# Elastic Constant Matrix: (Units=GPa)
#
#
# Indices 1 2 3 4 5 6 
#
# 1 108.7994 21.9897 10.7739 12.0182 -15.8953 2.9824
# 2 21.9897 96.4620 22.4111 12.6727 -1.6995 18.2136
# 3 10.7739 22.4111 84.9957 11.5523 -36.0958 -5.3079
# 4 12.0182 12.6727 11.5523 30.8263 5.0748 -3.4150
# 5 -15.8953 -1.6995 -36.0958 5.0748 37.8324 9.8025
# 6 2.9824 18.2136 -5.3079 -3.4150 9.8025 22.4733
#
#
#
# Elastic Compliance Matrix: (Units=1/GPa)
#
#
# Indices 1 2 3 4 5 6 
#
# 1 0.011889 -0.001368 0.004853 -0.008572 0.012261 -0.005974
# 2 -0.001368 0.014980 -0.003060 -0.006367 0.001769 -0.014421
# 3 0.004853 -0.003060 0.027810 -0.017449 0.033016 -0.008648
# 4 -0.008572 -0.006367 -0.017449 0.053366 -0.034227 0.025216
# 5 0.012261 0.001769 0.033016 -0.034227 0.076524 -0.033843
# 6 -0.005974 -0.014421 -0.008648 0.025216 -0.033843 0.073529
#
#
# Mechanical properties :
#
#
# Convention : Reuss Voigt Hill
#
# Bulk Modulus (GPa) = 18.00873 44.51186 31.26030
# Shear Modulus (GPa) = 18.13179 33.89854 26.01516
#
# Velocity S-wave (km/s) = 2.90596 3.97337 3.48083
# Velocity P-wave (km/s) = 4.43246 6.46382 5.54201
#
# Compressibility (1/GPa) = 0.05552863
#
# Stress axis : x y z
#
# Youngs Moduli (GPa) = 84.11079 66.75480 35.95848
#
# Poissons Ratio (x) = 0.09129 -0.17450
# Poissons Ratio (y) = 0.11502 0.11005
# Poissons Ratio (z) = -0.40816 0.20430
#
# Static dielectric constant tensor:
#      x y z
#    x 1.850040 0.072130 -0.048410 
#    y 0.072130 1.987910 -0.048440 
#    z -0.048410 -0.048440 1.879640 
# 
# From -- ./inp_files/218967.got.cif
#   From: 2010.05.17/outbox.cif.g08.bks.cpg/sg2_110_cif.got.tgz:218967.got - 2010.06.03 11:33:40.
