data_PCOD9053485
_publ_section_title
;
Structure prediction by ZEFSAII (Michael W. Deem and Ramdas Pophale) SiO2 
 PCOD9053485
Probable space group: P -1
;
_chemical_formula_sum "Si O2"
_cell_formula_units_Z 14
_cell_length_a 13.045922
_cell_length_b 9.262243
_cell_length_c 10.460181
_cell_angle_alpha 55.615051
_cell_angle_beta 113.368861
_cell_angle_gamma 66.150256
_cell_volume 534.885643
_symmetry_space_group_name_H-M "P -1"
_symmetry_group_IT_number 2
_symmetry_cell_setting 'triclinic'
loop_
_space_group_symop_operation_xyz
x,y,z
-x,-y,-z
loop_
_atom_site_type_symbol
_atom_site_label
_atom_site_fract_x
_atom_site_fract_y
_atom_site_fract_z
Si Si1 0.177620 0.745362 0.113739
Si Si2 0.665733 0.842837 0.453705
Si Si3 0.600491 0.224581 0.901337
Si Si4 0.825003 0.146590 0.565291
Si Si5 0.723455 0.724105 0.072306
Si Si6 0.775860 0.831060 0.770589
Si Si7 0.858060 0.925327 0.418301
O O1 0.280637 0.428680 0.360611
O O2 0.329686 0.708996 0.192162
O O3 0.050018 0.896441 0.843870
O O4 0.000000 0.000000 0.000000
O O5 0.628562 0.970378 0.512547
O O6 0.839818 0.741988 0.536932
O O7 0.488711 0.093086 0.139861
O O8 0.364525 0.492598 0.665622
O O9 0.708118 0.907852 0.066802
O O10 0.689048 0.173223 0.106153
O O11 0.771697 0.042439 0.674408
O O12 0.823352 0.083445 0.449227
O O13 0.740885 0.775589 0.910548
O O14 0.914162 0.355074 0.377706
O O15 0.000000 0.500000 0.000000
#
# Coordination Sequence:
#
# PCOD9053485 Si02
#       7
#     2   2   2   2   2   2   2
#     4  12  24  41  67 100 135 169 212 278 342 384
#     4  11  23  40  70  97 125 171 227 264 326 391
#     4  12  28  42  65 100 137 173 219 271 331 389
#     4  11  23  43  67  95 135 174 216 273 329 389
#     4  12  23  41  67  97 131 175 221 271 326 388
#     4  11  19  41  68  95 129 166 215 274 322 382
#     4  11  25  47  66  93 134 179 224 269 318 393
#
# _framework density 26.173817
#
# number of rings (size 3 to 8) (size 9 to 14) (size 15 to 20)
#    0.000    0.571    4.286    4.714    0.000    7.429 
#    0.000    0.000    0.000    0.000    0.000    0.000 
#    0.000    0.000    0.000    0.000    0.000    0.000 
#
# Total GULP energy -78441.767434 kJ/mol
# GULP energy per Si atom -5602.983388 kJ/mol
# Density = 2.611424 g / cm^3
# Si number density = 26.173817 Si / 1000 Ang^3
#
#
#
# Elastic Constant Matrix: (Units=GPa)
#
#
# Indices 1 2 3 4 5 6 
#
# 1 98.6649 11.4458 12.4271 -3.2149 15.1543 -1.0901
# 2 11.4458 87.2866 12.1321 4.7582 11.1106 -7.4476
# 3 12.4271 12.1321 88.4524 -1.9877 11.4248 -2.2036
# 4 -3.2149 4.7582 -1.9877 49.7233 -0.7829 6.2564
# 5 15.1543 11.1106 11.4248 -0.7829 48.0263 1.3353
# 6 -1.0901 -7.4476 -2.2036 6.2564 1.3353 28.7263
#
#
#
# Elastic Compliance Matrix: (Units=1/GPa)
#
#
# Indices 1 2 3 4 5 6 
#
# 1 0.010848 -0.000939 -0.000995 0.000695 -0.002960 0.000078
# 2 -0.000939 0.012463 -0.001214 -0.001794 -0.002428 0.003606
# 3 -0.000995 -0.001214 0.011927 0.000421 -0.002251 0.000575
# 4 0.000695 -0.001794 0.000421 0.020983 0.000577 -0.005003
# 5 -0.002960 -0.002428 -0.002251 0.000577 0.022921 -0.002105
# 6 0.000078 0.003606 0.000575 -0.005003 -0.002105 0.036981
#
#
# Mechanical properties :
#
#
# Convention : Reuss Voigt Hill
#
# Bulk Modulus (GPa) = 34.55410 38.49044 36.52227
# Shear Modulus (GPa) = 37.85994 41.18844 39.52419
#
# Velocity S-wave (km/s) = 3.80739 3.97123 3.89017
# Velocity P-wave (km/s) = 5.70603 5.98040 5.84482
#
# Compressibility (1/GPa) = 0.02894013
#
# Stress axis : x y z
#
# Youngs Moduli (GPa) = 92.18551 80.23857 83.84687
#
# Poissons Ratio (x) = 0.07531 0.08347
# Poissons Ratio (y) = 0.08652 0.10183
# Poissons Ratio (z) = 0.09177 0.09745
#
# Static dielectric constant tensor:
#      x y z
#    x 2.097650 -0.010320 -0.002670 
#    y -0.010320 2.014110 0.028090 
#    z -0.002670 0.028090 2.083040 
# 
# From -- ./inp_files/446966.got.cif
#   From: 2010.05.17/outbox.cif.g08.bks.cpg/sg2_224_cif.got.tgz:446966.got - 2010.06.03 11:33:40.
