data_PCOD9053942
_publ_section_title
;
Structure prediction by ZEFSAII (Michael W. Deem and Ramdas Pophale) SiO2 
 PCOD9053942
Probable space group: P -1
;
_chemical_formula_sum "Si O2"
_cell_formula_units_Z 16
_cell_length_a 10.639169
_cell_length_b 11.334870
_cell_length_c 16.016940
_cell_angle_alpha 31.151686
_cell_angle_beta 130.198828
_cell_angle_gamma 109.909359
_cell_volume 644.241008
_symmetry_space_group_name_H-M "P -1"
_symmetry_group_IT_number 2
_symmetry_cell_setting 'triclinic'
loop_
_space_group_symop_operation_xyz
x,y,z
-x,-y,-z
loop_
_atom_site_type_symbol
_atom_site_label
_atom_site_fract_x
_atom_site_fract_y
_atom_site_fract_z
Si Si1 0.640245 0.710722 0.568895
Si Si2 0.194406 0.883716 0.964627
Si Si3 0.485137 0.721540 0.057955
Si Si4 0.833347 0.282384 0.292726
Si Si5 0.474306 0.282502 0.211744
Si Si6 0.153302 0.573908 0.486806
Si Si7 0.053897 0.491748 0.320354
Si Si8 0.662939 0.012716 0.863398
O O1 0.740679 0.424212 0.829811
O O2 0.812683 0.658869 0.610646
O O3 0.545610 0.967489 0.435147
O O4 0.466908 0.773090 0.392471
O O5 0.289555 0.934606 0.894170
O O6 0.295461 0.895559 0.086476
O O7 0.966888 0.104843 0.743145
O O8 0.464757 0.482835 0.157123
O O9 0.651606 0.589363 0.279230
O O10 0.549852 0.860232 0.932874
O O11 0.653632 0.254945 0.252876
O O12 0.931499 0.350083 0.369192
O O13 0.733796 0.538894 0.032056
O O14 0.000000 0.000000 0.500000
O O15 0.176738 0.501409 0.443291
O O16 0.000000 0.500000 0.500000
O O17 0.877743 0.801955 0.047103
#
# Coordination Sequence:
#
# PCOD9053942 Si02
#       8
#     2   2   2   2   2   2   2   2
#     4  12  25  42  64 100 136 172 215 266 336 396
#     4  11  27  42  64  97 135 178 215 263 335 395
#     4  12  24  43  68  95 132 176 218 274 319 384
#     4  11  20  39  63  99 127 167 219 281 317 366
#     4  11  23  39  64  96 131 169 222 265 322 391
#     4  11  23  43  66  99 131 165 225 271 325 383
#     4  11  22  38  70  96 131 168 213 281 324 375
#     4  11  22  42  69  97 127 167 229 275 319 379
#
# _framework density 24.835426999999999
#
# number of rings (size 3 to 8) (size 9 to 14) (size 15 to 20)
#    0.000    0.750    6.250    2.250    1.750    4.500 
#    0.000    0.625    0.000    0.000    0.000    0.000 
#    0.000    0.000    0.000    0.000    0.000    0.000 
#
# Total GULP energy -89472.022199 kJ/mol
# GULP energy per Si atom -5592.001387 kJ/mol
# Density = 2.477890 g / cm^3
# Si number density = 24.835427 Si / 1000 Ang^3
#
#
#
# Elastic Constant Matrix: (Units=GPa)
#
#
# Indices 1 2 3 4 5 6 
#
# 1 46.3739 13.5743 22.9784 -2.4476 17.4348 -16.0322
# 2 13.5743 88.5853 25.3258 -10.4846 16.4761 0.8997
# 3 22.9784 25.3258 143.8845 -17.8107 17.3343 1.6334
# 4 -2.4476 -10.4846 -17.8107 47.4006 -0.6793 12.7849
# 5 17.4348 16.4761 17.3343 -0.6793 34.5524 -9.8347
# 6 -16.0322 0.8997 1.6334 12.7849 -9.8347 22.2004
#
#
#
# Elastic Compliance Matrix: (Units=1/GPa)
#
#
# Indices 1 2 3 4 5 6 
#
# 1 0.038545 -0.004670 -0.006338 -0.010147 -0.005115 0.032069
# 2 -0.004670 0.014116 -0.000076 0.005526 -0.007157 -0.010292
# 3 -0.006338 -0.000076 0.009364 0.005984 -0.004377 -0.010648
# 4 -0.010147 0.005526 0.005984 0.032074 -0.008489 -0.030223
# 5 -0.005115 -0.007157 -0.004377 -0.008489 0.042886 0.020806
# 6 0.032069 -0.010292 -0.010648 -0.030223 0.020806 0.096026
#
#
# Mechanical properties :
#
#
# Convention : Reuss Voigt Hill
#
# Bulk Modulus (GPa) = 25.08843 44.73340 34.91092
# Shear Modulus (GPa) = 18.62448 35.29504 26.95976
#
# Velocity S-wave (km/s) = 2.74143 3.77391 3.29832
# Velocity P-wave (km/s) = 4.48825 6.08613 5.34721
#
# Compressibility (1/GPa) = 0.03985901
#
# Stress axis : x y z
#
# Youngs Moduli (GPa) = 25.94350 70.84388 106.78817
#
# Poissons Ratio (x) = 0.33083 0.67678
# Poissons Ratio (y) = 0.12115 0.00807
# Poissons Ratio (z) = 0.16442 0.00536
#
# Static dielectric constant tensor:
#      x y z
#    x 2.046690 0.003720 -0.049460 
#    y 0.003720 1.969950 -0.041400 
#    z -0.049460 -0.041400 2.002120 
# 
# From -- ./inp_files/568499.got.cif
#   From: 2010.05.17/outbox.cif.g08.bks.cpg/sg2_285_cif.got.tgz:568499.got - 2010.06.03 11:33:40.
