data_PCOD9053850
_publ_section_title
;
Structure prediction by ZEFSAII (Michael W. Deem and Ramdas Pophale) SiO2 
 PCOD9053850
Probable space group: P -1
;
_chemical_formula_sum "Si O2"
_cell_formula_units_Z 16
_cell_length_a 14.152085
_cell_length_b 11.502338
_cell_length_c 7.210405
_cell_angle_alpha 41.222334
_cell_angle_beta 77.505973
_cell_angle_gamma 57.149933
_cell_volume 609.597160
_symmetry_space_group_name_H-M "P -1"
_symmetry_group_IT_number 2
_symmetry_cell_setting 'triclinic'
loop_
_space_group_symop_operation_xyz
x,y,z
-x,-y,-z
loop_
_atom_site_type_symbol
_atom_site_label
_atom_site_fract_x
_atom_site_fract_y
_atom_site_fract_z
Si Si1 0.873387 0.610286 0.826364
Si Si2 0.331575 0.528166 0.059652
Si Si3 0.875551 0.196746 0.399330
Si Si4 0.869401 0.961390 0.993357
Si Si5 0.264980 0.171399 0.046845
Si Si6 0.136590 0.519037 0.388303
Si Si7 0.356000 0.697681 0.178757
Si Si8 0.430511 0.303034 0.900160
O O1 0.856370 0.421368 0.098736
O O2 0.774163 0.815843 0.739953
O O3 0.875220 0.627489 0.583645
O O4 0.000000 0.500000 0.000000
O O5 0.239003 0.754368 0.718906
O O6 0.396779 0.355300 0.071359
O O7 0.248213 0.505377 0.267630
O O8 0.409930 0.552459 0.143566
O O9 0.881577 0.138779 0.677517
O O10 0.000000 0.000000 0.500000
O O11 0.783223 0.099849 0.034390
O O12 0.778479 0.948692 0.912072
O O13 0.005182 0.745831 0.182152
O O14 0.175514 0.408765 0.702269
O O15 0.386764 0.157950 0.020329
O O16 0.372427 0.531331 0.533558
O O17 0.430968 0.795264 0.066039
#
# Coordination Sequence:
#
# PCOD9053850 Si02
#       8
#     2   2   2   2   2   2   2   2
#     4  11  21  38  64  90 131 175 204 256 316 387
#     4  11  21  41  68  92 126 162 218 264 316 385
#     4  11  20  38  60  98 129 163 208 254 326 376
#     4  12  24  41  61  98 139 164 205 267 323 384
#     4  12  23  42  65  93 132 172 215 262 318 388
#     4  11  23  39  63 101 127 168 211 252 331 387
#     4  11  25  43  64  96 125 170 218 268 323 368
#     4  11  23  44  70  88 124 173 224 264 312 385
#
# _framework density 26.246841
#
# number of rings (size 3 to 8) (size 9 to 14) (size 15 to 20)
#    0.000    0.750    8.750    0.750    0.000    2.000 
#    2.250    0.000    0.000    1.500    0.000    0.000 
#    0.000    0.000    0.000    0.000    0.000    0.000 
#
# Total GULP energy -89241.649049 kJ/mol
# GULP energy per Si atom -5577.603066 kJ/mol
# Density = 2.618710 g / cm^3
# Si number density = 26.246841 Si / 1000 Ang^3
#
#
#
# Elastic Constant Matrix: (Units=GPa)
#
#
# Indices 1 2 3 4 5 6 
#
# 1 93.7068 5.2496 -18.0311 9.8629 -15.6926 4.7197
# 2 5.2496 107.6236 11.5532 16.9628 4.8143 1.6400
# 3 -18.0311 11.5532 37.0788 14.9220 -10.5933 -5.2079
# 4 9.8629 16.9628 14.9220 30.3894 5.4515 1.1503
# 5 -15.6926 4.8143 -10.5933 5.4515 35.2976 -4.3545
# 6 4.7197 1.6400 -5.2079 1.1503 -4.3545 55.2656
#
#
#
# Elastic Compliance Matrix: (Units=1/GPa)
#
#
# Indices 1 2 3 4 5 6 
#
# 1 0.022375 -0.001305 0.028071 -0.024508 0.022714 0.003073
# 2 -0.001305 0.010350 -0.003414 -0.003185 -0.002606 -0.000656
# 3 0.028071 -0.003414 0.077933 -0.054075 0.045894 0.009790
# 4 -0.024508 -0.003185 -0.054075 0.076556 -0.039453 -0.007610
# 5 0.022714 -0.002606 0.045894 -0.039453 0.059636 0.007982
# 6 0.003073 -0.000656 0.009790 -0.007610 0.007982 0.019561
#
#
# Mechanical properties :
#
#
# Convention : Reuss Voigt Hill
#
# Bulk Modulus (GPa) = 6.35476 26.21696 16.28586
# Shear Modulus (GPa) = 18.37144 40.16634 29.26889
#
# Velocity S-wave (km/s) = 2.64852 3.91619 3.34299
# Velocity P-wave (km/s) = 3.43210 5.51897 4.59556
#
# Compressibility (1/GPa) = 0.15736240
#
# Stress axis : x y z
#
# Youngs Moduli (GPa) = 44.69315 96.61471 12.83152
#
# Poissons Ratio (x) = 0.12607 -0.36020
# Poissons Ratio (y) = 0.05832 0.04381
# Poissons Ratio (z) = -1.25460 0.32988
#
# Static dielectric constant tensor:
#      x y z
#    x 2.530640 -0.118350 -0.218900 
#    y -0.118350 2.151760 0.042950 
#    z -0.218900 0.042950 1.978600 
# 
# From -- ./inp_files/304548.got.cif
#   From: 2010.05.17/outbox.cif.g08.bks.cpg/sg2_153_cif.got.tgz:304548.got - 2010.06.03 11:33:40.
