data_PCOD9053962
_publ_section_title
;
Structure prediction by ZEFSAII (Michael W. Deem and Ramdas Pophale) SiO2 
 PCOD9053962
Probable space group: P -1
;
_chemical_formula_sum "Si O2"
_cell_formula_units_Z 14
_cell_length_a 9.276214
_cell_length_b 9.006098
_cell_length_c 7.721527
_cell_angle_alpha 82.675009
_cell_angle_beta 85.830796
_cell_angle_gamma 58.240635
_cell_volume 543.997789
_symmetry_space_group_name_H-M "P -1"
_symmetry_group_IT_number 2
_symmetry_cell_setting 'triclinic'
loop_
_space_group_symop_operation_xyz
x,y,z
-x,-y,-z
loop_
_atom_site_type_symbol
_atom_site_label
_atom_site_fract_x
_atom_site_fract_y
_atom_site_fract_z
Si Si1 0.376891 0.629324 0.634550
Si Si2 0.835206 0.991347 0.544701
Si Si3 0.165521 0.876883 0.125073
Si Si4 0.627363 0.926296 0.340734
Si Si5 0.847810 0.473269 0.759009
Si Si6 0.488753 0.273895 0.082608
Si Si7 0.192748 0.445362 0.660019
O O1 0.500000 0.500000 0.500000
O O2 0.310447 0.819111 0.535858
O O3 0.473473 0.614322 0.800402
O O4 0.228221 0.594041 0.694623
O O5 0.831679 0.991197 0.750816
O O6 0.805897 0.871107 0.432905
O O7 0.000000 0.000000 0.500000
O O8 0.140925 0.714867 0.206954
O O9 0.359945 0.777723 0.057766
O O10 0.000000 0.000000 0.000000
O O11 0.654258 0.750376 0.280812
O O12 0.500000 0.000000 0.500000
O O13 0.555095 0.081413 0.186875
O O14 0.716232 0.607326 0.896708
O O15 0.799190 0.542872 0.553118
O O16 0.026631 0.463010 0.754200
#
# Coordination Sequence:
#
# PCOD9053962 Si02
#       7
#     2   2   2   2   2   2   2
#     4  11  20  39  65  99 122 168 221 269 312 390
#     4  11  23  40  67  94 124 169 224 260 317 390
#     4  12  24  44  64  95 137 176 218 270 327 389
#     4  11  22  40  67 101 127 165 215 275 324 384
#     4  11  22  38  64  96 125 174 210 271 325 375
#     4  11  23  41  68  96 132 170 218 266 331 390
#     4  11  21  38  67  96 134 157 221 272 324 368
#
# _framework density 25.735401
#
# number of rings (size 3 to 8) (size 9 to 14) (size 15 to 20)
#    0.000    0.857    4.286    4.714    2.000    0.000 
#    0.000    1.429    3.143    1.714    0.000    0.000 
#    0.000    0.000    0.000    0.000    0.000    0.000 
#
# Total GULP energy -78191.345330 kJ/mol
# GULP energy per Si atom -5585.096095 kJ/mol
# Density = 2.567683 g / cm^3
# Si number density = 25.735401 Si / 1000 Ang^3
#
#
#
# Elastic Constant Matrix: (Units=GPa)
#
#
# Indices 1 2 3 4 5 6 
#
# 1 136.4026 20.5857 23.1575 -1.4685 -37.5150 -3.4779
# 2 20.5857 116.7632 19.4976 -24.1165 -8.1284 2.8980
# 3 23.1575 19.4976 55.0732 4.2868 -27.6123 -13.1183
# 4 -1.4685 -24.1165 4.2868 43.4104 -5.1807 -13.0703
# 5 -37.5150 -8.1284 -27.6123 -5.1807 45.6578 -2.0280
# 6 -3.4779 2.8980 -13.1183 -13.0703 -2.0280 40.4710
#
#
#
# Elastic Compliance Matrix: (Units=1/GPa)
#
#
# Indices 1 2 3 4 5 6 
#
# 1 0.009782 -0.001073 0.001039 0.001309 0.008717 0.002114
# 2 -0.001073 0.010688 -0.004360 0.006117 -0.000937 -0.000342
# 3 0.001039 -0.004360 0.032168 0.000444 0.020114 0.011980
# 4 0.001309 0.006117 0.000444 0.030159 0.006293 0.009873
# 5 0.008717 -0.000937 0.020114 0.006293 0.042287 0.011488
# 6 0.002114 -0.000342 0.011980 0.009873 0.011488 0.032563
#
#
# Mechanical properties :
#
#
# Convention : Reuss Voigt Hill
#
# Bulk Modulus (GPa) = 22.80523 48.30228 35.55375
# Shear Modulus (GPa) = 27.61625 42.24106 34.92865
#
# Velocity S-wave (km/s) = 3.27935 4.05577 3.68805
# Velocity P-wave (km/s) = 4.81866 6.38294 5.65515
#
# Compressibility (1/GPa) = 0.04384960
#
# Stress axis : x y z
#
# Youngs Moduli (GPa) = 102.22445 93.55920 31.08662
#
# Poissons Ratio (x) = 0.10043 -0.03230
# Poissons Ratio (y) = 0.10973 0.13555
# Poissons Ratio (z) = -0.10621 0.40794
#
# Static dielectric constant tensor:
#      x y z
#    x 2.146710 -0.067410 -0.012460 
#    y -0.067410 2.053710 0.058420 
#    z -0.012460 0.058420 2.180560 
# 
# From -- ./inp_files/150785.got.cif
#   From: 2010.05.17/outbox.cif.g08.bks.cpg/sg2_76_cif.got.tgz:150785.got - 2010.06.03 11:33:40.
