data_PCOD9053247
_publ_section_title
;
Structure prediction by ZEFSAII (Michael W. Deem and Ramdas Pophale) SiO2 
 PCOD9053247
Probable space group: P -1
;
_chemical_formula_sum "Si O2"
_cell_formula_units_Z 16
_cell_length_a 13.925333
_cell_length_b 13.623723
_cell_length_c 10.248129
_cell_angle_alpha 123.362440
_cell_angle_beta 44.319933
_cell_angle_gamma 146.644096
_cell_volume 741.106696
_symmetry_space_group_name_H-M "P -1"
_symmetry_group_IT_number 2
_symmetry_cell_setting 'triclinic'
loop_
_space_group_symop_operation_xyz
x,y,z
-x,-y,-z
loop_
_atom_site_type_symbol
_atom_site_label
_atom_site_fract_x
_atom_site_fract_y
_atom_site_fract_z
Si Si1 0.741598 0.937581 0.706114
Si Si2 0.961330 0.764826 0.589701
Si Si3 0.087197 0.006341 0.133575
Si Si4 0.263710 0.308405 0.613062
Si Si5 0.684704 0.227227 0.088286
Si Si6 0.338949 0.958540 0.785105
Si Si7 0.113308 0.432110 0.707124
Si Si8 0.176258 0.715032 0.522412
O O1 0.746997 0.806684 0.559173
O O2 0.520862 0.860880 0.850529
O O3 0.888036 0.094373 0.571098
O O4 0.823488 0.977138 0.800804
O O5 0.088359 0.772365 0.575588
O O6 0.823784 0.582272 0.504804
O O7 0.877625 0.830788 0.785091
O O8 0.839307 0.811107 0.242413
O O9 0.209264 0.995338 0.915561
O O10 0.500000 0.500000 0.500000
O O11 0.138466 0.344228 0.723133
O O12 0.661110 0.101605 0.115858
O O13 0.743833 0.371679 0.234033
O O14 0.874790 0.325607 0.874480
O O15 0.224314 0.787614 0.677594
O O16 0.583458 0.148700 0.659599
O O17 0.000000 0.500000 0.500000
#
# Coordination Sequence:
#
# PCOD9053247 Si02
#       8
#     2   2   2   2   2   2   2   2
#     4  11  20  34  62  93 129 164 198 242 322 393
#     4  11  21  40  64  87 124 169 201 260 317 375
#     4  11  23  40  63  95 130 164 205 251 319 398
#     4  11  19  35  54  89 137 167 194 240 303 385
#     4  11  22  35  61  96 129 169 204 257 320 378
#     4  11  24  46  66  89 129 166 217 275 313 368
#     4  11  21  35  58  96 135 158 209 256 308 393
#     4  11  26  47  69  90 119 166 227 275 320 363
#
# _framework density 21.589333
#
# number of rings (size 3 to 8) (size 9 to 14) (size 15 to 20)
#    0.000    1.000    6.250    1.500    1.750    1.500 
#    2.250    0.625    0.000    0.000    0.000    0.000 
#    0.000    0.000    0.000    0.000    0.000    0.000 
#
# Total GULP energy -89134.027387 kJ/mol
# GULP energy per Si atom -5570.876712 kJ/mol
# Density = 2.154019 g / cm^3
# Si number density = 21.589333 Si / 1000 Ang^3
#
#
#
# Elastic Constant Matrix: (Units=GPa)
#
#
# Indices 1 2 3 4 5 6 
#
# 1 67.9949 28.0063 21.3447 3.8501 -11.9756 -0.2915
# 2 28.0063 123.3874 48.5014 21.2538 -9.8234 10.6321
# 3 21.3447 48.5014 73.6950 21.3168 -28.1791 1.0466
# 4 3.8501 21.2538 21.3168 33.8675 -2.0286 -12.0200
# 5 -11.9756 -9.8234 -28.1791 -2.0286 31.3211 2.5851
# 6 -0.2915 10.6321 1.0466 -12.0200 2.5851 21.8993
#
#
#
# Elastic Compliance Matrix: (Units=1/GPa)
#
#
# Indices 1 2 3 4 5 6 
#
# 1 0.017345 -0.003589 -0.002380 0.003202 0.003287 0.003457
# 2 -0.003589 0.013457 -0.006392 -0.007808 -0.002562 -0.010259
# 3 -0.002380 -0.006392 0.036189 -0.021721 0.029396 -0.014050
# 4 0.003202 -0.007808 -0.021721 0.060979 -0.020178 0.040723
# 5 0.003287 -0.002562 0.029396 -0.020178 0.059020 -0.018160
# 6 0.003457 -0.010259 -0.014050 0.040723 -0.018160 0.075857
#
#
# Mechanical properties :
#
#
# Convention : Reuss Voigt Hill
#
# Bulk Modulus (GPa) = 23.65899 51.19803 37.42851
# Shear Modulus (GPa) = 16.57503 28.56591 22.57047
#
# Velocity S-wave (km/s) = 2.77382 3.64146 3.23684
# Velocity P-wave (km/s) = 4.60882 6.43788 5.59855
#
# Compressibility (1/GPa) = 0.04226723
#
# Stress axis : x y z
#
# Youngs Moduli (GPa) = 57.65399 74.31149 27.63277
#
# Poissons Ratio (x) = 0.26671 0.06577
# Poissons Ratio (y) = 0.20693 0.17664
# Poissons Ratio (z) = 0.13723 0.47503
#
# Static dielectric constant tensor:
#      x y z
#    x 1.779740 0.052540 -0.004220 
#    y 0.052540 1.970590 -0.009330 
#    z -0.004220 -0.009330 1.864640 
# 
# From -- ./inp_files/454926.got.cif
#   From: 2010.05.17/outbox.cif.g08.bks.cpg/sg2_228_cif.got.tgz:454926.got - 2010.06.03 11:33:40.
