data_PCOD9053496
_publ_section_title
;
Structure prediction by ZEFSAII (Michael W. Deem and Ramdas Pophale) SiO2 
 PCOD9053496
Probable space group: P -1
;
_chemical_formula_sum "Si O2"
_cell_formula_units_Z 16
_cell_length_a 17.877926
_cell_length_b 10.719498
_cell_length_c 22.123813
_cell_angle_alpha 133.779966
_cell_angle_beta 164.358205
_cell_angle_gamma 55.445215
_cell_volume 710.477944
_symmetry_space_group_name_H-M "P -1"
_symmetry_group_IT_number 2
_symmetry_cell_setting 'triclinic'
loop_
_space_group_symop_operation_xyz
x,y,z
-x,-y,-z
loop_
_atom_site_type_symbol
_atom_site_label
_atom_site_fract_x
_atom_site_fract_y
_atom_site_fract_z
Si Si1 0.253961 0.097582 0.446944
Si Si2 0.904492 0.276420 0.869048
Si Si3 0.831287 0.414020 0.526126
Si Si4 0.709839 0.979745 0.309679
Si Si5 0.323456 0.309355 0.457419
Si Si6 0.013058 0.801948 0.961620
Si Si7 0.822321 0.459348 0.285847
Si Si8 0.562857 0.725893 0.223464
O O1 0.127541 0.174700 0.318475
O O2 0.636141 0.171479 0.765175
O O3 0.251531 0.193530 0.541517
O O4 0.091723 0.861647 0.227536
O O5 0.535362 0.205857 0.575559
O O6 0.073061 0.263320 0.057474
O O7 0.000000 0.500000 0.000000
O O8 0.924770 0.438068 0.536761
O O9 0.724280 0.190532 0.387564
O O10 0.565665 0.475013 0.354660
O O11 0.171993 0.590565 0.880255
O O12 0.702356 0.920453 0.354146
O O13 0.000000 0.000000 0.500000
O O14 0.398840 0.777635 0.975961
O O15 0.214565 0.336523 0.315496
O O16 0.000000 0.000000 0.000000
O O17 0.625172 0.572799 0.181802
O O18 0.000000 0.500000 0.500000
#
# Coordination Sequence:
#
# PCOD9053496 Si02
#       8
#     2   2   2   2   2   2   2   2
#     4  11  22  41  65  93 128 169 223 273 324 401
#     4  11  25  42  62 100 137 165 219 283 333 402
#     4  11  22  42  66  96 128 172 228 269 330 411
#     4  11  21  43  68  89 132 178 223 274 338 402
#     4  11  22  42  68  93 127 176 221 270 332 401
#     4  11  19  41  71  85 119 180 216 257 331 393
#     4  11  23  41  64  95 132 174 219 277 338 398
#     4  11  22  40  68  94 129 175 222 275 334 402
#
# _framework density 22.520050000000001
#
# number of rings (size 3 to 8) (size 9 to 14) (size 15 to 20)
#    0.000    1.000    6.250    2.250    0.000    2.000 
#    9.000    0.000    0.000    0.000    0.000    0.000 
#    0.000    0.000    0.000    0.000    0.000    0.000 
#
# Total GULP energy -89093.222242 kJ/mol
# GULP energy per Si atom -5568.326390 kJ/mol
# Density = 2.246879 g / cm^3
# Si number density = 22.520050 Si / 1000 Ang^3
#
#
#
# Elastic Constant Matrix: (Units=GPa)
#
#
# Indices 1 2 3 4 5 6 
#
# 1 102.6041 25.6942 54.3311 14.2839 -41.5216 9.5942
# 2 25.6942 126.7030 38.1131 29.6511 -11.4676 3.7465
# 3 54.3311 38.1131 54.7935 11.4079 -14.9951 23.8987
# 4 14.2839 29.6511 11.4079 42.2941 2.2698 -2.6171
# 5 -41.5216 -11.4676 -14.9951 2.2698 38.5469 -6.8681
# 6 9.5942 3.7465 23.8987 -2.6171 -6.8681 52.3632
#
#
#
# Elastic Compliance Matrix: (Units=1/GPa)
#
#
# Indices 1 2 3 4 5 6 
#
# 1 0.055126 0.012605 -0.057167 -0.013206 0.045298 0.020370
# 2 0.012605 0.014503 -0.020624 -0.009046 0.011675 0.007145
# 3 -0.057167 -0.020624 0.091969 0.008889 -0.038634 -0.034648
# 4 -0.013206 -0.009046 0.008889 0.032801 -0.015639 -0.001402
# 5 0.045298 0.011675 -0.038634 -0.015639 0.067043 0.016510
# 6 0.020370 0.007145 -0.034648 -0.001402 0.016510 0.032763
#
#
# Mechanical properties :
#
#
# Convention : Reuss Voigt Hill
#
# Bulk Modulus (GPa) = 32.02564 57.81971 44.92268
# Shear Modulus (GPa) = 11.49463 37.70499 24.59981
#
# Velocity S-wave (km/s) = 2.26169 4.09624 3.30866
# Velocity P-wave (km/s) = 4.59044 6.93562 5.88111
#
# Compressibility (1/GPa) = 0.03122498
#
# Stress axis : x y z
#
# Youngs Moduli (GPa) = 18.14034 68.95339 10.87317
#
# Poissons Ratio (x) = -0.86917 0.62159
# Poissons Ratio (y) = -0.22866 0.22425
# Poissons Ratio (z) = 1.03703 1.42212
#
# Static dielectric constant tensor:
#      x y z
#    x 1.955240 -0.063140 0.159660 
#    y -0.063140 1.972810 -0.062160 
#    z 0.159660 -0.062160 2.220030 
# 
# From -- ./inp_files/599580.got.cif
#   From: 2010.05.17/outbox.cif.g08.bks.cpg/sg2_300_cif.got.tgz:599580.got - 2010.06.03 11:33:40.
