data_PCOD9053932
_publ_section_title
;
Structure prediction by ZEFSAII (Michael W. Deem and Ramdas Pophale) SiO2 
 PCOD9053932
Probable space group: P -1
;
_chemical_formula_sum "Si O2"
_cell_formula_units_Z 14
_cell_length_a 19.425678
_cell_length_b 9.411195
_cell_length_c 25.753958
_cell_angle_alpha 28.414861
_cell_angle_beta 18.997710
_cell_angle_gamma 28.731172
_cell_volume 697.503263
_symmetry_space_group_name_H-M "P -1"
_symmetry_group_IT_number 2
_symmetry_cell_setting 'triclinic'
loop_
_space_group_symop_operation_xyz
x,y,z
-x,-y,-z
loop_
_atom_site_type_symbol
_atom_site_label
_atom_site_fract_x
_atom_site_fract_y
_atom_site_fract_z
Si Si1 0.260027 0.972950 0.319537
Si Si2 0.535315 0.829261 0.788923
Si Si3 0.427207 0.691769 0.654551
Si Si4 0.398387 0.278772 0.021597
Si Si5 0.960769 0.714791 0.009917
Si Si6 0.597149 0.419187 0.513156
Si Si7 0.991955 0.648162 0.125345
O O1 0.408296 0.608791 0.336816
O O2 0.350718 0.152603 0.242947
O O3 0.304689 0.132219 0.183920
O O4 0.000000 0.000000 0.500000
O O5 0.642777 0.047434 0.607102
O O6 0.551369 0.486667 0.866605
O O7 0.269946 0.012554 0.919782
O O8 0.437150 0.567008 0.627948
O O9 0.189704 0.802087 0.816054
O O10 0.500000 0.000000 0.500000
O O11 0.210782 0.495540 0.049933
O O12 0.500000 0.000000 0.000000
O O13 0.000000 0.500000 0.000000
O O14 0.967117 0.550934 0.114235
O O15 0.500000 0.500000 0.500000
O O16 0.802730 0.559607 0.321635
O O17 0.000000 0.000000 0.000000
#
# Coordination Sequence:
#
# PCOD9053932 Si02
#       7
#     2   2   2   2   2   2   2
#     4  11  25  47  67  98 144 184 226 281 354 422
#     4  11  24  44  70  97 141 188 231 284 352 410
#     4  11  24  40  67 101 130 173 230 279 336 412
#     4  12  26  45  67 100 137 183 233 285 348 417
#     4  12  21  41  69 103 133 173 234 287 340 408
#     4  11  20  39  62  99 132 168 221 284 340 391
#     4  12  23  42  70  99 138 178 228 290 346 400
#
# _framework density 20.071588999999999
#
# number of rings (size 3 to 8) (size 9 to 14) (size 15 to 20)
#    0.000    0.571    5.714    3.857    2.000    1.143 
#    0.000    2.857    0.000    0.000    0.000    0.000 
#    0.000    0.000    0.000    0.000    0.000    0.000 
#
# Total GULP energy -78072.334451 kJ/mol
# GULP energy per Si atom -5576.595318 kJ/mol
# Density = 2.002591 g / cm^3
# Si number density = 20.071589 Si / 1000 Ang^3
#
#
#
# Elastic Constant Matrix: (Units=GPa)
#
#
# Indices 1 2 3 4 5 6 
#
# 1 152.7915 58.8087 41.1832 -8.8681 11.4959 -10.8508
# 2 58.8087 102.3611 60.4405 -28.8279 -10.0077 -0.7428
# 3 41.1832 60.4405 154.6810 -12.1837 1.8550 1.8227
# 4 -8.8681 -28.8279 -12.1837 33.5825 -4.9235 -6.0140
# 5 11.4959 -10.0077 1.8550 -4.9235 45.3097 -4.0337
# 6 -10.8508 -0.7428 1.8227 -6.0140 -4.0337 35.7745
#
#
#
# Elastic Compliance Matrix: (Units=1/GPa)
#
#
# Indices 1 2 3 4 5 6 
#
# 1 0.009387 -0.006744 -0.000123 -0.003666 -0.004119 0.001632
# 2 -0.006744 0.023078 -0.005970 0.017709 0.009222 0.002755
# 3 -0.000123 -0.005970 0.008670 -0.002535 -0.002030 -0.001258
# 4 -0.003666 0.017709 -0.002535 0.046157 0.010705 0.008351
# 5 -0.004119 0.009222 -0.002030 0.010705 0.026742 0.003860
# 6 0.001632 0.002755 -0.001258 0.008351 0.003860 0.030408
#
#
# Mechanical properties :
#
#
# Convention : Reuss Voigt Hill
#
# Bulk Modulus (GPa) = 64.67810 81.18873 72.93342
# Shear Modulus (GPa) = 28.52750 39.56010 34.04380
#
# Velocity S-wave (km/s) = 3.77409 4.44435 4.12286
# Velocity P-wave (km/s) = 7.16138 8.17764 7.68632
#
# Compressibility (1/GPa) = 0.01546118
#
# Stress axis : x y z
#
# Youngs Moduli (GPa) = 106.53417 43.33096 115.34115
#
# Poissons Ratio (x) = 0.29222 0.01415
# Poissons Ratio (y) = 0.71845 0.68862
# Poissons Ratio (z) = 0.01307 0.25870
#
# Static dielectric constant tensor:
#      x y z
#    x 1.822240 0.014910 0.103720 
#    y 0.014910 1.731240 -0.089810 
#    z 0.103720 -0.089810 2.151230 
# 
# From -- ./inp_files/156621.got.cif
#   From: 2010.05.17/outbox.cif.g08.bks.cpg/sg2_79_cif.got.tgz:156621.got - 2010.06.03 11:33:40.
