data_PCOD9053032
_publ_section_title
;
Structure prediction by ZEFSAII (Michael W. Deem and Ramdas Pophale) SiO2 
 PCOD9053032
Probable space group: P -1
;
_chemical_formula_sum "Si O2"
_cell_formula_units_Z 16
_cell_length_a 12.628309
_cell_length_b 8.780920
_cell_length_c 9.187410
_cell_angle_alpha 60.290316
_cell_angle_beta 123.108198
_cell_angle_gamma 82.072465
_cell_volume 613.233026
_symmetry_space_group_name_H-M "P -1"
_symmetry_group_IT_number 2
_symmetry_cell_setting 'triclinic'
loop_
_space_group_symop_operation_xyz
x,y,z
-x,-y,-z
loop_
_atom_site_type_symbol
_atom_site_label
_atom_site_fract_x
_atom_site_fract_y
_atom_site_fract_z
Si Si1 0.994447 0.445754 0.282642
Si Si2 0.605881 0.576257 0.595852
Si Si3 0.571733 0.754394 0.181206
Si Si4 0.474762 0.764540 0.708980
Si Si5 0.301982 0.201766 0.009694
Si Si6 0.959492 0.802965 0.262703
Si Si7 0.924924 0.201148 0.153459
Si Si8 0.682076 0.277706 0.151777
O O1 0.813827 0.626249 0.041938
O O2 0.035790 0.615187 0.285408
O O3 0.026160 0.288798 0.245387
O O4 0.020061 0.309738 0.512326
O O5 0.500000 0.500000 0.500000
O O6 0.626767 0.672921 0.421027
O O7 0.503647 0.732869 0.576569
O O8 0.773498 0.389720 0.866442
O O9 0.702932 0.673598 0.197709
O O10 0.436188 0.733512 0.036303
O O11 0.500000 0.000000 0.000000
O O12 0.324217 0.812550 0.653753
O O13 0.530449 0.903622 0.751419
O O14 0.599568 0.528857 0.977728
O O15 0.222839 0.080770 0.966147
O O16 0.994031 0.981962 0.219423
O O17 0.844450 0.174611 0.248238
#
# Coordination Sequence:
#
# PCOD9053032 Si02
#       8
#     2   2   2   2   2   2   2   2
#     4   9  18  32  54  84 104 138 187 235 270 323
#     4  11  20  31  51  79 111 149 183 221 273 326
#     4  11  21  32  51  78 112 146 187 220 271 336
#     4   9  16  30  50  72 108 145 174 217 270 319
#     4   9  17  33  53  75 108 143 178 226 272 319
#     4   9  18  32  55  84 102 137 190 235 269 323
#     4  11  18  32  55  79 114 144 184 227 275 323
#     4   9  16  29  49  73 104 146 174 214 262 333
#
# _framework density 26.091224
#
# number of rings (size 3 to 8) (size 9 to 14) (size 15 to 20)
#    0.750    1.500    5.000    1.125    0.000    0.000 
#    0.000    2.500    5.500    1.500    0.000    0.000 
#    0.000    0.000    0.000    0.000    0.000    0.000 
#
# Total GULP energy -89129.771249 kJ/mol
# GULP energy per Si atom -5570.610703 kJ/mol
# Density = 2.603184 g / cm^3
# Si number density = 26.091224 Si / 1000 Ang^3
#
#
#
# Elastic Constant Matrix: (Units=GPa)
#
#
# Indices 1 2 3 4 5 6 
#
# 1 53.4322 29.7011 35.2793 7.8415 -8.5215 -6.8228
# 2 29.7011 193.9128 64.6428 18.4685 -1.2779 15.8998
# 3 35.2793 64.6428 101.2505 16.5254 -15.4914 7.8963
# 4 7.8415 18.4685 16.5254 40.1221 3.2345 1.3782
# 5 -8.5215 -1.2779 -15.4914 3.2345 37.3130 10.4818
# 6 -6.8228 15.8998 7.8963 1.3782 10.4818 23.7177
#
#
#
# Elastic Compliance Matrix: (Units=1/GPa)
#
#
# Indices 1 2 3 4 5 6 
#
# 1 0.027677 -0.002115 -0.009350 -0.000935 -0.001229 0.013090
# 2 -0.002115 0.007023 -0.003281 -0.001301 -0.000373 -0.003984
# 3 -0.009350 -0.003281 0.018012 -0.004417 0.008407 -0.009946
# 4 -0.000935 -0.001301 -0.004417 0.027856 -0.005292 0.002794
# 5 -0.001229 -0.000373 0.008407 -0.005292 0.035605 -0.018331
# 6 0.013090 -0.003984 -0.009946 0.002794 -0.018331 0.059849
#
#
# Mechanical properties :
#
#
# Convention : Reuss Voigt Hill
#
# Bulk Modulus (GPa) = 43.06480 67.53796 55.30138
# Shear Modulus (GPa) = 23.44655 34.82871 29.13763
#
# Velocity S-wave (km/s) = 3.00098 3.65757 3.34542
# Velocity P-wave (km/s) = 5.34314 6.61654 6.01364
#
# Compressibility (1/GPa) = 0.02322082
#
# Stress axis : x y z
#
# Youngs Moduli (GPa) = 36.13149 142.39725 55.51935
#
# Poissons Ratio (x) = 0.30112 0.51909
# Poissons Ratio (y) = 0.07641 0.18214
# Poissons Ratio (z) = 0.33782 0.46716
#
# Static dielectric constant tensor:
#      x y z
#    x 2.168850 -0.032160 -0.007480 
#    y -0.032160 2.227040 0.025130 
#    z -0.007480 0.025130 2.060000 
# 
# From -- ./inp_files/328757.got.cif
#   From: 2010.05.17/outbox.cif.g08.bks.cpg/sg2_165_cif.got.tgz:328757.got - 2010.06.03 11:33:40.
