data_PCOD9053364
_publ_section_title
;
Structure prediction by ZEFSAII (Michael W. Deem and Ramdas Pophale) SiO2 
 PCOD9053364
Probable space group: P -1
;
_chemical_formula_sum "Si O2"
_cell_formula_units_Z 16
_cell_length_a 9.199613
_cell_length_b 9.570778
_cell_length_c 19.339478
_cell_angle_alpha 128.963043
_cell_angle_beta 143.302931
_cell_angle_gamma 69.541078
_cell_volume 746.094454
_symmetry_space_group_name_H-M "P -1"
_symmetry_group_IT_number 2
_symmetry_cell_setting 'triclinic'
loop_
_space_group_symop_operation_xyz
x,y,z
-x,-y,-z
loop_
_atom_site_type_symbol
_atom_site_label
_atom_site_fract_x
_atom_site_fract_y
_atom_site_fract_z
Si Si1 0.398339 0.663063 0.114709
Si Si2 0.846727 0.044775 0.378498
Si Si3 0.966423 0.871378 0.015410
Si Si4 0.931395 0.677646 0.557146
Si Si5 0.132051 0.060935 0.279607
Si Si6 0.400450 0.536011 0.232373
Si Si7 0.264363 0.862815 0.493132
Si Si8 0.005896 0.312362 0.799810
O O1 0.191689 0.775539 0.075187
O O2 0.435088 0.582148 0.178715
O O3 0.654365 0.829203 0.240522
O O4 0.277442 0.479335 0.963168
O O5 0.780823 0.173094 0.453387
O O6 0.849007 0.146713 0.339559
O O7 0.132344 0.028350 0.490289
O O8 0.999296 0.997865 0.135888
O O9 0.705303 0.690356 0.863753
O O10 0.000000 0.000000 0.000000
O O11 0.902828 0.745927 0.644779
O O12 0.651519 0.638591 0.404407
O O13 0.000000 0.500000 0.500000
O O14 0.435545 0.083928 0.393858
O O15 0.016200 0.890578 0.238070
O O16 0.181593 0.617355 0.200952
O O17 0.108674 0.715337 0.329827
#
# Coordination Sequence:
#
# PCOD9053364 Si02
#       8
#     2   2   2   2   2   2   2   2
#     4  11  22  40  69 102 142 172 223 287 339 401
#     4  11  23  40  64 103 141 171 217 293 340 387
#     4  11  24  42  71 102 138 182 229 280 341 412
#     4  12  28  45  67  96 142 187 230 280 347 411
#     4  12  21  45  71  96 131 186 233 275 342 415
#     4  11  21  43  71 101 135 176 228 285 335 409
#     4  11  21  37  70 102 131 165 227 289 338 392
#     4  11  19  37  68 107 124 170 230 277 333 405
#
# _framework density 21.445005999999999
#
# number of rings (size 3 to 8) (size 9 to 14) (size 15 to 20)
#    0.000    0.750    6.250    3.375    1.750    0.500 
#    4.500    1.875    0.000    0.000    0.000    0.000 
#    0.000    0.000    0.000    0.000    0.000    0.000 
#
# Total GULP energy -89290.069447 kJ/mol
# GULP energy per Si atom -5580.629340 kJ/mol
# Density = 2.139620 g / cm^3
# Si number density = 21.445006 Si / 1000 Ang^3
#
#
#
# Elastic Constant Matrix: (Units=GPa)
#
#
# Indices 1 2 3 4 5 6 
#
# 1 108.6891 34.1567 43.0199 25.4389 -17.4425 -1.8485
# 2 34.1567 58.9493 13.1320 20.4627 -7.1228 7.4450
# 3 43.0199 13.1320 114.3370 27.5174 -32.0164 16.3911
# 4 25.4389 20.4627 27.5174 22.8499 -2.5330 -1.9104
# 5 -17.4425 -7.1228 -32.0164 -2.5330 37.7832 3.6052
# 6 -1.8485 7.4450 16.3911 -1.9104 3.6052 29.7156
#
#
#
# Elastic Compliance Matrix: (Units=1/GPa)
#
#
# Indices 1 2 3 4 5 6 
#
# 1 0.013996 -0.004912 -0.002500 -0.007657 0.002650 0.002666
# 2 -0.004912 0.041075 0.021101 -0.056646 0.022286 -0.028581
# 3 -0.002500 0.021101 0.033937 -0.056202 0.030821 -0.031514
# 4 -0.007657 -0.056646 -0.056202 0.169666 -0.056423 0.062469
# 5 0.002650 0.022286 0.030821 -0.056423 0.057375 -0.033008
# 6 0.002666 -0.028581 -0.031514 0.062469 -0.033008 0.066383
#
#
# Mechanical properties :
#
#
# Convention : Reuss Voigt Hill
#
# Bulk Modulus (GPa) = 8.59196 51.39916 29.99556
# Shear Modulus (GPa) = 12.69528 30.84752 21.77140
#
# Velocity S-wave (km/s) = 2.43573 3.79680 3.18971
# Velocity P-wave (km/s) = 3.45334 6.57578 5.25197
#
# Compressibility (1/GPa) = 0.11638785
#
# Stress axis : x y z
#
# Youngs Moduli (GPa) = 71.44883 24.34594 29.46624
#
# Poissons Ratio (x) = 0.11958 0.07365
# Poissons Ratio (y) = 0.35093 -0.62177
# Poissons Ratio (z) = 0.17859 -0.51373
#
# Static dielectric constant tensor:
#      x y z
#    x 1.742840 0.101770 -0.080500 
#    y 0.101770 1.711310 0.109340 
#    z -0.080500 0.109340 1.702040 
# 
# From -- ./inp_files/557521.got.cif
#   From: 2010.05.17/outbox.cif.g08.bks.cpg/sg2_279_cif.got.tgz:557521.got - 2010.06.03 11:33:40.
