data_PCOD9053619
_publ_section_title
;
Structure prediction by ZEFSAII (Michael W. Deem and Ramdas Pophale) SiO2 
 PCOD9053619
Probable space group: P -1
;
_chemical_formula_sum "Si O2"
_cell_formula_units_Z 16
_cell_length_a 14.095335
_cell_length_b 21.794697
_cell_length_c 21.173238
_cell_angle_alpha 166.626063
_cell_angle_beta 147.356290
_cell_angle_gamma 33.765068
_cell_volume 807.724079
_symmetry_space_group_name_H-M "P -1"
_symmetry_group_IT_number 2
_symmetry_cell_setting 'triclinic'
loop_
_space_group_symop_operation_xyz
x,y,z
-x,-y,-z
loop_
_atom_site_type_symbol
_atom_site_label
_atom_site_fract_x
_atom_site_fract_y
_atom_site_fract_z
Si Si1 0.092200 0.740352 0.908277
Si Si2 0.574054 0.884925 0.248279
Si Si3 0.479684 0.281935 0.087964
Si Si4 0.778001 0.804917 0.632882
Si Si5 0.296531 0.241360 0.305131
Si Si6 0.629519 0.229775 0.794703
Si Si7 0.225877 0.665161 0.155222
Si Si8 0.065768 0.244241 0.822682
O O1 0.180937 0.483903 0.663545
O O2 0.893407 0.686399 0.760369
O O3 0.214789 0.783151 0.079516
O O4 0.079813 0.000709 0.116441
O O5 0.510759 0.751398 0.015875
O O6 0.399789 0.028371 0.326402
O O7 0.678943 0.140250 0.548937
O O8 0.692886 0.642779 0.104991
O O9 0.276155 0.241028 0.946409
O O10 0.614727 0.045083 0.952566
O O11 0.557436 0.555757 0.421693
O O12 0.747700 0.766324 0.651745
O O13 0.725480 0.226910 0.777599
O O14 0.500000 0.000000 0.500000
O O15 0.500000 0.500000 0.000000
O O16 0.029124 0.710042 0.116780
O O17 0.000000 0.000000 0.500000
O O18 0.000000 0.500000 0.000000
#
# Coordination Sequence:
#
# PCOD9053619 Si02
#       8
#     2   2   2   2   2   2   2   2
#     4  12  23  40  56  82 117 157 206 246 283 346
#     4  11  20  34  57  86 121 153 187 236 299 359
#     4  11  21  36  56  88 118 150 185 241 306 356
#     4  11  21  35  59  84 116 155 198 243 293 346
#     4  11  23  36  58  83 118 156 195 241 301 351
#     4  12  26  41  61  86 118 161 203 241 288 345
#     4  12  22  38  59  86 122 159 195 238 297 354
#     4  12  22  38  61  92 123 152 192 246 308 359
#
# _framework density 19.808745999999999
#
# number of rings (size 3 to 8) (size 9 to 14) (size 15 to 20)
#    0.000    0.500    2.500    9.750    0.000    0.000 
#    0.000    0.000    0.000    1.500    0.000    0.000 
#    0.000    0.000    0.000    0.000    0.000    0.000 
#
# Total GULP energy -89338.567565 kJ/mol
# GULP energy per Si atom -5583.660473 kJ/mol
# Density = 1.976366 g / cm^3
# Si number density = 19.808746 Si / 1000 Ang^3
#
#
#
# Elastic Constant Matrix: (Units=GPa)
#
#
# Indices 1 2 3 4 5 6 
#
# 1 96.3734 41.0242 22.3470 -1.9908 5.8379 -17.1840
# 2 41.0242 111.9673 29.2539 -12.7115 0.8066 -16.7810
# 3 22.3470 29.2539 127.8555 8.1278 7.3828 -2.9706
# 4 -1.9908 -12.7115 8.1278 27.7769 -9.1869 5.5217
# 5 5.8379 0.8066 7.3828 -9.1869 16.5243 -5.4742
# 6 -17.1840 -16.7810 -2.9706 5.5217 -5.4742 23.9781
#
#
#
# Elastic Compliance Matrix: (Units=1/GPa)
#
#
# Indices 1 2 3 4 5 6 
#
# 1 0.013693 -0.004131 -0.000863 -0.003258 -0.003846 0.006687
# 2 -0.004131 0.013034 -0.003164 0.008346 0.008818 0.005860
# 3 -0.000863 -0.003164 0.009538 -0.006593 -0.008126 -0.001988
# 4 -0.003258 0.008346 -0.006593 0.052591 0.032246 -0.002060
# 5 -0.003846 0.008818 -0.008126 0.032246 0.087997 0.015073
# 6 0.006687 0.005860 -0.001988 -0.002060 0.015073 0.054268
#
#
# Mechanical properties :
#
#
# Convention : Reuss Voigt Hill
#
# Bulk Modulus (GPa) = 50.13011 57.93849 54.03430
# Shear Modulus (GPa) = 19.67832 29.89392 24.78612
#
# Velocity S-wave (km/s) = 3.15527 3.88896 3.54117
# Velocity P-wave (km/s) = 6.21581 7.03405 6.63755
#
# Compressibility (1/GPa) = 0.01994809
#
# Stress axis : x y z
#
# Youngs Moduli (GPa) = 73.02856 76.72383 104.84083
#
# Poissons Ratio (x) = 0.31698 0.09053
# Poissons Ratio (y) = 0.30172 0.33168
# Poissons Ratio (z) = 0.06306 0.24273
#
# Static dielectric constant tensor:
#      x y z
#    x 1.777270 -0.047340 0.000030 
#    y -0.047340 1.769360 0.004890 
#    z 0.000030 0.004890 1.762340 
# 
# From -- ./inp_files/612110.got.cif
#   From: 2010.05.17/outbox.cif.g08.bks.cpg/sg2_307_cif.got.tgz:612110.got - 2010.06.03 11:33:40.
