data_PCOD9053582
_publ_section_title
;
Structure prediction by ZEFSAII (Michael W. Deem and Ramdas Pophale) SiO2 
 PCOD9053582
Probable space group: P -1
;
_chemical_formula_sum "Si O2"
_cell_formula_units_Z 16
_cell_length_a 11.775543
_cell_length_b 7.814326
_cell_length_c 9.121286
_cell_angle_alpha 108.346672
_cell_angle_beta 66.168794
_cell_angle_gamma 106.429489
_cell_volume 716.928791
_symmetry_space_group_name_H-M "P -1"
_symmetry_group_IT_number 2
_symmetry_cell_setting 'triclinic'
loop_
_space_group_symop_operation_xyz
x,y,z
-x,-y,-z
loop_
_atom_site_type_symbol
_atom_site_label
_atom_site_fract_x
_atom_site_fract_y
_atom_site_fract_z
Si Si1 0.898288 0.549894 0.453730
Si Si2 0.114299 0.167641 0.976817
Si Si3 0.644085 0.392925 0.675894
Si Si4 0.848272 0.899628 0.730873
Si Si5 0.418357 0.203610 0.120857
Si Si6 0.315588 0.656443 0.013975
Si Si7 0.378284 0.252163 0.815216
Si Si8 0.035688 0.699293 0.145943
O O1 0.765031 0.414630 0.513263
O O2 0.877357 0.754201 0.560239
O O3 0.000000 0.500000 0.500000
O O4 0.961782 0.563629 0.266891
O O5 0.241800 0.131511 0.819760
O O6 0.052605 0.308196 0.951483
O O7 0.149884 0.202542 0.138478
O O8 0.000000 0.000000 0.000000
O O9 0.609702 0.596393 0.763804
O O10 0.682031 0.342600 0.808127
O O11 0.510581 0.267807 0.665171
O O12 0.704174 0.930780 0.791435
O O13 0.942597 0.091028 0.744463
O O14 0.564495 0.204179 0.077919
O O15 0.412686 0.200299 0.947171
O O16 0.179867 0.682254 0.037767
O O17 0.341706 0.454945 0.901226
#
# Coordination Sequence:
#
# PCOD9053582 Si02
#       8
#     2   2   2   2   2   2   2   2
#     4  11  20  33  51  75 102 128 169 206 243 292
#     4   9  19  34  50  72  99 134 165 196 249 300
#     4   8  14  28  47  68  96 130 161 199 243 287
#     4   9  19  36  51  69 101 138 161 199 252 293
#     4   7  13  26  49  68  94 127 160 198 247 290
#     4   9  15  26  45  77 100 120 159 209 247 287
#     4   8  14  28  49  68  96 131 162 198 244 289
#     4  11  21  30  48  79 105 126 164 204 246 295
#
# _framework density 22.317416999999999
#
# number of rings (size 3 to 8) (size 9 to 14) (size 15 to 20)
#    0.000    3.000    1.250    2.625    0.000    1.000 
#    0.000    0.625    0.000    0.000    0.000    1.750 
#    0.000    0.000    0.000    0.000    0.000    0.000 
#
# Total GULP energy -89158.413837 kJ/mol
# GULP energy per Si atom -5572.400865 kJ/mol
# Density = 2.226662 g / cm^3
# Si number density = 22.317417 Si / 1000 Ang^3
#
#
#
# Elastic Constant Matrix: (Units=GPa)
#
#
# Indices 1 2 3 4 5 6 
#
# 1 147.1711 24.6646 39.6078 -27.2418 -48.6033 19.2143
# 2 24.6646 46.3328 19.4184 -13.7369 -12.2169 14.7494
# 3 39.6078 19.4184 59.6518 -27.0423 -29.9216 11.1709
# 4 -27.2418 -13.7369 -27.0423 31.8211 7.3906 -6.0404
# 5 -48.6033 -12.2169 -29.9216 7.3906 34.3255 -11.2270
# 6 19.2143 14.7494 11.1709 -6.0404 -11.2270 42.2368
#
#
#
# Elastic Compliance Matrix: (Units=1/GPa)
#
#
# Indices 1 2 3 4 5 6 
#
# 1 0.017061 -0.000936 0.012455 0.017612 0.030889 0.000001
# 2 -0.000936 0.028248 -0.002807 0.007104 0.002454 -0.007028
# 3 0.012455 -0.002807 0.060532 0.047369 0.059854 0.001989
# 4 0.017612 0.007104 0.047369 0.077999 0.052661 0.002132
# 5 0.030889 0.002454 0.059854 0.052661 0.117177 0.007939
# 6 0.000001 -0.007028 0.001989 0.002132 0.007939 0.028019
#
#
# Mechanical properties :
#
#
# Convention : Reuss Voigt Hill
#
# Bulk Modulus (GPa) = 8.11255 46.72638 27.41946
# Shear Modulus (GPa) = 14.17636 32.97434 23.57535
#
# Velocity S-wave (km/s) = 2.52308 3.84802 3.25370
# Velocity P-wave (km/s) = 3.48294 6.38166 5.14084
#
# Compressibility (1/GPa) = 0.12326583
#
# Stress axis : x y z
#
# Youngs Moduli (GPa) = 58.61367 35.40072 16.52012
#
# Poissons Ratio (x) = 0.03313 -0.20575
# Poissons Ratio (y) = 0.05485 0.04636
# Poissons Ratio (z) = -0.73001 0.09935
#
# Static dielectric constant tensor:
#      x y z
#    x 1.875090 0.027130 -0.035140 
#    y 0.027130 1.946900 0.001820 
#    z -0.035140 0.001820 1.832890 
# 
# From -- ./inp_files/202602.got.cif
#   From: 2010.05.17/outbox.cif.g08.bks.cpg/sg2_102_cif.got.tgz:202602.got - 2010.06.03 11:33:40.
