data_PCOD9053610
_publ_section_title
;
Structure prediction by ZEFSAII (Michael W. Deem and Ramdas Pophale) SiO2 
 PCOD9053610
Probable space group: P -1
;
_chemical_formula_sum "Si O2"
_cell_formula_units_Z 14
_cell_length_a 21.618914
_cell_length_b 18.781451
_cell_length_c 12.455678
_cell_angle_alpha 33.464746
_cell_angle_beta 23.313084
_cell_angle_gamma 18.686126
_cell_volume 615.274206
_symmetry_space_group_name_H-M "P -1"
_symmetry_group_IT_number 2
_symmetry_cell_setting 'triclinic'
loop_
_space_group_symop_operation_xyz
x,y,z
-x,-y,-z
loop_
_atom_site_type_symbol
_atom_site_label
_atom_site_fract_x
_atom_site_fract_y
_atom_site_fract_z
Si Si1 0.393251 0.350499 0.078931
Si Si2 0.191579 0.280086 0.324939
Si Si3 0.733676 0.251571 0.998628
Si Si4 0.920612 0.467278 0.010630
Si Si5 0.754188 0.928246 0.169136
Si Si6 0.865602 0.228769 0.059526
Si Si7 0.441696 0.221047 0.618346
O O1 0.372671 0.258554 0.132940
O O2 0.105137 0.529810 0.380591
O O3 0.631609 0.142311 0.043385
O O4 0.400727 0.492658 0.845024
O O5 0.141791 0.373347 0.170736
O O6 0.345144 0.039542 0.369884
O O7 0.836226 0.240097 0.962856
O O8 0.564444 0.240134 0.317168
O O9 0.500000 0.500000 0.000000
O O10 0.018804 0.995550 0.812742
O O11 0.020097 0.283848 0.006725
O O12 0.182320 0.327623 0.842093
O O13 0.662162 0.630420 0.298076
O O14 0.500000 0.000000 0.500000
O O15 0.905046 0.845431 0.145749
#
# Coordination Sequence:
#
# PCOD9053610 Si02
#       7
#     2   2   2   2   2   2   2
#     4  11  20  33  63  96 126 151 204 265 322 366
#     4  11  20  36  62  96 126 162 197 265 325 372
#     4  11  25  43  64  89 127 173 215 264 303 379
#     4  11  23  37  64  95 130 169 197 265 332 378
#     4  12  20  36  62  96 130 158 206 268 311 372
#     4  11  23  39  64  93 120 165 214 260 321 367
#     4  11  24  42  59  93 134 166 212 253 325 387
#
# _framework density 22.754082
#
# number of rings (size 3 to 8) (size 9 to 14) (size 15 to 20)
#    0.000    0.857    5.714    3.000    2.000    0.000 
#    0.000    0.714    0.000    1.714    0.000    0.000 
#    0.000    0.000    0.000    0.000    0.000    0.000 
#
# Total GULP energy -78087.186942 kJ/mol
# GULP energy per Si atom -5577.656210 kJ/mol
# Density = 2.270229 g / cm^3
# Si number density = 22.754082 Si / 1000 Ang^3
#
#
#
# Elastic Constant Matrix: (Units=GPa)
#
#
# Indices 1 2 3 4 5 6 
#
# 1 78.6383 49.8032 -15.4281 19.9899 2.5876 6.1898
# 2 49.8032 217.2737 32.9011 -21.1182 12.7923 -27.2272
# 3 -15.4281 32.9011 11.4697 22.1820 15.4216 16.3346
# 4 19.9899 -21.1182 22.1820 9.3404 2.7477 -7.0879
# 5 2.5876 12.7923 15.4216 2.7477 29.3368 -0.1703
# 6 6.1898 -27.2272 16.3346 -7.0879 -0.1703 46.5162
#
#
#
# Elastic Compliance Matrix: (Units=1/GPa)
#
#
# Indices 1 2 3 4 5 6 
#
# 1 0.008822 0.000202 -0.009655 0.005884 0.003677 0.003244
# 2 0.000202 0.003457 0.005339 -0.004596 -0.003904 -0.000593
# 3 -0.009655 0.005339 0.005203 0.027481 -0.006746 0.006745
# 4 0.005884 -0.004596 0.027481 0.014762 -0.014407 -0.010927
# 5 0.003677 -0.003904 -0.006746 -0.014407 0.040346 -0.002453
# 6 0.003244 -0.000593 0.006745 -0.010927 -0.002453 0.016677
#
#
# Mechanical properties :
#
#
# Convention : Reuss Voigt Hill
#
# Bulk Modulus (GPa) = 108.07251 49.10377 78.58814
# Shear Modulus (GPa) = 49.71146 33.04573 41.37859
#
# Velocity S-wave (km/s) = 4.67918 3.81504 4.26903
# Velocity P-wave (km/s) = 8.76310 6.40571 7.67545
#
# Compressibility (1/GPa) = 0.00925305
#
# Stress axis : x y z
#
# Youngs Moduli (GPa) = 113.34688 289.29428 192.20323
#
# Poissons Ratio (x) = -0.05835 1.85569
# Poissons Ratio (y) = -0.02286 -1.02611
# Poissons Ratio (z) = 1.09435 -1.54445
#
# Static dielectric constant tensor:
#      x y z
#    x 1.846410 0.035400 -0.014310 
#    y 0.035400 1.921420 0.013850 
#    z -0.014310 0.013850 1.923340 
# 
# From -- ./inp_files/428732.got.cif
#   From: 2010.05.17/outbox.cif.g08.bks.cpg/sg2_215_cif.got.tgz:428732.got - 2010.06.03 11:33:40.
