data_PCOD9053975
_publ_section_title
;
Structure prediction by ZEFSAII (Michael W. Deem and Ramdas Pophale) SiO2 
 PCOD9053975
Probable space group: P -1
;
_chemical_formula_sum "Si O2"
_cell_formula_units_Z 16
_cell_length_a 10.885725
_cell_length_b 16.432567
_cell_length_c 8.781729
_cell_angle_alpha 131.764456
_cell_angle_beta 127.581534
_cell_angle_gamma 33.737968
_cell_volume 644.785989
_symmetry_space_group_name_H-M "P -1"
_symmetry_group_IT_number 2
_symmetry_cell_setting 'triclinic'
loop_
_space_group_symop_operation_xyz
x,y,z
-x,-y,-z
loop_
_atom_site_type_symbol
_atom_site_label
_atom_site_fract_x
_atom_site_fract_y
_atom_site_fract_z
Si Si1 0.709884 0.489831 0.830973
Si Si2 0.493742 0.168949 0.836029
Si Si3 0.450369 0.900382 0.881685
Si Si4 0.481591 0.594117 0.239619
Si Si5 0.920212 0.619357 0.815180
Si Si6 0.985224 0.368592 0.407399
Si Si7 0.934909 0.773776 0.435701
Si Si8 0.717744 0.083633 0.560856
O O1 0.571819 0.451087 0.709925
O O2 0.850718 0.403374 0.677503
O O3 0.582107 0.666649 0.987975
O O4 0.913314 0.388230 0.979450
O O5 0.293499 0.179206 0.707850
O O6 0.585660 0.119617 0.667342
O O7 0.641522 0.067986 0.975791
O O8 0.691703 0.719428 0.852976
O O9 0.348114 0.907343 0.655226
O O10 0.500000 0.000000 0.000000
O O11 0.728766 0.517078 0.351881
O O12 0.301470 0.776137 0.284516
O O13 0.500000 0.500000 0.000000
O O14 0.039966 0.445864 0.648235
O O15 0.866732 0.700646 0.715251
O O16 0.030559 0.238336 0.373167
O O17 0.926166 0.896882 0.507885
#
# Coordination Sequence:
#
# PCOD9053975 Si02
#       8
#     2   2   2   2   2   2   2   2
#     4  12  24  44  72 101 143 185 237 295 352 427
#     4  12  23  42  74 106 144 186 239 296 357 424
#     4  12  24  39  67 108 146 179 229 296 366 417
#     4  12  25  48  71  99 144 197 238 285 360 436
#     4  11  20  39  67 101 132 176 234 290 339 414
#     4  11  23  39  71  99 131 182 236 285 349 420
#     4  12  25  42  68 108 141 178 238 303 356 414
#     4  12  26  47  71 106 148 192 233 298 363 423
#
# _framework density 24.814436000000001
#
# number of rings (size 3 to 8) (size 9 to 14) (size 15 to 20)
#    0.000    0.250    7.500    2.250    1.750    1.000 
#    0.000    0.625    0.000    0.000    0.000    0.000 
#    0.000    0.000    0.000    0.000    0.000    0.000 
#
# Total GULP energy -89251.931210 kJ/mol
# GULP energy per Si atom -5578.245701 kJ/mol
# Density = 2.475796 g / cm^3
# Si number density = 24.814436 Si / 1000 Ang^3
#
#
#
# Elastic Constant Matrix: (Units=GPa)
#
#
# Indices 1 2 3 4 5 6 
#
# 1 89.4612 6.1071 21.8192 -5.9867 -23.3089 21.5221
# 2 6.1071 106.6055 31.6951 17.0392 -5.0400 32.4656
# 3 21.8192 31.6951 85.9162 9.1991 -25.3511 14.6084
# 4 -5.9867 17.0392 9.1991 41.7930 11.8465 -4.6170
# 5 -23.3089 -5.0400 -25.3511 11.8465 40.3319 -1.1668
# 6 21.5221 32.4656 14.6084 -4.6170 -1.1668 39.2621
#
#
#
# Elastic Compliance Matrix: (Units=1/GPa)
#
#
# Indices 1 2 3 4 5 6 
#
# 1 0.016422 0.003898 0.000047 -0.003651 0.010722 -0.012353
# 2 0.003898 0.016133 -0.001749 -0.008879 0.005323 -0.015712
# 3 0.000047 -0.001749 0.017946 -0.007595 0.013153 -0.005759
# 4 -0.003651 -0.008879 -0.007595 0.035538 -0.017974 0.015814
# 5 0.010722 0.005323 0.013153 -0.017974 0.044741 -0.015957
# 6 -0.012353 -0.015712 -0.005759 0.015814 -0.015957 0.048762
#
#
# Mechanical properties :
#
#
# Convention : Reuss Voigt Hill
#
# Bulk Modulus (GPa) = 18.21764 44.58065 31.39914
# Shear Modulus (GPa) = 25.84692 39.10149 32.47421
#
# Velocity S-wave (km/s) = 3.23090 3.97389 3.62150
# Velocity P-wave (km/s) = 4.61256 6.24982 5.49254
#
# Compressibility (1/GPa) = 0.05489186
#
# Stress axis : x y z
#
# Youngs Moduli (GPa) = 60.89537 61.98617 55.72315
#
# Poissons Ratio (x) = -0.24161 -0.00260
# Poissons Ratio (y) = -0.23736 0.09743
# Poissons Ratio (z) = -0.00284 0.10838
#
# Static dielectric constant tensor:
#      x y z
#    x 2.068370 0.019500 -0.033450 
#    y 0.019500 1.993480 0.005230 
#    z -0.033450 0.005230 1.996170 
# 
# From -- ./inp_files/274474.got.cif
#   From: 2010.05.17/outbox.cif.g08.bks.cpg/sg2_138_cif.got.tgz:274474.got - 2010.06.03 11:33:40.
