data_PCOD9053761
_publ_section_title
;
Structure prediction by ZEFSAII (Michael W. Deem and Ramdas Pophale) SiO2 
 PCOD9053761
Probable space group: P -1
;
_chemical_formula_sum "Si O2"
_cell_formula_units_Z 16
_cell_length_a 12.721787
_cell_length_b 17.890598
_cell_length_c 7.649930
_cell_angle_alpha 59.454127
_cell_angle_beta 81.071956
_cell_angle_gamma 32.999710
_cell_volume 666.524311
_symmetry_space_group_name_H-M "P -1"
_symmetry_group_IT_number 2
_symmetry_cell_setting 'triclinic'
loop_
_space_group_symop_operation_xyz
x,y,z
-x,-y,-z
loop_
_atom_site_type_symbol
_atom_site_label
_atom_site_fract_x
_atom_site_fract_y
_atom_site_fract_z
Si Si1 0.315212 0.214569 0.809516
Si Si2 0.499812 0.914577 0.717920
Si Si3 0.818073 0.181556 0.558031
Si Si4 0.986146 0.673187 0.493193
Si Si5 0.142681 0.723713 0.230791
Si Si6 0.300701 0.724369 0.900986
Si Si7 0.386948 0.837358 0.218675
Si Si8 0.400809 0.339592 0.011623
O O1 0.099519 0.341148 0.594243
O O2 0.431788 0.219016 0.707866
O O3 0.304026 0.228950 0.006638
O O4 0.500000 0.000000 0.000000
O O5 0.500000 0.000000 0.500000
O O6 0.243234 0.105701 0.649556
O O7 0.533434 0.798845 0.748681
O O8 0.826609 0.241044 0.645545
O O9 0.758917 0.266238 0.286625
O O10 0.641334 0.230913 0.587466
O O11 0.076309 0.948325 0.748531
O O12 0.154255 0.615610 0.410612
O O13 0.129515 0.539477 0.784567
O O14 0.313325 0.639869 0.141516
O O15 0.876621 0.930767 0.982572
O O16 0.518787 0.631560 0.951280
O O17 0.452904 0.769988 0.079655
#
# Coordination Sequence:
#
# PCOD9053761 Si02
#       8
#     2   2   2   2   2   2   2   2
#     4   9  18  37  59  89 115 160 208 248 313 374
#     4  10  22  41  63  89 125 163 203 267 314 366
#     4  10  19  34  62  91 119 168 214 259 315 372
#     4  11  23  39  63  92 122 170 208 255 313 385
#     4  11  18  39  61  86 129 163 210 256 314 367
#     4  10  20  34  59  97 121 167 213 257 313 378
#     4  10  17  35  62  83 120 161 206 264 306 372
#     4  11  21  40  63  89 127 167 209 253 327 369
#
# _framework density 24.005123999999999
#
# number of rings (size 3 to 8) (size 9 to 14) (size 15 to 20)
#    0.000    1.750    6.250    0.750    0.000    5.000 
#    4.500    1.875    0.000    0.000    0.000    0.000 
#    0.000    0.000    0.000    0.000    0.000    0.000 
#
# Total GULP energy -89491.460340 kJ/mol
# GULP energy per Si atom -5593.216271 kJ/mol
# Density = 2.395049 g / cm^3
# Si number density = 24.005124 Si / 1000 Ang^3
#
#
#
# Elastic Constant Matrix: (Units=GPa)
#
#
# Indices 1 2 3 4 5 6 
#
# 1 199.6524 24.7231 69.4149 12.4449 -1.3950 -16.6848
# 2 24.7231 42.4250 27.2957 -1.2934 11.7430 -2.4201
# 3 69.4149 27.2957 99.1110 1.4941 -0.9595 -15.8656
# 4 12.4449 -1.2934 1.4941 38.0576 -7.2344 -4.0979
# 5 -1.3950 11.7430 -0.9595 -7.2344 24.0972 -1.0604
# 6 -16.6848 -2.4201 -15.8656 -4.0979 -1.0604 20.7312
#
#
#
# Elastic Compliance Matrix: (Units=1/GPa)
#
#
# Indices 1 2 3 4 5 6 
#
# 1 0.006887 -0.001469 -0.004081 -0.001845 0.000482 0.001908
# 2 -0.001469 0.035543 -0.009863 -0.002120 -0.018697 -0.005956
# 3 -0.004081 -0.009863 0.017222 0.002582 0.006453 0.009585
# 4 -0.001845 -0.002120 0.002582 0.029337 0.010125 0.006561
# 5 0.000482 -0.018697 0.006453 0.010125 0.054283 0.007922
# 6 0.001908 -0.005956 0.009585 0.006561 0.007922 0.058114
#
#
# Mechanical properties :
#
#
# Convention : Reuss Voigt Hill
#
# Bulk Modulus (GPa) = 34.68903 64.89510 49.79207
# Shear Modulus (GPa) = 20.67639 31.22751 25.95195
#
# Velocity S-wave (km/s) = 2.93803 3.61067 3.29158
# Velocity P-wave (km/s) = 5.09818 6.66897 5.93576
#
# Compressibility (1/GPa) = 0.02882755
#
# Stress axis : x y z
#
# Youngs Moduli (GPa) = 145.19292 28.13475 58.06429
#
# Poissons Ratio (x) = 0.04132 0.23698
# Poissons Ratio (y) = 0.21322 0.57268
# Poissons Ratio (z) = 0.59259 0.27749
#
# Static dielectric constant tensor:
#      x y z
#    x 1.916430 -0.002950 -0.004410 
#    y -0.002950 1.953420 -0.026790 
#    z -0.004410 -0.026790 1.939770 
# 
# From -- ./inp_files/282888.got.cif
#   From: 2010.05.17/outbox.cif.g08.bks.cpg/sg2_142_cif.got.tgz:282888.got - 2010.06.03 11:33:40.
