data_PCOD9053402
_publ_section_title
;
Structure prediction by ZEFSAII (Michael W. Deem and Ramdas Pophale) SiO2 
 PCOD9053402
Probable space group: P -1
;
_chemical_formula_sum "Si O2"
_cell_formula_units_Z 16
_cell_length_a 12.772194
_cell_length_b 9.739963
_cell_length_c 10.403213
_cell_angle_alpha 73.731551
_cell_angle_beta 142.407446
_cell_angle_gamma 96.273304
_cell_volume 743.717520
_symmetry_space_group_name_H-M "P -1"
_symmetry_group_IT_number 2
_symmetry_cell_setting 'triclinic'
loop_
_space_group_symop_operation_xyz
x,y,z
-x,-y,-z
loop_
_atom_site_type_symbol
_atom_site_label
_atom_site_fract_x
_atom_site_fract_y
_atom_site_fract_z
Si Si1 0.973866 0.938236 0.636829
Si Si2 0.815990 0.661448 0.558734
Si Si3 0.307592 0.793644 0.682447
Si Si4 0.695833 0.081478 0.852714
Si Si5 0.664128 0.764416 0.880047
Si Si6 0.509102 0.158981 0.915306
Si Si7 0.558682 0.650940 0.548952
Si Si8 0.027149 0.602239 0.380778
O O1 0.948362 0.772767 0.653396
O O2 0.118246 0.945395 0.885207
O O3 0.000000 0.000000 0.500000
O O4 0.794088 0.041177 0.479952
O O5 0.671580 0.727654 0.293309
O O6 0.706943 0.666626 0.583130
O O7 0.908854 0.501289 0.650746
O O8 0.493615 0.766664 0.800885
O O9 0.176831 0.692020 0.537361
O O10 0.352024 0.777530 0.881316
O O11 0.569884 0.123496 0.840537
O O12 0.618818 0.222023 0.654701
O O13 0.669850 0.931122 0.803338
O O14 0.646100 0.663252 0.768185
O O15 0.843103 0.705919 0.144528
O O16 0.500000 0.000000 0.000000
O O17 0.500000 0.500000 0.500000
O O18 0.000000 0.500000 0.500000
#
# Coordination Sequence:
#
# PCOD9053402 Si02
#       8
#     2   2   2   2   2   2   2   2
#     4  12  22  41  74 111 143 177 231 292 356 431
#     4  11  25  44  68 103 137 189 237 282 360 417
#     4  12  23  42  70 102 141 183 229 281 361 415
#     4  11  23  42  71 103 136 179 234 290 347 410
#     4  12  26  47  72  98 142 188 235 299 341 413
#     4  11  19  38  71  99 136 177 224 285 350 421
#     4  11  27  50  71  95 137 193 247 290 343 414
#     4  12  28  43  67 110 148 176 230 292 364 427
#
# _framework density 21.513546000000002
#
# number of rings (size 3 to 8) (size 9 to 14) (size 15 to 20)
#    0.000    0.500    5.000    3.375    1.750    3.500 
#    2.250    1.250    0.000    0.000    0.000    0.000 
#    0.000    0.000    0.000    0.000    0.000    0.000 
#
# Total GULP energy -89385.742644 kJ/mol
# GULP energy per Si atom -5586.608915 kJ/mol
# Density = 2.146458 g / cm^3
# Si number density = 21.513546 Si / 1000 Ang^3
#
#
#
# Elastic Constant Matrix: (Units=GPa)
#
#
# Indices 1 2 3 4 5 6 
#
# 1 49.0557 12.1336 2.3470 0.6202 16.8749 -5.3500
# 2 12.1336 131.9095 31.8446 21.2574 8.2853 -0.9727
# 3 2.3470 31.8446 87.5995 4.2048 26.7334 8.6466
# 4 0.6202 21.2574 4.2048 41.2012 -3.8951 4.9566
# 5 16.8749 8.2853 26.7334 -3.8951 31.1760 -2.1421
# 6 -5.3500 -0.9727 8.6466 4.9566 -2.1421 27.7844
#
#
#
# Elastic Compliance Matrix: (Units=1/GPa)
#
#
# Indices 1 2 3 4 5 6 
#
# 1 0.027697 -0.002445 0.005988 -0.001882 -0.019560 0.002212
# 2 -0.002445 0.009362 -0.003838 -0.004479 0.001703 0.001982
# 3 0.005988 -0.003838 0.019196 -0.001139 -0.019253 -0.006236
# 4 -0.001882 -0.004479 -0.001139 0.027886 0.006350 -0.004650
# 5 -0.019560 0.001703 -0.019253 0.006350 0.059910 0.005771
# 6 0.002212 0.001982 -0.006236 -0.004650 0.005771 0.039702
#
#
# Mechanical properties :
#
#
# Convention : Reuss Voigt Hill
#
# Bulk Modulus (GPa) = 17.96490 40.13502 29.04996
# Shear Modulus (GPa) = 24.64293 34.84830 29.74561
#
# Velocity S-wave (km/s) = 3.38814 4.02908 3.72243
# Velocity P-wave (km/s) = 4.86566 6.35144 5.65754
#
# Compressibility (1/GPa) = 0.05566411
#
# Stress axis : x y z
#
# Youngs Moduli (GPa) = 36.10533 106.81603 52.09374
#
# Poissons Ratio (x) = 0.26118 -0.31194
# Poissons Ratio (y) = 0.08828 0.19995
# Poissons Ratio (z) = -0.21620 0.40998
#
# Static dielectric constant tensor:
#      x y z
#    x 1.791300 -0.014190 -0.009440 
#    y -0.014190 1.765640 0.000650 
#    z -0.009440 0.000650 1.882660 
# 
# From -- ./inp_files/447266.got.cif
#   From: 2010.05.17/outbox.cif.g08.bks.cpg/sg2_224_cif.got.tgz:447266.got - 2010.06.03 11:33:40.
