data_PCOD9053040
_publ_section_title
;
Structure prediction by ZEFSAII (Michael W. Deem and Ramdas Pophale) SiO2 
 PCOD9053040
Probable space group: P -1
;
_chemical_formula_sum "Si O2"
_cell_formula_units_Z 14
_cell_length_a 9.312052
_cell_length_b 16.277703
_cell_length_c 8.702265
_cell_angle_alpha 133.040390
_cell_angle_beta 133.892277
_cell_angle_gamma 33.725454
_cell_volume 508.961997
_symmetry_space_group_name_H-M "P -1"
_symmetry_group_IT_number 2
_symmetry_cell_setting 'triclinic'
loop_
_space_group_symop_operation_xyz
x,y,z
-x,-y,-z
loop_
_atom_site_type_symbol
_atom_site_label
_atom_site_fract_x
_atom_site_fract_y
_atom_site_fract_z
Si Si1 0.537759 0.247237 0.301672
Si Si2 0.508023 0.578903 0.958440
Si Si3 0.202840 0.637311 0.383982
Si Si4 0.853980 0.940150 0.256228
Si Si5 0.101377 0.156504 0.169776
Si Si6 0.712950 0.662127 0.453885
Si Si7 0.647137 0.819155 0.168402
O O1 0.788633 0.230291 0.431173
O O2 0.444041 0.325905 0.497723
O O3 0.586507 0.099309 0.189934
O O4 0.366584 0.292766 0.079506
O O5 0.738936 0.441161 0.840388
O O6 0.207567 0.708489 0.824940
O O7 0.500000 0.500000 0.000000
O O8 0.590629 0.664724 0.208186
O O9 0.500000 0.500000 0.500000
O O10 0.919099 0.703658 0.328245
O O11 0.770389 0.876259 0.231078
O O12 0.974635 0.846090 0.067423
O O13 0.000000 0.000000 0.500000
O O14 0.252786 0.217642 0.365014
O O15 0.334526 0.978572 0.179479
O O16 0.000000 0.500000 0.500000
#
# Coordination Sequence:
#
# PCOD9053040 Si02
#       7
#     2   2   2   2   2   2   2
#     4  11  20  36  62  94 129 161 210 263 318 372
#     4  12  23  38  64  95 128 163 210 266 319 370
#     4  12  27  45  63  90 130 177 216 258 316 386
#     4  11  18  32  62  98 131 158 205 267 323 368
#     4  11  22  35  58 101 129 157 206 268 325 369
#     4  12  20  33  60  95 133 162 196 259 327 371
#     4  11  22  38  64  93 130 167 214 260 321 380
#
# _framework density 27.506965000000001
#
# number of rings (size 3 to 8) (size 9 to 14) (size 15 to 20)
#    0.000    0.571    7.143    3.429    0.000    0.571 
#    0.000    0.714    0.000    6.000    0.000    0.000 
#    0.000    0.000    0.000    0.000    0.000    0.000 
#
# Total GULP energy -78056.800248 kJ/mol
# GULP energy per Si atom -5575.485732 kJ/mol
# Density = 2.744436 g / cm^3
# Si number density = 27.506965 Si / 1000 Ang^3
#
#
#
# Elastic Constant Matrix: (Units=GPa)
#
#
# Indices 1 2 3 4 5 6 
#
# 1 83.9293 20.7108 34.5442 0.6268 7.9082 -17.1559
# 2 20.7108 142.6299 21.9656 -15.9738 0.3120 -29.7352
# 3 34.5442 21.9656 202.1258 -20.6649 37.3789 -7.5078
# 4 0.6268 -15.9738 -20.6649 47.3238 -10.9591 11.5114
# 5 7.9082 0.3120 37.3789 -10.9591 43.5839 -3.4315
# 6 -17.1559 -29.7352 -7.5078 11.5114 -3.4315 34.9706
#
#
#
# Elastic Compliance Matrix: (Units=1/GPa)
#
#
# Indices 1 2 3 4 5 6 
#
# 1 0.014608 -0.000651 -0.002334 -0.003384 -0.000933 0.007134
# 2 -0.000651 0.008762 -0.000741 0.001382 0.001564 0.006670
# 3 -0.002334 -0.000741 0.006439 0.001851 -0.004743 -0.001467
# 4 -0.003384 0.001382 0.001851 0.025512 0.004801 -0.008014
# 5 -0.000933 0.001564 -0.004743 0.004801 0.028461 0.001066
# 6 0.007134 0.006670 -0.001467 -0.008014 0.001066 0.040194
#
#
# Mechanical properties :
#
#
# Convention : Reuss Voigt Hill
#
# Bulk Modulus (GPa) = 44.73239 64.79181 54.76210
# Shear Modulus (GPa) = 36.00234 48.60663 42.30448
#
# Velocity S-wave (km/s) = 3.62172 4.20821 3.92593
# Velocity P-wave (km/s) = 5.81263 6.87153 6.36414
#
# Compressibility (1/GPa) = 0.02235516
#
# Stress axis : x y z
#
# Youngs Moduli (GPa) = 68.45753 114.13260 155.30942
#
# Poissons Ratio (x) = 0.07435 0.36251
# Poissons Ratio (y) = 0.04459 0.11507
# Poissons Ratio (z) = 0.15979 0.08456
#
# Static dielectric constant tensor:
#      x y z
#    x -1.354110 1.089520 0.829600 
#    y 1.089520 2.498220 -0.415400 
#    z 0.829600 -0.415400 2.052120 
# 
# From -- ./inp_files/356932.got.cif
#   From: 2010.05.17/outbox.cif.g08.bks.cpg/sg2_179_cif.got.tgz:356932.got - 2010.06.03 11:33:40.
