data_PCOD9053691
_publ_section_title
;
Structure prediction by ZEFSAII (Michael W. Deem and Ramdas Pophale) SiO2 
 PCOD9053691
Probable space group: P -1
;
_chemical_formula_sum "Si O2"
_cell_formula_units_Z 14
_cell_length_a 9.760254
_cell_length_b 17.765837
_cell_length_c 11.330090
_cell_angle_alpha 148.880560
_cell_angle_beta 62.469754
_cell_angle_gamma 135.287755
_cell_volume 654.099996
_symmetry_space_group_name_H-M "P -1"
_symmetry_group_IT_number 2
_symmetry_cell_setting 'triclinic'
loop_
_space_group_symop_operation_xyz
x,y,z
-x,-y,-z
loop_
_atom_site_type_symbol
_atom_site_label
_atom_site_fract_x
_atom_site_fract_y
_atom_site_fract_z
Si Si1 0.933281 0.613507 0.126542
Si Si2 0.388188 0.578017 0.187929
Si Si3 0.986457 0.166479 0.211485
Si Si4 0.658384 0.436418 0.533858
Si Si5 0.488956 0.847338 0.985814
Si Si6 0.676111 0.538168 0.338229
Si Si7 0.622525 0.005589 0.568330
O O1 0.740116 0.545649 0.190366
O O2 0.134390 0.847802 0.370314
O O3 0.848099 0.557555 0.953142
O O4 0.000000 0.500000 0.000000
O O5 0.372735 0.594441 0.355824
O O6 0.520995 0.789431 0.354881
O O7 0.500000 0.500000 0.000000
O O8 0.131434 0.333975 0.276122
O O9 0.104871 0.308789 0.470466
O O10 0.738156 0.042473 0.130827
O O11 0.000000 0.000000 0.000000
O O12 0.634415 0.272045 0.246943
O O13 0.459252 0.403780 0.523269
O O14 0.462717 0.682636 0.851712
O O15 0.389646 0.902724 0.186327
O O16 0.500000 0.000000 0.500000
#
# Coordination Sequence:
#
# PCOD9053691 Si02
#       7
#     2   2   2   2   2   2   2
#     4  12  24  45  75 101 137 186 237 289 347 419
#     4  12  28  48  69 105 147 181 231 299 353 412
#     4  11  20  35  67 101 132 183 231 272 347 416
#     4  11  24  41  64 103 145 177 223 297 351 402
#     4  11  22  41  66 101 140 179 234 283 339 419
#     4  11  20  39  67 101 137 175 231 292 333 410
#     4  12  26  46  75 102 137 190 240 284 349 421
#
# _framework density 21.403454
#
# number of rings (size 3 to 8) (size 9 to 14) (size 15 to 20)
#    0.000    0.571    7.143    1.714    0.000    3.429 
#    0.000    1.429    0.000    0.000    0.000    0.000 
#    0.000    0.000    0.000    0.000    0.000    0.000 
#
# Total GULP energy -78241.241492 kJ/mol
# GULP energy per Si atom -5588.660107 kJ/mol
# Density = 2.135474 g / cm^3
# Si number density = 21.403454 Si / 1000 Ang^3
#
#
#
# Elastic Constant Matrix: (Units=GPa)
#
#
# Indices 1 2 3 4 5 6 
#
# 1 62.9793 32.3329 36.4872 2.2237 5.2118 -15.9713
# 2 32.3329 139.5772 54.4290 7.6122 11.9378 -11.6761
# 3 36.4872 54.4290 106.5624 6.1268 4.6829 -16.1750
# 4 2.2237 7.6122 6.1268 45.7143 10.6150 0.1826
# 5 5.2118 11.9378 4.6829 10.6150 34.8305 -0.6849
# 6 -15.9713 -11.6761 -16.1750 0.1826 -0.6849 34.1522
#
#
#
# Elastic Compliance Matrix: (Units=1/GPa)
#
#
# Indices 1 2 3 4 5 6 
#
# 1 0.022013 -0.002349 -0.005223 0.000404 -0.001772 0.006980
# 2 -0.002349 0.009450 -0.003860 -0.000424 -0.002234 0.000262
# 3 -0.005223 -0.003860 0.013586 -0.001089 0.000663 0.002691
# 4 0.000404 -0.000424 -0.001089 0.023702 -0.007007 -0.000739
# 5 -0.001772 -0.002234 0.000663 -0.007007 0.031776 -0.000604
# 6 0.006980 0.000262 0.002691 -0.000739 -0.000604 0.033901
#
#
# Mechanical properties :
#
#
# Convention : Reuss Voigt Hill
#
# Bulk Modulus (GPa) = 45.07748 61.73523 53.40636
# Shear Modulus (GPa) = 30.36063 35.33073 32.84568
#
# Velocity S-wave (km/s) = 3.77037 4.06729 3.92164
# Velocity P-wave (km/s) = 6.32936 7.13886 6.74627
#
# Compressibility (1/GPa) = 0.02218403
#
# Stress axis : x y z
#
# Youngs Moduli (GPa) = 45.42830 105.81961 73.60325
#
# Poissons Ratio (x) = 0.24856 0.38446
# Poissons Ratio (y) = 0.10671 0.28413
# Poissons Ratio (z) = 0.23729 0.40849
#
# Static dielectric constant tensor:
#      x y z
#    x 1.768670 -0.008490 -0.003180 
#    y -0.008490 1.771550 -0.038540 
#    z -0.003180 -0.038540 1.821860 
# 
# From -- ./inp_files/403554.got.cif
#   From: 2010.05.17/outbox.cif.g08.bks.cpg/sg2_202_cif.got.tgz:403554.got - 2010.06.03 11:33:40.
