data_PCOD9053100
_publ_section_title
;
Structure prediction by ZEFSAII (Michael W. Deem and Ramdas Pophale) SiO2 
 PCOD9053100
Probable space group: P -1
;
_chemical_formula_sum "Si O2"
_cell_formula_units_Z 16
_cell_length_a 9.379620
_cell_length_b 13.086580
_cell_length_c 19.625754
_cell_angle_alpha 36.533609
_cell_angle_beta 145.803484
_cell_angle_gamma 145.324035
_cell_volume 710.729643
_symmetry_space_group_name_H-M "P -1"
_symmetry_group_IT_number 2
_symmetry_cell_setting 'triclinic'
loop_
_space_group_symop_operation_xyz
x,y,z
-x,-y,-z
loop_
_atom_site_type_symbol
_atom_site_label
_atom_site_fract_x
_atom_site_fract_y
_atom_site_fract_z
Si Si1 0.512943 0.879497 0.131632
Si Si2 0.036248 0.316521 0.697918
Si Si3 0.088377 0.871521 0.391700
Si Si4 0.224955 0.076221 0.987883
Si Si5 0.788176 0.556920 0.759736
Si Si6 0.350421 0.300866 0.242910
Si Si7 0.321591 0.502956 0.493198
Si Si8 0.330706 0.522010 0.985886
O O1 0.377432 0.664740 0.164026
O O2 0.826735 0.924727 0.253066
O O3 0.500000 0.000000 0.000000
O O4 0.334758 0.921753 0.096244
O O5 0.081657 0.136429 0.837452
O O6 0.334371 0.517156 0.714619
O O7 0.923208 0.261629 0.605771
O O8 0.811404 0.349550 0.637659
O O9 0.951496 0.711510 0.484458
O O10 0.348416 0.093299 0.364586
O O11 0.479326 0.281397 0.002738
O O12 0.000000 0.000000 0.000000
O O13 0.843588 0.683443 0.781153
O O14 0.562224 0.572155 0.611239
O O15 0.067858 0.557540 0.837519
O O16 0.262812 0.349195 0.107682
O O17 0.500000 0.500000 0.500000
O O18 0.500000 0.500000 0.000000
#
# Coordination Sequence:
#
# PCOD9053100 Si02
#       8
#     2   2   2   2   2   2   2   2
#     4  11  18  36  63  98 126 174 223 265 343 398
#     4  11  24  47  67 101 137 183 231 281 336 407
#     4  11  23  42  74  95 134 184 229 281 335 415
#     4  11  24  38  67  97 138 178 221 282 349 406
#     4  11  23  43  67  94 142 178 222 290 333 411
#     4  11  23  43  71 106 136 178 228 279 346 411
#     4  11  27  47  72  95 138 186 230 286 345 400
#     4  11  24  39  64 104 142 173 222 291 344 402
#
# _framework density 22.512076
#
# number of rings (size 3 to 8) (size 9 to 14) (size 15 to 20)
#    0.000    1.000    3.750    3.750    8.750    0.500 
#    0.000    0.625    0.000    0.000    0.000    0.000 
#    0.000    0.000    0.000    0.000    0.000    0.000 
#
# Total GULP energy -89271.100478 kJ/mol
# GULP energy per Si atom -5579.443780 kJ/mol
# Density = 2.246084 g / cm^3
# Si number density = 22.512076 Si / 1000 Ang^3
#
#
#
# Elastic Constant Matrix: (Units=GPa)
#
#
# Indices 1 2 3 4 5 6 
#
# 1 136.5360 4.9510 7.7421 -5.2287 13.2554 -19.0659
# 2 4.9510 87.2516 -0.9487 -22.6349 -0.6030 -8.2186
# 3 7.7421 -0.9487 56.0138 -13.4250 10.8379 -11.3390
# 4 -5.2287 -22.6349 -13.4250 18.2432 0.0387 4.7025
# 5 13.2554 -0.6030 10.8379 0.0387 36.5590 -9.1775
# 6 -19.0659 -8.2186 -11.3390 4.7025 -9.1775 30.1410
#
#
#
# Elastic Compliance Matrix: (Units=1/GPa)
#
#
# Indices 1 2 3 4 5 6 
#
# 1 0.008199 0.000625 0.000821 0.002537 -0.002042 0.004649
# 2 0.000625 0.019560 0.008410 0.029655 -0.001470 0.003818
# 3 0.000821 0.008410 0.027514 0.029240 -0.006699 0.006562
# 4 0.002537 0.029655 0.029240 0.113839 -0.009186 0.000133
# 5 -0.002042 -0.001470 -0.006699 -0.009186 0.031798 0.006902
# 6 0.004649 0.003818 0.006562 0.000133 0.006902 0.041709
#
#
# Mechanical properties :
#
#
# Convention : Reuss Voigt Hill
#
# Bulk Modulus (GPa) = 13.33572 33.69890 23.51731
# Shear Modulus (GPa) = 20.16936 34.85910 27.51423
#
# Velocity S-wave (km/s) = 2.99646 3.93932 3.49979
# Velocity P-wave (km/s) = 4.23183 5.97434 5.17693
#
# Compressibility (1/GPa) = 0.07498660
#
# Stress axis : x y z
#
# Youngs Moduli (GPa) = 121.96135 51.12523 36.34482
#
# Poissons Ratio (x) = -0.03198 -0.02985
# Poissons Ratio (y) = -0.07628 -0.30565
# Poissons Ratio (z) = -0.10017 -0.42995
#
# Static dielectric constant tensor:
#      x y z
#    x 2.405220 1.511080 0.934820 
#    y 1.511080 5.862120 2.443560 
#    z 0.934820 2.443560 3.377590 
# 
# From -- ./inp_files/307133.got.cif
#   From: 2010.05.17/outbox.cif.g08.bks.cpg/sg2_154_cif.got.tgz:307133.got - 2010.06.03 11:33:40.
