data_PCOD9053536
_publ_section_title
;
Structure prediction by ZEFSAII (Michael W. Deem and Ramdas Pophale) SiO2 
 PCOD9053536
Probable space group: P -1
;
_chemical_formula_sum "Si O2"
_cell_formula_units_Z 14
_cell_length_a 6.017808
_cell_length_b 17.480760
_cell_length_c 9.132583
_cell_angle_alpha 67.696371
_cell_angle_beta 49.342030
_cell_angle_gamma 58.812537
_cell_volume 622.163107
_symmetry_space_group_name_H-M "P -1"
_symmetry_group_IT_number 2
_symmetry_cell_setting 'triclinic'
loop_
_space_group_symop_operation_xyz
x,y,z
-x,-y,-z
loop_
_atom_site_type_symbol
_atom_site_label
_atom_site_fract_x
_atom_site_fract_y
_atom_site_fract_z
Si Si1 0.734245 0.751473 0.955070
Si Si2 0.491702 0.590235 0.142049
Si Si3 0.352606 0.597969 0.852166
Si Si4 0.143977 0.342433 0.487488
Si Si5 0.680594 0.045086 0.502784
Si Si6 0.761931 0.806740 0.208209
Si Si7 0.401621 0.811331 0.799557
O O1 0.608339 0.827015 0.831140
O O2 0.112187 0.696418 0.835254
O O3 0.628867 0.667197 0.041479
O O4 0.605120 0.799068 0.128487
O O5 0.711955 0.485016 0.125678
O O6 0.231941 0.611049 0.367465
O O7 0.349096 0.596846 0.031895
O O8 0.694875 0.586470 0.651313
O O9 0.230046 0.277316 0.638243
O O10 0.319976 0.274736 0.330052
O O11 0.414829 0.104706 0.688129
O O12 0.741695 0.114373 0.314646
O O13 0.500000 0.000000 0.500000
O O14 0.000000 0.000000 0.500000
O O15 0.112200 0.799520 0.017966
#
# Coordination Sequence:
#
# PCOD9053536 Si02
#       7
#     2   2   2   2   2   2   2
#     4  12  21  44  68 100 134 192 244 282 350 430
#     4  11  23  40  61  96 144 188 238 306 355 397
#     4  11  23  40  61  96 144 188 238 306 355 397
#     4  11  19  44  61  96 136 184 244 290 347 424
#     4  11  30  52  77 116 145 178 233 294 363 450
#     4  11  25  45  74 100 142 186 228 291 358 430
#     4  11  25  45  74 100 142 186 228 291 358 430
#
# _framework density 22.502137999999999
#
# number of rings (size 3 to 8) (size 9 to 14) (size 15 to 20)
#    0.000    0.857    5.714    0.857    4.000    2.286 
#    0.000    1.429    0.000    0.000    0.000    0.000 
#    0.000    0.000    0.000    0.000    0.000    0.000 
#
# Total GULP energy -77963.930628 kJ/mol
# GULP energy per Si atom -5568.852188 kJ/mol
# Density = 2.245092 g / cm^3
# Si number density = 22.502138 Si / 1000 Ang^3
#
#
#
# Elastic Constant Matrix: (Units=GPa)
#
#
# Indices 1 2 3 4 5 6 
#
# 1 72.4648 36.4587 27.6628 14.7834 16.7429 6.9703
# 2 36.4587 80.9178 25.0473 19.9399 17.2207 -0.8070
# 3 27.6628 25.0473 138.6653 16.5408 1.4964 -2.4384
# 4 14.7834 19.9399 16.5408 31.0735 4.1393 7.6448
# 5 16.7429 17.2207 1.4964 4.1393 37.6754 -0.9054
# 6 6.9703 -0.8070 -2.4384 7.6448 -0.9054 34.9734
#
#
#
# Elastic Compliance Matrix: (Units=1/GPa)
#
#
# Indices 1 2 3 4 5 6 
#
# 1 0.020287 -0.006592 -0.002592 -0.002286 -0.005745 -0.004025
# 2 -0.006592 0.018754 -0.000931 -0.008643 -0.004573 0.003452
# 3 -0.002592 -0.000931 0.008300 -0.003257 0.001650 0.001828
# 4 -0.002286 -0.008643 -0.003257 0.042821 0.000167 -0.009327
# 5 -0.005745 -0.004573 0.001650 0.000167 0.031148 0.001924
# 6 -0.004025 0.003452 0.001828 -0.009327 0.001924 0.031691
#
#
# Mechanical properties :
#
#
# Convention : Reuss Voigt Hill
#
# Bulk Modulus (GPa) = 36.88882 52.26508 44.57695
# Shear Modulus (GPa) = 27.43176 34.26974 30.85075
#
# Velocity S-wave (km/s) = 3.49531 3.90674 3.70674
# Velocity P-wave (km/s) = 5.72002 6.60510 6.17843
#
# Compressibility (1/GPa) = 0.02710848
#
# Stress axis : x y z
#
# Youngs Moduli (GPa) = 49.29241 53.32130 120.48401
#
# Poissons Ratio (x) = 0.35152 0.31235
# Poissons Ratio (y) = 0.32496 0.11223
# Poissons Ratio (z) = 0.12779 0.04967
#
# Static dielectric constant tensor:
#      x y z
#    x 1.990850 0.011850 -0.001860 
#    y 0.011850 1.877840 -0.012860 
#    z -0.001860 -0.012860 1.780410 
# 
# From -- ./inp_files/6857.got.cif
#   From: 2010.05.17/outbox.cif.g08.bks.cpg/sg2_4_cif.got.tgz:6857.got - 2010.06.03 11:33:40.
