data_PCOD9053840
_publ_section_title
;
Structure prediction by ZEFSAII (Michael W. Deem and Ramdas Pophale) SiO2 
 PCOD9053840
Probable space group: P -1
;
_chemical_formula_sum "Si O2"
_cell_formula_units_Z 14
_cell_length_a 9.821912
_cell_length_b 15.116240
_cell_length_c 18.061683
_cell_angle_alpha 22.931308
_cell_angle_beta 42.214833
_cell_angle_gamma 46.634355
_cell_volume 701.930879
_symmetry_space_group_name_H-M "P -1"
_symmetry_group_IT_number 2
_symmetry_cell_setting 'triclinic'
loop_
_space_group_symop_operation_xyz
x,y,z
-x,-y,-z
loop_
_atom_site_type_symbol
_atom_site_label
_atom_site_fract_x
_atom_site_fract_y
_atom_site_fract_z
Si Si1 0.546587 0.220023 0.975021
Si Si2 0.864013 0.925624 0.541501
Si Si3 0.776094 0.609537 0.496992
Si Si4 0.935308 0.397559 0.899731
Si Si5 0.076648 0.282011 0.090573
Si Si6 0.158627 0.167461 0.849323
Si Si7 0.395005 0.900320 0.785179
O O1 0.628935 0.438640 0.730192
O O2 0.305980 0.218138 0.068093
O O3 0.602458 0.203523 0.052451
O O4 0.662095 0.998400 0.066612
O O5 0.909417 0.666068 0.703507
O O6 0.626350 0.951916 0.633697
O O7 0.000000 0.000000 0.500000
O O8 0.930654 0.081854 0.327017
O O9 0.753682 0.657425 0.381247
O O10 0.000000 0.500000 0.500000
O O11 0.734634 0.863918 0.348500
O O12 0.044492 0.298101 0.859812
O O13 0.715752 0.281234 0.081122
O O14 0.060551 0.332330 0.972091
O O15 0.000000 0.500000 0.000000
O O16 0.000000 0.000000 0.000000
#
# Coordination Sequence:
#
# PCOD9053840 Si02
#       7
#     2   2   2   2   2   2   2
#     4  11  22  41  71  96 140 181 217 275 343 395
#     4  12  25  45  71  94 140 184 221 277 344 392
#     4  11  20  37  72  99 134 174 220 270 345 386
#     4  12  25  43  71 101 137 174 229 281 330 402
#     4  12  26  45  67  99 138 178 228 279 333 403
#     4  11  22  44  65 101 140 170 221 284 330 399
#     4  11  23  43  70 103 134 176 229 279 331 400
#
# _framework density 19.944984000000002
#
# number of rings (size 3 to 8) (size 9 to 14) (size 15 to 20)
#    0.000    0.571    7.143    1.286    0.000    4.571 
#    0.000    1.429    0.000    0.000    0.000    0.000 
#    0.000    0.000    0.000    0.000    0.000    0.000 
#
# Total GULP energy -78232.137203 kJ/mol
# GULP energy per Si atom -5588.009800 kJ/mol
# Density = 1.989959 g / cm^3
# Si number density = 19.944984 Si / 1000 Ang^3
#
#
#
# Elastic Constant Matrix: (Units=GPa)
#
#
# Indices 1 2 3 4 5 6 
#
# 1 72.4354 42.8265 32.1128 -21.6981 -3.4644 -11.3114
# 2 42.8265 119.1948 55.2156 -18.3132 -10.6612 -11.9612
# 3 32.1128 55.2156 157.1998 -4.2162 11.6182 -2.6944
# 4 -21.6981 -18.3132 -4.2162 39.6544 0.6586 0.0747
# 5 -3.4644 -10.6612 11.6182 0.6586 29.0946 3.2636
# 6 -11.3114 -11.9612 -2.6944 0.0747 3.2636 32.0886
#
#
#
# Elastic Compliance Matrix: (Units=1/GPa)
#
#
# Indices 1 2 3 4 5 6 
#
# 1 0.021206 -0.004365 -0.002537 0.009289 0.001111 0.005500
# 2 -0.004365 0.012998 -0.003955 0.003098 0.005482 0.002410
# 3 -0.002537 -0.003955 0.008559 -0.002220 -0.004991 -0.001137
# 4 0.009289 0.003098 -0.002220 0.031455 0.001970 0.003969
# 5 0.001111 0.005482 -0.004991 0.001970 0.038676 -0.001922
# 6 0.005500 0.002410 -0.001137 0.003969 -0.001922 0.034091
#
#
# Mechanical properties :
#
#
# Convention : Reuss Voigt Hill
#
# Bulk Modulus (GPa) = 47.51047 67.68219 57.59633
# Shear Modulus (GPa) = 28.45516 34.74585 31.60050
#
# Velocity S-wave (km/s) = 3.78124 4.17836 3.98475
# Velocity P-wave (km/s) = 6.55257 7.56877 7.07893
#
# Compressibility (1/GPa) = 0.02104799
#
# Stress axis : x y z
#
# Youngs Moduli (GPa) = 47.15702 76.93455 116.84257
#
# Poissons Ratio (x) = 0.33584 0.29647
# Poissons Ratio (y) = 0.20585 0.46206
# Poissons Ratio (z) = 0.11966 0.30424
#
# Static dielectric constant tensor:
#      x y z
#    x 1.639090 0.024640 -0.024940 
#    y 0.024640 1.702170 0.028980 
#    z -0.024940 0.028980 1.688110 
# 
# From -- ./inp_files/561297.got.cif
#   From: 2010.05.17/outbox.cif.g08.bks.cpg/sg2_281_cif.got.tgz:561297.got - 2010.06.03 11:33:40.
