data_PCOD9053042
_publ_section_title
;
Structure prediction by ZEFSAII (Michael W. Deem and Ramdas Pophale) SiO2 
 PCOD9053042
Probable space group: P -1
;
_chemical_formula_sum "Si O2"
_cell_formula_units_Z 16
_cell_length_a 24.648676
_cell_length_b 12.973756
_cell_length_c 17.327948
_cell_angle_alpha 24.863682
_cell_angle_beta 19.768583
_cell_angle_gamma 28.346516
_cell_volume 774.469842
_symmetry_space_group_name_H-M "P -1"
_symmetry_group_IT_number 2
_symmetry_cell_setting 'triclinic'
loop_
_space_group_symop_operation_xyz
x,y,z
-x,-y,-z
loop_
_atom_site_type_symbol
_atom_site_label
_atom_site_fract_x
_atom_site_fract_y
_atom_site_fract_z
Si Si1 0.951957 0.003599 0.188281
Si Si2 0.190219 0.378872 0.833490
Si Si3 0.079709 0.271147 0.292018
Si Si4 0.885654 0.655635 0.383383
Si Si5 0.307352 0.540119 0.728061
Si Si6 0.207663 0.710308 0.450949
Si Si7 0.599440 0.642229 0.668184
Si Si8 0.738227 0.030336 0.102555
O O1 0.796879 0.179680 0.316245
O O2 0.901949 0.776652 0.361967
O O3 0.027362 0.176878 0.906997
O O4 0.098456 0.922480 0.107201
O O5 0.256996 0.408405 0.808006
O O6 0.268876 0.546750 0.554321
O O7 0.220289 0.104967 0.943092
O O8 0.000000 0.500000 0.000000
O O9 0.983187 0.375325 0.427166
O O10 0.948068 0.362771 0.336878
O O11 0.141619 0.983345 0.386386
O O12 0.236848 0.397584 0.988755
O O13 0.702016 0.666952 0.591336
O O14 0.500000 0.500000 0.500000
O O15 0.347378 0.634191 0.251445
O O16 0.667874 0.830501 0.388127
O O17 0.408037 0.737062 0.867221
#
# Coordination Sequence:
#
# PCOD9053042 Si02
#       8
#     2   2   2   2   2   2   2   2
#     4   9  16  29  45  69  97 130 163 203 245 291
#     4  11  18  33  52  77 100 132 171 205 250 299
#     4   9  17  34  54  78 101 133 168 206 252 294
#     4   8  15  27  47  69  97 126 164 200 244 295
#     4  11  22  33  50  77 106 133 165 207 254 300
#     4   9  17  32  58  77 100 129 170 214 244 294
#     4   8  15  27  45  75  94 121 164 209 245 280
#     4   9  16  27  47  70  99 123 163 211 243 286
#
# _framework density 20.659293000000002
#
# number of rings (size 3 to 8) (size 9 to 14) (size 15 to 20)
#    0.000    2.750    2.500    1.500    1.750    0.000 
#    6.750    0.625    0.000    3.000    0.000    0.000 
#    0.000    0.000    0.000    0.000    0.000    0.000 
#
# Total GULP energy -89179.051574 kJ/mol
# GULP energy per Si atom -5573.690723 kJ/mol
# Density = 2.061227 g / cm^3
# Si number density = 20.659293 Si / 1000 Ang^3
#
#
#
# Elastic Constant Matrix: (Units=GPa)
#
#
# Indices 1 2 3 4 5 6 
#
# 1 87.6447 61.9918 28.8088 13.7398 -27.0947 26.9247
# 2 61.9918 167.5231 46.2797 28.8487 -35.6073 29.6188
# 3 28.8088 46.2797 48.9253 25.0210 -21.9661 -1.9312
# 4 13.7398 28.8487 25.0210 36.1837 -11.7467 -5.0394
# 5 -27.0947 -35.6073 -21.9661 -11.7467 28.1549 -6.8691
# 6 26.9247 29.6188 -1.9312 -5.0394 -6.8691 30.9069
#
#
#
# Elastic Compliance Matrix: (Units=1/GPa)
#
#
# Indices 1 2 3 4 5 6 
#
# 1 0.023926 -0.000651 -0.008778 -0.001889 0.009964 -0.018861
# 2 -0.000651 0.011724 -0.006957 -0.004414 0.004279 -0.010872
# 3 -0.008778 -0.006957 0.050462 -0.016961 0.019703 0.019081
# 4 -0.001889 -0.004414 -0.016961 0.045882 0.001597 0.012652
# 5 0.009964 0.004279 0.019703 0.001597 0.067459 0.003704
# 6 -0.018861 -0.010872 0.019081 0.012652 0.003704 0.063283
#
#
# Mechanical properties :
#
#
# Convention : Reuss Voigt Hill
#
# Bulk Modulus (GPa) = 18.74775 64.25042 41.49908
# Shear Modulus (GPa) = 15.95972 30.18329 23.07150
#
# Velocity S-wave (km/s) = 2.78244 3.82645 3.34542
# Velocity P-wave (km/s) = 4.40648 7.11968 5.92060
#
# Compressibility (1/GPa) = 0.05333972
#
# Stress axis : x y z
#
# Youngs Moduli (GPa) = 41.79573 85.29470 19.81681
#
# Poissons Ratio (x) = 0.05554 0.17395
# Poissons Ratio (y) = 0.02721 0.13787
# Poissons Ratio (z) = 0.36687 0.59342
#
# Static dielectric constant tensor:
#      x y z
#    x 1.762620 0.003720 0.088310 
#    y 0.003720 1.790860 -0.024710 
#    z 0.088310 -0.024710 1.813010 
# 
# From -- ./inp_files/243563.got.cif
#   From: 2010.05.17/outbox.cif.g08.bks.cpg/sg2_122_cif.got.tgz:243563.got - 2010.06.03 11:33:40.
