data_PCOD9053319
_publ_section_title
;
Structure prediction by ZEFSAII (Michael W. Deem and Ramdas Pophale) SiO2 
 PCOD9053319
Probable space group: P -1
;
_chemical_formula_sum "Si O2"
_cell_formula_units_Z 16
_cell_length_a 10.759645
_cell_length_b 13.745736
_cell_length_c 9.399944
_cell_angle_alpha 147.939611
_cell_angle_beta 84.032992
_cell_angle_gamma 107.168311
_cell_volume 675.143574
_symmetry_space_group_name_H-M "P -1"
_symmetry_group_IT_number 2
_symmetry_cell_setting 'triclinic'
loop_
_space_group_symop_operation_xyz
x,y,z
-x,-y,-z
loop_
_atom_site_type_symbol
_atom_site_label
_atom_site_fract_x
_atom_site_fract_y
_atom_site_fract_z
Si Si1 0.984946 0.376784 0.708666
Si Si2 0.619924 0.819344 0.340243
Si Si3 0.922084 0.850901 0.954624
Si Si4 0.281465 0.973644 0.683732
Si Si5 0.475549 0.812128 0.866042
Si Si6 0.471425 0.424012 0.685843
Si Si7 0.084771 0.049817 0.408006
Si Si8 0.767089 0.483349 0.321605
O O1 0.050409 0.216868 0.536954
O O2 0.095897 0.519353 0.765088
O O3 0.824473 0.251075 0.540988
O O4 0.000000 0.500000 0.000000
O O5 0.530136 0.739142 0.394764
O O6 0.763431 0.865711 0.453385
O O7 0.655341 0.005986 0.457779
O O8 0.565348 0.631519 0.006076
O O9 0.829133 0.646677 0.639912
O O10 0.819244 0.911860 0.138687
O O11 0.000000 0.000000 0.000000
O O12 0.039295 0.870054 0.077346
O O13 0.403508 0.096606 0.923682
O O14 0.482733 0.640910 0.547981
O O15 0.334647 0.722734 0.855616
O O16 0.500000 0.000000 0.000000
O O17 0.331129 0.450427 0.689679
O O18 0.000000 0.000000 0.500000
#
# Coordination Sequence:
#
# PCOD9053319 Si02
#       8
#     2   2   2   2   2   2   2   2
#     4  11  25  42  65  99 138 173 216 273 345 398
#     4  11  21  38  67 106 127 169 226 277 326 389
#     4  11  19  36  70 102 127 169 226 280 325 383
#     4  11  22  43  67  97 137 175 216 280 337 398
#     4  12  28  46  64  99 138 181 225 274 340 404
#     4  11  23  40  72  99 130 171 232 275 323 401
#     4  11  21  37  64 100 135 167 220 271 327 397
#     4  12  22  45  72  99 130 183 229 279 329 395
#
# _framework density 23.698661999999999
#
# number of rings (size 3 to 8) (size 9 to 14) (size 15 to 20)
#    0.000    0.750    8.750    1.125    0.000    2.000 
#    0.000    1.875    0.000    0.000    0.000    0.000 
#    0.000    0.000    0.000    0.000    0.000    0.000 
#
# Total GULP energy -89202.851104 kJ/mol
# GULP energy per Si atom -5575.178194 kJ/mol
# Density = 2.364472 g / cm^3
# Si number density = 23.698662 Si / 1000 Ang^3
#
#
#
# Elastic Constant Matrix: (Units=GPa)
#
#
# Indices 1 2 3 4 5 6 
#
# 1 37.9976 36.1804 57.4251 8.0549 27.5694 9.2037
# 2 36.1804 164.2184 28.5731 -0.2738 16.0867 21.0860
# 3 57.4251 28.5731 137.9890 -12.4092 67.6823 12.5921
# 4 8.0549 -0.2738 -12.4092 38.7821 4.9048 12.7046
# 5 27.5694 16.0867 67.6823 4.9048 40.3815 4.3558
# 6 9.2037 21.0860 12.5921 12.7046 4.3558 43.8219
#
#
#
# Elastic Compliance Matrix: (Units=1/GPa)
#
#
# Indices 1 2 3 4 5 6 
#
# 1 -0.267415 0.055842 0.367420 0.268774 -0.476620 -0.106830
# 2 0.055842 -0.004729 -0.072760 -0.052076 0.090138 0.017593
# 3 0.367420 -0.072760 -0.400871 -0.302286 0.474499 0.113505
# 4 0.268774 -0.052076 -0.302286 -0.197864 0.359618 0.077088
# 5 -0.476620 0.090138 0.474499 0.359618 -0.510357 -0.133146
# 6 -0.106830 0.017593 0.113505 0.077088 -0.133146 -0.004938
#
#
# Mechanical properties :
#
#
# Convention : Reuss Voigt Hill
#
# Bulk Modulus (GPa) = 35.72759 64.95136 50.33948
# Shear Modulus (GPa) = -2.40634 39.13218 18.36292
#
# Velocity S-wave (km/s) = -1.00876 4.06795 2.78663
# Velocity P-wave (km/s) = 3.70833 7.03783 5.62507
#
# Compressibility (1/GPa) = 0.02798957
#
# Stress axis : x y z
#
# Youngs Moduli (GPa) = -3.73951 -211.44476 -2.49457
#
# Poissons Ratio (x) = 11.80750 0.91656
# Poissons Ratio (y) = 0.20882 -0.18151
# Poissons Ratio (z) = 1.37397 -15.38475
#
# Static dielectric constant tensor:
#      x y z
#    x 1.910180 0.015700 0.026200 
#    y 0.015700 2.042270 0.013940 
#    z 0.026200 0.013940 1.910690 
# 
# From -- ./inp_files/274649.got.cif
#   From: 2010.05.17/outbox.cif.g08.bks.cpg/sg2_138_cif.got.tgz:274649.got - 2010.06.03 11:33:40.
