data_PCOD9053504
_publ_section_title
;
Structure prediction by ZEFSAII (Michael W. Deem and Ramdas Pophale) SiO2 
 PCOD9053504
Probable space group: P -1
;
_chemical_formula_sum "Si O2"
_cell_formula_units_Z 16
_cell_length_a 14.098631
_cell_length_b 11.269699
_cell_length_c 8.230764
_cell_angle_alpha 77.406011
_cell_angle_beta 112.032178
_cell_angle_gamma 148.744216
_cell_volume 614.504603
_symmetry_space_group_name_H-M "P -1"
_symmetry_group_IT_number 2
_symmetry_cell_setting 'triclinic'
loop_
_space_group_symop_operation_xyz
x,y,z
-x,-y,-z
loop_
_atom_site_type_symbol
_atom_site_label
_atom_site_fract_x
_atom_site_fract_y
_atom_site_fract_z
Si Si1 0.534267 0.809263 0.799523
Si Si2 0.295152 0.616940 0.384114
Si Si3 0.896468 0.826913 0.731679
Si Si4 0.235499 0.121730 0.645743
Si Si5 0.683483 0.268416 0.093055
Si Si6 0.385529 0.380543 0.134473
Si Si7 0.895289 0.320827 0.789659
Si Si8 0.733064 0.104412 0.401821
O O1 0.378800 0.692100 0.597974
O O2 0.408320 0.697102 0.916897
O O3 0.615397 0.765146 0.800054
O O4 0.720197 0.086897 0.855369
O O5 0.206510 0.399577 0.335463
O O6 0.148458 0.580957 0.287004
O O7 0.496981 0.853619 0.348725
O O8 0.846015 0.887743 0.559680
O O9 0.817836 0.772837 0.878282
O O10 0.125729 0.041474 0.769284
O O11 0.457871 0.391944 0.718418
O O12 0.209378 0.953206 0.648933
O O13 0.768459 0.269068 0.291966
O O14 0.887840 0.492683 0.062469
O O15 0.500000 0.000000 0.000000
O O16 0.500000 0.500000 0.000000
O O17 0.842547 0.210047 0.612812
#
# Coordination Sequence:
#
# PCOD9053504 Si02
#       8
#     2   2   2   2   2   2   2   2
#     4  11  24  44  68 101 135 182 238 292 352 421
#     4  11  19  41  74 103 135 176 239 308 351 402
#     4  11  23  42  70 105 136 181 246 296 348 413
#     4  11  24  41  73 105 138 185 239 301 349 409
#     4  12  27  42  66 101 144 183 223 283 368 441
#     4  12  27  46  68  98 150 193 231 289 361 432
#     4  11  23  43  72 104 135 179 236 299 351 418
#     4  11  21  41  71 103 138 179 237 291 352 416
#
# _framework density 26.037233000000001
#
# number of rings (size 3 to 8) (size 9 to 14) (size 15 to 20)
#    0.000    0.750    5.000    3.750    3.500    2.000 
#    0.000    0.000    0.000    0.000    0.000    0.000 
#    0.000    0.000    0.000    0.000    0.000    0.000 
#
# Total GULP energy -89516.243652 kJ/mol
# GULP energy per Si atom -5594.765228 kJ/mol
# Density = 2.597797 g / cm^3
# Si number density = 26.037233 Si / 1000 Ang^3
#
#
#
# Elastic Constant Matrix: (Units=GPa)
#
#
# Indices 1 2 3 4 5 6 
#
# 1 179.2066 53.6155 18.8346 14.4629 -22.3123 7.3731
# 2 53.6155 123.3950 24.6764 32.1822 1.5430 9.8433
# 3 18.8346 24.6764 48.9351 5.1985 -13.4391 19.5519
# 4 14.4629 32.1822 5.1985 38.9077 7.3474 12.6424
# 5 -22.3123 1.5430 -13.4391 7.3474 21.9998 -5.9845
# 6 7.3731 9.8433 19.5519 12.6424 -5.9845 48.4071
#
#
#
# Elastic Compliance Matrix: (Units=1/GPa)
#
#
# Indices 1 2 3 4 5 6 
#
# 1 0.007820 -0.003158 0.001278 -0.002646 0.010054 0.000869
# 2 -0.003158 0.012856 -0.006511 -0.008384 -0.004710 0.002104
# 3 0.001278 -0.006511 0.032191 0.000192 0.018740 -0.009606
# 4 -0.002646 -0.008384 0.000192 0.040619 -0.018500 -0.010865
# 5 0.010054 -0.004710 0.018740 -0.018500 0.075238 0.005990
# 6 0.000869 0.002104 -0.009606 -0.010865 0.005990 0.027556
#
#
# Mechanical properties :
#
#
# Convention : Reuss Voigt Hill
#
# Bulk Modulus (GPa) = 27.71273 60.64329 44.17801
# Shear Modulus (GPa) = 22.21325 38.82359 30.51842
#
# Velocity S-wave (km/s) = 2.92401 3.86564 3.42732
# Velocity P-wave (km/s) = 4.69749 6.57767 5.71543
#
# Compressibility (1/GPa) = 0.03608450
#
# Stress axis : x y z
#
# Youngs Moduli (GPa) = 127.87147 77.78422 31.06465
#
# Poissons Ratio (x) = 0.24567 -0.03969
# Poissons Ratio (y) = 0.40386 0.20225
# Poissons Ratio (z) = -0.16337 0.50643
#
# Static dielectric constant tensor:
#      x y z
#    x 2.023150 0.044200 -0.005450 
#    y 0.044200 2.050990 -0.055380 
#    z -0.005450 -0.055380 2.088750 
# 
# From -- ./inp_files/307385.got.cif
#   From: 2010.05.17/outbox.cif.g08.bks.cpg/sg2_154_cif.got.tgz:307385.got - 2010.06.03 11:33:40.
