data_PCOD9053983
_publ_section_title
;
Structure prediction by ZEFSAII (Michael W. Deem and Ramdas Pophale) SiO2 
 PCOD9053983
Probable space group: P -1
;
_chemical_formula_sum "Si O2"
_cell_formula_units_Z 14
_cell_length_a 11.860423
_cell_length_b 11.222787
_cell_length_c 19.888950
_cell_angle_alpha 45.054443
_cell_angle_beta 156.416089
_cell_angle_gamma 122.273036
_cell_volume 686.846260
_symmetry_space_group_name_H-M "P -1"
_symmetry_group_IT_number 2
_symmetry_cell_setting 'triclinic'
loop_
_space_group_symop_operation_xyz
x,y,z
-x,-y,-z
loop_
_atom_site_type_symbol
_atom_site_label
_atom_site_fract_x
_atom_site_fract_y
_atom_site_fract_z
Si Si1 0.006108 0.152691 0.846024
Si Si2 0.117402 0.217380 0.388441
Si Si3 0.531977 0.292422 0.106872
Si Si4 0.605893 0.246515 0.725229
Si Si5 0.536097 0.180119 0.306041
Si Si6 0.414725 0.821112 0.522938
Si Si7 0.877093 0.495225 0.830799
O O1 0.773715 0.226357 0.752680
O O2 0.825557 0.165908 0.672588
O O3 0.237718 0.255693 0.937032
O O4 0.210594 0.938815 0.059617
O O5 0.267160 0.261592 0.518844
O O6 0.047052 0.385199 0.232505
O O7 0.822822 0.180817 0.263130
O O8 0.375364 0.035749 0.569421
O O9 0.597571 0.239011 0.242384
O O10 0.500000 0.500000 0.000000
O O11 0.619649 0.423436 0.696360
O O12 0.702185 0.196740 0.458795
O O13 0.180776 0.307953 0.076451
O O14 0.723698 0.640437 0.747826
O O15 0.500000 0.000000 0.500000
#
# Coordination Sequence:
#
# PCOD9053983 Si02
#       7
#     2   2   2   2   2   2   2
#     4  11  23  42  69 105 137 177 229 286 336 402
#     4  12  23  42  72 100 140 176 227 287 342 390
#     4  12  25  44  73 100 139 183 236 279 336 406
#     4  11  20  39  68 105 134 170 236 290 326 396
#     4  12  24  45  66  99 139 183 224 276 346 407
#     4  12  25  43  69 102 145 179 219 285 353 405
#     4  12  23  40  73 103 133 178 234 280 345 405
#
# _framework density 20.383018
#
# number of rings (size 3 to 8) (size 9 to 14) (size 15 to 20)
#    0.000    0.286    7.143    3.000    2.000    0.000 
#    0.000    1.429    0.000    0.000    0.000    0.000 
#    0.000    0.000    0.000    0.000    0.000    0.000 
#
# Total GULP energy -78199.705590 kJ/mol
# GULP energy per Si atom -5585.693256 kJ/mol
# Density = 2.033662 g / cm^3
# Si number density = 20.383018 Si / 1000 Ang^3
#
#
#
# Elastic Constant Matrix: (Units=GPa)
#
#
# Indices 1 2 3 4 5 6 
#
# 1 73.7364 50.0991 31.7227 9.3369 -16.0347 -15.3301
# 2 50.0991 133.6348 51.8489 1.1098 -0.4685 -9.6867
# 3 31.7227 51.8489 90.9951 3.5004 -4.0408 -3.5738
# 4 9.3369 1.1098 3.5004 31.6197 -6.3490 10.7649
# 5 -16.0347 -0.4685 -4.0408 -6.3490 35.6337 0.5577
# 6 -15.3301 -9.6867 -3.5738 10.7649 0.5577 27.0524
#
#
#
# Elastic Compliance Matrix: (Units=1/GPa)
#
#
# Indices 1 2 3 4 5 6 
#
# 1 0.027015 -0.007369 -0.003736 -0.010980 0.009424 0.016352
# 2 -0.007369 0.011857 -0.004460 0.002021 -0.003286 -0.001256
# 3 -0.003736 -0.004460 0.014750 0.000266 0.000009 -0.001872
# 4 -0.010980 0.002021 0.000266 0.043126 0.003155 -0.022689
# 5 0.009424 -0.003286 0.000009 0.003155 0.032789 0.002233
# 6 0.016352 -0.001256 -0.001872 -0.022689 0.002233 0.054517
#
#
# Mechanical properties :
#
#
# Convention : Reuss Voigt Hill
#
# Bulk Modulus (GPa) = 44.46063 62.85640 53.65851
# Shear Modulus (GPa) = 22.45372 29.84086 26.14729
#
# Velocity S-wave (km/s) = 3.32262 3.83038 3.58550
# Velocity P-wave (km/s) = 6.04811 7.10402 6.59722
#
# Compressibility (1/GPa) = 0.02249181
#
# Stress axis : x y z
#
# Youngs Moduli (GPa) = 37.01661 84.34070 67.79603
#
# Poissons Ratio (x) = 0.62148 0.25330
# Poissons Ratio (y) = 0.27276 0.30237
# Poissons Ratio (z) = 0.13830 0.37616
#
# Static dielectric constant tensor:
#      x y z
#    x 1.745320 -0.007830 -0.006270 
#    y -0.007830 1.710030 -0.011930 
#    z -0.006270 -0.011930 1.809960 
# 
# From -- ./inp_files/518705.got.cif
#   From: 2010.05.17/outbox.cif.g08.bks.cpg/sg2_260_cif.got.tgz:518705.got - 2010.06.03 11:33:40.
