data_PCOD9053860
_publ_section_title
;
Structure prediction by ZEFSAII (Michael W. Deem and Ramdas Pophale) SiO2 
 PCOD9053860
Probable space group: P -1
;
_chemical_formula_sum "Si O2"
_cell_formula_units_Z 16
_cell_length_a 7.770384
_cell_length_b 7.775852
_cell_length_c 15.852285
_cell_angle_alpha 91.631136
_cell_angle_beta 58.666870
_cell_angle_gamma 66.502778
_cell_volume 715.487969
_symmetry_space_group_name_H-M "P -1"
_symmetry_group_IT_number 2
_symmetry_cell_setting 'triclinic'
loop_
_space_group_symop_operation_xyz
x,y,z
-x,-y,-z
loop_
_atom_site_type_symbol
_atom_site_label
_atom_site_fract_x
_atom_site_fract_y
_atom_site_fract_z
Si Si1 0.024941 0.675803 0.654106
Si Si2 0.575012 0.702188 0.446398
Si Si3 0.561556 0.858878 0.092007
Si Si4 0.682251 0.859235 0.250053
Si Si5 0.775767 0.777416 0.566390
Si Si6 0.825607 0.267284 0.814580
Si Si7 0.291624 0.302169 0.118845
Si Si8 0.043990 0.036385 0.594173
O O1 0.297818 0.535420 0.587356
O O2 0.940795 0.902189 0.657132
O O3 0.912858 0.621303 0.602216
O O4 0.921678 0.660490 0.767778
O O5 0.647942 0.744799 0.336493
O O6 0.694934 0.740011 0.496876
O O7 0.312921 0.870340 0.526233
O O8 0.645223 0.799819 0.165394
O O9 0.343807 0.822974 0.129404
O O10 0.489634 0.088299 0.097982
O O11 0.738616 0.730547 0.972031
O O12 0.938202 0.831545 0.192507
O O13 0.467209 0.074676 0.325286
O O14 0.951486 0.859710 0.493549
O O15 0.688527 0.501404 0.869976
O O16 0.927886 0.215512 0.692800
#
# Coordination Sequence:
#
# PCOD9053860 Si02
#       8
#     2   2   2   2   2   2   2   2
#     4  12  22  39  64  97 132 177 224 273 326 398
#     4  11  22  39  61  95 135 171 220 272 324 401
#     4  11  26  47  70  98 135 176 223 285 333 389
#     4  11  21  42  70  94 136 175 221 274 335 396
#     4  11  20  38  62  91 131 179 216 265 334 393
#     4  12  22  45  72  97 136 176 219 276 337 397
#     4  11  24  45  70  98 135 171 232 280 327 398
#     4  11  21  38  62  93 136 175 214 269 334 395
#
# _framework density 22.362362999999998
#
# number of rings (size 3 to 8) (size 9 to 14) (size 15 to 20)
#    0.000    0.750    6.250    2.250    0.000    1.500 
#    0.000    6.250    2.750    0.000    0.000    0.000 
#    0.000    0.000    0.000    0.000    0.000    0.000 
#
# Total GULP energy -89086.810124 kJ/mol
# GULP energy per Si atom -5567.925633 kJ/mol
# Density = 2.231147 g / cm^3
# Si number density = 22.362363 Si / 1000 Ang^3
#
#
#
# Elastic Constant Matrix: (Units=GPa)
#
#
# Indices 1 2 3 4 5 6 
#
# 1 64.6784 21.8689 32.2936 -31.0108 -17.7599 -13.4859
# 2 21.8689 93.7819 38.7813 8.2066 9.6216 -8.9752
# 3 32.2936 38.7813 147.6187 -26.5121 26.3357 -9.8599
# 4 -31.0108 8.2066 -26.5121 -12.1045 -19.5698 0.1162
# 5 -17.7599 9.6216 26.3357 -19.5698 1.1145 0.7180
# 6 -13.4859 -8.9752 -9.8599 0.1162 0.7180 29.9508
#
#
#
# Elastic Compliance Matrix: (Units=1/GPa)
#
#
# Indices 1 2 3 4 5 6 
#
# 1 0.010991 0.001532 -0.005957 -0.017006 0.001835 0.003469
# 2 0.001532 0.011999 -0.006202 -0.003032 0.012893 0.001946
# 3 -0.005957 -0.006202 0.023768 0.031930 -0.045086 0.004241
# 4 -0.017006 -0.003032 0.031930 0.051345 -0.100414 0.004154
# 5 0.001835 0.012893 -0.045086 -0.100414 0.125613 -0.012774
# 6 0.003469 0.001946 0.004241 0.004154 -0.012774 0.037220
#
#
# Mechanical properties :
#
#
# Convention : Reuss Voigt Hill
#
# Bulk Modulus (GPa) = 39.20871 54.66295 46.93583
# Shear Modulus (GPa) = 17.20038 18.00116 17.60077
#
# Velocity S-wave (km/s) = 2.77639 2.84029 2.80852
# Velocity P-wave (km/s) = 5.27724 5.93747 5.61706
#
# Compressibility (1/GPa) = 0.02550454
#
# Stress axis : x y z
#
# Youngs Moduli (GPa) = 90.98434 83.33787 42.07326
#
# Poissons Ratio (x) = -0.12769 0.25062
# Poissons Ratio (y) = -0.13940 0.26095
# Poissons Ratio (z) = 0.54197 0.51688
#
# Static dielectric constant tensor:
#      x y z
#    x 1.976450 0.131690 0.052650 
#    y 0.131690 1.913040 0.036470 
#    z 0.052650 0.036470 1.843180 
# 
# From -- ./inp_files/201334.got.cif
#   From: 2010.05.17/outbox.cif.g08.bks.cpg/sg2_101_cif.got.tgz:201334.got - 2010.06.03 11:33:40.
