data_PCOD9053516
_publ_section_title
;
Structure prediction by ZEFSAII (Michael W. Deem and Ramdas Pophale) SiO2 
 PCOD9053516
Probable space group: P -1
;
_chemical_formula_sum "Si O2"
_cell_formula_units_Z 14
_cell_length_a 27.335376
_cell_length_b 6.459417
_cell_length_c 8.773183
_cell_angle_alpha 57.850136
_cell_angle_beta 32.095202
_cell_angle_gamma 50.466388
_cell_volume 634.699953
_symmetry_space_group_name_H-M "P -1"
_symmetry_group_IT_number 2
_symmetry_cell_setting 'triclinic'
loop_
_space_group_symop_operation_xyz
x,y,z
-x,-y,-z
loop_
_atom_site_type_symbol
_atom_site_label
_atom_site_fract_x
_atom_site_fract_y
_atom_site_fract_z
Si Si1 0.293975 0.076592 0.261661
Si Si2 0.892829 0.485823 0.277441
Si Si3 0.040116 0.071155 0.525161
Si Si4 0.466886 0.769376 0.731266
Si Si5 0.572221 0.714976 0.994778
Si Si6 0.658756 0.490624 0.538828
Si Si7 0.143737 0.452782 0.011311
O O1 0.181468 0.291634 0.497180
O O2 0.309190 0.827718 0.431237
O O3 0.364331 0.224090 0.067464
O O4 0.348169 0.931131 0.021673
O O5 0.905521 0.196084 0.414996
O O6 0.859182 0.534797 0.170536
O O7 0.000000 0.500000 0.000000
O O8 0.114988 0.212488 0.234351
O O9 0.944535 0.279932 0.790377
O O10 0.000000 0.000000 0.500000
O O11 0.475251 0.489728 0.744287
O O12 0.547069 0.644598 0.706131
O O13 0.500000 0.000000 0.500000
O O14 0.646055 0.568035 0.718937
O O15 0.500000 0.000000 0.000000
O O16 0.747668 0.565187 0.213155
#
# Coordination Sequence:
#
# PCOD9053516 Si02
#       7
#     2   2   2   2   2   2   2
#     4  11  23  42  67  96 126 179 227 274 334 420
#     4  12  24  45  72  98 135 184 235 283 349 415
#     4  11  25  46  66 100 140 176 231 287 345 420
#     4  11  25  41  62 103 140 170 219 287 344 407
#     4  11  19  42  69  87 125 176 222 261 328 409
#     4  11  22  41  68  95 130 171 225 277 339 406
#     4  11  25  44  71  99 135 184 226 290 354 402
#
# _framework density 22.057666999999999
#
# number of rings (size 3 to 8) (size 9 to 14) (size 15 to 20)
#    0.000    0.857    5.714    2.143    0.000    2.857 
#    2.571    0.000    0.000    0.000    0.000    0.000 
#    0.000    0.000    0.000    0.000    0.000    0.000 
#
# Total GULP energy -78120.725915 kJ/mol
# GULP energy per Si atom -5580.051851 kJ/mol
# Density = 2.200746 g / cm^3
# Si number density = 22.057667 Si / 1000 Ang^3
#
#
#
# Elastic Constant Matrix: (Units=GPa)
#
#
# Indices 1 2 3 4 5 6 
#
# 1 31.4610 9.5610 12.5425 -5.9079 -9.0599 5.7580
# 2 9.5610 172.7947 69.3320 -19.2276 -5.6223 -2.8645
# 3 12.5425 69.3320 126.1944 -7.4044 -17.8572 -9.5136
# 4 -5.9079 -19.2276 -7.4044 40.5223 -0.0770 -3.8822
# 5 -9.0599 -5.6223 -17.8572 -0.0770 25.6041 -5.2464
# 6 5.7580 -2.8645 -9.5136 -3.8822 -5.2464 31.8675
#
#
#
# Elastic Compliance Matrix: (Units=1/GPa)
#
#
# Indices 1 2 3 4 5 6 
#
# 1 0.037620 -0.000493 -0.002085 0.004395 0.010704 -0.005167
# 2 -0.000493 0.007804 -0.004326 0.002798 -0.001555 -0.000416
# 3 -0.002085 -0.004326 0.011977 0.000313 0.007663 0.004863
# 4 0.004395 0.002798 0.000313 0.027031 0.003158 0.003364
# 5 0.010704 -0.001555 0.007663 0.003158 0.049654 0.008773
# 6 -0.005167 -0.000416 0.004863 0.003364 0.008773 0.035582
#
#
# Mechanical properties :
#
#
# Convention : Reuss Voigt Hill
#
# Bulk Modulus (GPa) = 22.93931 57.03568 39.98749
# Shear Modulus (GPa) = 25.25148 35.53308 30.39228
#
# Velocity S-wave (km/s) = 3.38715 4.01798 3.71597
# Velocity P-wave (km/s) = 5.07142 6.88761 6.04808
#
# Compressibility (1/GPa) = 0.04359329
#
# Stress axis : x y z
#
# Youngs Moduli (GPa) = 26.58170 128.13931 83.49011
#
# Poissons Ratio (x) = 0.06321 0.17408
# Poissons Ratio (y) = 0.01311 0.36115
# Poissons Ratio (z) = 0.05542 0.55429
#
# Static dielectric constant tensor:
#      x y z
#    x 1.826110 0.018490 0.028600 
#    y 0.018490 1.877860 0.004410 
#    z 0.028600 0.004410 1.874940 
# 
# From -- ./inp_files/89633.got.cif
#   From: 2010.05.17/outbox.cif.g08.bks.cpg/sg2_45_cif.got.tgz:89633.got - 2010.06.03 11:33:40.
