data_PCOD9053947
_publ_section_title
;
Structure prediction by ZEFSAII (Michael W. Deem and Ramdas Pophale) SiO2 
 PCOD9053947
Probable space group: P -1
;
_chemical_formula_sum "Si O2"
_cell_formula_units_Z 14
_cell_length_a 11.659113
_cell_length_b 17.958314
_cell_length_c 8.668317
_cell_angle_alpha 73.980996
_cell_angle_beta 102.506851
_cell_angle_gamma 158.305688
_cell_volume 640.785594
_symmetry_space_group_name_H-M "P -1"
_symmetry_group_IT_number 2
_symmetry_cell_setting 'triclinic'
loop_
_space_group_symop_operation_xyz
x,y,z
-x,-y,-z
loop_
_atom_site_type_symbol
_atom_site_label
_atom_site_fract_x
_atom_site_fract_y
_atom_site_fract_z
Si Si1 0.399159 0.721265 0.675855
Si Si2 0.805235 0.544265 0.414420
Si Si3 0.236934 0.072299 0.018170
Si Si4 0.849781 0.484751 0.773212
Si Si5 0.212868 0.350011 0.897439
Si Si6 0.185989 0.797457 0.924267
Si Si7 0.505166 0.937525 0.405718
O O1 0.406951 0.648788 0.620126
O O2 0.543251 0.878763 0.528616
O O3 0.049203 0.538895 0.718070
O O4 0.586405 0.825882 0.826664
O O5 0.799828 0.521789 0.608401
O O6 0.732658 0.583868 0.297670
O O7 0.156907 0.736254 0.355591
O O8 0.514216 0.254178 0.870751
O O9 0.000000 0.000000 0.000000
O O10 0.041070 0.873867 0.049510
O O11 0.075631 0.653564 0.881376
O O12 0.500000 0.500000 0.000000
O O13 0.084740 0.344735 0.958694
O O14 0.242364 0.892026 0.747650
O O15 0.500000 0.000000 0.000000
O O16 0.500000 0.000000 0.500000
#
# Coordination Sequence:
#
# PCOD9053947 Si02
#       7
#     2   2   2   2   2   2   2
#     4  11  23  41  70  98 138 170 222 273 332 386
#     4  11  23  43  68  98 139 169 223 273 330 389
#     4  12  27  47  67  95 135 174 223 275 333 396
#     4  11  24  44  69 103 133 175 221 275 330 388
#     4  12  27  47  68  95 133 180 221 271 334 402
#     4  12  23  39  71 100 137 173 224 268 334 389
#     4  11  20  39  64 103 134 173 217 277 325 387
#
# _framework density 21.848179999999999
#
# number of rings (size 3 to 8) (size 9 to 14) (size 15 to 20)
#    0.000    0.571    4.286    6.429    4.000    0.000 
#    2.571    2.857    0.000    0.000    0.000    0.000 
#    0.000    0.000    0.000    0.000    0.000    0.000 
#
# Total GULP energy -78221.478211 kJ/mol
# GULP energy per Si atom -5587.248444 kJ/mol
# Density = 2.179845 g / cm^3
# Si number density = 21.848180 Si / 1000 Ang^3
#
#
#
# Elastic Constant Matrix: (Units=GPa)
#
#
# Indices 1 2 3 4 5 6 
#
# 1 51.3456 20.2078 23.4094 5.3798 10.4628 -13.6239
# 2 20.2078 104.4942 53.1380 7.1356 9.4820 -19.6199
# 3 23.4094 53.1380 149.4116 0.6932 24.7681 -2.0416
# 4 5.3798 7.1356 0.6932 38.2562 -5.8254 5.1428
# 5 10.4628 9.4820 24.7681 -5.8254 35.6080 8.4028
# 6 -13.6239 -19.6199 -2.0416 5.1428 8.4028 39.5628
#
#
#
# Elastic Compliance Matrix: (Units=1/GPa)
#
#
# Indices 1 2 3 4 5 6 
#
# 1 0.026518 -0.000453 -0.002130 -0.006729 -0.010078 0.011812
# 2 -0.000453 0.013765 -0.004197 -0.003915 -0.003049 0.007610
# 3 -0.002130 -0.004197 0.009196 0.000476 -0.004220 -0.001506
# 4 -0.006729 -0.003915 0.000476 0.030753 0.010172 -0.010392
# 5 -0.010078 -0.003049 -0.004220 0.010172 0.040000 -0.015018
# 6 0.011812 0.007610 -0.001506 -0.010392 -0.015018 0.037581
#
#
# Mechanical properties :
#
#
# Convention : Reuss Voigt Hill
#
# Bulk Modulus (GPa) = 27.84091 55.41799 41.62945
# Shear Modulus (GPa) = 27.27072 36.58512 31.92792
#
# Velocity S-wave (km/s) = 3.53681 4.09652 3.82691
# Velocity P-wave (km/s) = 5.42672 6.91343 6.21469
#
# Compressibility (1/GPa) = 0.03591837
#
# Stress axis : x y z
#
# Youngs Moduli (GPa) = 37.70982 72.65008 108.74270
#
# Poissons Ratio (x) = 0.03292 0.23167
# Poissons Ratio (y) = 0.01708 0.45636
# Poissons Ratio (z) = 0.08034 0.30489
#
# Static dielectric constant tensor:
#      x y z
#    x 1.794210 -0.434850 -0.033980 
#    y -0.434850 19.318970 2.304880 
#    z -0.033980 2.304880 2.160520 
# 
# From -- ./inp_files/239647.got.cif
#   From: 2010.05.17/outbox.cif.g08.bks.cpg/sg2_120_cif.got.tgz:239647.got - 2010.06.03 11:33:40.
