data_PCOD9053801
_publ_section_title
;
Structure prediction by ZEFSAII (Michael W. Deem and Ramdas Pophale) SiO2 
 PCOD9053801
Probable space group: P -1
;
_chemical_formula_sum "Si O2"
_cell_formula_units_Z 16
_cell_length_a 8.978968
_cell_length_b 10.941715
_cell_length_c 10.932867
_cell_angle_alpha 121.356868
_cell_angle_beta 116.033956
_cell_angle_gamma 66.609367
_cell_volume 804.011712
_symmetry_space_group_name_H-M "P -1"
_symmetry_group_IT_number 2
_symmetry_cell_setting 'triclinic'
loop_
_space_group_symop_operation_xyz
x,y,z
-x,-y,-z
loop_
_atom_site_type_symbol
_atom_site_label
_atom_site_fract_x
_atom_site_fract_y
_atom_site_fract_z
Si Si1 0.858946 0.578942 0.895056
Si Si2 0.487881 0.761964 0.909080
Si Si3 0.139728 0.657303 0.711745
Si Si4 0.485703 0.962225 0.772488
Si Si5 0.043513 0.125067 0.911181
Si Si6 0.839123 0.932772 0.820359
Si Si7 0.133958 0.089022 0.641455
Si Si8 0.010471 0.603928 0.374374
O O1 0.668595 0.643654 0.908178
O O2 0.863243 0.474296 0.726608
O O3 0.939132 0.716110 0.959332
O O4 0.000000 0.500000 0.000000
O O5 0.322731 0.692199 0.825129
O O6 0.473068 0.852313 0.822447
O O7 0.502287 0.881266 0.080709
O O8 0.113947 0.636455 0.546746
O O9 0.987723 0.796299 0.763878
O O10 0.103497 0.511168 0.686704
O O11 0.655323 0.900677 0.725442
O O12 0.112770 0.104731 0.789308
O O13 0.322386 0.994134 0.644884
O O14 0.867472 0.074102 0.830252
O O15 0.147786 0.032630 0.011464
O O16 0.098047 0.245900 0.644035
O O17 0.000000 0.000000 0.500000
#
# Coordination Sequence:
#
# PCOD9053801 Si02
#       8
#     2   2   2   2   2   2   2   2
#     4  12  22  42  65  92 130 166 212 260 313 379
#     4  11  21  38  65  95 124 165 214 261 307 378
#     4  11  24  42  65  93 128 170 210 261 318 371
#     4  11  20  37  64  97 125 161 218 258 307 374
#     4  11  20  38  63  93 122 167 208 254 315 365
#     4  11  21  38  67  95 124 164 218 261 303 373
#     4  12  24  43  64  93 131 167 207 264 322 372
#     4  11  24  43  63  90 133 169 206 258 323 374
#
# _framework density 19.900207000000002
#
# number of rings (size 3 to 8) (size 9 to 14) (size 15 to 20)
#    0.000    0.750    5.000    4.500    0.000    0.500 
#    2.250    6.250    0.000    0.000    0.000    0.000 
#    0.000    0.000    0.000    0.000    0.000    0.000 
#
# Total GULP energy -89299.129297 kJ/mol
# GULP energy per Si atom -5581.195581 kJ/mol
# Density = 1.985491 g / cm^3
# Si number density = 19.900207 Si / 1000 Ang^3
#
#
#
# Elastic Constant Matrix: (Units=GPa)
#
#
# Indices 1 2 3 4 5 6 
#
# 1 119.3569 67.2720 36.3420 0.5035 22.5939 -14.8069
# 2 67.2720 94.3845 25.5020 4.2979 7.3597 -21.2269
# 3 36.3420 25.5020 88.9065 0.1363 3.2597 -16.9566
# 4 0.5035 4.2979 0.1363 20.1963 3.7457 0.5630
# 5 22.5939 7.3597 3.2597 3.7457 34.7533 0.0937
# 6 -14.8069 -21.2269 -16.9566 0.5630 0.0937 32.1425
#
#
#
# Elastic Compliance Matrix: (Units=1/GPa)
#
#
# Indices 1 2 3 4 5 6 
#
# 1 0.017285 -0.011070 -0.003837 0.003645 -0.008922 -0.001411
# 2 -0.011070 0.020299 0.000205 -0.004910 0.003385 0.008490
# 3 -0.003837 0.000205 0.013792 -0.000419 0.001188 0.005647
# 4 0.003645 -0.004910 -0.000419 0.051819 -0.006868 -0.002672
# 5 -0.008922 0.003385 0.001188 -0.006868 0.034490 -0.001228
# 6 -0.001411 0.008490 0.005647 -0.002672 -0.001228 0.039098
#
#
# Mechanical properties :
#
#
# Convention : Reuss Voigt Hill
#
# Bulk Modulus (GPa) = 45.51616 62.32000 53.91808
# Shear Modulus (GPa) = 23.41812 28.98721 26.20267
#
# Velocity S-wave (km/s) = 3.43414 3.82072 3.63258
# Velocity P-wave (km/s) = 6.21661 7.13079 6.68933
#
# Compressibility (1/GPa) = 0.02197022
#
# Stress axis : x y z
#
# Youngs Moduli (GPa) = 57.85525 49.26445 72.50734
#
# Poissons Ratio (x) = 0.54536 0.27825
# Poissons Ratio (y) = 0.64046 -0.01488
# Poissons Ratio (z) = 0.22202 -0.01011
#
# Static dielectric constant tensor:
#      x y z
#    x 1.837290 0.143880 0.032520 
#    y 0.143880 2.015810 0.058460 
#    z 0.032520 0.058460 1.739970 
# 
# From -- ./inp_files/391426.got.cif
#   From: 2010.05.17/outbox.cif.g08.bks.cpg/sg2_196_cif.got.tgz:391426.got - 2010.06.03 11:33:40.
