data_PCOD9053831
_publ_section_title
;
Structure prediction by ZEFSAII (Michael W. Deem and Ramdas Pophale) SiO2 
 PCOD9053831
Probable space group: P -1
;
_chemical_formula_sum "Si O2"
_cell_formula_units_Z 16
_cell_length_a 11.800862
_cell_length_b 14.603564
_cell_length_c 8.818298
_cell_angle_alpha 138.689613
_cell_angle_beta 54.174454
_cell_angle_gamma 127.593402
_cell_volume 771.086797
_symmetry_space_group_name_H-M "P -1"
_symmetry_group_IT_number 2
_symmetry_cell_setting 'triclinic'
loop_
_space_group_symop_operation_xyz
x,y,z
-x,-y,-z
loop_
_atom_site_type_symbol
_atom_site_label
_atom_site_fract_x
_atom_site_fract_y
_atom_site_fract_z
Si Si1 0.853476 0.118647 0.029507
Si Si2 0.382823 0.591843 0.095889
Si Si3 0.618461 0.276686 0.422587
Si Si4 0.742175 0.844415 0.952163
Si Si5 0.685603 0.941575 0.653287
Si Si6 0.431365 0.880996 0.273776
Si Si7 0.609090 0.545771 0.611941
Si Si8 0.808211 0.739968 0.101146
O O1 0.016591 0.221843 0.996925
O O2 0.855174 0.996397 0.999957
O O3 0.777573 0.028730 0.828761
O O4 0.746097 0.209011 0.275537
O O5 0.438203 0.672924 0.313148
O O6 0.337355 0.719366 0.204062
O O7 0.507693 0.564689 0.856765
O O8 0.268818 0.433530 0.027047
O O9 0.480784 0.159595 0.304127
O O10 0.672393 0.417558 0.449136
O O11 0.735192 0.700006 0.682820
O O12 0.582036 0.862716 0.067869
O O13 0.761050 0.800471 0.055637
O O14 0.764352 0.833406 0.383457
O O15 0.658864 0.052492 0.687053
O O16 0.500000 0.000000 0.500000
O O17 0.500000 0.500000 0.500000
#
# Coordination Sequence:
#
# PCOD9053831 Si02
#       8
#     2   2   2   2   2   2   2   2
#     4  12  28  42  63 102 139 177 218 273 334 385
#     4  11  23  41  68  96 131 173 218 267 335 394
#     4  12  22  42  69  96 131 168 227 279 323 384
#     4  11  22  41  65  94 130 171 226 267 322 391
#     4  12  23  43  69  95 131 173 228 278 328 382
#     4  11  20  37  69 101 120 161 227 281 317 376
#     4  11  23  38  67 104 130 162 222 283 333 377
#     4  12  25  46  65  93 141 185 217 258 333 421
#
# _framework density 20.749932000000001
#
# number of rings (size 3 to 8) (size 9 to 14) (size 15 to 20)
#    0.000    0.500    6.250    3.000    3.500    0.500 
#    0.000    0.625    0.000    0.000    0.000    0.000 
#    0.000    0.000    0.000    0.000    0.000    0.000 
#
# Total GULP energy -89399.415495 kJ/mol
# GULP energy per Si atom -5587.463468 kJ/mol
# Density = 2.070270 g / cm^3
# Si number density = 20.749932 Si / 1000 Ang^3
#
#
#
# Elastic Constant Matrix: (Units=GPa)
#
#
# Indices 1 2 3 4 5 6 
#
# 1 70.0254 35.0105 40.9025 2.3828 0.8660 -2.0649
# 2 35.0105 139.8148 37.8586 32.2277 -18.6660 -3.6476
# 3 40.9025 37.8586 76.0452 14.3630 5.8374 -4.0223
# 4 2.3828 32.2277 14.3630 31.0131 -5.0066 -12.9283
# 5 0.8660 -18.6660 5.8374 -5.0066 25.0145 1.5898
# 6 -2.0649 -3.6476 -4.0223 -12.9283 1.5898 37.5446
#
#
#
# Elastic Compliance Matrix: (Units=1/GPa)
#
#
# Indices 1 2 3 4 5 6 
#
# 1 0.023419 -0.004844 -0.011936 0.010036 0.000179 0.002987
# 2 -0.004844 0.012740 -0.002268 -0.012095 0.008023 -0.003776
# 3 -0.011936 -0.002268 0.023032 -0.009273 -0.008431 -0.001245
# 4 0.010036 -0.012095 -0.009273 0.056140 0.002909 0.017592
# 5 0.000179 0.008023 -0.008431 0.002909 0.048581 -0.001169
# 6 0.002987 -0.003776 -0.001245 0.017592 -0.001169 0.032406
#
#
# Mechanical properties :
#
#
# Convention : Reuss Voigt Hill
#
# Bulk Modulus (GPa) = 47.40578 57.04762 52.22670
# Shear Modulus (GPa) = 20.70860 30.18869 25.44865
#
# Velocity S-wave (km/s) = 3.16255 3.81843 3.50586
# Velocity P-wave (km/s) = 6.01926 6.85515 6.45076
#
# Compressibility (1/GPa) = 0.02109447
#
# Stress axis : x y z
#
# Youngs Moduli (GPa) = 42.70125 78.49301 43.41761
#
# Poissons Ratio (x) = 0.38019 0.51824
# Poissons Ratio (y) = 0.20683 0.09849
# Poissons Ratio (z) = 0.50969 0.17805
#
# Static dielectric constant tensor:
#      x y z
#    x 1.729960 -0.032010 0.003120 
#    y -0.032010 1.796260 0.012240 
#    z 0.003120 0.012240 1.778410 
# 
# From -- ./inp_files/254035.got.cif
#   From: 2010.05.17/outbox.cif.g08.bks.cpg/sg2_128_cif.got.tgz:254035.got - 2010.06.03 11:33:40.
