data_PCOD9053699
_publ_section_title
;
Structure prediction by ZEFSAII (Michael W. Deem and Ramdas Pophale) SiO2 
 PCOD9053699
Probable space group: P -1
;
_chemical_formula_sum "Si O2"
_cell_formula_units_Z 12
_cell_length_a 7.322062
_cell_length_b 12.148639
_cell_length_c 6.804052
_cell_angle_alpha 110.325464
_cell_angle_beta 79.532254
_cell_angle_gamma 78.219908
_cell_volume 534.154519
_symmetry_space_group_name_H-M "P -1"
_symmetry_group_IT_number 2
_symmetry_cell_setting 'triclinic'
loop_
_space_group_symop_operation_xyz
x,y,z
-x,-y,-z
loop_
_atom_site_type_symbol
_atom_site_label
_atom_site_fract_x
_atom_site_fract_y
_atom_site_fract_z
Si Si1 0.107494 0.343056 0.171340
Si Si2 0.164294 0.394852 0.652636
Si Si3 0.874608 0.262288 0.654777
Si Si4 0.930891 0.131176 0.191324
Si Si5 0.515636 0.375483 0.036527
Si Si6 0.589185 0.334660 0.435730
O O1 0.139855 0.369888 0.411185
O O2 0.316482 0.338310 0.037114
O O3 0.754872 0.354337 0.560417
O O4 0.036005 0.221846 0.118729
O O5 0.394062 0.350842 0.603345
O O6 0.057978 0.537315 0.798354
O O7 0.044663 0.313396 0.730687
O O8 0.960901 0.141830 0.429237
O O9 0.706076 0.273327 0.852341
O O10 0.698324 0.194111 0.263493
O O11 0.000000 0.000000 0.000000
O O12 0.546924 0.401011 0.277108
O O13 0.500000 0.500000 0.000000
#
# Coordination Sequence:
#
# PCOD9053699 Si02
#       6
#     2   2   2   2   2   2
#     4   9  18  32  57  83 124 143 189 248 277 347
#     4   9  16  35  55  87 115 151 184 242 294 352
#     4   9  20  38  58  85 120 151 195 243 287 349
#     4   9  20  41  61  80 115 162 203 239 283 342
#     4  11  20  36  57  93 125 148 187 241 301 360
#     4   9  22  36  61  84 118 159 192 235 304 344
#
# _framework density 22.465409999999999
#
# number of rings (size 3 to 8) (size 9 to 14) (size 15 to 20)
#    1.000    1.667    1.667    0.000    2.333    2.667 
#    3.000   10.833    0.000    0.000    0.000    0.000 
#    0.000    0.000    0.000    0.000    0.000    0.000 
#
# Total GULP energy -66943.903084 kJ/mol
# GULP energy per Si atom -5578.658590 kJ/mol
# Density = 2.241428 g / cm^3
# Si number density = 22.465410 Si / 1000 Ang^3
#
#
#
# Elastic Constant Matrix: (Units=GPa)
#
#
# Indices 1 2 3 4 5 6 
#
# 1 145.4409 30.6875 52.8291 -0.7503 -36.0589 34.2143
# 2 30.6875 62.1304 59.8684 7.5704 -8.5027 25.5913
# 3 52.8291 59.8684 173.0887 1.4004 -22.1774 35.2101
# 4 -0.7503 7.5704 1.4004 46.9201 2.2386 6.2399
# 5 -36.0589 -8.5027 -22.1774 2.2386 46.9410 -18.0129
# 6 34.2143 25.5913 35.2101 6.2399 -18.0129 33.1787
#
#
#
# Elastic Compliance Matrix: (Units=1/GPa)
#
#
# Indices 1 2 3 4 5 6 
#
# 1 0.010046 -0.001033 -0.000831 0.000972 0.004661 -0.006333
# 2 -0.001033 0.030155 -0.007342 -0.002186 -0.005134 -0.016779
# 3 -0.000831 -0.007342 0.009314 0.001221 0.001256 -0.002911
# 4 0.000972 -0.002186 0.001221 0.022596 -0.002546 -0.006243
# 5 0.004661 -0.005134 0.001256 -0.002546 0.030336 0.014769
# 6 -0.006333 -0.016779 -0.002911 -0.006243 0.014769 0.061894
#
#
# Mechanical properties :
#
#
# Convention : Reuss Voigt Hill
#
# Bulk Modulus (GPa) = 32.15165 74.15891 53.15528
# Shear Modulus (GPa) = 25.89057 41.22628 33.55842
#
# Velocity S-wave (km/s) = 3.39848 4.28845 3.86914
# Velocity P-wave (km/s) = 5.45364 7.58967 6.60853
#
# Compressibility (1/GPa) = 0.03110260
#
# Stress axis : x y z
#
# Youngs Moduli (GPa) = 99.54337 33.16241 107.36697
#
# Poissons Ratio (x) = 0.03425 0.08926
# Poissons Ratio (y) = 0.10281 0.78826
# Poissons Ratio (z) = 0.08275 0.24347
#
# Static dielectric constant tensor:
#      x y z
#    x 1.886540 -0.042490 0.019750 
#    y -0.042490 1.853690 -0.064480 
#    z 0.019750 -0.064480 1.965360 
# 
# From -- ./inp_files/160058.got.cif
#   From: 2010.05.17/outbox.cif.g08.bks.cpg/sg2_81_cif.got.tgz:160058.got - 2010.06.03 11:33:40.
