data_PCOD9053635
_publ_section_title
;
Structure prediction by ZEFSAII (Michael W. Deem and Ramdas Pophale) SiO2 
 PCOD9053635
Probable space group: P -1
;
_chemical_formula_sum "Si O2"
_cell_formula_units_Z 14
_cell_length_a 12.417876
_cell_length_b 7.364599
_cell_length_c 10.697039
_cell_angle_alpha 79.381718
_cell_angle_beta 102.667114
_cell_angle_gamma 126.647689
_cell_volume 764.002845
_symmetry_space_group_name_H-M "P -1"
_symmetry_group_IT_number 2
_symmetry_cell_setting 'triclinic'
loop_
_space_group_symop_operation_xyz
x,y,z
-x,-y,-z
loop_
_atom_site_type_symbol
_atom_site_label
_atom_site_fract_x
_atom_site_fract_y
_atom_site_fract_z
Si Si1 0.713034 0.688996 0.949592
Si Si2 0.561756 0.009593 0.150939
Si Si3 0.181573 0.587609 0.939962
Si Si4 0.584752 0.595437 0.194459
Si Si5 0.357494 0.888640 0.337899
Si Si6 0.121518 0.797290 0.125654
Si Si7 0.543404 0.355818 0.457826
O O1 0.755941 0.522533 0.952232
O O2 0.569487 0.600843 0.862352
O O3 0.827063 0.943648 0.907248
O O4 0.682802 0.664104 0.093151
O O5 0.461937 0.983195 0.235601
O O6 0.580344 0.808817 0.195625
O O7 0.500000 0.000000 0.000000
O O8 0.708683 0.246382 0.155492
O O9 0.158505 0.731960 0.012530
O O10 0.038115 0.383476 0.875510
O O11 0.615907 0.500025 0.332964
O O12 0.414418 0.104431 0.415972
O O13 0.211321 0.792727 0.257384
O O14 0.367994 0.700315 0.431467
O O15 0.500000 0.500000 0.500000
#
# Coordination Sequence:
#
# PCOD9053635 Si02
#       7
#     2   2   2   2   2   2   2
#     4  11  20  36  59  86 117 152 184 243 297 341
#     4  12  19  36  60  91 116 149 187 242 295 339
#     4  11  23  34  57  89 125 151 184 232 296 359
#     4  11  20  34  60  87 117 142 196 246 286 337
#     4  11  22  38  62  83 119 152 195 240 287 336
#     4  11  22  38  55  90 120 154 187 233 295 351
#     4  11  23  37  56  89 113 154 198 243 281 334
#
# _framework density 18.324536999999999
#
# number of rings (size 3 to 8) (size 9 to 14) (size 15 to 20)
#    0.000    0.857    7.143    1.286    0.000    0.000 
#    0.000    0.000    0.000    8.571    0.000    0.000 
#    0.000    0.000    0.000    0.000    0.000    0.000 
#
# Total GULP energy -78218.390236 kJ/mol
# GULP energy per Si atom -5587.027874 kJ/mol
# Density = 1.828283 g / cm^3
# Si number density = 18.324537 Si / 1000 Ang^3
#
#
#
# Elastic Constant Matrix: (Units=GPa)
#
#
# Indices 1 2 3 4 5 6 
#
# 1 44.0703 17.7650 23.4376 -8.7517 0.2825 3.5964
# 2 17.7650 86.8215 28.0854 -20.6848 3.8029 1.9980
# 3 23.4376 28.0854 110.0554 -17.0856 15.3881 9.5790
# 4 -8.7517 -20.6848 -17.0856 26.9700 -8.0048 4.4412
# 5 0.2825 3.8029 15.3881 -8.0048 20.7228 -1.5348
# 6 3.5964 1.9980 9.5790 4.4412 -1.5348 43.3450
#
#
#
# Elastic Compliance Matrix: (Units=1/GPa)
#
#
# Indices 1 2 3 4 5 6 
#
# 1 0.027718 -0.002962 -0.004988 0.005551 0.005908 -0.001421
# 2 -0.002962 0.015116 -0.001894 0.010371 0.002604 -0.001003
# 3 -0.004988 -0.001894 0.012437 0.002929 -0.007898 -0.002827
# 4 0.005551 0.010371 0.002929 0.054666 0.016473 -0.006604
# 5 0.005908 0.002604 -0.007898 0.016473 0.060042 0.001573
# 6 -0.001421 -0.001003 -0.002827 -0.006604 0.001573 0.024592
#
#
# Mechanical properties :
#
#
# Convention : Reuss Voigt Hill
#
# Bulk Modulus (GPa) = 28.10191 42.16925 35.13558
# Shear Modulus (GPa) = 22.11223 29.65150 25.88186
#
# Velocity S-wave (km/s) = 3.47753 4.02696 3.76229
# Velocity P-wave (km/s) = 5.61188 6.68463 6.17161
#
# Compressibility (1/GPa) = 0.03558477
#
# Stress axis : x y z
#
# Youngs Moduli (GPa) = 36.07784 66.15369 80.40587
#
# Poissons Ratio (x) = 0.19593 0.40105
# Poissons Ratio (y) = 0.10685 0.15226
# Poissons Ratio (z) = 0.17995 0.12527
#
# Static dielectric constant tensor:
#      x y z
#    x 1.626340 -0.024940 0.005990 
#    y -0.024940 1.653800 0.011400 
#    z 0.005990 0.011400 1.635640 
# 
# From -- ./inp_files/442566.got.cif
#   From: 2010.05.17/outbox.cif.g08.bks.cpg/sg2_222_cif.got.tgz:442566.got - 2010.06.03 11:33:40.
