data_PCOD9053827
_publ_section_title
;
Structure prediction by ZEFSAII (Michael W. Deem and Ramdas Pophale) SiO2 
 PCOD9053827
Probable space group: P -1
;
_chemical_formula_sum "Si O2"
_cell_formula_units_Z 16
_cell_length_a 15.976093
_cell_length_b 19.120840
_cell_length_c 12.166327
_cell_angle_alpha 152.633144
_cell_angle_beta 47.689033
_cell_angle_gamma 148.185548
_cell_volume 848.171268
_symmetry_space_group_name_H-M "P -1"
_symmetry_group_IT_number 2
_symmetry_cell_setting 'triclinic'
loop_
_space_group_symop_operation_xyz
x,y,z
-x,-y,-z
loop_
_atom_site_type_symbol
_atom_site_label
_atom_site_fract_x
_atom_site_fract_y
_atom_site_fract_z
Si Si1 0.020173 0.932909 0.771857
Si Si2 0.076585 0.336002 0.996963
Si Si3 0.377962 0.519724 0.841359
Si Si4 0.741949 0.404571 0.570456
Si Si5 0.394281 0.411532 0.080992
Si Si6 0.215417 0.129826 0.280497
Si Si7 0.028734 0.631821 0.454217
Si Si8 0.361207 0.010719 0.833206
O O1 0.991351 0.726386 0.531986
O O2 0.892627 0.880973 0.726666
O O3 0.210747 0.152512 0.871019
O O4 0.000000 0.000000 0.000000
O O5 0.173091 0.454958 0.194585
O O6 0.029250 0.459109 0.172461
O O7 0.204932 0.386917 0.870678
O O8 0.913705 0.073721 0.802305
O O9 0.505210 0.567292 0.880346
O O10 0.341151 0.366739 0.562361
O O11 0.468808 0.762104 0.055953
O O12 0.639581 0.443701 0.667102
O O13 0.892346 0.509323 0.501733
O O14 0.632949 0.147819 0.336418
O O15 0.500000 0.500000 0.000000
O O16 0.304321 0.081769 0.069611
O O17 0.210866 0.848957 0.650544
#
# Coordination Sequence:
#
# PCOD9053827 Si02
#       8
#     2   2   2   2   2   2   2   2
#     4  12  20  37  65  90 113 157 214 244 280 356
#     4  11  21  40  62  89 118 164 201 243 302 358
#     4  12  26  38  59  95 131 155 191 251 315 360
#     4  11  20  38  67  88 119 154 211 255 289 351
#     4  12  22  39  59  94 123 152 199 253 300 348
#     4  12  22  42  61  88 127 164 199 239 302 374
#     4  11  20  37  68  90 114 154 217 255 281 350
#     4  11  21  38  61  92 119 159 197 253 305 345
#
# _framework density 18.864115000000002
#
# number of rings (size 3 to 8) (size 9 to 14) (size 15 to 20)
#    0.000    0.500    8.750    1.500    0.000    3.000 
#    0.000    2.500    0.000    0.000    0.000    0.000 
#    0.000    0.000    0.000    0.000    0.000    0.000 
#
# Total GULP energy -89465.939087 kJ/mol
# GULP energy per Si atom -5591.621193 kJ/mol
# Density = 1.882118 g / cm^3
# Si number density = 18.864115 Si / 1000 Ang^3
#
#
#
# Elastic Constant Matrix: (Units=GPa)
#
#
# Indices 1 2 3 4 5 6 
#
# 1 62.7895 -1.2159 24.2514 4.6720 -25.2992 -10.8957
# 2 -1.2159 49.6298 -9.6961 14.8176 0.3726 -8.2543
# 3 24.2514 -9.6961 62.3307 12.9418 -13.0129 -12.0761
# 4 4.6720 14.8176 12.9418 26.3892 -3.0217 -14.2933
# 5 -25.2992 0.3726 -13.0129 -3.0217 37.7807 1.8201
# 6 -10.8957 -8.2543 -12.0761 -14.2933 1.8201 19.0464
#
#
#
# Elastic Compliance Matrix: (Units=1/GPa)
#
#
# Indices 1 2 3 4 5 6 
#
# 1 0.026826 -0.000637 -0.005913 0.009496 0.015877 0.016930
# 2 -0.000637 0.027938 0.009278 -0.017729 0.000872 0.004238
# 3 -0.005913 0.009278 0.024209 -0.012110 0.003000 0.006613
# 4 0.009496 -0.017729 -0.012110 0.079401 0.006350 0.049050
# 5 0.015877 0.000872 0.003000 0.006350 0.038031 0.012494
# 6 0.016930 0.004238 0.006613 0.049050 0.012494 0.103834
#
#
# Mechanical properties :
#
#
# Convention : Reuss Voigt Hill
#
# Bulk Modulus (GPa) = 11.84426 22.38099 17.11262
# Shear Modulus (GPa) = 15.48337 27.40398 21.44367
#
# Velocity S-wave (km/s) = 2.86804 3.81557 3.37522
# Velocity P-wave (km/s) = 4.15450 5.59478 4.92755
#
# Compressibility (1/GPa) = 0.08442906
#
# Stress axis : x y z
#
# Youngs Moduli (GPa) = 37.27666 35.79398 41.30626
#
# Poissons Ratio (x) = 0.02279 0.24426
# Poissons Ratio (y) = 0.02373 -0.38323
# Poissons Ratio (z) = 0.22043 -0.33209
#
# Static dielectric constant tensor:
#      x y z
#    x 1.645300 -0.002860 -0.023290 
#    y -0.002860 1.652010 0.007740 
#    z -0.023290 0.007740 1.638760 
# 
# From -- ./inp_files/225984.got.cif
#   From: 2010.05.17/outbox.cif.g08.bks.cpg/sg2_113_cif.got.tgz:225984.got - 2010.06.03 11:33:40.
