data_PCOD9053972
_publ_section_title
;
Structure prediction by ZEFSAII (Michael W. Deem and Ramdas Pophale) SiO2 
 PCOD9053972
Probable space group: P -1
;
_chemical_formula_sum "Si O2"
_cell_formula_units_Z 14
_cell_length_a 12.990814
_cell_length_b 13.146964
_cell_length_c 8.171725
_cell_angle_alpha 74.642554
_cell_angle_beta 50.335596
_cell_angle_gamma 116.153453
_cell_volume 590.706609
_symmetry_space_group_name_H-M "P -1"
_symmetry_group_IT_number 2
_symmetry_cell_setting 'triclinic'
loop_
_space_group_symop_operation_xyz
x,y,z
-x,-y,-z
loop_
_atom_site_type_symbol
_atom_site_label
_atom_site_fract_x
_atom_site_fract_y
_atom_site_fract_z
Si Si1 0.360234 0.086711 0.313428
Si Si2 0.292844 0.783682 0.854254
Si Si3 0.179536 0.029273 0.847311
Si Si4 0.443626 0.334122 0.905659
Si Si5 0.659945 0.377776 0.353409
Si Si6 0.074182 0.276455 0.241087
Si Si7 0.912803 0.684580 0.424197
O O1 0.606557 0.205808 0.085146
O O2 0.202194 0.976237 0.683389
O O3 0.371483 0.212884 0.181352
O O4 0.203605 0.923194 0.410967
O O5 0.257080 0.680242 0.781971
O O6 0.500000 0.000000 0.500000
O O7 0.052477 0.683734 0.189476
O O8 0.427069 0.242032 0.538625
O O9 0.000000 0.000000 0.000000
O O10 0.085252 0.896559 0.145101
O O11 0.554896 0.325995 0.662450
O O12 0.664499 0.546631 0.650349
O O13 0.231105 0.270056 0.084809
O O14 0.837410 0.586014 0.044614
O O15 0.123307 0.361522 0.329842
#
# Coordination Sequence:
#
# PCOD9053972 Si02
#       7
#     2   2   2   2   2   2   2
#     4  11  24  42  68  97 136 180 221 278 333 396
#     4  11  25  49  68  94 140 178 236 270 333 407
#     4  11  20  39  66  96 130 177 222 278 340 389
#     4  12  25  44  69 106 138 174 227 279 341 403
#     4  11  24  42  68  97 136 180 221 278 333 396
#     4  12  25  44  69 106 138 174 227 279 341 403
#     4  12  24  43  70  96 140 182 219 283 332 397
#
# _framework density 23.700430000000001
#
# number of rings (size 3 to 8) (size 9 to 14) (size 15 to 20)
#    0.000    0.571    2.857    7.286    0.000    3.429 
#    0.000    0.000    0.000    0.000    0.000    0.000 
#    0.000    0.000    0.000    0.000    0.000    0.000 
#
# Total GULP energy -78222.931049 kJ/mol
# GULP energy per Si atom -5587.352218 kJ/mol
# Density = 2.364649 g / cm^3
# Si number density = 23.700430 Si / 1000 Ang^3
#
#
#
# Elastic Constant Matrix: (Units=GPa)
#
#
# Indices 1 2 3 4 5 6 
#
# 1 69.9917 16.4329 14.3223 3.4661 0.6177 -8.5546
# 2 16.4329 67.6994 17.1771 -0.5496 -10.9493 9.1841
# 3 14.3223 17.1771 72.5207 -5.8459 6.6907 -6.3629
# 4 3.4661 -0.5496 -5.8459 38.8184 -6.7546 3.1005
# 5 0.6177 -10.9493 6.6907 -6.7546 33.0083 2.8756
# 6 -8.5546 9.1841 -6.3629 3.1005 2.8756 34.4963
#
#
#
# Elastic Compliance Matrix: (Units=1/GPa)
#
#
# Indices 1 2 3 4 5 6 
#
# 1 0.016585 -0.004811 -0.001625 -0.002692 -0.002612 0.005554
# 2 -0.004811 0.019824 -0.005123 0.002149 0.008871 -0.008348
# 3 -0.001625 -0.005123 0.016271 0.001299 -0.005073 0.004268
# 4 -0.002692 0.002149 0.001299 0.027683 0.006516 -0.004031
# 5 -0.002612 0.008871 -0.005073 0.006516 0.036307 -0.007557
# 6 0.005554 -0.008348 0.004268 -0.004031 -0.007557 0.034368
#
#
# Mechanical properties :
#
#
# Convention : Reuss Voigt Hill
#
# Bulk Modulus (GPa) = 33.82753 34.00849 33.91801
# Shear Modulus (GPa) = 27.17271 32.08325 29.62798
#
# Velocity S-wave (km/s) = 3.38968 3.68326 3.53952
# Velocity P-wave (km/s) = 5.44278 5.69815 5.57193
#
# Compressibility (1/GPa) = 0.02956172
#
# Stress axis : x y z
#
# Youngs Moduli (GPa) = 60.29719 50.44484 61.46036
#
# Poissons Ratio (x) = 0.24269 0.09984
# Poissons Ratio (y) = 0.29009 0.31486
# Poissons Ratio (z) = 0.09795 0.25843
#
# Static dielectric constant tensor:
#      x y z
#    x 1.803540 -0.026390 0.000060 
#    y -0.026390 1.948220 0.034050 
#    z 0.000060 0.034050 1.866310 
# 
# From -- ./inp_files/305085.got.cif
#   From: 2010.05.17/outbox.cif.g08.bks.cpg/sg2_153_cif.got.tgz:305085.got - 2010.06.03 11:33:40.
