data_PCOD9053748
_publ_section_title
;
Structure prediction by ZEFSAII (Michael W. Deem and Ramdas Pophale) SiO2 
 PCOD9053748
Probable space group: P -1
;
_chemical_formula_sum "Si O2"
_cell_formula_units_Z 14
_cell_length_a 11.974636
_cell_length_b 19.024327
_cell_length_c 9.774430
_cell_angle_alpha 148.634234
_cell_angle_beta 134.978204
_cell_angle_gamma 29.480259
_cell_volume 564.560377
_symmetry_space_group_name_H-M "P -1"
_symmetry_group_IT_number 2
_symmetry_cell_setting 'triclinic'
loop_
_space_group_symop_operation_xyz
x,y,z
-x,-y,-z
loop_
_atom_site_type_symbol
_atom_site_label
_atom_site_fract_x
_atom_site_fract_y
_atom_site_fract_z
Si Si1 0.830521 0.599728 0.237002
Si Si2 0.919707 0.778957 0.031659
Si Si3 0.353931 0.970234 0.530600
Si Si4 0.266464 0.460016 0.235920
Si Si5 0.333631 0.878491 0.798870
Si Si6 0.944654 0.143344 0.303296
Si Si7 0.336671 0.719443 0.270756
O O1 0.613926 0.824636 0.465828
O O2 0.046089 0.540956 0.260504
O O3 0.748265 0.555361 0.965472
O O4 0.927253 0.449240 0.196415
O O5 0.096153 0.795563 0.223170
O O6 0.744955 0.886374 0.187410
O O7 0.773959 0.911908 0.992949
O O8 0.336014 0.826514 0.326131
O O9 0.165386 0.095036 0.455888
O O10 0.480210 0.246885 0.129194
O O11 0.252080 0.629047 0.530240
O O12 0.140881 0.893931 0.707570
O O13 0.428084 0.748720 0.527533
O O14 0.000000 0.000000 0.000000
O O15 0.500000 0.500000 0.000000
#
# Coordination Sequence:
#
# PCOD9053748 Si02
#       7
#     2   2   2   2   2   2   2
#     4  11  24  46  69  92 137 185 221 267 329 406
#     4  11  21  43  68  99 132 168 225 273 333 396
#     4  11  21  39  67 100 123 177 219 271 332 389
#     4  11  26  45  63  97 140 180 222 271 329 401
#     4  11  23  41  66  99 134 166 223 287 328 386
#     4  12  24  40  67 101 134 170 223 280 334 391
#     4  11  20  36  70  97 130 169 216 282 337 379
#
# _framework density 24.798058000000001
#
# number of rings (size 3 to 8) (size 9 to 14) (size 15 to 20)
#    0.000    0.857    5.714    2.143    2.000    1.143 
#    2.571    2.857    0.000    0.000    0.000    0.000 
#    0.000    0.000    0.000    0.000    0.000    0.000 
#
# Total GULP energy -78321.084048 kJ/mol
# GULP energy per Si atom -5594.363146 kJ/mol
# Density = 2.474162 g / cm^3
# Si number density = 24.798058 Si / 1000 Ang^3
#
#
#
# Elastic Constant Matrix: (Units=GPa)
#
#
# Indices 1 2 3 4 5 6 
#
# 1 74.2014 35.2286 14.9398 7.1185 -9.1482 4.7943
# 2 35.2286 161.9925 31.7140 17.1299 -6.1278 16.1392
# 3 14.9398 31.7140 40.0006 6.8501 -2.6824 3.2066
# 4 7.1185 17.1299 6.8501 27.9393 -1.1850 -0.4153
# 5 -9.1482 -6.1278 -2.6824 -1.1850 20.2311 17.2178
# 6 4.7943 16.1392 3.2066 -0.4153 17.2178 51.1388
#
#
#
# Elastic Compliance Matrix: (Units=1/GPa)
#
#
# Indices 1 2 3 4 5 6 
#
# 1 0.016768 -0.002014 -0.003360 -0.001855 0.009880 -0.004067
# 2 -0.002014 0.008388 -0.004800 -0.003346 0.003724 -0.003438
# 3 -0.003360 -0.004800 0.030840 -0.003711 0.001419 -0.000612
# 4 -0.001855 -0.003346 -0.003711 0.039170 -0.002195 0.002520
# 5 0.009880 0.003724 0.001419 -0.002195 0.079841 -0.029090
# 6 -0.004067 -0.003438 -0.000612 0.002520 -0.029090 0.030874
#
#
# Mechanical properties :
#
#
# Convention : Reuss Voigt Hill
#
# Bulk Modulus (GPa) = 28.05118 48.88436 38.46777
# Shear Modulus (GPa) = 20.99855 32.81598 26.90727
#
# Velocity S-wave (km/s) = 2.91311 3.64170 3.29759
# Velocity P-wave (km/s) = 4.75934 6.11870 5.48132
#
# Compressibility (1/GPa) = 0.03564913
#
# Stress axis : x y z
#
# Youngs Moduli (GPa) = 59.63669 119.21786 32.42568
#
# Poissons Ratio (x) = 0.24006 0.10895
# Poissons Ratio (y) = 0.12009 0.15564
# Poissons Ratio (z) = 0.20037 0.57223
#
# Static dielectric constant tensor:
#      x y z
#    x 1.998190 0.039490 -0.045030 
#    y 0.039490 2.140400 -0.100160 
#    z -0.045030 -0.100160 2.007790 
# 
# From -- ./inp_files/280153.got.cif
#   From: 2010.05.17/outbox.cif.g08.bks.cpg/sg2_141_cif.got.tgz:280153.got - 2010.06.03 11:33:40.
