data_PCOD9053054
_publ_section_title
;
Structure prediction by ZEFSAII (Michael W. Deem and Ramdas Pophale) SiO2 
 PCOD9053054
Probable space group: P -1
;
_chemical_formula_sum "Si O2"
_cell_formula_units_Z 14
_cell_length_a 12.740200
_cell_length_b 10.886352
_cell_length_c 9.312537
_cell_angle_alpha 124.158329
_cell_angle_beta 144.361880
_cell_angle_gamma 47.341807
_cell_volume 553.269302
_symmetry_space_group_name_H-M "P -1"
_symmetry_group_IT_number 2
_symmetry_cell_setting 'triclinic'
loop_
_space_group_symop_operation_xyz
x,y,z
-x,-y,-z
loop_
_atom_site_type_symbol
_atom_site_label
_atom_site_fract_x
_atom_site_fract_y
_atom_site_fract_z
Si Si1 0.619151 0.412130 0.890249
Si Si2 0.833570 0.530254 0.555090
Si Si3 0.705754 0.326648 0.613631
Si Si4 0.778026 0.057840 0.857290
Si Si5 0.439855 0.926096 0.676073
Si Si6 0.871393 0.755312 0.980002
Si Si7 0.239320 0.306863 0.711940
O O1 0.376772 0.478404 0.660787
O O2 0.741093 0.328968 0.825291
O O3 0.699567 0.242471 0.962113
O O4 0.670543 0.562662 0.075798
O O5 0.888142 0.602774 0.802596
O O6 0.797881 0.670854 0.485681
O O7 0.025516 0.372428 0.599346
O O8 0.500000 0.500000 0.500000
O O9 0.670978 0.169151 0.434310
O O10 0.909692 0.299137 0.745711
O O11 0.622120 0.074210 0.563709
O O12 0.804672 0.920274 0.914717
O O13 0.000000 0.000000 0.000000
O O14 0.674762 0.808059 0.891696
O O15 0.375427 0.114279 0.769081
#
# Coordination Sequence:
#
# PCOD9053054 Si02
#       7
#     2   2   2   2   2   2   2
#     4  11  22  39  57  90 128 159 197 244 299 361
#     4  11  21  35  60  93 129 162 185 235 311 373
#     4  11  25  43  64  87 115 160 218 259 291 347
#     4  11  18  33  60  87 124 158 187 240 303 359
#     4  11  23  38  62  92 121 154 207 247 301 363
#     4  12  20  39  65  88 122 163 200 250 298 360
#     4  11  23  35  58  95 131 155 186 240 310 372
#
# _framework density 25.304131999999999
#
# number of rings (size 3 to 8) (size 9 to 14) (size 15 to 20)
#    0.000    0.857    8.571    1.714    2.000    1.714 
#    0.000    0.714    0.000    1.714    0.000    0.000 
#    0.000    0.000    0.000    0.000    0.000    0.000 
#
# Total GULP energy -78322.482455 kJ/mol
# GULP energy per Si atom -5594.463033 kJ/mol
# Density = 2.524654 g / cm^3
# Si number density = 25.304132 Si / 1000 Ang^3
#
#
#
# Elastic Constant Matrix: (Units=GPa)
#
#
# Indices 1 2 3 4 5 6 
#
# 1 58.6982 20.8248 41.2407 6.4461 28.8009 -9.2818
# 2 20.8248 157.7766 72.4128 15.3559 20.9299 5.3502
# 3 41.2407 72.4128 128.5945 -7.4868 49.5201 -4.1926
# 4 6.4461 15.3559 -7.4868 46.2981 -0.7506 9.0353
# 5 28.8009 20.9299 49.5201 -0.7506 47.1832 -8.0603
# 6 -9.2818 5.3502 -4.1926 9.0353 -8.0603 36.7616
#
#
#
# Elastic Compliance Matrix: (Units=1/GPa)
#
#
# Indices 1 2 3 4 5 6 
#
# 1 0.027149 0.000577 -0.005104 -0.006010 -0.010656 0.005329
# 2 0.000577 0.009418 -0.006621 -0.004148 0.002274 -0.000462
# 3 -0.005104 -0.006621 0.018849 0.006275 -0.014110 -0.002811
# 4 -0.006010 -0.004148 0.006275 0.026170 -0.001863 -0.007039
# 5 -0.010656 0.002274 -0.014110 -0.001863 0.042343 0.005111
# 6 0.005329 -0.000462 -0.002811 -0.007039 0.005111 0.031145
#
#
# Mechanical properties :
#
#
# Convention : Reuss Voigt Hill
#
# Bulk Modulus (GPa) = 30.19315 68.22509 49.20912
# Shear Modulus (GPa) = 26.53796 40.08797 33.31297
#
# Velocity S-wave (km/s) = 3.24197 3.98458 3.63230
# Velocity P-wave (km/s) = 5.09626 6.94188 6.08940
#
# Compressibility (1/GPa) = 0.03312009
#
# Stress axis : x y z
#
# Youngs Moduli (GPa) = 36.83386 106.17675 53.05354
#
# Poissons Ratio (x) = -0.06127 0.27081
# Poissons Ratio (y) = -0.02126 0.35125
# Poissons Ratio (z) = 0.18802 0.70296
#
# Static dielectric constant tensor:
#      x y z
#    x 2.068960 0.066220 -0.069970 
#    y 0.066220 1.995350 -0.036230 
#    z -0.069970 -0.036230 2.075860 
# 
# From -- ./inp_files/180851.got.cif
#   From: 2010.05.17/outbox.cif.g08.bks.cpg/sg2_91_cif.got.tgz:180851.got - 2010.06.03 11:33:40.
