data_PCOD9053841
_publ_section_title
;
Structure prediction by ZEFSAII (Michael W. Deem and Ramdas Pophale) SiO2 
 PCOD9053841
Probable space group: P -1
;
_chemical_formula_sum "Si O2"
_cell_formula_units_Z 16
_cell_length_a 12.691447
_cell_length_b 9.417907
_cell_length_c 9.370679
_cell_angle_alpha 133.016142
_cell_angle_beta 130.983893
_cell_angle_gamma 67.578995
_cell_volume 613.772521
_symmetry_space_group_name_H-M "P -1"
_symmetry_group_IT_number 2
_symmetry_cell_setting 'triclinic'
loop_
_space_group_symop_operation_xyz
x,y,z
-x,-y,-z
loop_
_atom_site_type_symbol
_atom_site_label
_atom_site_fract_x
_atom_site_fract_y
_atom_site_fract_z
Si Si1 0.340567 0.978609 0.741834
Si Si2 0.705911 0.444415 0.563827
Si Si3 0.034616 0.576636 0.422617
Si Si4 0.955914 0.010958 0.681596
Si Si5 0.738037 0.856225 0.919038
Si Si6 0.600834 0.688670 0.171938
Si Si7 0.234615 0.575925 0.065849
Si Si8 0.256291 0.996021 0.278231
O O1 0.181616 0.953496 0.510627
O O2 0.322574 0.066659 0.939813
O O3 0.437567 0.129065 0.831851
O O4 0.384885 0.764455 0.655402
O O5 0.760453 0.456293 0.784207
O O6 0.814110 0.434281 0.521530
O O7 0.653284 0.654448 0.650035
O O8 0.002528 0.800868 0.538851
O O9 0.000000 0.500000 0.500000
O O10 0.926106 0.441765 0.136320
O O11 0.894697 0.001740 0.780225
O O12 0.097418 0.159842 0.906128
O O13 0.745881 0.000510 0.890452
O O14 0.662412 0.807274 0.446514
O O15 0.500000 0.500000 0.000000
O O16 0.705041 0.590192 0.089498
O O17 0.307393 0.792627 0.237422
#
# Coordination Sequence:
#
# PCOD9053841 Si02
#       8
#     2   2   2   2   2   2   2   2
#     4  11  23  40  60  93 126 162 224 265 313 383
#     4  12  24  37  64  94 133 177 212 248 314 389
#     4  12  23  35  60  98 140 179 205 247 317 385
#     4  11  20  38  57  88 140 177 207 249 304 386
#     4  12  23  37  63  94 136 174 201 262 319 381
#     4  11  25  48  71  91 122 165 223 287 326 374
#     4  12  23  42  66  94 129 172 220 260 316 389
#     4  11  24  42  63  96 131 165 219 265 324 382
#
# _framework density 26.068289
#
# number of rings (size 3 to 8) (size 9 to 14) (size 15 to 20)
#    0.000    0.500    7.500    3.375    1.750    0.500 
#    0.000    0.625    0.000    1.500    0.000    0.000 
#    0.000    0.000    0.000    0.000    0.000    0.000 
#
# Total GULP energy -89540.575057 kJ/mol
# GULP energy per Si atom -5596.285941 kJ/mol
# Density = 2.600896 g / cm^3
# Si number density = 26.068289 Si / 1000 Ang^3
#
#
#
# Elastic Constant Matrix: (Units=GPa)
#
#
# Indices 1 2 3 4 5 6 
#
# 1 93.9946 31.7677 38.5132 -5.2692 -2.8649 22.8240
# 2 31.7677 109.0482 47.9535 4.5258 4.8150 38.0562
# 3 38.5132 47.9535 104.9818 12.4541 -3.8677 14.2813
# 4 -5.2692 4.5258 12.4541 68.3535 12.4782 -6.9305
# 5 -2.8649 4.8150 -3.8677 12.4782 42.0794 3.4329
# 6 22.8240 38.0562 14.2813 -6.9305 3.4329 43.7143
#
#
#
# Elastic Compliance Matrix: (Units=1/GPa)
#
#
# Indices 1 2 3 4 5 6 
#
# 1 0.013937 -0.000339 -0.004340 0.001215 0.000671 -0.005424
# 2 -0.000339 0.015946 -0.005428 -0.001124 -0.001032 -0.012029
# 3 -0.004340 -0.005428 0.013740 -0.002693 0.002232 0.001900
# 4 0.001215 -0.001124 -0.002693 0.016698 -0.005338 0.004291
# 5 0.000671 -0.001032 0.002232 -0.005338 0.025967 -0.003067
# 6 -0.005424 -0.012029 0.001900 0.004291 -0.003067 0.036480
#
#
# Mechanical properties :
#
#
# Convention : Reuss Voigt Hill
#
# Bulk Modulus (GPa) = 42.71556 60.49927 51.60741
# Shear Modulus (GPa) = 33.15984 43.48214 38.32099
#
# Velocity S-wave (km/s) = 3.57043 4.08856 3.83825
# Velocity P-wave (km/s) = 5.78091 6.74884 6.28354
#
# Compressibility (1/GPa) = 0.02341067
#
# Stress axis : x y z
#
# Youngs Moduli (GPa) = 71.75012 62.71154 72.77968
#
# Poissons Ratio (x) = 0.02125 0.31584
# Poissons Ratio (y) = 0.02432 0.39503
# Poissons Ratio (z) = 0.31137 0.34038
#
# Static dielectric constant tensor:
#      x y z
#    x 2.132990 -0.022410 0.098720 
#    y -0.022410 2.078340 0.032040 
#    z 0.098720 0.032040 2.064680 
# 
# From -- ./inp_files/217730.got.cif
#   From: 2010.05.17/outbox.cif.g08.bks.cpg/sg2_109_cif.got.tgz:217730.got - 2010.06.03 11:33:40.
