data_PCOD9053205
_publ_section_title
;
Structure prediction by ZEFSAII (Michael W. Deem and Ramdas Pophale) SiO2 
 PCOD9053205
Probable space group: P -1
;
_chemical_formula_sum "Si O2"
_cell_formula_units_Z 16
_cell_length_a 26.161060
_cell_length_b 11.807864
_cell_length_c 6.383274
_cell_angle_alpha 44.622408
_cell_angle_beta 127.440449
_cell_angle_gamma 153.605487
_cell_volume 612.959541
_symmetry_space_group_name_H-M "P -1"
_symmetry_group_IT_number 2
_symmetry_cell_setting 'triclinic'
loop_
_space_group_symop_operation_xyz
x,y,z
-x,-y,-z
loop_
_atom_site_type_symbol
_atom_site_label
_atom_site_fract_x
_atom_site_fract_y
_atom_site_fract_z
Si Si1 0.758841 0.234071 0.587572
Si Si2 0.828369 0.882914 0.838328
Si Si3 0.336067 0.295210 0.012765
Si Si4 0.929324 0.688807 0.042623
Si Si5 0.624400 0.419085 0.639387
Si Si6 0.467960 0.248806 0.789985
Si Si7 0.906687 0.347519 0.141061
Si Si8 0.281119 0.664899 0.267651
O O1 0.852308 0.482133 0.323503
O O2 0.712389 0.290404 0.527824
O O3 0.816214 0.254244 0.894645
O O4 0.674129 0.919551 0.700802
O O5 0.722330 0.588017 0.833244
O O6 0.869052 0.113377 0.485064
O O7 0.773273 0.847085 0.958089
O O8 0.937697 0.991515 0.996781
O O9 0.344450 0.356258 0.710417
O O10 0.449021 0.605450 0.994315
O O11 0.949888 0.565734 0.129613
O O12 0.848177 0.625588 0.767484
O O13 0.509479 0.220419 0.741851
O O14 0.637290 0.307612 0.646489
O O15 0.500000 0.500000 0.500000
O O16 0.338374 0.938895 0.936414
O O17 0.000000 0.500000 0.000000
#
# Coordination Sequence:
#
# PCOD9053205 Si02
#       8
#     2   2   2   2   2   2   2   2
#     4  11  21  37  64  96 131 169 217 269 328 383
#     4  11  22  38  65 100 133 171 223 269 325 384
#     4  11  23  41  69  97 128 170 218 275 331 378
#     4  11  23  38  65  99 135 176 216 275 324 376
#     4  11  26  45  66  94 135 176 215 267 326 399
#     4  11  25  46  73 101 123 161 223 282 329 383
#     4  11  19  33  62  99 131 167 220 277 326 371
#     4  11  27  44  63  96 137 175 218 263 326 399
#
# _framework density 26.102865999999999
#
# number of rings (size 3 to 8) (size 9 to 14) (size 15 to 20)
#    0.000    1.000    3.750    3.000    3.500    6.000 
#    0.000    1.250    0.000    0.000    0.000    0.000 
#    0.000    0.000    0.000    0.000    0.000    0.000 
#
# Total GULP energy -89566.477305 kJ/mol
# GULP energy per Si atom -5597.904832 kJ/mol
# Density = 2.604345 g / cm^3
# Si number density = 26.102866 Si / 1000 Ang^3
#
#
#
# Elastic Constant Matrix: (Units=GPa)
#
#
# Indices 1 2 3 4 5 6 
#
# 1 170.4310 20.8114 16.2738 2.7465 -36.0862 -2.2960
# 2 20.8114 79.7477 14.9837 12.7103 -9.1976 11.2538
# 3 16.2738 14.9837 94.8639 3.0342 -18.7170 1.9224
# 4 2.7465 12.7103 3.0342 25.6588 2.8582 -1.1862
# 5 -36.0862 -9.1976 -18.7170 2.8582 48.7140 -3.4563
# 6 -2.2960 11.2538 1.9224 -1.1862 -3.4563 34.3579
#
#
#
# Elastic Compliance Matrix: (Units=1/GPa)
#
#
# Indices 1 2 3 4 5 6 
#
# 1 0.007162 -0.001379 0.000002 -0.000595 0.005182 0.001431
# 2 -0.001379 0.015290 -0.001565 -0.007629 0.001347 -0.005141
# 3 0.000002 -0.001565 0.011659 -0.001067 0.004266 0.000253
# 4 -0.000595 -0.007629 -0.001067 0.043619 -0.004598 0.003562
# 5 0.005182 0.001347 0.004266 -0.004598 0.026685 0.002192
# 6 0.001431 -0.005141 0.000253 0.003562 0.002192 0.031214
#
#
# Mechanical properties :
#
#
# Convention : Reuss Voigt Hill
#
# Bulk Modulus (GPa) = 35.42629 49.90892 42.66761
# Shear Modulus (GPa) = 33.12973 41.27771 37.20372
#
# Velocity S-wave (km/s) = 3.56645 3.98093 3.77938
# Velocity P-wave (km/s) = 5.52817 6.34760 5.95200
#
# Compressibility (1/GPa) = 0.02822763
#
# Stress axis : x y z
#
# Youngs Moduli (GPa) = 139.63062 65.40182 85.77079
#
# Poissons Ratio (x) = 0.09017 -0.00014
# Poissons Ratio (y) = 0.19251 0.13419
# Poissons Ratio (z) = -0.00023 0.10232
#
# Static dielectric constant tensor:
#      x y z
#    x 2.132140 -0.099180 0.063790 
#    y -0.099180 2.157470 0.038700 
#    z 0.063790 0.038700 2.040650 
# 
# From -- ./inp_files/109365.got.cif
#   From: 2010.05.17/outbox.cif.g08.bks.cpg/sg2_55_cif.got.tgz:109365.got - 2010.06.03 11:33:40.
