data_PCOD9053643
_publ_section_title
;
Structure prediction by ZEFSAII (Michael W. Deem and Ramdas Pophale) SiO2 
 PCOD9053643
Probable space group: P -1
;
_chemical_formula_sum "Si O2"
_cell_formula_units_Z 16
_cell_length_a 8.891536
_cell_length_b 7.885343
_cell_length_c 10.179012
_cell_angle_alpha 86.956140
_cell_angle_beta 72.296239
_cell_angle_gamma 98.818972
_cell_volume 668.062408
_symmetry_space_group_name_H-M "P -1"
_symmetry_group_IT_number 2
_symmetry_cell_setting 'triclinic'
loop_
_space_group_symop_operation_xyz
x,y,z
-x,-y,-z
loop_
_atom_site_type_symbol
_atom_site_label
_atom_site_fract_x
_atom_site_fract_y
_atom_site_fract_z
Si Si1 0.878393 0.559870 0.379527
Si Si2 0.868321 0.099652 0.193435
Si Si3 0.554863 0.667488 0.138723
Si Si4 0.178563 0.537700 0.891253
Si Si5 0.204828 0.061751 0.054989
Si Si6 0.770936 0.242555 0.741966
Si Si7 0.293013 0.836571 0.521909
Si Si8 0.408732 0.304256 0.559531
O O1 0.849178 0.566521 0.232018
O O2 0.813207 0.359115 0.435248
O O3 0.762459 0.684850 0.460154
O O4 0.063941 0.632468 0.343173
O O5 0.792253 0.261031 0.158014
O O6 0.786888 0.051567 0.357347
O O7 0.061278 0.145815 0.152270
O O8 0.839694 0.968195 0.086144
O O9 0.664027 0.521966 0.088692
O O10 0.363026 0.644517 0.188422
O O11 0.586405 0.718933 0.282830
O O12 0.624649 0.815290 0.009055
O O13 0.000000 0.500000 0.000000
O O14 0.205881 0.885987 0.140542
O O15 0.714185 0.126425 0.632442
O O16 0.470899 0.814894 0.521349
O O17 0.500000 0.500000 0.500000
#
# Coordination Sequence:
#
# PCOD9053643 Si02
#       8
#     2   2   2   2   2   2   2   2
#     4   9  18  32  61  90 118 155 202 245 300 355
#     4  10  22  38  64  89 116 156 213 248 291 353
#     4  10  21  37  63  87 123 160 199 247 304 357
#     4  10  17  35  61  88 113 152 205 253 285 342
#     4  11  23  39  61  87 125 166 199 238 306 370
#     4  11  22  37  61  91 127 163 192 242 312 367
#     4   9  19  38  60  89 121 152 203 257 295 347
#     4   8  16  33  59  88 112 151 199 250 292 342
#
# _framework density 23.949857999999999
#
# number of rings (size 3 to 8) (size 9 to 14) (size 15 to 20)
#    0.000    2.250    1.250    2.250    5.250    0.500 
#    0.000    5.000    8.250    0.000    0.000    0.000 
#    0.000    0.000    0.000    0.000    0.000    0.000 
#
# Total GULP energy -89210.075756 kJ/mol
# GULP energy per Si atom -5575.629735 kJ/mol
# Density = 2.389535 g / cm^3
# Si number density = 23.949858 Si / 1000 Ang^3
#
#
#
# Elastic Constant Matrix: (Units=GPa)
#
#
# Indices 1 2 3 4 5 6 
#
# 1 107.0524 17.3490 28.7233 7.8504 -41.9139 -22.6457
# 2 17.3490 62.0185 8.0412 -2.0189 -14.0843 -22.6672
# 3 28.7233 8.0412 109.0251 9.3365 -13.3716 -12.2125
# 4 7.8504 -2.0189 9.3365 36.0908 -0.3624 -2.1962
# 5 -41.9139 -14.0843 -13.3716 -0.3624 49.9849 8.0853
# 6 -22.6457 -22.6672 -12.2125 -2.1962 8.0853 21.7124
#
#
#
# Elastic Compliance Matrix: (Units=1/GPa)
#
#
# Indices 1 2 3 4 5 6 
#
# 1 0.017986 0.004485 -0.001305 -0.002121 0.013133 0.017601
# 2 0.004485 0.028191 0.000991 0.002384 0.006746 0.032394
# 3 -0.001305 0.000991 0.010298 -0.002019 0.001143 0.004836
# 4 -0.002121 0.002384 -0.002019 0.028975 -0.001885 0.002774
# 5 0.013133 0.006746 0.001143 -0.001885 0.031693 0.009391
# 6 0.017601 0.032394 0.004836 0.002774 0.009391 0.097736
#
#
# Mechanical properties :
#
#
# Convention : Reuss Voigt Hill
#
# Bulk Modulus (GPa) = 15.42855 42.92477 29.17666
# Shear Modulus (GPa) = 21.91625 36.48980 29.20303
#
# Velocity S-wave (km/s) = 3.02833 3.90756 3.49569
# Velocity P-wave (km/s) = 4.32246 6.19034 5.33873
#
# Compressibility (1/GPa) = 0.06481492
#
# Stress axis : x y z
#
# Youngs Moduli (GPa) = 55.60022 35.47287 97.10916
#
# Poissons Ratio (x) = -0.15908 0.12674
# Poissons Ratio (y) = -0.24934 -0.09626
# Poissons Ratio (z) = 0.07257 -0.03516
#
# Static dielectric constant tensor:
#      x y z
#    x 2.031580 -0.019180 -0.052740 
#    y -0.019180 2.054160 0.022390 
#    z -0.052740 0.022390 1.974190 
# 
# From -- ./inp_files/378578.got.cif
#   From: 2010.05.17/outbox.cif.g08.bks.cpg/sg2_190_cif.got.tgz:378578.got - 2010.06.03 11:33:40.
