data_PCOD9053324
_publ_section_title
;
Structure prediction by ZEFSAII (Michael W. Deem and Ramdas Pophale) SiO2 
 PCOD9053324
Probable space group: P -1
;
_chemical_formula_sum "Si O2"
_cell_formula_units_Z 15
_cell_length_a 14.194666
_cell_length_b 9.569838
_cell_length_c 11.141709
_cell_angle_alpha 119.175361
_cell_angle_beta 30.197732
_cell_angle_gamma 109.205537
_cell_volume 649.817743
_symmetry_space_group_name_H-M "P -1"
_symmetry_group_IT_number 2
_symmetry_cell_setting 'triclinic'
loop_
_space_group_symop_operation_xyz
x,y,z
-x,-y,-z
loop_
_atom_site_type_symbol
_atom_site_label
_atom_site_fract_x
_atom_site_fract_y
_atom_site_fract_z
Si Si1 0.847747 0.642347 0.287732
Si Si2 0.072336 0.769919 0.719272
Si Si3 0.774666 0.053731 0.743922
Si Si4 0.226657 0.306009 0.348545
Si Si5 0.454363 0.836199 0.726216
Si Si6 0.084894 0.857150 0.010328
Si Si7 0.572007 0.181659 0.776515
Si Si8 0.000000 0.500000 0.500000
O O1 0.798004 0.600052 0.459969
O O2 0.650028 0.703047 0.461037
O O3 0.000000 0.500000 0.000000
O O4 0.956849 0.793790 0.225557
O O5 0.034495 0.784229 0.908769
O O6 0.297555 0.758781 0.441359
O O7 0.011942 0.626569 0.651266
O O8 0.967264 0.947368 0.858891
O O9 0.704458 0.133532 0.728165
O O10 0.709065 0.880806 0.757392
O O11 0.663391 0.162798 0.019478
O O12 0.000000 0.000000 0.500000
O O13 0.038594 0.347018 0.491876
O O14 0.391012 0.321137 0.077180
O O15 0.308179 0.806644 0.773321
O O16 0.504706 0.017293 0.737962
#
# Coordination Sequence:
#
# PCOD9053324 Si02
#       8
#     2   2   2   2   2   2   2   1
#     4  12  24  45  69 101 145 185 237 298 351 425
#     4  11  24  46  68 103 146 186 238 292 351 435
#     4  11  19  36  72 105 132 176 234 293 353 410
#     4  11  22  41  63  98 138 176 227 293 352 415
#     4  11  21  40  69 107 136 181 240 287 357 420
#     4  11  25  46  72 103 143 193 236 286 362 428
#     4  11  20  41  72 103 139 178 239 300 353 419
#     4  12  26  44  66 100 140 188 232 290 358 412
#
# _framework density 23.083393000000001
#
# number of rings (size 3 to 8) (size 9 to 14) (size 15 to 20)
#    0.000    0.800    4.000    5.600    0.000    1.600 
#    4.800    0.000    0.000    0.000    0.000    0.000 
#    0.000    0.000    0.000    0.000    0.000    0.000 
#
# Total GULP energy -83624.639154 kJ/mol
# GULP energy per Si atom -5574.975944 kJ/mol
# Density = 2.303085 g / cm^3
# Si number density = 23.083393 Si / 1000 Ang^3
#
#
#
# Elastic Constant Matrix: (Units=GPa)
#
#
# Indices 1 2 3 4 5 6 
#
# 1 89.4395 27.5197 12.4059 9.5342 -1.3380 15.4199
# 2 27.5197 46.8816 13.9978 12.4834 -1.3219 1.6974
# 3 12.4059 13.9978 122.7968 6.3989 -5.2423 7.7822
# 4 9.5342 12.4834 6.3989 32.2526 7.6835 6.2111
# 5 -1.3380 -1.3219 -5.2423 7.6835 34.2574 -8.0798
# 6 15.4199 1.6974 7.7822 6.2111 -8.0798 26.3112
#
#
#
# Elastic Compliance Matrix: (Units=1/GPa)
#
#
# Indices 1 2 3 4 5 6 
#
# 1 0.015455 -0.009128 -0.000090 0.001353 -0.002299 -0.009468
# 2 -0.009128 0.030214 -0.002244 -0.011321 0.004953 0.008257
# 3 -0.000090 -0.002244 0.008603 -0.000666 0.000926 -0.001906
# 4 0.001353 -0.011321 -0.000666 0.040749 -0.012789 -0.013412
# 5 -0.002299 0.004953 0.000926 -0.012789 0.035784 0.014761
# 6 -0.009468 0.008257 -0.001906 -0.013412 0.014761 0.051285
#
#
# Mechanical properties :
#
#
# Convention : Reuss Voigt Hill
#
# Bulk Modulus (GPa) = 31.89820 40.77383 36.33602
# Shear Modulus (GPa) = 23.20593 32.24389 27.72491
#
# Velocity S-wave (km/s) = 3.17410 3.74149 3.46941
# Velocity P-wave (km/s) = 5.22321 6.03051 5.64132
#
# Compressibility (1/GPa) = 0.03134973
#
# Stress axis : x y z
#
# Youngs Moduli (GPa) = 64.70220 33.09777 116.23359
#
# Poissons Ratio (x) = 0.30211 0.01041
# Poissons Ratio (y) = 0.59059 0.26081
# Poissons Ratio (z) = 0.00579 0.07427
#
# Static dielectric constant tensor:
#      x y z
#    x 1.829700 0.013720 -0.013650 
#    y 0.013720 1.912830 0.012370 
#    z -0.013650 0.012370 1.929250 
# 
# From -- ./inp_files/450571.got.cif
#   From: 2010.05.17/outbox.cif.g08.bks.cpg/sg2_226_cif.got.tgz:450571.got - 2010.06.03 11:33:40.
