data_PCOD9053822
_publ_section_title
;
Structure prediction by ZEFSAII (Michael W. Deem and Ramdas Pophale) SiO2 
 PCOD9053822
Probable space group: P -1
;
_chemical_formula_sum "Si O2"
_cell_formula_units_Z 12
_cell_length_a 9.411265
_cell_length_b 9.881188
_cell_length_c 9.343761
_cell_angle_alpha 74.394992
_cell_angle_beta 122.586201
_cell_angle_gamma 124.268392
_cell_volume 604.310675
_symmetry_space_group_name_H-M "P -1"
_symmetry_group_IT_number 2
_symmetry_cell_setting 'triclinic'
loop_
_space_group_symop_operation_xyz
x,y,z
-x,-y,-z
loop_
_atom_site_type_symbol
_atom_site_label
_atom_site_fract_x
_atom_site_fract_y
_atom_site_fract_z
Si Si1 0.108155 0.620919 0.657877
Si Si2 0.777499 0.626606 0.155356
Si Si3 0.517943 0.125142 0.353589
Si Si4 0.900576 0.107864 0.914780
Si Si5 0.535098 0.573347 0.759815
Si Si6 0.917086 0.604897 0.846233
O O1 0.220109 0.539779 0.819081
O O2 0.275343 0.794070 0.639342
O O3 0.000000 0.500000 0.500000
O O4 0.966427 0.620395 0.701405
O O5 0.666938 0.591943 0.256829
O O6 0.999175 0.772239 0.203141
O O7 0.648774 0.638924 0.955866
O O8 0.501509 0.282206 0.352888
O O9 0.500000 0.000000 0.500000
O O10 0.330615 0.011707 0.185851
O O11 0.967540 0.222636 0.056968
O O12 0.000000 0.000000 0.000000
O O13 0.686693 0.543936 0.760731
O O14 0.000000 0.500000 0.000000
#
# Coordination Sequence:
#
# PCOD9053822 Si02
#       6
#     2   2   2   2   2   2
#     4  11  23  41  65  93 132 173 214 265 324 384
#     4   9  17  35  62  89 118 170 207 253 314 383
#     4  11  23  39  64  93 135 173 208 263 336 374
#     4  11  20  37  67  96 131 164 208 269 322 376
#     4   9  18  36  62  91 120 166 217 252 306 391
#     4  11  21  38  69  98 124 165 228 261 312 392
#
# _framework density 19.857334000000002
#
# number of rings (size 3 to 8) (size 9 to 14) (size 15 to 20)
#    0.000    1.667    6.667    1.000    0.000    0.667 
#    0.000    4.167    0.000    0.000    0.000    0.000 
#    0.000    0.000    0.000    0.000    0.000    0.000 
#
# Total GULP energy -66848.998313 kJ/mol
# GULP energy per Si atom -5570.749859 kJ/mol
# Density = 1.981214 g / cm^3
# Si number density = 19.857334 Si / 1000 Ang^3
#
#
#
# Elastic Constant Matrix: (Units=GPa)
#
#
# Indices 1 2 3 4 5 6 
#
# 1 165.5949 38.1102 41.1102 -2.2597 -44.5226 21.3661
# 2 38.1102 87.4923 33.1984 -12.5551 -26.7420 15.3202
# 3 41.1102 33.1984 67.3784 -7.0202 -15.6184 -0.7188
# 4 -2.2597 -12.5551 -7.0202 44.4281 -0.3629 4.5656
# 5 -44.5226 -26.7420 -15.6184 -0.3629 26.1046 -8.6149
# 6 21.3661 15.3202 -0.7188 4.5656 -8.6149 48.7710
#
#
#
# Elastic Compliance Matrix: (Units=1/GPa)
#
#
# Indices 1 2 3 4 5 6 
#
# 1 0.012379 0.003367 -0.004210 0.001391 0.021090 -0.002948
# 2 0.003367 0.020731 -0.006770 0.005631 0.021413 -0.004832
# 3 -0.004210 -0.006770 0.020799 0.000730 -0.000289 0.004158
# 4 0.001391 0.005631 0.000730 0.024688 0.007834 -0.003295
# 5 0.021090 0.021413 -0.000289 0.007834 0.096248 0.000298
# 6 -0.002948 -0.004832 0.004158 -0.003295 0.000298 0.023735
#
#
# Mechanical properties :
#
#
# Convention : Reuss Voigt Hill
#
# Bulk Modulus (GPa) = 25.85068 60.58922 43.21995
# Shear Modulus (GPa) = 22.05563 37.73051 29.89307
#
# Velocity S-wave (km/s) = 3.33634 4.36372 3.88415
# Velocity P-wave (km/s) = 5.28091 7.48117 6.47518
#
# Compressibility (1/GPa) = 0.03868370
#
# Stress axis : x y z
#
# Youngs Moduli (GPa) = 80.78502 48.23730 48.07868
#
# Poissons Ratio (x) = -0.16243 0.20239
# Poissons Ratio (y) = -0.27202 0.32550
# Poissons Ratio (z) = 0.34008 0.32657
#
# Static dielectric constant tensor:
#      x y z
#    x 1.751380 0.047380 0.031880 
#    y 0.047380 1.720050 -0.029080 
#    z 0.031880 -0.029080 1.759670 
# 
# From -- ./inp_files/154394.got.cif
#   From: 2010.05.17/outbox.cif.g08.bks.cpg/sg2_78_cif.got.tgz:154394.got - 2010.06.03 11:33:40.
