data_PCOD9053514
_publ_section_title
;
Structure prediction by ZEFSAII (Michael W. Deem and Ramdas Pophale) SiO2 
 PCOD9053514
Probable space group: P -1
;
_chemical_formula_sum "Si O2"
_cell_formula_units_Z 14
_cell_length_a 9.331451
_cell_length_b 20.013940
_cell_length_c 9.450547
_cell_angle_alpha 152.226256
_cell_angle_beta 130.517647
_cell_angle_gamma 50.202436
_cell_volume 614.532708
_symmetry_space_group_name_H-M "P -1"
_symmetry_group_IT_number 2
_symmetry_cell_setting 'triclinic'
loop_
_space_group_symop_operation_xyz
x,y,z
-x,-y,-z
loop_
_atom_site_type_symbol
_atom_site_label
_atom_site_fract_x
_atom_site_fract_y
_atom_site_fract_z
Si Si1 0.044188 0.206136 0.190658
Si Si2 0.574326 0.838916 0.815572
Si Si3 0.191903 0.411102 0.882283
Si Si4 0.383137 0.695103 0.011269
Si Si5 0.416393 0.023139 0.643357
Si Si6 0.002733 0.922148 0.509646
Si Si7 0.692343 0.366263 0.849634
O O1 0.199351 0.210858 0.171299
O O2 0.131109 0.270216 0.504120
O O3 0.819249 0.281451 0.161592
O O4 0.045120 0.033825 0.865778
O O5 0.481479 0.706567 0.454426
O O6 0.500000 0.000000 0.000000
O O7 0.506230 0.879459 0.008131
O O8 0.397425 0.369203 0.019760
O O9 0.245287 0.510362 0.973891
O O10 0.000000 0.500000 0.000000
O O11 0.400335 0.860221 0.381135
O O12 0.344981 0.602796 0.950922
O O13 0.203423 0.108620 0.648253
O O14 0.500000 0.000000 0.500000
O O15 0.000000 0.000000 0.500000
O O16 0.141510 0.772621 0.311518
#
# Coordination Sequence:
#
# PCOD9053514 Si02
#       7
#     2   2   2   2   2   2   2
#     4  11  22  44  77  93 137 185 228 286 349 406
#     4  12  19  40  74 105 135 181 233 286 347 415
#     4  12  30  48  63 101 146 183 231 297 350 405
#     4  11  23  46  69  99 136 182 241 275 341 440
#     4  11  23  38  68 107 141 169 224 300 357 399
#     4  11  19  42  69 104 130 170 234 285 340 427
#     4  12  23  42  73 101 135 180 242 281 332 438
#
# _framework density 22.781535000000002
#
# number of rings (size 3 to 8) (size 9 to 14) (size 15 to 20)
#    0.000    0.571    8.571    0.429    2.000    3.429 
#    2.571    1.429    0.000    0.000    0.000    0.000 
#    0.000    0.000    0.000    0.000    0.000    0.000 
#
# Total GULP energy -78037.761142 kJ/mol
# GULP energy per Si atom -5574.125796 kJ/mol
# Density = 2.272968 g / cm^3
# Si number density = 22.781535 Si / 1000 Ang^3
#
#
#
# Elastic Constant Matrix: (Units=GPa)
#
#
# Indices 1 2 3 4 5 6 
#
# 1 95.9786 43.8980 -4.0434 -8.4346 -20.8451 -39.6650
# 2 43.8980 87.4235 9.1245 12.3544 -3.0420 -48.2573
# 3 -4.0434 9.1245 31.4713 -4.8003 -9.0291 -10.1929
# 4 -8.4346 12.3544 -4.8003 32.2935 -3.8717 2.0446
# 5 -20.8451 -3.0420 -9.0291 -3.8717 34.5460 4.0816
# 6 -39.6650 -48.2573 -10.1929 2.0446 4.0816 49.5505
#
#
#
# Elastic Compliance Matrix: (Units=1/GPa)
#
#
# Indices 1 2 3 4 5 6 
#
# 1 0.027027 -0.008862 0.018874 0.014775 0.020392 0.014598
# 2 -0.008862 0.032593 -0.008267 -0.018719 -0.009632 0.024514
# 3 0.018874 -0.008267 0.051043 0.017645 0.024226 0.014833
# 4 0.014775 -0.018719 0.017645 0.047147 0.017895 -0.006193
# 5 0.020392 -0.009632 0.024226 0.017895 0.047885 0.007244
# 6 0.014598 0.024514 0.014833 -0.006193 0.007244 0.058451
#
#
# Mechanical properties :
#
#
# Convention : Reuss Voigt Hill
#
# Bulk Modulus (GPa) = 8.76017 34.75906 21.75961
# Shear Modulus (GPa) = 16.73882 34.33762 25.53822
#
# Velocity S-wave (km/s) = 2.71358 3.88655 3.35177
# Velocity P-wave (km/s) = 3.69752 5.95240 4.95493
#
# Compressibility (1/GPa) = 0.11415308
#
# Stress axis : x y z
#
# Youngs Moduli (GPa) = 36.99942 30.68179 19.59136
#
# Poissons Ratio (x) = 0.27189 -0.36977
# Poissons Ratio (y) = 0.32787 0.16197
# Poissons Ratio (z) = -0.69832 0.25366
#
# Static dielectric constant tensor:
#      x y z
#    x 1.763080 -0.060700 0.081900 
#    y -0.060700 1.954610 -0.009110 
#    z 0.081900 -0.009110 1.786390 
# 
# From -- ./inp_files/224416.got.cif
#   From: 2010.05.17/outbox.cif.g08.bks.cpg/sg2_113_cif.got.tgz:224416.got - 2010.06.03 11:33:40.
