data_PCOD9053958
_publ_section_title
;
Structure prediction by ZEFSAII (Michael W. Deem and Ramdas Pophale) SiO2 
 PCOD9053958
Probable space group: P -1
;
_chemical_formula_sum "Si O2"
_cell_formula_units_Z 16
_cell_length_a 8.972178
_cell_length_b 11.595335
_cell_length_c 7.265198
_cell_angle_alpha 71.501143
_cell_angle_beta 119.914841
_cell_angle_gamma 113.623012
_cell_volume 593.636432
_symmetry_space_group_name_H-M "P -1"
_symmetry_group_IT_number 2
_symmetry_cell_setting 'triclinic'
loop_
_space_group_symop_operation_xyz
x,y,z
-x,-y,-z
loop_
_atom_site_type_symbol
_atom_site_label
_atom_site_fract_x
_atom_site_fract_y
_atom_site_fract_z
Si Si1 0.874092 0.175228 0.987220
Si Si2 0.470524 0.045562 0.706638
Si Si3 0.248584 0.356298 0.095807
Si Si4 0.814186 0.444323 0.517701
Si Si5 0.266852 0.623078 0.085658
Si Si6 0.511502 0.208275 0.311904
Si Si7 0.679322 0.669107 0.404727
Si Si8 0.858821 0.939368 0.286749
O O1 0.679603 0.124003 0.801397
O O2 0.825406 0.266246 0.072367
O O3 0.052675 0.268063 0.964007
O O4 0.920169 0.043777 0.115473
O O5 0.407148 0.116196 0.460457
O O6 0.339007 0.050659 0.787660
O O7 0.453563 0.898673 0.741139
O O8 0.258340 0.504325 0.008180
O O9 0.390956 0.294633 0.122070
O O10 0.283273 0.339997 0.347650
O O11 0.832459 0.431726 0.755902
O O12 0.696115 0.309780 0.435355
O O13 0.696446 0.542432 0.384774
O O14 0.000000 0.500000 0.500000
O O15 0.477031 0.675502 0.246077
O O16 0.825578 0.789734 0.345921
O O17 0.000000 0.000000 0.500000
#
# Coordination Sequence:
#
# PCOD9053958 Si02
#       8
#     2   2   2   2   2   2   2   2
#     4  12  23  39  65  94 130 160 215 273 313 374
#     4  11  24  38  63  93 129 171 208 263 322 374
#     4  11  20  39  65  91 121 169 215 255 310 385
#     4  11  22  38  68  97 125 163 216 268 308 374
#     4  11  21  41  67  95 123 169 219 258 321 376
#     4  11  21  43  62  89 130 172 212 254 318 395
#     4  11  20  41  68  93 124 170 218 256 310 384
#     4  12  23  41  64  95 125 163 220 262 316 381
#
# _framework density 26.952522999999999
#
# number of rings (size 3 to 8) (size 9 to 14) (size 15 to 20)
#    0.000    0.750    7.500    1.500    1.750    0.500 
#    0.000    1.250    0.000    2.250    0.000    0.000 
#    0.000    0.000    0.000    0.000    0.000    0.000 
#
# Total GULP energy -89541.759984 kJ/mol
# GULP energy per Si atom -5596.359999 kJ/mol
# Density = 2.689118 g / cm^3
# Si number density = 26.952523 Si / 1000 Ang^3
#
#
#
# Elastic Constant Matrix: (Units=GPa)
#
#
# Indices 1 2 3 4 5 6 
#
# 1 87.1942 39.5884 20.1529 -6.1368 1.2778 0.6531
# 2 39.5884 194.6767 21.8307 -8.8200 -3.9746 -7.2420
# 3 20.1529 21.8307 53.1535 -6.3259 4.5748 -0.2523
# 4 -6.1368 -8.8200 -6.3259 31.5750 4.0820 4.8300
# 5 1.2778 -3.9746 4.5748 4.0820 34.3835 1.1046
# 6 0.6531 -7.2420 -0.2523 4.8300 1.1046 42.4326
#
#
#
# Elastic Compliance Matrix: (Units=1/GPa)
#
#
# Indices 1 2 3 4 5 6 
#
# 1 0.013536 -0.002278 -0.004007 0.001357 -0.000370 -0.000766
# 2 -0.002278 0.005853 -0.001535 0.000631 0.000861 0.000931
# 3 -0.004007 -0.001535 0.021679 0.003627 -0.003331 -0.000398
# 4 0.001357 0.000631 0.003627 0.033960 -0.004375 -0.003643
# 5 -0.000370 0.000861 -0.003331 -0.004375 0.030164 -0.000155
# 6 -0.000766 0.000931 -0.000398 -0.003643 -0.000155 0.024154
#
#
# Mechanical properties :
#
#
# Convention : Reuss Voigt Hill
#
# Bulk Modulus (GPa) = 39.32494 55.35202 47.33848
# Shear Modulus (GPa) = 32.58154 38.57504 35.57829
#
# Velocity S-wave (km/s) = 3.48062 3.78725 3.63717
# Velocity P-wave (km/s) = 5.54753 6.30126 5.93637
#
# Compressibility (1/GPa) = 0.02542916
#
# Stress axis : x y z
#
# Youngs Moduli (GPa) = 73.87965 170.85837 46.12669
#
# Poissons Ratio (x) = 0.38918 0.18482
# Poissons Ratio (y) = 0.16828 0.07079
# Poissons Ratio (z) = 0.29602 0.26222
#
# Static dielectric constant tensor:
#      x y z
#    x 2.097810 -0.027000 -0.104440 
#    y -0.027000 2.123200 -0.116750 
#    z -0.104440 -0.116750 2.391010 
# 
# From -- ./inp_files/186147.got.cif
#   From: 2010.05.17/outbox.cif.g08.bks.cpg/sg2_94_cif.got.tgz:186147.got - 2010.06.03 11:33:40.
