data_PCOD9053892
_publ_section_title
;
Structure prediction by ZEFSAII (Michael W. Deem and Ramdas Pophale) SiO2 
 PCOD9053892
Probable space group: P -1
;
_chemical_formula_sum "Si O2"
_cell_formula_units_Z 14
_cell_length_a 20.938352
_cell_length_b 8.623347
_cell_length_c 5.506678
_cell_angle_alpha 98.353946
_cell_angle_beta 73.280511
_cell_angle_gamma 41.047004
_cell_volume 511.168735
_symmetry_space_group_name_H-M "P -1"
_symmetry_group_IT_number 2
_symmetry_cell_setting 'triclinic'
loop_
_space_group_symop_operation_xyz
x,y,z
-x,-y,-z
loop_
_atom_site_type_symbol
_atom_site_label
_atom_site_fract_x
_atom_site_fract_y
_atom_site_fract_z
Si Si1 0.792120 0.358025 0.877517
Si Si2 0.397979 0.159130 0.450691
Si Si3 0.336277 0.583026 0.299412
Si Si4 0.926984 0.794381 0.051381
Si Si5 0.937563 0.273278 0.408442
Si Si6 0.355287 0.888990 0.373896
Si Si7 0.799170 0.823558 0.891046
O O1 0.697142 0.406867 0.933381
O O2 0.822625 0.386742 0.597421
O O3 0.728090 0.587329 0.201751
O O4 0.928676 0.051271 0.740725
O O5 0.392725 0.319153 0.311064
O O6 0.500000 0.000000 0.500000
O O7 0.415029 0.944810 0.298328
O O8 0.409151 0.602843 0.259823
O O9 0.196206 0.901134 0.617300
O O10 0.872491 0.838333 0.865215
O O11 0.030866 0.719867 0.886368
O O12 0.000000 0.500000 0.000000
O O13 0.898145 0.491477 0.677630
O O14 0.272005 0.039371 0.255669
O O15 0.285523 0.031891 0.745322
#
# Coordination Sequence:
#
# PCOD9053892 Si02
#       7
#     2   2   2   2   2   2   2
#     4  11  24  43  69 109 143 194 254 306 383 453
#     4  12  28  53  77 105 146 199 263 328 384 452
#     4  11  25  46  75 105 153 194 254 313 376 463
#     4  11  22  38  68 113 160 205 244 298 381 461
#     4  11  20  38  67 101 159 191 241 301 372 456
#     4  11  26  48  77 112 152 200 253 318 388 458
#     4  11  22  42  70 110 159 200 247 304 377 469
#
# _framework density 27.388217000000001
#
# number of rings (size 3 to 8) (size 9 to 14) (size 15 to 20)
#    0.000    0.857    2.857    4.714    2.000    1.714 
#    0.000    0.714    0.000    0.000    0.000    0.000 
#    0.000    0.000    0.000    0.000    0.000    0.000 
#
# Total GULP energy -78269.186555 kJ/mol
# GULP energy per Si atom -5590.656182 kJ/mol
# Density = 2.732588 g / cm^3
# Si number density = 27.388217 Si / 1000 Ang^3
#
#
#
# Elastic Constant Matrix: (Units=GPa)
#
#
# Indices 1 2 3 4 5 6 
#
# 1 181.6731 57.5918 49.5837 -1.9543 7.7594 32.3250
# 2 57.5918 156.6968 46.2216 -1.4970 6.6743 18.2798
# 3 49.5837 46.2216 103.2326 12.4218 14.2751 12.8342
# 4 -1.9543 -1.4970 12.4218 49.1348 15.0768 14.5894
# 5 7.7594 6.6743 14.2751 15.0768 58.8857 -8.0728
# 6 32.3250 18.2798 12.8342 14.5894 -8.0728 47.4428
#
#
#
# Elastic Compliance Matrix: (Units=1/GPa)
#
#
# Indices 1 2 3 4 5 6 
#
# 1 0.007663 -0.001355 -0.002547 0.002985 -0.001719 -0.005221
# 2 -0.001355 0.007989 -0.002770 0.001749 -0.000788 -0.002078
# 3 -0.002547 -0.002770 0.012738 -0.002864 -0.001713 -0.000054
# 4 0.002985 0.001749 -0.002864 0.027366 -0.008521 -0.011798
# 5 -0.001719 -0.000788 -0.001713 -0.008521 0.021010 0.008134
# 6 -0.005221 -0.002078 -0.000054 -0.011798 0.008134 0.030463
#
#
# Mechanical properties :
#
#
# Convention : Reuss Voigt Hill
#
# Bulk Modulus (GPa) = 66.44835 83.15519 74.80177
# Shear Modulus (GPa) = 39.81270 50.30634 45.05952
#
# Velocity S-wave (km/s) = 3.81680 4.29043 4.06053
# Velocity P-wave (km/s) = 6.61349 7.41426 7.02530
#
# Compressibility (1/GPa) = 0.01504928
#
# Stress axis : x y z
#
# Youngs Moduli (GPa) = 130.49099 125.16830 78.50299
#
# Poissons Ratio (x) = 0.16955 0.19992
# Poissons Ratio (y) = 0.17676 0.21742
# Poissons Ratio (z) = 0.33232 0.34667
#
# Static dielectric constant tensor:
#      x y z
#    x 2.272790 0.202650 -0.065490 
#    y 0.202650 2.348920 -0.041490 
#    z -0.065490 -0.041490 2.147550 
# 
# From -- ./inp_files/98533.got.cif
#   From: 2010.05.17/outbox.cif.g08.bks.cpg/sg2_50_cif.got.tgz:98533.got - 2010.06.03 11:33:40.
