data_PCOD9053789
_publ_section_title
;
Structure prediction by ZEFSAII (Michael W. Deem and Ramdas Pophale) SiO2 
 PCOD9053789
Probable space group: P -1
;
_chemical_formula_sum "Si O2"
_cell_formula_units_Z 12
_cell_length_a 27.525703
_cell_length_b 9.699179
_cell_length_c 14.998376
_cell_angle_alpha 143.646631
_cell_angle_beta 16.593455
_cell_angle_gamma 152.196413
_cell_volume 505.726542
_symmetry_space_group_name_H-M "P -1"
_symmetry_group_IT_number 2
_symmetry_cell_setting 'triclinic'
loop_
_space_group_symop_operation_xyz
x,y,z
-x,-y,-z
loop_
_atom_site_type_symbol
_atom_site_label
_atom_site_fract_x
_atom_site_fract_y
_atom_site_fract_z
Si Si1 0.516029 0.591150 0.786218
Si Si2 0.694681 0.337469 0.433472
Si Si3 0.347626 0.218171 0.730247
Si Si4 0.975908 0.739372 0.461287
Si Si5 0.125204 0.688851 0.734748
Si Si6 0.081420 0.832598 0.512569
O O1 0.512687 0.354364 0.729795
O O2 0.536117 0.537503 0.618976
O O3 0.717981 0.922594 0.645242
O O4 0.276264 0.494718 0.174040
O O5 0.767565 0.426127 0.455014
O O6 0.643097 0.016761 0.353226
O O7 0.910485 0.570495 0.110838
O O8 0.311528 0.067904 0.617041
O O9 0.123072 0.170366 0.113560
O O10 0.974146 0.508475 0.282723
O O11 0.146963 0.898619 0.326997
O O12 0.000000 0.000000 0.500000
O O13 0.000000 0.500000 0.500000
#
# Coordination Sequence:
#
# PCOD9053789 Si02
#       6
#     2   2   2   2   2   2
#     4  11  20  37  63  91 118 166 202 242 309 365
#     4   9  16  33  61  86 119 158 196 241 307 364
#     4   9  19  34  59  85 116 153 206 245 289 363
#     4  11  24  38  59  98 131 148 197 264 302 352
#     4   9  17  34  55  85 125 150 191 252 298 343
#     4  11  24  43  62  85 123 171 207 242 299 370
#
# _framework density 23.728238999999999
#
# number of rings (size 3 to 8) (size 9 to 14) (size 15 to 20)
#    1.000    1.000    1.667    3.500    0.000    5.333 
#    3.000    0.833    0.000    2.000    0.000    0.000 
#    0.000    0.000    0.000    0.000    0.000    0.000 
#
# Total GULP energy -66800.812943 kJ/mol
# GULP energy per Si atom -5566.734412 kJ/mol
# Density = 2.367423 g / cm^3
# Si number density = 23.728239 Si / 1000 Ang^3
#
#
#
# Elastic Constant Matrix: (Units=GPa)
#
#
# Indices 1 2 3 4 5 6 
#
# 1 93.7632 80.9331 8.0758 -11.3817 11.8069 35.5874
# 2 80.9331 140.8620 12.3137 8.5347 12.1173 53.3334
# 3 8.0758 12.3137 28.1147 8.0827 -9.3299 4.0682
# 4 -11.3817 8.5347 8.0827 22.5779 13.8052 -3.7907
# 5 11.8069 12.1173 -9.3299 13.8052 2.6310 -16.6956
# 6 35.5874 53.3334 4.0682 -3.7907 -16.6956 46.9603
#
#
#
# Elastic Compliance Matrix: (Units=1/GPa)
#
#
# Indices 1 2 3 4 5 6 
#
# 1 0.021716 -0.018615 0.002678 0.009525 0.015182 0.010619
# 2 -0.018615 0.024965 0.003657 -0.023247 0.000647 -0.016209
# 3 0.002678 0.003657 0.029257 -0.001100 -0.019727 -0.015819
# 4 0.009525 -0.023247 -0.001100 0.046242 0.028809 0.033255
# 5 0.015182 0.000647 -0.019727 0.028809 -0.028484 -0.018333
# 6 0.010619 -0.016209 -0.015819 0.033255 -0.018333 0.029194
#
#
# Mechanical properties :
#
#
# Convention : Reuss Voigt Hill
#
# Bulk Modulus (GPa) = 19.46353 51.70947 35.58650
# Shear Modulus (GPa) = 30.38102 25.19500 27.78801
#
# Velocity S-wave (km/s) = 3.58211 3.26209 3.42584
# Velocity P-wave (km/s) = 5.03281 6.00233 5.53882
#
# Compressibility (1/GPa) = 0.05137815
#
# Stress axis : x y z
#
# Youngs Moduli (GPa) = 46.04806 40.05600 34.18022
#
# Poissons Ratio (x) = 0.74565 -0.09155
# Poissons Ratio (y) = 0.85719 -0.12498
# Poissons Ratio (z) = -0.12334 -0.14647
#
# Static dielectric constant tensor:
#      x y z
#    x 1.998180 0.057840 -0.008010 
#    y 0.057840 1.924170 -0.043420 
#    z -0.008010 -0.043420 1.935900 
# 
# From -- ./inp_files/543790.got.cif
#   From: 2010.05.17/outbox.cif.g08.bks.cpg/sg2_272_cif.got.tgz:543790.got - 2010.06.03 11:33:40.
