data_PCOD9053784
_publ_section_title
;
Structure prediction by ZEFSAII (Michael W. Deem and Ramdas Pophale) SiO2 
 PCOD9053784
Probable space group: P -1
;
_chemical_formula_sum "Si O2"
_cell_formula_units_Z 16
_cell_length_a 9.306319
_cell_length_b 15.495316
_cell_length_c 16.130839
_cell_angle_alpha 20.010780
_cell_angle_beta 70.184182
_cell_angle_gamma 81.131124
_cell_volume 643.916804
_symmetry_space_group_name_H-M "P -1"
_symmetry_group_IT_number 2
_symmetry_cell_setting 'triclinic'
loop_
_space_group_symop_operation_xyz
x,y,z
-x,-y,-z
loop_
_atom_site_type_symbol
_atom_site_label
_atom_site_fract_x
_atom_site_fract_y
_atom_site_fract_z
Si Si1 0.811705 0.321859 0.652436
Si Si2 0.935217 0.393286 0.975095
Si Si3 0.939546 0.220576 0.554088
Si Si4 0.155401 0.305207 0.155608
Si Si5 0.733806 0.701316 0.239291
Si Si6 0.126422 0.024881 0.784818
Si Si7 0.617420 0.735929 0.980887
Si Si8 0.485175 0.206061 0.602847
O O1 0.849516 0.320613 0.548215
O O2 0.727553 0.528007 0.481078
O O3 0.000000 0.500000 0.500000
O O4 0.703162 0.977910 0.005759
O O5 0.862910 0.134443 0.156919
O O6 0.065468 0.378920 0.029790
O O7 0.801375 0.452501 0.000901
O O8 0.037077 0.655847 0.653230
O O9 0.795444 0.882967 0.870824
O O10 0.120316 0.292219 0.499684
O O11 0.316534 0.279830 0.109881
O O12 0.000000 0.000000 0.500000
O O13 0.595797 0.448542 0.432484
O O14 0.938041 0.875619 0.005785
O O15 0.273211 0.036671 0.804903
O O16 0.544467 0.962278 0.799712
O O17 0.508636 0.409726 0.333753
#
# Coordination Sequence:
#
# PCOD9053784 Si02
#       8
#     2   2   2   2   2   2   2   2
#     4  11  22  38  70 102 132 172 214 266 329 388
#     4  11  20  37  62  97 125 173 228 266 327 394
#     4  11  20  40  68  90 132 169 221 262 324 392
#     4  11  22  34  66  95 126 176 218 273 337 385
#     4  11  21  43  65  96 135 170 220 267 320 398
#     4  11  23  39  68  95 128 174 225 269 323 391
#     4  12  22  42  61  98 127 167 223 268 320 389
#     4  12  25  40  69  98 128 176 221 273 325 383
#
# _framework density 24.847928
#
# number of rings (size 3 to 8) (size 9 to 14) (size 15 to 20)
#    0.000    0.750    7.500    1.125    3.500    0.000 
#    0.000    1.250    0.000   10.500    0.000    0.000 
#    0.000    0.000    0.000    0.000    0.000    0.000 
#
# Total GULP energy -89255.214053 kJ/mol
# GULP energy per Si atom -5578.450878 kJ/mol
# Density = 2.479137 g / cm^3
# Si number density = 24.847928 Si / 1000 Ang^3
#
#
#
# Elastic Constant Matrix: (Units=GPa)
#
#
# Indices 1 2 3 4 5 6 
#
# 1 144.6761 40.6890 52.2269 0.5003 16.3355 -4.7396
# 2 40.6890 120.3867 14.7961 -12.2194 6.5695 -12.8185
# 3 52.2269 14.7961 108.7039 -0.8959 33.8552 -1.7619
# 4 0.5003 -12.2194 -0.8959 35.8026 -1.1388 15.6501
# 5 16.3355 6.5695 33.8552 -1.1388 43.1516 -4.2918
# 6 -4.7396 -12.8185 -1.7619 15.6501 -4.2918 32.4072
#
#
#
# Elastic Compliance Matrix: (Units=1/GPa)
#
#
# Indices 1 2 3 4 5 6 
#
# 1 0.009148 -0.002665 -0.004092 -0.001485 0.000194 0.000804
# 2 -0.002665 0.009690 0.000096 0.002340 -0.000253 0.002285
# 3 -0.004092 0.000096 0.014154 0.000768 -0.009694 -0.001445
# 4 -0.001485 0.002340 0.000768 0.036089 -0.001117 -0.016826
# 5 0.000194 -0.000253 -0.009694 -0.001117 0.031119 0.004062
# 6 0.000804 0.002285 -0.001445 -0.016826 0.004062 0.040464
#
#
# Mechanical properties :
#
#
# Convention : Reuss Voigt Hill
#
# Bulk Modulus (GPa) = 50.83437 65.46562 58.15000
# Shear Modulus (GPa) = 31.14442 40.00927 35.57685
#
# Velocity S-wave (km/s) = 3.54418 4.01704 3.78800
# Velocity P-wave (km/s) = 6.10335 6.92237 6.52572
#
# Compressibility (1/GPa) = 0.01967173
#
# Stress axis : x y z
#
# Youngs Moduli (GPa) = 109.31053 103.19971 70.64993
#
# Poissons Ratio (x) = 0.27500 0.28911
# Poissons Ratio (y) = 0.29128 -0.00682
# Poissons Ratio (z) = 0.44732 -0.00996
#
# Static dielectric constant tensor:
#      x y z
#    x 2.097930 -0.067680 0.103150 
#    y -0.067680 1.987620 -0.043280 
#    z 0.103150 -0.043280 2.226240 
# 
# From -- ./inp_files/562018.got.cif
#   From: 2010.05.17/outbox.cif.g08.bks.cpg/sg2_282_cif.got.tgz:562018.got - 2010.06.03 11:33:40.
