data_PCOD9053411
_publ_section_title
;
Structure prediction by ZEFSAII (Michael W. Deem and Ramdas Pophale) SiO2 
 PCOD9053411
Probable space group: P -1
;
_chemical_formula_sum "Si O2"
_cell_formula_units_Z 16
_cell_length_a 8.092898
_cell_length_b 8.844202
_cell_length_c 14.208281
_cell_angle_alpha 53.634470
_cell_angle_beta 90.103454
_cell_angle_gamma 65.272605
_cell_volume 699.084712
_symmetry_space_group_name_H-M "P -1"
_symmetry_group_IT_number 2
_symmetry_cell_setting 'triclinic'
loop_
_space_group_symop_operation_xyz
x,y,z
-x,-y,-z
loop_
_atom_site_type_symbol
_atom_site_label
_atom_site_fract_x
_atom_site_fract_y
_atom_site_fract_z
Si Si1 0.066323 0.126952 0.230490
Si Si2 0.294297 0.605590 0.409900
Si Si3 0.321873 0.265132 0.810367
Si Si4 0.753434 0.778339 0.377890
Si Si5 0.256254 0.181774 0.040800
Si Si6 0.151518 0.950457 0.599458
Si Si7 0.512095 0.552857 0.720329
Si Si8 0.642864 0.739721 0.803918
O O1 0.185452 0.862513 0.337267
O O2 0.873323 0.185797 0.264216
O O3 0.091849 0.167779 0.104987
O O4 0.177848 0.235973 0.238779
O O5 0.500000 0.500000 0.500000
O O6 0.227286 0.442343 0.503324
O O7 0.326293 0.572559 0.310764
O O8 0.210142 0.261236 0.719154
O O9 0.374480 0.452821 0.748387
O O10 0.540830 0.050584 0.882249
O O11 0.214000 0.267089 0.904154
O O12 0.872167 0.839535 0.425434
O O13 0.542062 0.008844 0.295709
O O14 0.309556 0.316579 0.064512
O O15 0.361745 0.809846 0.604139
O O16 0.000000 0.000000 0.500000
O O17 0.604598 0.571650 0.810433
#
# Coordination Sequence:
#
# PCOD9053411 Si02
#       8
#     2   2   2   2   2   2   2   2
#     4  10  20  40  54  82 111 152 180 230 281 322
#     4  12  18  34  61  81 109 142 197 229 264 331
#     4  10  17  35  60  88 106 140 193 236 263 324
#     4  10  21  35  56  84 111 150 185 226 277 331
#     4   8  17  35  62  81 112 139 185 237 276 312
#     4  11  26  38  52  80 125 150 175 228 290 331
#     4  11  21  34  58  87 110 148 187 227 273 334
#     4   8  18  34  56  80 113 145 180 223 278 332
#
# _framework density 22.887067999999999
#
# number of rings (size 3 to 8) (size 9 to 14) (size 15 to 20)
#    0.750    1.250    3.750    0.750    1.750    2.000 
#    0.000    1.250    0.000    0.000    0.000    0.000 
#    0.000    0.000    0.000    0.000    0.000    0.000 
#
# Total GULP energy -89121.695086 kJ/mol
# GULP energy per Si atom -5570.105943 kJ/mol
# Density = 2.283498 g / cm^3
# Si number density = 22.887068 Si / 1000 Ang^3
#
#
#
# Elastic Constant Matrix: (Units=GPa)
#
#
# Indices 1 2 3 4 5 6 
#
# 1 41.8537 32.5713 5.7310 2.4951 -8.0189 20.1094
# 2 32.5713 123.3056 32.7737 14.2690 13.8257 31.6126
# 3 5.7310 32.7737 71.8354 20.2774 -10.4302 15.2850
# 4 2.4951 14.2690 20.2774 23.0753 -0.8205 7.3470
# 5 -8.0189 13.8257 -10.4302 -0.8205 16.1673 3.1281
# 6 20.1094 31.6126 15.2850 7.3470 3.1281 49.7711
#
#
#
# Elastic Compliance Matrix: (Units=1/GPa)
#
#
# Indices 1 2 3 4 5 6 
#
# 1 0.064362 -0.025229 0.021476 -0.001037 0.071346 -0.020907
# 2 -0.025229 0.022791 -0.014993 -0.000676 -0.042307 0.003081
# 3 0.021476 -0.014993 0.032424 -0.016916 0.045364 -0.009466
# 4 -0.001037 -0.000676 -0.016916 0.059176 -0.007416 -0.002226
# 5 0.071346 -0.042307 0.045364 -0.007416 0.167206 -0.025301
# 6 -0.020907 0.003081 -0.009466 -0.002226 -0.025301 0.031408
#
#
# Mechanical properties :
#
#
# Convention : Reuss Voigt Hill
#
# Bulk Modulus (GPa) = 12.18255 42.12739 27.15497
# Shear Modulus (GPa) = 11.30655 28.86397 20.08526
#
# Velocity S-wave (km/s) = 2.22506 3.55512 2.96561
# Velocity P-wave (km/s) = 3.45480 5.94125 4.85973
#
# Compressibility (1/GPa) = 0.08208462
#
# Stress axis : x y z
#
# Youngs Moduli (GPa) = 15.53708 43.87623 30.84178
#
# Poissons Ratio (x) = 1.10696 -0.66236
# Poissons Ratio (y) = 0.39199 0.46241
# Poissons Ratio (z) = -0.33368 0.65784
#
# Static dielectric constant tensor:
#      x y z
#    x 1.946430 -0.046980 -0.059110 
#    y -0.046980 1.894490 0.050960 
#    z -0.059110 0.050960 1.942950 
# 
# From -- ./inp_files/494373.got.cif
#   From: 2010.05.17/outbox.cif.g08.bks.cpg/sg2_248_cif.got.tgz:494373.got - 2010.06.03 11:33:40.
