data_PCOD9053321
_publ_section_title
;
Structure prediction by ZEFSAII (Michael W. Deem and Ramdas Pophale) SiO2 
 PCOD9053321
Probable space group: P -1
;
_chemical_formula_sum "Si O2"
_cell_formula_units_Z 16
_cell_length_a 11.580236
_cell_length_b 12.971164
_cell_length_c 8.976244
_cell_angle_alpha 121.063771
_cell_angle_beta 71.746928
_cell_angle_gamma 68.716824
_cell_volume 838.310934
_symmetry_space_group_name_H-M "P -1"
_symmetry_group_IT_number 2
_symmetry_cell_setting 'triclinic'
loop_
_space_group_symop_operation_xyz
x,y,z
-x,-y,-z
loop_
_atom_site_type_symbol
_atom_site_label
_atom_site_fract_x
_atom_site_fract_y
_atom_site_fract_z
Si Si1 0.113448 0.675124 0.320342
Si Si2 0.374921 0.329358 0.973142
Si Si3 0.945029 0.847405 0.822314
Si Si4 0.138055 0.051987 0.576207
Si Si5 0.553847 0.090665 0.476325
Si Si6 0.880353 0.153190 0.986239
Si Si7 0.385950 0.070591 0.955863
Si Si8 0.672895 0.273600 0.903826
O O1 0.247843 0.679965 0.203954
O O2 0.053517 0.751641 0.563972
O O3 0.963187 0.784932 0.351296
O O4 0.197414 0.492584 0.156699
O O5 0.446861 0.257971 0.726172
O O6 0.389078 0.197933 0.965686
O O7 0.490015 0.357298 0.018114
O O8 0.871933 0.028685 0.973182
O O9 0.797598 0.849465 0.883390
O O10 0.054699 0.789088 0.881906
O O11 0.009682 0.061161 0.731553
O O12 0.266291 0.010547 0.614432
O O13 0.235545 0.909156 0.313275
O O14 0.500000 0.000000 0.500000
O O15 0.548619 0.074001 0.290972
O O16 0.719063 0.281904 0.058305
O O17 0.500000 0.000000 0.000000
#
# Coordination Sequence:
#
# PCOD9053321 Si02
#       8
#     2   2   2   2   2   2   2   2
#     4  11  21  35  58  91 116 149 182 240 300 323
#     4  10  23  39  59  85 117 150 191 238 284 336
#     4  11  21  33  57  85 121 145 186 238 280 342
#     4  10  17  35  60  85 110 147 195 236 270 336
#     4   9  20  38  60  81 106 148 202 235 267 338
#     4  10  18  32  55  88 106 147 194 235 273 324
#     4  11  23  40  61  82 112 156 195 229 284 345
#     4  10  18  37  60  84 111 151 197 233 273 337
#
# _framework density 19.085996000000002
#
# number of rings (size 3 to 8) (size 9 to 14) (size 15 to 20)
#    0.000    1.750    3.750    1.875    3.500    0.500 
#    0.000    5.625    0.000    0.000    0.000    0.000 
#    0.000    0.000    0.000    0.000    0.000    0.000 
#
# Total GULP energy -89171.754360 kJ/mol
# GULP energy per Si atom -5573.234647 kJ/mol
# Density = 1.904256 g / cm^3
# Si number density = 19.085996 Si / 1000 Ang^3
#
#
#
# Elastic Constant Matrix: (Units=GPa)
#
#
# Indices 1 2 3 4 5 6 
#
# 1 103.6648 30.1602 26.8992 -12.8466 15.2145 -21.1382
# 2 30.1602 74.8590 43.1186 -1.3065 8.5923 -20.3291
# 3 26.8992 43.1186 56.8405 -2.5995 10.3324 -25.0636
# 4 -12.8466 -1.3065 -2.5995 27.3304 -4.7681 1.4889
# 5 15.2145 8.5923 10.3324 -4.7681 18.2197 -14.4785
# 6 -21.1382 -20.3291 -25.0636 1.4889 -14.4785 32.8293
#
#
#
# Elastic Compliance Matrix: (Units=1/GPa)
#
#
# Indices 1 2 3 4 5 6 
#
# 1 0.012762 -0.002848 -0.001469 0.004707 -0.004898 0.002959
# 2 -0.002848 0.024418 -0.017117 -0.001734 0.000543 0.000537
# 3 -0.001469 -0.017117 0.039597 0.001726 0.003204 0.020020
# 4 0.004707 -0.001734 0.001726 0.040581 0.011805 0.006641
# 5 -0.004898 0.000543 0.003204 0.011805 0.091252 0.039337
# 6 0.002959 0.000537 0.020020 0.006641 0.039337 0.065030
#
#
# Mechanical properties :
#
#
# Convention : Reuss Voigt Hill
#
# Bulk Modulus (GPa) = 29.48969 48.41335 38.95152
# Shear Modulus (GPa) = 15.25270 24.68828 19.97049
#
# Velocity S-wave (km/s) = 2.83000 3.60047 3.23823
# Velocity P-wave (km/s) = 5.11498 6.53494 5.86807
#
# Compressibility (1/GPa) = 0.03391016
#
# Stress axis : x y z
#
# Youngs Moduli (GPa) = 78.36027 40.95265 25.25423
#
# Poissons Ratio (x) = 0.11662 0.03709
# Poissons Ratio (y) = 0.22315 0.43228
# Poissons Ratio (z) = 0.11510 0.70099
#
# Static dielectric constant tensor:
#      x y z
#    x 1.479650 -0.000880 0.059930 
#    y -0.000880 1.684110 -0.010680 
#    z 0.059930 -0.010680 1.668790 
# 
# From -- ./inp_files/176418.got.cif
#   From: 2010.05.17/outbox.cif.g08.bks.cpg/sg2_89_cif.got.tgz:176418.got - 2010.06.03 11:33:40.
