data_PCOD9053331
_publ_section_title
;
Structure prediction by ZEFSAII (Michael W. Deem and Ramdas Pophale) SiO2 
 PCOD9053331
Probable space group: P -1
;
_chemical_formula_sum "Si O2"
_cell_formula_units_Z 16
_cell_length_a 12.974129
_cell_length_b 8.337032
_cell_length_c 13.237399
_cell_angle_alpha 137.661586
_cell_angle_beta 140.266591
_cell_angle_gamma 57.592508
_cell_volume 614.668832
_symmetry_space_group_name_H-M "P -1"
_symmetry_group_IT_number 2
_symmetry_cell_setting 'triclinic'
loop_
_space_group_symop_operation_xyz
x,y,z
-x,-y,-z
loop_
_atom_site_type_symbol
_atom_site_label
_atom_site_fract_x
_atom_site_fract_y
_atom_site_fract_z
Si Si1 0.740286 0.411462 0.714912
Si Si2 0.277055 0.411517 0.664743
Si Si3 0.936649 0.860655 0.125233
Si Si4 0.473555 0.146853 0.949561
Si Si5 0.822469 0.538794 0.614097
Si Si6 0.153578 0.741870 0.904947
Si Si7 0.158251 0.980319 0.670475
Si Si8 0.493541 0.995175 0.306754
O O1 0.742605 0.540927 0.666050
O O2 0.890665 0.241053 0.765244
O O3 0.573302 0.246386 0.528282
O O4 0.801852 0.638947 0.933258
O O5 0.211146 0.356086 0.474936
O O6 0.179102 0.545350 0.741925
O O7 0.360561 0.177977 0.653818
O O8 0.425752 0.606714 0.857118
O O9 0.917116 0.018885 0.084749
O O10 0.890050 0.039604 0.260278
O O11 0.525190 0.992267 0.822111
O O12 0.285976 0.188707 0.830245
O O13 0.500000 0.000000 0.000000
O O14 0.776629 0.263260 0.427897
O O15 0.012644 0.616027 0.809432
O O16 0.320596 0.851443 0.136980
O O17 0.000000 0.000000 0.500000
#
# Coordination Sequence:
#
# PCOD9053331 Si02
#       8
#     2   2   2   2   2   2   2   2
#     4  11  25  44  66  90 128 178 209 256 316 386
#     4  11  23  37  64  96 133 166 207 272 324 368
#     4  11  24  43  65  94 130 167 214 258 318 382
#     4  11  19  37  59  94 131 163 208 266 318 369
#     4  12  23  39  66  98 125 165 218 262 315 373
#     4  11  24  38  64  98 130 162 211 270 316 371
#     4  12  22  35  68  99 123 159 215 269 306 374
#     4  11  23  41  62  96 134 169 208 259 328 374
#
# _framework density 26.030280000000001
#
# number of rings (size 3 to 8) (size 9 to 14) (size 15 to 20)
#    0.000    0.750    5.000    3.375    5.250    1.000 
#    0.000    0.000    0.000    4.500    0.000    0.000 
#    0.000    0.000    0.000    0.000    0.000    0.000 
#
# Total GULP energy -89299.580014 kJ/mol
# GULP energy per Si atom -5581.223751 kJ/mol
# Density = 2.597103 g / cm^3
# Si number density = 26.030280 Si / 1000 Ang^3
#
#
#
# Elastic Constant Matrix: (Units=GPa)
#
#
# Indices 1 2 3 4 5 6 
#
# 1 22.6807 18.9360 1.3990 -4.4185 11.6830 -8.3599
# 2 18.9360 61.2770 19.6115 -7.9224 12.3898 1.1624
# 3 1.3990 19.6115 138.0984 1.0415 27.7352 -12.0010
# 4 -4.4185 -7.9224 1.0415 36.4369 3.4064 7.2467
# 5 11.6830 12.3898 27.7352 3.4064 39.8533 -6.7433
# 6 -8.3599 1.1624 -12.0010 7.2467 -6.7433 18.5925
#
#
#
# Elastic Compliance Matrix: (Units=1/GPa)
#
#
# Indices 1 2 3 4 5 6 
#
# 1 0.094262 -0.030291 0.010943 -0.002963 -0.017787 0.046044
# 2 -0.030291 0.028958 -0.005674 0.007231 -0.000532 -0.022104
# 3 0.010943 -0.005674 0.010161 -0.001565 -0.006687 0.010019
# 4 -0.002963 0.007231 -0.001565 0.032813 -0.006107 -0.017798
# 5 -0.017787 -0.000532 -0.006687 -0.006107 0.036193 0.003227
# 6 0.046044 -0.022104 0.010019 -0.017798 0.003227 0.090444
#
#
# Mechanical properties :
#
#
# Convention : Reuss Voigt Hill
#
# Bulk Modulus (GPa) = 11.99964 33.54988 22.77476
# Shear Modulus (GPa) = 13.48964 31.11719 22.30341
#
# Velocity S-wave (km/s) = 2.27893 3.46124 2.93033
# Velocity P-wave (km/s) = 3.39773 5.37497 4.49638
#
# Compressibility (1/GPa) = 0.08333586
#
# Stress axis : x y z
#
# Youngs Moduli (GPa) = 10.60876 34.53310 98.41074
#
# Poissons Ratio (x) = 1.04605 -1.07688
# Poissons Ratio (y) = 0.32135 0.55838
# Poissons Ratio (z) = -0.11609 0.19594
#
# Static dielectric constant tensor:
#      x y z
#    x 2.093740 -0.050580 0.013990 
#    y -0.050580 2.159130 -0.105240 
#    z 0.013990 -0.105240 2.091710 
# 
# From -- ./inp_files/225735.got.cif
#   From: 2010.05.17/outbox.cif.g08.bks.cpg/sg2_113_cif.got.tgz:225735.got - 2010.06.03 11:33:40.
