data_PCOD9053660
_publ_section_title
;
Structure prediction by ZEFSAII (Michael W. Deem and Ramdas Pophale) SiO2 
 PCOD9053660
Probable space group: P -1
;
_chemical_formula_sum "Si O2"
_cell_formula_units_Z 16
_cell_length_a 17.456180
_cell_length_b 11.251577
_cell_length_c 10.587869
_cell_angle_alpha 81.665073
_cell_angle_beta 42.214060
_cell_angle_gamma 50.728396
_cell_volume 846.445678
_symmetry_space_group_name_H-M "P -1"
_symmetry_group_IT_number 2
_symmetry_cell_setting 'triclinic'
loop_
_space_group_symop_operation_xyz
x,y,z
-x,-y,-z
loop_
_atom_site_type_symbol
_atom_site_label
_atom_site_fract_x
_atom_site_fract_y
_atom_site_fract_z
Si Si1 0.110520 0.688105 0.177078
Si Si2 0.597192 0.529798 0.944972
Si Si3 0.412494 0.811009 0.729431
Si Si4 0.473622 0.282255 0.664945
Si Si5 0.968088 0.988587 0.897002
Si Si6 0.302316 0.067793 0.351249
Si Si7 0.495189 0.155308 0.125233
Si Si8 0.616132 0.385909 0.579655
O O1 0.200316 0.638766 0.212639
O O2 0.080663 0.845497 0.135139
O O3 0.914125 0.785137 0.399510
O O4 0.265812 0.485437 0.937953
O O5 0.593096 0.646576 0.842640
O O6 0.500000 0.500000 0.000000
O O7 0.461041 0.640161 0.215087
O O8 0.515531 0.773809 0.483575
O O9 0.424706 0.883866 0.827601
O O10 0.504817 0.602933 0.679528
O O11 0.198087 0.964670 0.932014
O O12 0.575174 0.329512 0.522491
O O13 0.581589 0.104051 0.657655
O O14 0.166940 0.773269 0.642056
O O15 0.000000 0.000000 0.000000
O O16 0.351611 0.165189 0.301642
O O17 0.367134 0.987319 0.139566
#
# Coordination Sequence:
#
# PCOD9053660 Si02
#       8
#     2   2   2   2   2   2   2   2
#     4  11  21  38  66  87 119 170 205 243 307 367
#     4  11  20  39  62  89 124 153 195 254 311 357
#     4  12  23  39  62  96 129 157 201 259 314 357
#     4  11  21  40  64  92 124 164 202 249 310 370
#     4  12  20  33  60  95 125 158 198 243 310 375
#     4  11  24  45  64  86 121 167 220 246 298 368
#     4  11  24  44  63  89 125 164 206 264 298 355
#     4  11  20  35  61  89 127 157 195 243 308 376
#
# _framework density 18.902570000000001
#
# number of rings (size 3 to 8) (size 9 to 14) (size 15 to 20)
#    0.000    0.750    8.750    1.125    0.000    2.000 
#    0.000    3.125    0.000    0.000    0.000    0.000 
#    0.000    0.000    0.000    0.000    0.000    0.000 
#
# Total GULP energy -89133.714400 kJ/mol
# GULP energy per Si atom -5570.857150 kJ/mol
# Density = 1.885955 g / cm^3
# Si number density = 18.902570 Si / 1000 Ang^3
#
#
#
# Elastic Constant Matrix: (Units=GPa)
#
#
# Indices 1 2 3 4 5 6 
#
# 1 135.8960 38.6585 28.5885 -9.7871 -2.5882 -8.5220
# 2 38.6585 65.2046 21.5302 -3.5189 -7.9196 4.8385
# 3 28.5885 21.5302 90.6217 5.6986 -18.2972 -5.4653
# 4 -9.7871 -3.5189 5.6986 23.8066 -4.9931 -4.5363
# 5 -2.5882 -7.9196 -18.2972 -4.9931 25.8719 -6.2026
# 6 -8.5220 4.8385 -5.4653 -4.5363 -6.2026 25.7785
#
#
#
# Elastic Compliance Matrix: (Units=1/GPa)
#
#
# Indices 1 2 3 4 5 6 
#
# 1 0.009900 -0.005352 -0.001843 0.004635 0.000075 0.004720
# 2 -0.005352 0.020261 -0.003031 0.000983 0.002402 -0.005464
# 3 -0.001843 -0.003031 0.014849 -0.001572 0.010362 0.005324
# 4 0.004635 0.000983 -0.001572 0.049405 0.012220 0.012649
# 5 0.000075 0.002402 0.010362 0.012220 0.053083 0.016693
# 6 0.004720 -0.005464 0.005324 0.012649 0.016693 0.048749
#
#
# Mechanical properties :
#
#
# Convention : Reuss Voigt Hill
#
# Bulk Modulus (GPa) = 40.72343 52.14187 46.43265
# Shear Modulus (GPa) = 22.23343 28.62108 25.42725
#
# Velocity S-wave (km/s) = 3.43332 3.89541 3.67164
# Velocity P-wave (km/s) = 6.10799 6.91930 6.52626
#
# Compressibility (1/GPa) = 0.02455589
#
# Stress axis : x y z
#
# Youngs Moduli (GPa) = 101.00926 49.35672 67.34556
#
# Poissons Ratio (x) = 0.26415 0.12414
# Poissons Ratio (y) = 0.54060 0.20416
# Poissons Ratio (z) = 0.18620 0.14962
#
# Static dielectric constant tensor:
#      x y z
#    x 1.885570 -0.047250 0.059470 
#    y -0.047250 1.667870 0.015210 
#    z 0.059470 0.015210 1.685680 
# 
# From -- ./inp_files/456516.got.cif
#   From: 2010.05.17/outbox.cif.g08.bks.cpg/sg2_229_cif.got.tgz:456516.got - 2010.06.03 11:33:40.
