data_PCOD9053808
_publ_section_title
;
Structure prediction by ZEFSAII (Michael W. Deem and Ramdas Pophale) SiO2 
 PCOD9053808
Probable space group: P -1
;
_chemical_formula_sum "Si O2"
_cell_formula_units_Z 15
_cell_length_a 11.844435
_cell_length_b 10.755275
_cell_length_c 8.537075
_cell_angle_alpha 64.642872
_cell_angle_beta 97.770183
_cell_angle_gamma 53.951165
_cell_volume 673.806485
_symmetry_space_group_name_H-M "P -1"
_symmetry_group_IT_number 2
_symmetry_cell_setting 'triclinic'
loop_
_space_group_symop_operation_xyz
x,y,z
-x,-y,-z
loop_
_atom_site_type_symbol
_atom_site_label
_atom_site_fract_x
_atom_site_fract_y
_atom_site_fract_z
Si Si1 0.597125 0.640642 0.545588
Si Si2 0.100284 0.677472 0.781193
Si Si3 0.653336 0.462455 0.324818
Si Si4 0.904622 0.940424 0.041632
Si Si5 0.679587 0.322163 0.971055
Si Si6 0.000000 0.500000 0.000000
Si Si7 0.761487 0.059102 0.613166
Si Si8 0.924262 0.489458 0.640025
O O1 0.570751 0.595495 0.393499
O O2 0.666447 0.455824 0.766158
O O3 0.423993 0.836679 0.485025
O O4 0.727179 0.647845 0.535896
O O5 0.204934 0.565484 0.704495
O O6 0.111003 0.543789 0.977559
O O7 0.196137 0.724116 0.852257
O O8 0.905860 0.882705 0.620232
O O9 0.511536 0.555903 0.119460
O O10 0.737356 0.243731 0.500264
O O11 0.014615 0.721841 0.241903
O O12 0.763484 0.109670 0.041067
O O13 0.830652 0.960241 0.850254
O O14 0.000000 0.000000 0.000000
O O15 0.988395 0.501791 0.805086
O O16 0.000000 0.500000 0.500000
#
# Coordination Sequence:
#
# PCOD9053808 Si02
#       8
#     2   2   2   2   2   1   2   2
#     4  11  20  40  67  95 130 170 225 270 342 403
#     4  12  24  40  62  95 137 177 224 271 343 401
#     4  11  22  36  64 106 134 158 215 295 345 388
#     4  12  18  39  70  96 125 168 230 272 330 399
#     4  11  20  39  68  96 130 172 216 283 342 398
#     4  12  24  46  68  84 138 188 226 266 334 412
#     4  11  20  37  65  94 129 171 212 276 338 399
#     4  12  26  45  69  99 135 184 230 275 337 415
#
# _framework density 22.261585
#
# number of rings (size 3 to 8) (size 9 to 14) (size 15 to 20)
#    0.000    0.533    8.000    2.400    0.000    0.000 
#    2.400    2.667    0.000    0.000    0.000    0.000 
#    0.000    0.000    0.000    0.000    0.000    0.000 
#
# Total GULP energy -83521.911326 kJ/mol
# GULP energy per Si atom -5568.127422 kJ/mol
# Density = 2.221092 g / cm^3
# Si number density = 22.261585 Si / 1000 Ang^3
#
#
#
# Elastic Constant Matrix: (Units=GPa)
#
#
# Indices 1 2 3 4 5 6 
#
# 1 126.1807 41.4872 27.8556 -4.9898 -4.2289 -34.7042
# 2 41.4872 68.6638 22.2675 0.1469 10.7214 -29.4125
# 3 27.8556 22.2675 62.4551 3.3690 3.5400 -12.3800
# 4 -4.9898 0.1469 3.3690 31.5759 1.5810 10.1412
# 5 -4.2289 10.7214 3.5400 1.5810 33.0289 6.5559
# 6 -34.7042 -29.4125 -12.3800 10.1412 6.5559 43.4260
#
#
#
# Elastic Compliance Matrix: (Units=1/GPa)
#
#
# Indices 1 2 3 4 5 6 
#
# 1 0.011373 -0.004106 -0.002724 0.000354 0.002044 0.005139
# 2 -0.004106 0.027667 -0.003556 -0.005424 -0.012355 0.017576
# 3 -0.002724 -0.003556 0.019084 -0.002943 -0.001449 0.001761
# 4 0.000354 -0.005424 -0.002943 0.036128 0.002996 -0.013119
# 5 0.002044 -0.012355 -0.001449 0.002996 0.037234 -0.013468
# 6 0.005139 0.017576 0.001761 -0.013119 -0.013468 0.044638
#
#
# Mechanical properties :
#
#
# Convention : Reuss Voigt Hill
#
# Bulk Modulus (GPa) = 26.77346 48.94670 37.86008
# Shear Modulus (GPa) = 23.88358 32.65211 28.26784
#
# Velocity S-wave (km/s) = 3.27901 3.83397 3.56730
# Velocity P-wave (km/s) = 5.13700 6.45243 5.83192
#
# Compressibility (1/GPa) = 0.03735042
#
# Stress axis : x y z
#
# Youngs Moduli (GPa) = 87.92920 36.14363 52.39864
#
# Poissons Ratio (x) = 0.14842 0.14276
# Poissons Ratio (y) = 0.36107 0.18634
# Poissons Ratio (z) = 0.23956 0.12853
#
# Static dielectric constant tensor:
#      x y z
#    x 1.829970 -0.019450 0.011370 
#    y -0.019450 1.917460 0.013820 
#    z 0.011370 0.013820 1.830780 
# 
# From -- ./inp_files/199529.got.cif
#   From: 2010.05.17/outbox.cif.g08.bks.cpg/sg2_100_cif.got.tgz:199529.got - 2010.06.03 11:33:40.
