data_PCOD9053545
_publ_section_title
;
Structure prediction by ZEFSAII (Michael W. Deem and Ramdas Pophale) SiO2 
 PCOD9053545
Probable space group: P -1
;
_chemical_formula_sum "Si O2"
_cell_formula_units_Z 16
_cell_length_a 9.890725
_cell_length_b 9.931490
_cell_length_c 7.699394
_cell_angle_alpha 103.487650
_cell_angle_beta 66.682620
_cell_angle_gamma 124.641749
_cell_volume 571.378194
_symmetry_space_group_name_H-M "P -1"
_symmetry_group_IT_number 2
_symmetry_cell_setting 'triclinic'
loop_
_space_group_symop_operation_xyz
x,y,z
-x,-y,-z
loop_
_atom_site_type_symbol
_atom_site_label
_atom_site_fract_x
_atom_site_fract_y
_atom_site_fract_z
Si Si1 0.166791 0.593474 0.817843
Si Si2 0.552644 0.598431 0.322919
Si Si3 0.594739 0.236174 0.760359
Si Si4 0.060777 0.245006 0.740386
Si Si5 0.769389 0.025902 0.553816
Si Si6 0.927612 0.574085 0.695687
Si Si7 0.537274 0.736586 0.831849
Si Si8 0.945462 0.126460 0.130169
O O1 0.137658 0.430851 0.691619
O O2 0.354063 0.698035 0.832111
O O3 0.113668 0.682983 0.736572
O O4 0.000000 0.500000 0.000000
O O5 0.500000 0.500000 0.500000
O O6 0.459542 0.695978 0.354991
O O7 0.676423 0.855197 0.654362
O O8 0.491134 0.441899 0.182510
O O9 0.655221 0.109798 0.661965
O O10 0.762556 0.406920 0.796886
O O11 0.448228 0.179778 0.965382
O O12 0.950552 0.135850 0.601532
O O13 0.241019 0.279768 0.738396
O O14 0.932467 0.182863 0.953103
O O15 0.808377 0.032315 0.331483
O O16 0.000000 0.500000 0.500000
O O17 0.893042 0.718353 0.793364
O O18 0.000000 0.000000 0.000000
#
# Coordination Sequence:
#
# PCOD9053545 Si02
#       8
#     2   2   2   2   2   2   2   2
#     4  11  19  44  80 115 153 213 279 345 407 499
#     4  11  29  50  79 121 169 218 282 356 429 511
#     4  12  25  50  87 124 163 218 288 360 417 509
#     4  11  25  52  83 114 168 231 284 341 428 518
#     4  12  28  54  87 127 172 223 292 354 429 521
#     4  12  23  45  85 121 155 217 290 345 409 512
#     4  11  26  49  81 123 173 218 277 358 441 503
#     4  12  29  49  80 124 174 227 281 351 437 515
#
# _framework density 28.002471
#
# number of rings (size 3 to 8) (size 9 to 14) (size 15 to 20)
#    0.000    0.500    5.000    1.500    7.000    2.500 
#    2.250    1.250    0.000    0.000    0.000    0.000 
#    0.000    0.000    0.000    0.000    0.000    0.000 
#
# Total GULP energy -89227.324051 kJ/mol
# GULP energy per Si atom -5576.707753 kJ/mol
# Density = 2.793874 g / cm^3
# Si number density = 28.002471 Si / 1000 Ang^3
#
#
#
# Elastic Constant Matrix: (Units=GPa)
#
#
# Indices 1 2 3 4 5 6 
#
# 1 125.5824 25.0641 12.3935 -8.8428 5.5894 -2.3880
# 2 25.0641 150.6224 46.3861 -19.2637 -2.6658 -1.3875
# 3 12.3935 46.3861 182.4032 -11.2498 1.9016 -6.7274
# 4 -8.8428 -19.2637 -11.2498 47.2023 -9.9121 -2.7827
# 5 5.5894 -2.6658 1.9016 -9.9121 30.4259 -11.7215
# 6 -2.3880 -1.3875 -6.7274 -2.7827 -11.7215 36.4073
#
#
#
# Elastic Compliance Matrix: (Units=1/GPa)
#
#
# Indices 1 2 3 4 5 6 
#
# 1 0.008346 -0.001263 -0.000184 0.000722 -0.001366 0.000081
# 2 -0.001263 0.007821 -0.001703 0.003103 0.002383 0.000905
# 3 -0.000184 -0.001703 0.006020 0.000822 0.000227 0.001171
# 4 0.000722 0.003103 0.000822 0.025322 0.010509 0.005636
# 5 -0.001366 0.002383 0.000227 0.010509 0.042310 0.014468
# 6 0.000081 0.000905 0.001171 0.005636 0.014468 0.032812
#
#
# Mechanical properties :
#
#
# Convention : Reuss Voigt Hill
#
# Bulk Modulus (GPa) = 62.94858 69.58838 66.26848
# Shear Modulus (GPa) = 37.25018 47.79137 42.52077
#
# Velocity S-wave (km/s) = 3.65121 4.13568 3.90098
# Velocity P-wave (km/s) = 6.34851 6.90724 6.63376
#
# Compressibility (1/GPa) = 0.01588598
#
# Stress axis : x y z
#
# Youngs Moduli (GPa) = 119.81246 127.85654 166.12593
#
# Poissons Ratio (x) = 0.16152 0.03058
# Poissons Ratio (y) = 0.15136 0.28295
# Poissons Ratio (z) = 0.02206 0.21777
#
# Static dielectric constant tensor:
#      x y z
#    x 2.284100 -0.148470 0.003670 
#    y -0.148470 2.033260 -0.082800 
#    z 0.003670 -0.082800 2.315950 
# 
# From -- ./inp_files/259885.got.cif
#   From: 2010.05.17/outbox.cif.g08.bks.cpg/sg2_130_cif.got.tgz:259885.got - 2010.06.03 11:33:40.
