data_PCOD9053242
_publ_section_title
;
Structure prediction by ZEFSAII (Michael W. Deem and Ramdas Pophale) SiO2 
 PCOD9053242
Probable space group: P -1
;
_chemical_formula_sum "Si O2"
_cell_formula_units_Z 15
_cell_length_a 17.918319
_cell_length_b 21.114639
_cell_length_c 11.867037
_cell_angle_alpha 28.200448
_cell_angle_beta 153.118741
_cell_angle_gamma 158.796798
_cell_volume 699.427400
_symmetry_space_group_name_H-M "P -1"
_symmetry_group_IT_number 2
_symmetry_cell_setting 'triclinic'
loop_
_space_group_symop_operation_xyz
x,y,z
-x,-y,-z
loop_
_atom_site_type_symbol
_atom_site_label
_atom_site_fract_x
_atom_site_fract_y
_atom_site_fract_z
Si Si1 0.021082 0.247175 0.643153
Si Si2 0.313192 0.793829 0.610568
Si Si3 0.163643 0.063647 0.725015
Si Si4 0.918931 0.966035 0.782194
Si Si5 0.398300 0.629278 0.672158
Si Si6 0.386235 0.541039 0.052902
Si Si7 0.500000 0.500000 0.500000
Si Si8 0.140806 0.751476 0.210311
O O1 0.244736 0.451712 0.662174
O O2 0.814818 0.235434 0.403423
O O3 0.980377 0.101682 0.903843
O O4 0.007269 0.157194 0.650089
O O5 0.425787 0.713385 0.879841
O O6 0.132479 0.706379 0.401939
O O7 0.500000 0.000000 0.500000
O O8 0.355908 0.281853 0.639894
O O9 0.000000 0.000000 0.500000
O O10 0.005138 0.993872 0.729996
O O11 0.249794 0.957263 0.012442
O O12 0.648885 0.799719 0.696206
O O13 0.420881 0.569970 0.919222
O O14 0.271882 0.701431 0.407747
O O15 0.118034 0.375173 0.976119
O O16 0.511080 0.514277 0.349410
#
# Coordination Sequence:
#
# PCOD9053242 Si02
#       8
#     2   2   2   2   2   2   1   2
#     4  11  21  38  64 103 145 163 210 288 346 404
#     4  11  19  34  65  99 137 173 221 287 333 391
#     4  12  26  48  69  95 138 182 233 276 334 421
#     4  11  26  39  64 107 139 175 221 279 354 403
#     4  11  22  42  72 103 138 174 218 298 349 387
#     4  11  21  39  66 103 135 178 236 272 338 398
#     4  12  28  40  68  96 134 186 230 272 330 420
#     4  11  20  42  69 100 135 176 236 281 332 400
#
# _framework density 21.446113
#
# number of rings (size 3 to 8) (size 9 to 14) (size 15 to 20)
#    0.000    0.800    5.333    3.600    3.733    1.067 
#    0.000    0.667    0.000    4.000    0.000    0.000 
#    0.000    0.000    0.000    0.000    0.000    0.000 
#
# Total GULP energy -83558.968214 kJ/mol
# GULP energy per Si atom -5570.597881 kJ/mol
# Density = 2.139730 g / cm^3
# Si number density = 21.446113 Si / 1000 Ang^3
#
#
#
# Elastic Constant Matrix: (Units=GPa)
#
#
# Indices 1 2 3 4 5 6 
#
# 1 90.6826 36.1353 35.6732 -4.3813 13.9549 -2.4238
# 2 36.1353 134.2177 36.1836 -30.3389 5.5138 -5.2587
# 3 35.6732 36.1836 67.5187 -13.5325 -3.4481 3.8760
# 4 -4.3813 -30.3389 -13.5325 28.8790 -4.1328 -2.9614
# 5 13.9549 5.5138 -3.4481 -4.1328 37.0417 0.6811
# 6 -2.4238 -5.2587 3.8760 -2.9614 0.6811 33.1879
#
#
#
# Elastic Compliance Matrix: (Units=1/GPa)
#
#
# Indices 1 2 3 4 5 6 
#
# 1 0.016533 -0.003032 -0.008691 -0.005644 -0.007242 0.001387
# 2 -0.003032 0.011479 -0.002541 0.010750 0.000344 0.002846
# 3 -0.008691 -0.002541 0.022748 0.007296 0.006643 -0.003179
# 4 -0.005644 0.010750 0.007296 0.049928 0.006688 0.004757
# 5 -0.007242 0.000344 0.006643 0.006688 0.031062 -0.001291
# 6 0.001387 0.002846 -0.003179 0.004757 -0.001291 0.031506
#
#
# Mechanical properties :
#
#
# Convention : Reuss Voigt Hill
#
# Bulk Modulus (GPa) = 44.97866 56.48924 50.73395
# Shear Modulus (GPa) = 25.10078 32.11683 28.60881
#
# Velocity S-wave (km/s) = 3.42484 3.87403 3.65634
# Velocity P-wave (km/s) = 6.05457 6.81235 6.44460
#
# Compressibility (1/GPa) = 0.02223276
#
# Stress axis : x y z
#
# Youngs Moduli (GPa) = 60.48350 87.11316 43.95905
#
# Poissons Ratio (x) = 0.26414 0.38205
# Poissons Ratio (y) = 0.18340 0.11170
# Poissons Ratio (z) = 0.52566 0.22136
#
# Static dielectric constant tensor:
#      x y z
#    x 1.800320 -0.095710 0.034830 
#    y -0.095710 2.169190 -0.006790 
#    z 0.034830 -0.006790 1.771900 
# 
# From -- ./inp_files/424417.got.cif
#   From: 2010.05.17/outbox.cif.g08.bks.cpg/sg2_213_cif.got.tgz:424417.got - 2010.06.03 11:33:40.
