data_PCOD9053052
_publ_section_title
;
Structure prediction by ZEFSAII (Michael W. Deem and Ramdas Pophale) SiO2 
 PCOD9053052
Probable space group: P -1
;
_chemical_formula_sum "Si O2"
_cell_formula_units_Z 14
_cell_length_a 11.658155
_cell_length_b 13.507850
_cell_length_c 7.611991
_cell_angle_alpha 109.565232
_cell_angle_beta 108.561856
_cell_angle_gamma 130.920725
_cell_volume 559.462411
_symmetry_space_group_name_H-M "P -1"
_symmetry_group_IT_number 2
_symmetry_cell_setting 'triclinic'
loop_
_space_group_symop_operation_xyz
x,y,z
-x,-y,-z
loop_
_atom_site_type_symbol
_atom_site_label
_atom_site_fract_x
_atom_site_fract_y
_atom_site_fract_z
Si Si1 0.326397 0.325386 0.453210
Si Si2 0.751841 0.691564 0.093514
Si Si3 0.835269 0.022578 0.783616
Si Si4 0.047282 0.811774 0.631658
Si Si5 0.230211 0.801216 0.186728
Si Si6 0.607215 0.817900 0.179319
Si Si7 0.919231 0.532715 0.224019
O O1 0.500000 0.500000 0.500000
O O2 0.254012 0.151695 0.278920
O O3 0.103812 0.235162 0.327589
O O4 0.499913 0.457463 0.786700
O O5 0.904569 0.749122 0.351201
O O6 0.721999 0.791559 0.178736
O O7 0.907771 0.801439 0.060254
O O8 0.689723 0.919794 0.468572
O O9 0.799275 0.113690 0.889719
O O10 0.051117 0.688615 0.540890
O O11 0.303590 0.043674 0.854411
O O12 0.060312 0.672844 0.200032
O O13 0.500000 0.000000 0.500000
O O14 0.139318 0.633038 0.934136
O O15 0.335412 0.611142 0.944608
#
# Coordination Sequence:
#
# PCOD9053052 Si02
#       7
#     2   2   2   2   2   2   2
#     4  12  25  36  56  87 122 159 193 235 290 353
#     4  11  20  35  61  85 114 154 187 243 301 346
#     4  11  21  36  56  85 125 150 189 239 298 339
#     4  11  19  35  57  87 115 148 192 242 288 341
#     4  11  22  33  52  89 127 148 185 246 290 342
#     4  11  18  33  59  89 114 149 188 243 287 352
#     4  11  20  31  55  86 118 151 187 231 302 338
#
# _framework density 25.024025999999999
#
# number of rings (size 3 to 8) (size 9 to 14) (size 15 to 20)
#    0.000    0.857    8.571    2.143    0.000    0.571 
#    0.000    0.000    0.000    0.857    0.000    3.000 
#    0.000    0.000    0.000    0.000    0.000    0.000 
#
# Total GULP energy -78190.053959 kJ/mol
# GULP energy per Si atom -5585.003854 kJ/mol
# Density = 2.496707 g / cm^3
# Si number density = 25.024026 Si / 1000 Ang^3
#
#
#
# Elastic Constant Matrix: (Units=GPa)
#
#
# Indices 1 2 3 4 5 6 
#
# 1 144.7111 53.9583 20.6839 25.2548 -38.3353 -10.7750
# 2 53.9583 131.9403 25.7470 33.5005 -3.5277 7.3312
# 3 20.6839 25.7470 65.0238 33.9127 -13.5458 -9.2078
# 4 25.2548 33.5005 33.9127 50.2453 0.2055 -6.1587
# 5 -38.3353 -3.5277 -13.5458 0.2055 63.2661 14.7406
# 6 -10.7750 7.3312 -9.2078 -6.1587 14.7406 47.9677
#
#
#
# Elastic Compliance Matrix: (Units=1/GPa)
#
#
# Indices 1 2 3 4 5 6 
#
# 1 0.010354 -0.003415 0.001474 -0.003860 0.006245 0.000716
# 2 -0.003415 0.010584 -0.001179 -0.004899 -0.001035 -0.002922
# 3 0.001474 -0.001179 0.025839 -0.017250 0.006093 0.001384
# 4 -0.003860 -0.004899 -0.017250 0.037220 -0.007261 0.003580
# 5 0.006245 -0.001035 0.006093 -0.007261 0.022018 -0.004968
# 6 0.000716 -0.002922 0.001384 0.003580 -0.004968 0.023707
#
#
# Mechanical properties :
#
#
# Convention : Reuss Voigt Hill
#
# Bulk Modulus (GPa) = 24.66851 60.27261 42.47056
# Shear Modulus (GPa) = 33.45049 48.38156 40.91602
#
# Velocity S-wave (km/s) = 3.66011 4.40182 4.04799
# Velocity P-wave (km/s) = 5.26699 7.06915 6.23354
#
# Compressibility (1/GPa) = 0.04053751
#
# Stress axis : x y z
#
# Youngs Moduli (GPa) = 96.57871 94.47950 38.70150
#
# Poissons Ratio (x) = 0.32263 -0.05705
# Poissons Ratio (y) = 0.32980 0.04564
# Poissons Ratio (z) = -0.14237 0.11142
#
# Static dielectric constant tensor:
#      x y z
#    x 1.995600 -0.041970 -0.066000 
#    y -0.041970 2.122020 -0.074730 
#    z -0.066000 -0.074730 2.217580 
# 
# From -- ./inp_files/270938.got.cif
#   From: 2010.05.17/outbox.cif.g08.bks.cpg/sg2_136_cif.got.tgz:270938.got - 2010.06.03 11:33:40.
