data_PCOD9053410
_publ_section_title
;
Structure prediction by ZEFSAII (Michael W. Deem and Ramdas Pophale) SiO2 
 PCOD9053410
Probable space group: P -1
;
_chemical_formula_sum "Si O2"
_cell_formula_units_Z 13
_cell_length_a 8.941835
_cell_length_b 8.999160
_cell_length_c 10.145045
_cell_angle_alpha 95.524418
_cell_angle_beta 59.182193
_cell_angle_gamma 129.350509
_cell_volume 509.019099
_symmetry_space_group_name_H-M "P -1"
_symmetry_group_IT_number 2
_symmetry_cell_setting 'triclinic'
loop_
_space_group_symop_operation_xyz
x,y,z
-x,-y,-z
loop_
_atom_site_type_symbol
_atom_site_label
_atom_site_fract_x
_atom_site_fract_y
_atom_site_fract_z
Si Si1 0.693746 0.836474 0.933825
Si Si2 0.335470 0.462289 0.894402
Si Si3 0.000000 0.500000 0.000000
Si Si4 0.301822 0.005827 0.623611
Si Si5 0.558022 0.018606 0.169628
Si Si6 0.207190 0.273099 0.660126
Si Si7 0.046479 0.849251 0.478330
O O1 0.579251 0.680996 0.849704
O O2 0.537085 0.886552 0.051366
O O3 0.690325 0.712262 0.040417
O O4 0.953078 0.058098 0.808086
O O5 0.116846 0.437116 0.034374
O O6 0.301781 0.430402 0.749076
O O7 0.252452 0.739992 0.915077
O O8 0.319330 0.009528 0.772257
O O9 0.072944 0.829895 0.620360
O O10 0.500000 0.000000 0.500000
O O11 0.357736 0.209059 0.572197
O O12 0.301931 0.939221 0.316325
O O13 0.150225 0.323051 0.552692
O O14 0.000000 0.000000 0.500000
#
# Coordination Sequence:
#
# PCOD9053410 Si02
#       7
#     2   2   1   2   2   2   2
#     4  11  23  40  63  99 131 176 209 271 348 394
#     4  11  24  37  59 101 134 167 213 259 345 404
#     4  12  24  36  62 106 136 166 208 272 340 398
#     4   9  19  38  67  93 122 181 223 264 324 388
#     4  11  21  40  67 100 137 170 216 273 338 399
#     4  11  19  39  65  92 133 163 214 278 332 390
#     4   9  21  37  65  99 124 177 225 271 325 382
#
# _framework density 25.539318000000002
#
# number of rings (size 3 to 8) (size 9 to 14) (size 15 to 20)
#    0.000    1.538    3.077    2.308    2.154    1.231 
#    0.000    0.000    0.000   35.077    0.000    0.000 
#    0.000    0.000    0.000    0.000    0.000    0.000 
#
# Total GULP energy -72393.490842 kJ/mol
# GULP energy per Si atom -5568.730065 kJ/mol
# Density = 2.548119 g / cm^3
# Si number density = 25.539318 Si / 1000 Ang^3
#
#
#
# Elastic Constant Matrix: (Units=GPa)
#
#
# Indices 1 2 3 4 5 6 
#
# 1 161.8307 42.4306 30.0915 2.7589 15.0836 25.1919
# 2 42.4306 145.1471 59.4624 23.2219 7.0567 34.5651
# 3 30.0915 59.4624 59.7944 16.0213 5.5839 11.3059
# 4 2.7589 23.2219 16.0213 46.5230 15.4825 9.8057
# 5 15.0836 7.0567 5.5839 15.4825 47.0968 9.2754
# 6 25.1919 34.5651 11.3059 9.8057 9.2754 37.5238
#
#
#
# Elastic Compliance Matrix: (Units=1/GPa)
#
#
# Indices 1 2 3 4 5 6 
#
# 1 0.007621 -0.000163 -0.003332 0.002292 -0.001972 -0.004073
# 2 -0.000163 0.014311 -0.012110 -0.001542 0.001711 -0.009444
# 3 -0.003332 -0.012110 0.030886 -0.005547 -0.000049 0.005548
# 4 0.002292 -0.001542 -0.005547 0.027524 -0.008181 -0.003617
# 5 -0.001972 0.001711 -0.000049 -0.008181 0.025154 -0.004317
# 6 -0.004073 -0.009444 0.005548 -0.003617 -0.004317 0.038424
#
#
# Mechanical properties :
#
#
# Convention : Reuss Voigt Hill
#
# Bulk Modulus (GPa) = 46.28504 70.08234 58.18369
# Shear Modulus (GPa) = 27.42238 41.88124 34.65181
#
# Velocity S-wave (km/s) = 3.28034 4.05393 3.68748
# Velocity P-wave (km/s) = 5.70175 7.02944 6.40011
#
# Compressibility (1/GPa) = 0.02160526
#
# Stress axis : x y z
#
# Youngs Moduli (GPa) = 131.22362 69.87591 32.37735
#
# Poissons Ratio (x) = 0.01142 0.10789
# Poissons Ratio (y) = 0.02144 0.39210
# Poissons Ratio (z) = 0.43729 0.84622
#
# Static dielectric constant tensor:
#      x y z
#    x 2.035540 0.035670 -0.022290 
#    y 0.035670 2.021720 0.105670 
#    z -0.022290 0.105670 2.163770 
# 
# From -- ./inp_files/232465.got.cif
#   From: 2010.05.17/outbox.cif.g08.bks.cpg/sg2_117_cif.got.tgz:232465.got - 2010.06.03 11:33:40.
