data_PCOD9053093
_publ_section_title
;
Structure prediction by ZEFSAII (Michael W. Deem and Ramdas Pophale) SiO2 
 PCOD9053093
Probable space group: P -1
;
_chemical_formula_sum "Si O2"
_cell_formula_units_Z 15
_cell_length_a 20.919673
_cell_length_b 9.890932
_cell_length_c 9.490380
_cell_angle_alpha 61.202538
_cell_angle_beta 37.502114
_cell_angle_gamma 34.073513
_cell_volume 574.408150
_symmetry_space_group_name_H-M "P -1"
_symmetry_group_IT_number 2
_symmetry_cell_setting 'triclinic'
loop_
_space_group_symop_operation_xyz
x,y,z
-x,-y,-z
loop_
_atom_site_type_symbol
_atom_site_label
_atom_site_fract_x
_atom_site_fract_y
_atom_site_fract_z
Si Si1 0.865421 0.361134 0.967318
Si Si2 0.443804 0.814654 0.135919
Si Si3 0.718196 0.508715 0.577111
Si Si4 0.295709 0.700702 0.536965
Si Si5 0.818046 0.666056 0.146643
Si Si6 0.000000 0.000000 0.500000
Si Si7 0.148230 0.422611 0.371315
Si Si8 0.774698 0.993981 0.872734
O O1 0.784206 0.532178 0.880699
O O2 0.737403 0.379632 0.240302
O O3 0.872526 0.486567 0.010443
O O4 0.081904 0.036861 0.723423
O O5 0.434535 0.675778 0.318520
O O6 0.318839 0.102660 0.278989
O O7 0.331265 0.909545 0.137806
O O8 0.637969 0.628404 0.815527
O O9 0.635957 0.482750 0.625096
O O10 0.702057 0.693844 0.436960
O O11 0.932619 0.178968 0.386654
O O12 0.719645 0.938666 0.116456
O O13 0.000000 0.500000 0.000000
O O14 0.796746 0.148809 0.776027
O O15 0.000000 0.500000 0.500000
O O16 0.001397 0.674810 0.610927
#
# Coordination Sequence:
#
# PCOD9053093 Si02
#       8
#     2   2   2   2   2   1   2   2
#     4  10  18  33  58  88 111 153 194 239 279 331
#     4  11  20  37  59  89 117 147 196 248 283 328
#     4  11  24  36  58  88 117 154 192 239 293 345
#     4  10  19  33  56  87 117 143 196 245 275 329
#     4  11  21  37  56  86 119 151 194 231 291 353
#     4  12  22  38  56  82 116 160 188 224 300 358
#     4  10  17  35  59  85 112 149 200 237 280 334
#     4  11  21  37  63  84 117 156 192 239 280 347
#
# _framework density 26.113835999999999
#
# number of rings (size 3 to 8) (size 9 to 14) (size 15 to 20)
#    0.000    1.333    8.000    0.400    0.000    0.533 
#    0.000    0.667    0.000    0.000    0.000    8.400 
#    0.000    0.000    0.000    0.000    0.000    0.000 
#
# Total GULP energy -83644.063127 kJ/mol
# GULP energy per Si atom -5576.270875 kJ/mol
# Density = 2.605440 g / cm^3
# Si number density = 26.113836 Si / 1000 Ang^3
#
#
#
# Elastic Constant Matrix: (Units=GPa)
#
#
# Indices 1 2 3 4 5 6 
#
# 1 75.8204 19.7819 -0.2163 -4.9088 2.9849 2.1809
# 2 19.7819 105.7511 38.1514 -35.3731 9.4095 9.9007
# 3 -0.2163 38.1514 104.4207 -24.0455 16.8898 15.8233
# 4 -4.9088 -35.3731 -24.0455 64.3697 2.1414 0.5413
# 5 2.9849 9.4095 16.8898 2.1414 32.9040 1.7376
# 6 2.1809 9.9007 15.8233 0.5413 1.7376 33.2302
#
#
#
# Elastic Compliance Matrix: (Units=1/GPa)
#
#
# Indices 1 2 3 4 5 6 
#
# 1 0.014029 -0.002967 0.001389 0.000000 -0.001103 -0.000640
# 2 -0.002967 0.013563 -0.002723 0.006314 -0.002490 -0.002522
# 3 0.001389 -0.002723 0.013247 0.003807 -0.006114 -0.005330
# 4 0.000000 0.006314 0.003807 0.020622 -0.004902 -0.003773
# 5 -0.001103 -0.002490 -0.006114 -0.004902 0.034555 0.001998
# 6 -0.000640 -0.002522 -0.005330 -0.003773 0.001998 0.033382
#
#
# Mechanical properties :
#
#
# Convention : Reuss Voigt Hill
#
# Bulk Modulus (GPa) = 31.02014 44.60292 37.81153
# Shear Modulus (GPa) = 33.61427 41.31913 37.46670
#
# Velocity S-wave (km/s) = 3.59168 3.98209 3.79191
# Velocity P-wave (km/s) = 5.39489 6.18547 5.80365
#
# Compressibility (1/GPa) = 0.03223712
#
# Stress axis : x y z
#
# Youngs Moduli (GPa) = 71.28091 73.72921 75.48638
#
# Poissons Ratio (x) = 0.21876 -0.10482
# Poissons Ratio (y) = 0.21150 0.20553
# Poissons Ratio (z) = -0.09898 0.20074
#
# Static dielectric constant tensor:
#      x y z
#    x 2.120790 0.022940 -0.091590 
#    y 0.022940 2.043900 0.018900 
#    z -0.091590 0.018900 2.170280 
# 
# From -- ./inp_files/477558.got.cif
#   From: 2010.05.17/outbox.cif.g08.bks.cpg/sg2_239_cif.got.tgz:477558.got - 2010.06.03 11:33:40.
