data_PCOD9053629
_publ_section_title
;
Structure prediction by ZEFSAII (Michael W. Deem and Ramdas Pophale) SiO2 
 PCOD9053629
Probable space group: P -1
;
_chemical_formula_sum "Si O2"
_cell_formula_units_Z 16
_cell_length_a 8.782608
_cell_length_b 13.465729
_cell_length_c 19.019419
_cell_angle_alpha 21.004909
_cell_angle_beta 128.302096
_cell_angle_gamma 121.069861
_cell_volume 616.882571
_symmetry_space_group_name_H-M "P -1"
_symmetry_group_IT_number 2
_symmetry_cell_setting 'triclinic'
loop_
_space_group_symop_operation_xyz
x,y,z
-x,-y,-z
loop_
_atom_site_type_symbol
_atom_site_label
_atom_site_fract_x
_atom_site_fract_y
_atom_site_fract_z
Si Si1 0.069113 0.897384 0.262486
Si Si2 0.380005 0.700064 0.703100
Si Si3 0.477582 0.595362 0.538095
Si Si4 0.375255 0.843261 0.828471
Si Si5 0.972897 0.755223 0.473613
Si Si6 0.644564 0.729869 0.628721
Si Si7 0.076397 0.470490 0.959864
Si Si8 0.147823 0.781087 0.138729
O O1 0.244017 0.708755 0.390111
O O2 0.015347 0.703050 0.437960
O O3 0.139256 0.149534 0.160395
O O4 0.898498 0.069391 0.049278
O O5 0.172444 0.808257 0.532346
O O6 0.564302 0.694592 0.706979
O O7 0.394532 0.929534 0.614597
O O8 0.418040 0.374159 0.951374
O O9 0.525417 0.556344 0.660409
O O10 0.611052 0.326264 0.713758
O O11 0.568377 0.871971 0.369912
O O12 0.246477 0.647037 0.881821
O O13 0.214742 0.977156 0.754423
O O14 0.922594 0.506680 0.671411
O O15 0.878797 0.614826 0.764819
O O16 0.000000 0.500000 0.000000
O O17 0.000000 0.000000 0.000000
#
# Coordination Sequence:
#
# PCOD9053629 Si02
#       8
#     2   2   2   2   2   2   2   2
#     4  12  23  43  73  95 129 178 214 263 326 387
#     4  11  20  35  60  93 134 171 210 253 302 376
#     4  11  25  42  63  96 125 167 223 267 322 390
#     4  11  23  36  59  92 139 178 207 260 312 377
#     4  11  23  42  69  96 128 173 221 260 327 395
#     4  11  20  34  58  92 133 171 208 254 300 380
#     4  12  20  36  60  97 137 179 215 249 313 385
#     4  11  28  50  68  95 129 161 218 292 339 381
#
# _framework density 25.936865000000001
#
# number of rings (size 3 to 8) (size 9 to 14) (size 15 to 20)
#    0.000    0.750    6.250    1.500    0.000    4.500 
#    0.000    0.625    0.000    0.000    0.000    0.000 
#    0.000    0.000    0.000    0.000    0.000    0.000 
#
# Total GULP energy -89386.778797 kJ/mol
# GULP energy per Si atom -5586.673675 kJ/mol
# Density = 2.587783 g / cm^3
# Si number density = 25.936865 Si / 1000 Ang^3
#
#
#
# Elastic Constant Matrix: (Units=GPa)
#
#
# Indices 1 2 3 4 5 6 
#
# 1 90.6225 13.0686 35.5408 -2.3096 17.8272 1.9386
# 2 13.0686 42.1945 20.8177 0.3598 8.5058 0.6325
# 3 35.5408 20.8177 135.9885 1.0478 41.5336 -1.9405
# 4 -2.3096 0.3598 1.0478 32.8854 -4.9124 4.0936
# 5 17.8272 8.5058 41.5336 -4.9124 50.1598 -8.5695
# 6 1.9386 0.6325 -1.9405 4.0936 -8.5695 29.9213
#
#
#
# Elastic Compliance Matrix: (Units=1/GPa)
#
#
# Indices 1 2 3 4 5 6 
#
# 1 0.012808 -0.002329 -0.002257 0.000842 -0.002507 -0.001760
# 2 -0.002329 0.026188 -0.003006 -0.000438 -0.001324 -0.000917
# 3 -0.002257 -0.003006 0.010848 -0.001523 -0.008021 -0.001175
# 4 0.000842 -0.000438 -0.001523 0.031477 0.003531 -0.003439
# 5 -0.002507 -0.001324 -0.008021 0.003531 0.029335 0.007589
# 6 -0.001760 -0.000917 -0.001175 -0.003439 0.007589 0.036122
#
#
# Mechanical properties :
#
#
# Convention : Reuss Voigt Hill
#
# Bulk Modulus (GPa) = 28.85048 45.29550 37.07299
# Shear Modulus (GPa) = 28.81587 35.88521 32.35054
#
# Velocity S-wave (km/s) = 3.33678 3.72366 3.53552
# Velocity P-wave (km/s) = 5.09833 5.99910 5.56696
#
# Compressibility (1/GPa) = 0.03466147
#
# Stress axis : x y z
#
# Youngs Moduli (GPa) = 78.07650 38.18486 92.18119
#
# Poissons Ratio (x) = 0.08893 0.20804
# Poissons Ratio (y) = 0.18183 0.27707
# Poissons Ratio (z) = 0.17621 0.11477
#
# Static dielectric constant tensor:
#      x y z
#    x 2.054740 -0.054560 -0.025390 
#    y -0.054560 2.081930 0.002480 
#    z -0.025390 0.002480 2.085250 
# 
# From -- ./inp_files/186428.got.cif
#   From: 2010.05.17/outbox.cif.g08.bks.cpg/sg2_94_cif.got.tgz:186428.got - 2010.06.03 11:33:40.
