data_PCOD9053018
_publ_section_title
;
Structure prediction by ZEFSAII (Michael W. Deem and Ramdas Pophale) SiO2 
 PCOD9053018
Probable space group: P -1
;
_chemical_formula_sum "Si O2"
_cell_formula_units_Z 14
_cell_length_a 10.664088
_cell_length_b 7.984508
_cell_length_c 12.511346
_cell_angle_alpha 35.117845
_cell_angle_beta 111.703745
_cell_angle_gamma 97.490092
_cell_volume 539.047402
_symmetry_space_group_name_H-M "P -1"
_symmetry_group_IT_number 2
_symmetry_cell_setting 'triclinic'
loop_
_space_group_symop_operation_xyz
x,y,z
-x,-y,-z
loop_
_atom_site_type_symbol
_atom_site_label
_atom_site_fract_x
_atom_site_fract_y
_atom_site_fract_z
Si Si1 0.246835 0.384669 0.514214
Si Si2 0.940468 0.082482 0.698827
Si Si3 0.176835 0.520191 0.747735
Si Si4 0.305232 0.858259 0.141564
Si Si5 0.557586 0.525788 0.274577
Si Si6 0.345858 0.072317 0.271323
Si Si7 0.216168 0.736091 0.870831
O O1 0.099746 0.626999 0.385791
O O2 0.274707 0.551319 0.329624
O O3 0.353115 0.403466 0.633174
O O4 0.254473 0.035278 0.691180
O O5 0.912661 0.238019 0.491715
O O6 0.817672 0.926852 0.760914
O O7 0.098649 0.846515 0.869253
O O8 0.342675 0.484169 0.789581
O O9 0.144733 0.637405 0.795739
O O10 0.176868 0.171135 0.920610
O O11 0.405133 0.777715 0.111671
O O12 0.378720 0.947347 0.225432
O O13 0.560767 0.185495 0.485593
O O14 0.342647 0.420892 0.100757
#
# Coordination Sequence:
#
# PCOD9053018 Si02
#       7
#     2   2   2   2   2   2   2
#     4   9  19  31  49  74  94 121 163 195 231 281
#     4   9  18  34  50  68  96 131 158 186 231 288
#     4   9  19  31  49  73  92 124 165 187 230 292
#     4   9  16  33  53  67  93 130 159 191 231 285
#     4   9  17  35  52  68  93 128 160 192 231 287
#     4   8  17  29  49  73  90 121 164 187 227 287
#     4  11  18  31  49  73 101 121 151 206 236 262
#
# _framework density 25.971743
#
# number of rings (size 3 to 8) (size 9 to 14) (size 15 to 20)
#    0.000    3.429    0.000    3.429    0.000    0.000 
#    0.000   13.571    0.000    0.000    0.000    0.000 
#    0.000    0.000    0.000    0.000    0.000    0.000 
#
# Total GULP energy -78271.235990 kJ/mol
# GULP energy per Si atom -5590.802571 kJ/mol
# Density = 2.591263 g / cm^3
# Si number density = 25.971743 Si / 1000 Ang^3
#
#
#
# Elastic Constant Matrix: (Units=GPa)
#
#
# Indices 1 2 3 4 5 6 
#
# 1 53.6719 35.9821 27.9239 -16.6810 6.4708 -16.1381
# 2 35.9821 64.7418 32.7886 -27.3875 -9.2951 0.2052
# 3 27.9239 32.7886 170.3633 -38.5437 -13.8339 -4.4216
# 4 -16.6810 -27.3875 -38.5437 54.2718 -3.0099 -1.9852
# 5 6.4708 -9.2951 -13.8339 -3.0099 33.3733 0.2157
# 6 -16.1381 0.2052 -4.4216 -1.9852 0.2157 29.0003
#
#
#
# Elastic Compliance Matrix: (Units=1/GPa)
#
#
# Indices 1 2 3 4 5 6 
#
# 1 0.051532 -0.030776 -0.004082 -0.002705 -0.020682 0.028241
# 2 -0.030776 0.039701 0.001169 0.011835 0.018684 -0.016558
# 3 -0.004082 0.001169 0.007853 0.005153 0.004842 -0.000766
# 4 -0.002705 0.011835 0.005153 0.027733 0.008451 0.001032
# 5 -0.020682 0.018684 0.004842 0.008451 0.042016 -0.010637
# 6 0.028241 -0.016558 -0.000766 0.001032 -0.010637 0.050348
#
#
# Mechanical properties :
#
#
# Convention : Reuss Voigt Hill
#
# Bulk Modulus (GPa) = 31.53846 53.57405 42.55625
# Shear Modulus (GPa) = 16.82758 36.13456 26.48107
#
# Velocity S-wave (km/s) = 2.54819 3.73406 3.19660
# Velocity P-wave (km/s) = 4.56371 6.26607 5.48138
#
# Compressibility (1/GPa) = 0.03170732
#
# Stress axis : x y z
#
# Youngs Moduli (GPa) = 19.40524 25.18856 127.33958
#
# Poissons Ratio (x) = 0.77522 0.51975
# Poissons Ratio (y) = 0.59722 -0.14883
# Poissons Ratio (z) = 0.07921 -0.02944
#
# Static dielectric constant tensor:
#      x y z
#    x 2.089210 0.064300 0.008150 
#    y 0.064300 2.012590 -0.021330 
#    z 0.008150 -0.021330 2.030600 
# 
# From -- ./inp_files/172453.got.cif
#   From: 2010.05.17/outbox.cif.g08.bks.cpg/sg2_87_cif.got.tgz:172453.got - 2010.06.03 11:33:40.
