data_PCOD9053416
_publ_section_title
;
Structure prediction by ZEFSAII (Michael W. Deem and Ramdas Pophale) SiO2 
 PCOD9053416
Probable space group: P -1
;
_chemical_formula_sum "Si O2"
_cell_formula_units_Z 16
_cell_length_a 6.161321
_cell_length_b 17.689934
_cell_length_c 8.129138
_cell_angle_alpha 104.130878
_cell_angle_beta 70.811943
_cell_angle_gamma 69.351814
_cell_volume 715.122244
_symmetry_space_group_name_H-M "P -1"
_symmetry_group_IT_number 2
_symmetry_cell_setting 'triclinic'
loop_
_space_group_symop_operation_xyz
x,y,z
-x,-y,-z
loop_
_atom_site_type_symbol
_atom_site_label
_atom_site_fract_x
_atom_site_fract_y
_atom_site_fract_z
Si Si1 0.807812 0.881637 0.617348
Si Si2 0.990690 0.911895 0.907211
Si Si3 0.524731 0.172465 0.083381
Si Si4 0.910373 0.756758 0.246605
Si Si5 0.509864 0.923207 0.244660
Si Si6 0.516615 0.329785 0.046875
Si Si7 0.692128 0.542871 0.526822
Si Si8 0.218084 0.404377 0.829243
O O1 0.623725 0.861842 0.776005
O O2 0.948957 0.794491 0.429621
O O3 0.984723 0.900634 0.709237
O O4 0.655487 0.974890 0.608234
O O5 0.249321 0.829980 0.862123
O O6 0.743402 0.918682 0.069805
O O7 0.000000 0.000000 0.000000
O O8 0.376661 0.269366 0.093198
O O9 0.642948 0.105996 0.864368
O O10 0.650677 0.842450 0.291331
O O11 0.874329 0.670277 0.206469
O O12 0.174073 0.731523 0.071050
O O13 0.452110 0.396740 0.248231
O O14 0.425979 0.371455 0.910438
O O15 0.500000 0.500000 0.500000
O O16 0.701431 0.584657 0.369829
O O17 0.000000 0.500000 0.500000
O O18 0.000000 0.500000 0.000000
#
# Coordination Sequence:
#
# PCOD9053416 Si02
#       8
#     2   2   2   2   2   2   2   2
#     4  11  24  39  68 102 144 195 254 308 372 451
#     4  11  19  39  66  93 134 192 253 299 370 445
#     4  11  21  42  66  98 139 192 246 302 369 450
#     4  12  27  44  68 109 151 189 252 319 380 457
#     4  11  21  41  66  98 142 195 243 304 370 447
#     4  12  27  48  77 109 155 199 251 320 389 471
#     4  12  29  53  86 119 150 202 261 318 400 482
#     4  12  27  53  81 109 153 194 251 321 394 469
#
# _framework density 22.373795000000001
#
# number of rings (size 3 to 8) (size 9 to 14) (size 15 to 20)
#    0.000    0.500    6.250    2.625    1.750    3.000 
#    0.000    1.250    0.000    0.000    0.000    0.000 
#    0.000    0.000    0.000    0.000    0.000    0.000 
#
# Total GULP energy -89148.253405 kJ/mol
# GULP energy per Si atom -5571.765838 kJ/mol
# Density = 2.232287 g / cm^3
# Si number density = 22.373795 Si / 1000 Ang^3
#
#
#
# Elastic Constant Matrix: (Units=GPa)
#
#
# Indices 1 2 3 4 5 6 
#
# 1 88.9865 51.0658 37.1098 1.9774 26.4659 0.6039
# 2 51.0658 134.1267 39.7211 -7.2680 17.0494 5.9669
# 3 37.1098 39.7211 118.4493 15.1595 35.6934 4.9916
# 4 1.9774 -7.2680 15.1595 38.2265 2.1423 10.4780
# 5 26.4659 17.0494 35.6934 2.1423 38.3060 4.2383
# 6 0.6039 5.9669 4.9916 10.4780 4.2383 37.1310
#
#
#
# Elastic Compliance Matrix: (Units=1/GPa)
#
#
# Indices 1 2 3 4 5 6 
#
# 1 0.017386 -0.005434 -0.000781 -0.001724 -0.009014 0.002211
# 2 -0.005434 0.010436 -0.002703 0.003936 0.001688 -0.002529
# 3 -0.000781 -0.002703 0.013458 -0.005607 -0.010642 0.001435
# 4 -0.001724 0.003936 -0.005607 0.031521 0.003918 -0.009193
# 5 -0.009014 0.001688 -0.010642 0.003918 0.041785 -0.004569
# 6 0.002211 -0.002529 0.001435 -0.009193 -0.004569 0.030225
#
#
# Mechanical properties :
#
#
# Convention : Reuss Voigt Hill
#
# Bulk Modulus (GPa) = 42.65518 66.37287 54.51403
# Shear Modulus (GPa) = 29.33220 36.97709 33.15464
#
# Velocity S-wave (km/s) = 3.62471 4.06975 3.85366
# Velocity P-wave (km/s) = 6.05179 7.19817 6.64973
#
# Compressibility (1/GPa) = 0.02344381
#
# Stress axis : x y z
#
# Youngs Moduli (GPa) = 57.51799 95.82039 74.30729
#
# Poissons Ratio (x) = 0.52068 0.05804
# Poissons Ratio (y) = 0.31255 0.20085
# Poissons Ratio (z) = 0.04492 0.25900
#
# Static dielectric constant tensor:
#      x y z
#    x 1.950820 -0.018880 0.026860 
#    y -0.018880 1.930050 -0.021160 
#    z 0.026860 -0.021160 1.819860 
# 
# From -- ./inp_files/139229.got.cif
#   From: 2010.05.17/outbox.cif.g08.bks.cpg/sg2_70_cif.got.tgz:139229.got - 2010.06.03 11:33:40.
