data_PCOD9053788
_publ_section_title
;
Structure prediction by ZEFSAII (Michael W. Deem and Ramdas Pophale) SiO2 
 PCOD9053788
Probable space group: P -1
;
_chemical_formula_sum "Si O2"
_cell_formula_units_Z 16
_cell_length_a 15.821571
_cell_length_b 7.702526
_cell_length_c 13.645974
_cell_angle_alpha 143.488000
_cell_angle_beta 53.135369
_cell_angle_gamma 134.967095
_cell_volume 698.038400
_symmetry_space_group_name_H-M "P -1"
_symmetry_group_IT_number 2
_symmetry_cell_setting 'triclinic'
loop_
_space_group_symop_operation_xyz
x,y,z
-x,-y,-z
loop_
_atom_site_type_symbol
_atom_site_label
_atom_site_fract_x
_atom_site_fract_y
_atom_site_fract_z
Si Si1 0.306075 0.228714 0.681449
Si Si2 0.877927 0.999098 0.000959
Si Si3 0.733211 0.132911 0.004027
Si Si4 0.537637 0.718799 0.822928
Si Si5 0.048198 0.861405 0.675038
Si Si6 0.120038 0.100958 0.525385
Si Si7 0.878876 0.444612 0.850123
Si Si8 0.364247 0.278983 0.453652
O O1 0.424893 0.355376 0.722081
O O2 0.313482 0.085558 0.504470
O O3 0.174142 0.973800 0.693823
O O4 0.306324 0.582204 0.824562
O O5 0.823897 0.685245 0.967764
O O6 0.955268 0.911470 0.828706
O O7 0.787622 0.074441 0.037488
O O8 0.978799 0.320428 0.130850
O O9 0.828112 0.272976 0.911390
O O10 0.630014 0.784454 0.876327
O O11 0.607668 0.820884 0.717056
O O12 0.500000 0.000000 0.000000
O O13 0.080366 0.090133 0.659768
O O14 0.000000 0.500000 0.500000
O O15 0.144252 0.802039 0.334951
O O16 0.259577 0.386464 0.549915
O O17 0.000000 0.000000 0.500000
O O18 0.500000 0.500000 0.500000
#
# Coordination Sequence:
#
# PCOD9053788 Si02
#       8
#     2   2   2   2   2   2   2   2
#     4   9  20  34  59  85 114 156 199 246 302 360
#     4  11  24  37  56  88 121 158 200 245 305 365
#     4  11  20  37  63  85 117 155 201 249 298 360
#     4   9  18  34  59  89 112 155 206 248 296 358
#     4  11  21  37  54  82 119 155 191 246 312 356
#     4  11  22  34  59  89 117 154 201 248 302 361
#     4  11  22  38  57  86 122 160 197 248 303 359
#     4   9  18  34  54  87 118 149 201 242 296 366
#
# _framework density 22.921377
#
# number of rings (size 3 to 8) (size 9 to 14) (size 15 to 20)
#    0.000    1.750    3.750    1.125    3.500    0.000 
#    0.000    0.000    0.000    9.000    0.000    0.000 
#    0.000    0.000    0.000    0.000    0.000    0.000 
#
# Total GULP energy -89071.226746 kJ/mol
# GULP energy per Si atom -5566.951672 kJ/mol
# Density = 2.286921 g / cm^3
# Si number density = 22.921377 Si / 1000 Ang^3
#
#
#
# Elastic Constant Matrix: (Units=GPa)
#
#
# Indices 1 2 3 4 5 6 
#
# 1 114.8902 34.0107 0.8502 14.0348 18.6657 25.5378
# 2 34.0107 50.0715 14.8014 2.0689 -4.1709 27.6785
# 3 0.8502 14.8014 98.9587 -7.4661 25.5271 10.4617
# 4 14.0348 2.0689 -7.4661 41.0269 10.4376 8.2283
# 5 18.6657 -4.1709 25.5271 10.4376 28.9099 1.2508
# 6 25.5378 27.6785 10.4617 8.2283 1.2508 33.8209
#
#
#
# Elastic Compliance Matrix: (Units=1/GPa)
#
#
# Indices 1 2 3 4 5 6 
#
# 1 0.016141 -0.012675 0.007310 0.002139 -0.019308 -0.003882
# 2 -0.012675 0.050090 -0.011561 -0.001555 0.027412 -0.028481
# 3 0.007310 -0.011561 0.019823 0.009273 -0.027090 -0.003444
# 4 0.002139 -0.001555 0.009273 0.032898 -0.021219 -0.010429
# 5 -0.019308 0.027412 -0.027090 -0.021219 0.082478 0.002638
# 6 -0.003882 -0.028481 -0.003444 -0.010429 0.002638 0.059312
#
#
# Mechanical properties :
#
#
# Convention : Reuss Voigt Hill
#
# Bulk Modulus (GPa) = 19.15659 40.36056 29.75857
# Shear Modulus (GPa) = 16.02590 35.03544 25.53067
#
# Velocity S-wave (km/s) = 2.64705 3.91385 3.34104
# Velocity P-wave (km/s) = 4.20929 6.17015 5.28152
#
# Compressibility (1/GPa) = 0.05220136
#
# Stress axis : x y z
#
# Youngs Moduli (GPa) = 61.95572 19.96415 50.44594
#
# Poissons Ratio (x) = 0.25305 -0.36874
# Poissons Ratio (y) = 0.78529 0.58318
# Poissons Ratio (z) = -0.45287 0.23080
#
# Static dielectric constant tensor:
#      x y z
#    x 1.956280 0.065160 0.006270 
#    y 0.065160 1.981580 0.014150 
#    z 0.006270 0.014150 1.889380 
# 
# From -- ./inp_files/423570.got.cif
#   From: 2010.05.17/outbox.cif.g08.bks.cpg/sg2_212_cif.got.tgz:423570.got - 2010.06.03 11:33:40.
