data_PCOD9053268
_publ_section_title
;
Structure prediction by ZEFSAII (Michael W. Deem and Ramdas Pophale) SiO2 
 PCOD9053268
Probable space group: P -1
;
_chemical_formula_sum "Si O2"
_cell_formula_units_Z 16
_cell_length_a 12.351137
_cell_length_b 19.790453
_cell_length_c 18.079087
_cell_angle_alpha 20.675225
_cell_angle_beta 33.122419
_cell_angle_gamma 33.061451
_cell_volume 817.829385
_symmetry_space_group_name_H-M "P -1"
_symmetry_group_IT_number 2
_symmetry_cell_setting 'triclinic'
loop_
_space_group_symop_operation_xyz
x,y,z
-x,-y,-z
loop_
_atom_site_type_symbol
_atom_site_label
_atom_site_fract_x
_atom_site_fract_y
_atom_site_fract_z
Si Si1 0.564872 0.077586 0.678278
Si Si2 0.175837 0.421160 0.573890
Si Si3 0.577952 0.726631 0.926262
Si Si4 0.872585 0.303979 0.242012
Si Si5 0.111448 0.778200 0.132143
Si Si6 0.019151 0.224611 0.408705
Si Si7 0.803535 0.893053 0.861082
Si Si8 0.287336 0.453103 0.646056
O O1 0.535404 0.880853 0.860828
O O2 0.614181 0.041176 0.773796
O O3 0.374986 0.268590 0.578917
O O4 0.764159 0.126806 0.479433
O O5 0.109710 0.624384 0.357443
O O6 0.242070 0.464492 0.573331
O O7 0.006975 0.298522 0.787945
O O8 0.738035 0.793055 0.712972
O O9 0.704206 0.507989 0.107008
O O10 0.350498 0.745122 0.007671
O O11 0.941983 0.298644 0.293177
O O12 0.063899 0.252453 0.129415
O O13 0.000000 0.000000 0.000000
O O14 0.895862 0.387459 0.369975
O O15 0.949744 0.025690 0.668201
O O16 0.723518 0.762088 0.098820
O O17 0.500000 0.500000 0.500000
#
# Coordination Sequence:
#
# PCOD9053268 Si02
#       8
#     2   2   2   2   2   2   2   2
#     4  11  20  35  65  96 129 161 210 265 312 377
#     4  11  26  45  61  96 131 167 218 265 319 381
#     4  12  20  35  68  95 116 163 219 269 319 358
#     4  11  19  35  60  98 133 160 214 265 313 373
#     4  11  25  44  71  92 119 167 225 280 317 361
#     4  11  22  37  61  97 130 169 210 260 320 380
#     4  11  22  37  61  98 136 171 201 258 323 385
#     4  12  27  41  62  94 139 178 203 248 326 406
#
# _framework density 19.563981999999999
#
# number of rings (size 3 to 8) (size 9 to 14) (size 15 to 20)
#    0.000    0.750    6.250    3.375    1.750    3.000 
#    0.000    0.625    0.000    1.500    0.000    0.000 
#    0.000    0.000    0.000    0.000    0.000    0.000 
#
# Total GULP energy -89373.658274 kJ/mol
# GULP energy per Si atom -5585.853642 kJ/mol
# Density = 1.951945 g / cm^3
# Si number density = 19.563982 Si / 1000 Ang^3
#
#
#
# Elastic Constant Matrix: (Units=GPa)
#
#
# Indices 1 2 3 4 5 6 
#
# 1 87.7955 25.2057 29.5279 8.8295 -22.0821 -7.5648
# 2 25.2057 99.7827 24.9605 -6.3587 -11.4497 -10.5400
# 3 29.5279 24.9605 111.4327 -4.7537 -18.3652 -9.5936
# 4 8.8295 -6.3587 -4.7537 42.7377 -9.0617 -7.6811
# 5 -22.0821 -11.4497 -18.3652 -9.0617 32.9805 7.7811
# 6 -7.5648 -10.5400 -9.5936 -7.6811 7.7811 28.1765
#
#
#
# Elastic Compliance Matrix: (Units=1/GPa)
#
#
# Indices 1 2 3 4 5 6 
#
# 1 0.014924 -0.002534 -0.002310 -0.002234 0.007295 -0.000351
# 2 -0.002534 0.011755 -0.001229 0.003159 0.001697 0.003691
# 3 -0.002310 -0.001229 0.010887 0.002821 0.004346 0.002196
# 4 -0.002234 0.003159 0.002821 0.027406 0.007034 0.007071
# 5 0.007295 0.001697 0.004346 0.007034 0.041434 -0.005451
# 6 -0.000351 0.003691 0.002196 0.007071 -0.005451 0.040958
#
#
# Mechanical properties :
#
#
# Convention : Reuss Voigt Hill
#
# Bulk Modulus (GPa) = 39.34101 50.93324 45.13712
# Shear Modulus (GPa) = 29.76464 35.40007 32.58235
#
# Velocity S-wave (km/s) = 3.90474 4.25838 4.08539
# Velocity P-wave (km/s) = 6.36254 7.09007 6.73613
#
# Compressibility (1/GPa) = 0.02541877
#
# Stress axis : x y z
#
# Youngs Moduli (GPa) = 67.00665 85.06744 91.85052
#
# Poissons Ratio (x) = 0.21559 0.21218
# Poissons Ratio (y) = 0.16982 0.11293
# Poissons Ratio (z) = 0.15479 0.10459
#
# Static dielectric constant tensor:
#      x y z
#    x 1.692080 -0.020660 -0.036570 
#    y -0.020660 1.700930 0.002740 
#    z -0.036570 0.002740 1.729920 
# 
# From -- ./inp_files/570656.got.cif
#   From: 2010.05.17/outbox.cif.g08.bks.cpg/sg2_286_cif.got.tgz:570656.got - 2010.06.03 11:33:40.
