data_PCOD9053161
_publ_section_title
;
Structure prediction by ZEFSAII (Michael W. Deem and Ramdas Pophale) SiO2 
 PCOD9053161
Probable space group: P -1
;
_chemical_formula_sum "Si O2"
_cell_formula_units_Z 16
_cell_length_a 11.362677
_cell_length_b 10.614485
_cell_length_c 8.195648
_cell_angle_alpha 97.684106
_cell_angle_beta 52.090571
_cell_angle_gamma 92.693583
_cell_volume 772.100018
_symmetry_space_group_name_H-M "P -1"
_symmetry_group_IT_number 2
_symmetry_cell_setting 'triclinic'
loop_
_space_group_symop_operation_xyz
x,y,z
-x,-y,-z
loop_
_atom_site_type_symbol
_atom_site_label
_atom_site_fract_x
_atom_site_fract_y
_atom_site_fract_z
Si Si1 0.598133 0.248607 0.996775
Si Si2 0.443724 0.940555 0.738445
Si Si3 0.982005 0.206978 0.948517
Si Si4 0.804298 0.009095 0.252110
Si Si5 0.016124 0.353415 0.266630
Si Si6 0.884627 0.363214 0.739444
Si Si7 0.245168 0.986392 0.370061
Si Si8 0.287006 0.176886 0.110443
O O1 0.704081 0.365624 0.909663
O O2 0.690472 0.136188 0.800568
O O3 0.429158 0.248567 0.074776
O O4 0.596328 0.193922 0.171348
O O5 0.367443 0.946986 0.628630
O O6 0.612437 0.951650 0.655142
O O7 0.359784 0.063599 0.917578
O O8 0.951527 0.304038 0.141476
O O9 0.886731 0.084807 0.053613
O O10 0.946619 0.265425 0.811228
O O11 0.148688 0.140528 0.810891
O O12 0.853410 0.049988 0.398745
O O13 0.046234 0.502401 0.256904
O O14 0.173313 0.275674 0.141727
O O15 0.927187 0.333810 0.509153
O O16 0.194641 0.097177 0.308914
#
# Coordination Sequence:
#
# PCOD9053161 Si02
#       8
#     2   2   2   2   2   2   2   2
#     4   9  18  35  55  79 109 139 177 222 268 319
#     4   9  16  32  51  78 111 138 167 213 276 322
#     4  11  23  36  54  82 113 137 180 226 266 323
#     4  11  19  31  52  83 108 140 172 213 276 325
#     4  11  23  39  58  77 106 148 186 224 268 312
#     4  11  23  39  58  77 106 148 186 224 268 312
#     4   9  18  29  55  82 109 137 168 218 270 328
#     4   9  18  35  55  79 109 139 177 222 268 319
#
# _framework density 20.722702999999999
#
# number of rings (size 3 to 8) (size 9 to 14) (size 15 to 20)
#    0.000    2.000    2.500    3.750    0.000    0.500 
#    0.000    3.750    0.000    0.000    0.000    8.750 
#    0.000    0.000    0.000    0.000    0.000    0.000 
#
# Total GULP energy -89070.426703 kJ/mol
# GULP energy per Si atom -5566.901669 kJ/mol
# Density = 2.067554 g / cm^3
# Si number density = 20.722703 Si / 1000 Ang^3
#
#
#
# Elastic Constant Matrix: (Units=GPa)
#
#
# Indices 1 2 3 4 5 6 
#
# 1 63.9419 7.0300 6.7027 -13.5856 5.0868 0.0561
# 2 7.0300 49.7171 18.0052 -18.6320 5.8853 0.4127
# 3 6.7027 18.0052 40.5369 -7.1456 19.7856 -2.1334
# 4 -13.5856 -18.6320 -7.1456 27.8888 -0.6733 4.5215
# 5 5.0868 5.8853 19.7856 -0.6733 32.4655 -0.3657
# 6 0.0561 0.4127 -2.1334 4.5215 -0.3657 26.9982
#
#
#
# Elastic Compliance Matrix: (Units=1/GPa)
#
#
# Indices 1 2 3 4 5 6 
#
# 1 0.017832 0.001834 -0.000965 0.009905 -0.002354 -0.001832
# 2 0.001834 0.031312 -0.011765 0.019593 0.001560 -0.004672
# 3 -0.000965 -0.011765 0.041702 0.001321 -0.023070 0.002943
# 4 0.009905 0.019593 0.001321 0.055546 -0.004865 -0.009584
# 5 -0.002354 0.001560 -0.023070 -0.004865 0.044842 -0.000420
# 6 -0.001832 -0.004672 0.002943 -0.009584 -0.000420 0.038947
#
#
# Mechanical properties :
#
#
# Convention : Reuss Voigt Hill
#
# Bulk Modulus (GPa) = 14.48124 24.18575 19.33349
# Shear Modulus (GPa) = 18.18245 25.63436 21.90841
#
# Velocity S-wave (km/s) = 2.96534 3.52094 3.25502
# Velocity P-wave (km/s) = 4.32754 5.31280 4.84528
#
# Compressibility (1/GPa) = 0.06905485
#
# Stress axis : x y z
#
# Youngs Moduli (GPa) = 56.07902 31.93673 23.97962
#
# Poissons Ratio (x) = -0.05856 0.02313
# Poissons Ratio (y) = -0.10282 0.28211
# Poissons Ratio (z) = 0.05409 0.37572
#
# Static dielectric constant tensor:
#      x y z
#    x 1.816210 0.048650 -0.060940 
#    y 0.048650 1.719660 -0.037700 
#    z -0.060940 -0.037700 1.925520 
# 
# From -- ./inp_files/205950.got.cif
#   From: 2010.05.17/outbox.cif.g08.bks.cpg/sg2_103_cif.got.tgz:205950.got - 2010.06.03 11:33:40.
