data_PCOD9053368
_publ_section_title
;
Structure prediction by ZEFSAII (Michael W. Deem and Ramdas Pophale) SiO2 
 PCOD9053368
Probable space group: P -1
;
_chemical_formula_sum "Si O2"
_cell_formula_units_Z 8
_cell_length_a 7.624782
_cell_length_b 7.457482
_cell_length_c 12.303253
_cell_angle_alpha 151.729132
_cell_angle_beta 114.873663
_cell_angle_gamma 58.510407
_cell_volume 281.205753
_symmetry_space_group_name_H-M "P -1"
_symmetry_group_IT_number 2
_symmetry_cell_setting 'triclinic'
loop_
_space_group_symop_operation_xyz
x,y,z
-x,-y,-z
loop_
_atom_site_type_symbol
_atom_site_label
_atom_site_fract_x
_atom_site_fract_y
_atom_site_fract_z
Si Si1 0.533593 0.422673 0.286765
Si Si2 0.104179 0.469775 0.188227
Si Si3 0.644837 0.635157 0.190379
Si Si4 0.062957 0.798295 0.598038
O O1 0.349223 0.245142 0.137617
O O2 0.617221 0.521166 0.246376
O O3 0.729292 0.185035 0.285663
O O4 0.427759 0.874000 0.558076
O O5 0.082002 0.630044 0.391856
O O6 0.884211 0.404125 0.091744
O O7 0.092773 0.758228 0.235167
O O8 0.500000 0.500000 0.000000
O O9 0.000000 0.500000 0.500000
#
# Coordination Sequence:
#
# PCOD9053368 Si02
#       4
#     2   2   2   2
#     4  11  21  42  69  86 127 176 198 257 327 356
#     4  11  22  40  66  96 126 164 212 262 304 375
#     4  11  23  41  64  98 129 159 216 261 301 382
#     4  11  19  37  70  95 119 167 217 249 313 378
#
# _framework density 28.448920999999999
#
# number of rings (size 3 to 8) (size 9 to 14) (size 15 to 20)
#    0.000    1.000    7.500    2.250    0.000    1.000 
#    0.000    2.500    0.000    0.000    0.000    0.000 
#    0.000    0.000    0.000    0.000    0.000    0.000 
#
# Total GULP energy -44758.951598 kJ/mol
# GULP energy per Si atom -5594.868950 kJ/mol
# Density = 2.838417 g / cm^3
# Si number density = 28.448921 Si / 1000 Ang^3
#
#
#
# Elastic Constant Matrix: (Units=GPa)
#
#
# Indices 1 2 3 4 5 6 
#
# 1 163.3475 25.3773 65.4051 -10.2233 19.5289 -24.1120
# 2 25.3773 139.1496 56.7166 -20.0664 18.1343 -4.3039
# 3 65.4051 56.7166 124.3520 -57.4480 13.9937 1.5111
# 4 -10.2233 -20.0664 -57.4480 68.4010 -8.9555 2.0124
# 5 19.5289 18.1343 13.9937 -8.9555 53.1273 -25.1624
# 6 -24.1120 -4.3039 1.5111 2.0124 -25.1624 77.3396
#
#
#
# Elastic Compliance Matrix: (Units=1/GPa)
#
#
# Indices 1 2 3 4 5 6 
#
# 1 0.009176 0.000869 -0.007318 -0.004762 -0.001230 0.002776
# 2 0.000869 0.009213 -0.005286 -0.001914 -0.002306 0.000186
# 3 -0.007318 -0.005286 0.021536 0.015518 -0.000204 -0.003467
# 4 -0.004762 -0.001914 0.015518 0.026683 0.001878 -0.001978
# 5 -0.001230 -0.002306 -0.000204 0.001878 0.023843 0.007201
# 6 0.002776 0.000186 -0.003467 -0.001978 0.007201 0.016268
#
#
# Mechanical properties :
#
#
# Convention : Reuss Voigt Hill
#
# Bulk Modulus (GPa) = 60.77590 80.20523 70.49056
# Shear Modulus (GPa) = 36.85330 58.39690 47.62510
#
# Velocity S-wave (km/s) = 3.60310 4.53558 4.09596
# Velocity P-wave (km/s) = 6.22248 7.46208 6.87029
#
# Compressibility (1/GPa) = 0.01645389
#
# Stress axis : x y z
#
# Youngs Moduli (GPa) = 108.98253 108.54376 46.43464
#
# Poissons Ratio (x) = -0.09429 0.33980
# Poissons Ratio (y) = -0.09467 0.24545
# Poissons Ratio (z) = 0.79752 0.57377
#
# Static dielectric constant tensor:
#      x y z
#    x 2.200180 -0.086190 -0.056250 
#    y -0.086190 2.248210 0.324390 
#    z -0.056250 0.324390 2.530730 
# 
# From -- ./inp_files/148822.got.cif
#   From: 2010.05.17/outbox.cif.g08.bks.cpg/sg2_75_cif.got.tgz:148822.got - 2010.06.03 11:33:40.
