data_PCOD9053422
_publ_section_title
;
Structure prediction by ZEFSAII (Michael W. Deem and Ramdas Pophale) SiO2 
 PCOD9053422
Probable space group: P -1
;
_chemical_formula_sum "Si O2"
_cell_formula_units_Z 16
_cell_length_a 12.507216
_cell_length_b 11.340171
_cell_length_c 11.079180
_cell_angle_alpha 87.604155
_cell_angle_beta 65.957901
_cell_angle_gamma 141.997642
_cell_volume 674.990949
_symmetry_space_group_name_H-M "P -1"
_symmetry_group_IT_number 2
_symmetry_cell_setting 'triclinic'
loop_
_space_group_symop_operation_xyz
x,y,z
-x,-y,-z
loop_
_atom_site_type_symbol
_atom_site_label
_atom_site_fract_x
_atom_site_fract_y
_atom_site_fract_z
Si Si1 0.609606 0.444448 0.733524
Si Si2 0.787396 0.272376 0.335313
Si Si3 0.873671 0.621828 0.214270
Si Si4 0.313443 0.982852 0.811831
Si Si5 0.830236 0.531488 0.858296
Si Si6 0.583733 0.474203 0.142714
Si Si7 0.534044 0.973607 0.854228
Si Si8 0.914817 0.109830 0.653615
O O1 0.631252 0.390134 0.848746
O O2 0.444135 0.411763 0.831972
O O3 0.885412 0.725383 0.551582
O O4 0.485578 0.247645 0.699300
O O5 0.830444 0.444747 0.272927
O O6 0.845291 0.211894 0.218009
O O7 0.000068 0.406254 0.312903
O O8 0.500000 0.000000 0.500000
O O9 0.655449 0.478427 0.237596
O O10 0.930876 0.751162 0.299042
O O11 0.122519 0.843170 0.010220
O O12 0.481145 0.022337 0.774799
O O13 0.800845 0.631087 0.941595
O O14 0.691433 0.320300 0.026842
O O15 0.314100 0.184426 0.237949
O O16 0.781814 0.120107 0.714084
O O17 0.500000 0.000000 0.000000
#
# Coordination Sequence:
#
# PCOD9053422 Si02
#       8
#     2   2   2   2   2   2   2   2
#     4  12  27  44  66 103 138 179 230 282 336 395
#     4  12  25  41  66 108 137 165 221 291 349 394
#     4  12  24  47  74  99 136 180 230 276 338 416
#     4  12  23  42  68  99 136 179 225 276 339 411
#     4  11  22  42  68  95 132 176 223 277 336 403
#     4  11  26  49  70  95 135 190 234 272 329 408
#     4  11  19  39  67  93 128 173 218 266 338 407
#     4  11  25  45  70 102 134 181 226 285 342 390
#
# _framework density 23.704022999999999
#
# number of rings (size 3 to 8) (size 9 to 14) (size 15 to 20)
#    0.000    0.500    5.000    4.125    3.500    1.500 
#    2.250    0.000    0.000    0.000    0.000    0.000 
#    0.000    0.000    0.000    0.000    0.000    0.000 
#
# Total GULP energy -89295.202604 kJ/mol
# GULP energy per Si atom -5580.950163 kJ/mol
# Density = 2.365007 g / cm^3
# Si number density = 23.704023 Si / 1000 Ang^3
#
#
#
# Elastic Constant Matrix: (Units=GPa)
#
#
# Indices 1 2 3 4 5 6 
#
# 1 114.9941 26.4688 17.7644 -4.6741 -25.8203 -17.5449
# 2 26.4688 64.2633 13.5857 -9.9319 5.3726 -8.2698
# 3 17.7644 13.5857 78.6868 -11.9196 -24.9083 5.3967
# 4 -4.6741 -9.9319 -11.9196 28.4836 -1.0962 -5.9283
# 5 -25.8203 5.3726 -24.9083 -1.0962 31.1331 3.2192
# 6 -17.5449 -8.2698 5.3967 -5.9283 3.2192 17.7304
#
#
#
# Elastic Compliance Matrix: (Units=1/GPa)
#
#
# Indices 1 2 3 4 5 6 
#
# 1 0.014389 -0.005611 0.001902 0.003771 0.013538 0.009845
# 2 -0.005611 0.023424 -0.007820 0.005994 -0.016051 0.012672
# 3 0.001902 -0.007820 0.022130 0.005473 0.021926 -0.010652
# 4 0.003771 0.005994 0.005473 0.044199 0.006112 0.018530
# 5 0.013538 -0.016051 0.021926 0.006112 0.064962 -0.010515
# 6 0.009845 0.012672 -0.010652 0.018530 -0.010515 0.083400
#
#
# Mechanical properties :
#
#
# Convention : Reuss Voigt Hill
#
# Bulk Modulus (GPa) = 27.11103 41.50912 34.31007
# Shear Modulus (GPa) = 17.36981 28.81112 23.09046
#
# Velocity S-wave (km/s) = 2.70993 3.49012 3.12447
# Velocity P-wave (km/s) = 4.61018 5.81297 5.24616
#
# Compressibility (1/GPa) = 0.03688536
#
# Stress axis : x y z
#
# Youngs Moduli (GPa) = 69.49813 42.69120 45.18843
#
# Poissons Ratio (x) = 0.23952 -0.08593
# Poissons Ratio (y) = 0.38992 0.35335
# Poissons Ratio (z) = -0.13216 0.33383
#
# Static dielectric constant tensor:
#      x y z
#    x 1.986850 0.124980 -0.108320 
#    y 0.124980 2.291310 -0.118770 
#    z -0.108320 -0.118770 2.022750 
# 
# From -- ./inp_files/428140.got.cif
#   From: 2010.05.17/outbox.cif.g08.bks.cpg/sg2_215_cif.got.tgz:428140.got - 2010.06.03 11:33:40.
