data_PCOD9053714
_publ_section_title
;
Structure prediction by ZEFSAII (Michael W. Deem and Ramdas Pophale) SiO2 
 PCOD9053714
Probable space group: P -1
;
_chemical_formula_sum "Si O2"
_cell_formula_units_Z 16
_cell_length_a 9.996578
_cell_length_b 12.088080
_cell_length_c 10.707485
_cell_angle_alpha 130.688167
_cell_angle_beta 57.824699
_cell_angle_gamma 144.783451
_cell_volume 565.777316
_symmetry_space_group_name_H-M "P -1"
_symmetry_group_IT_number 2
_symmetry_cell_setting 'triclinic'
loop_
_space_group_symop_operation_xyz
x,y,z
-x,-y,-z
loop_
_atom_site_type_symbol
_atom_site_label
_atom_site_fract_x
_atom_site_fract_y
_atom_site_fract_z
Si Si1 0.113008 0.580825 0.710113
Si Si2 0.835212 0.691213 0.247071
Si Si3 0.667078 0.088864 0.600813
Si Si4 0.536562 0.248026 0.968831
Si Si5 0.483501 0.311110 0.513843
Si Si6 0.070781 0.282128 0.252705
Si Si7 0.254109 0.914910 0.058127
Si Si8 0.245437 0.195235 0.881024
O O1 0.363545 0.672893 0.652255
O O2 0.919166 0.325618 0.621437
O O3 0.063221 0.660059 0.678747
O O4 0.093283 0.678732 0.906761
O O5 0.707983 0.693763 0.422954
O O6 0.745886 0.721609 0.193802
O O7 0.725886 0.457756 0.112486
O O8 0.110285 0.873621 0.218285
O O9 0.591666 0.131060 0.791849
O O10 0.500000 0.000000 0.500000
O O11 0.642739 0.904073 0.508360
O O12 0.478143 0.300973 0.912590
O O13 0.313074 0.078788 0.046166
O O14 0.696603 0.522833 0.644280
O O15 0.143990 0.242887 0.064286
O O16 0.905114 0.054713 0.236092
O O17 0.500000 0.000000 0.000000
#
# Coordination Sequence:
#
# PCOD9053714 Si02
#       8
#     2   2   2   2   2   2   2   2
#     4  12  24  44  62  98 146 185 230 284 335 416
#     4  12  26  43  68 106 139 181 232 283 351 419
#     4  12  24  38  67 104 149 189 217 268 362 433
#     4  12  23  44  71 104 143 181 234 284 339 426
#     4  12  26  37  63 105 144 181 215 277 358 430
#     4  11  20  36  61  96 142 188 212 266 345 423
#     4  12  27  50  75  96 130 190 251 295 331 389
#     4  11  20  36  65 102 144 175 218 282 345 416
#
# _framework density 28.279675999999998
#
# number of rings (size 3 to 8) (size 9 to 14) (size 15 to 20)
#    0.000    0.250    7.500    2.250    3.500    0.500 
#    0.000    0.625    0.000    1.500    0.000    0.000 
#    0.000    0.000    0.000    0.000    0.000    0.000 
#
# Total GULP energy -89707.769364 kJ/mol
# GULP energy per Si atom -5606.735585 kJ/mol
# Density = 2.821531 g / cm^3
# Si number density = 28.279676 Si / 1000 Ang^3
#
#
#
# Elastic Constant Matrix: (Units=GPa)
#
#
# Indices 1 2 3 4 5 6 
#
# 1 100.3719 23.1091 14.6883 -2.6817 -14.1654 9.3922
# 2 23.1091 180.5670 57.1134 14.8298 -11.6217 9.0564
# 3 14.6883 57.1134 159.7938 4.8510 -23.7050 0.9217
# 4 -2.6817 14.8298 4.8510 61.7059 3.4904 -17.7261
# 5 -14.1654 -11.6217 -23.7050 3.4904 31.8173 -8.2928
# 6 9.3922 9.0564 0.9217 -17.7261 -8.2928 41.5262
#
#
#
# Elastic Compliance Matrix: (Units=1/GPa)
#
#
# Indices 1 2 3 4 5 6 
#
# 1 0.010920 -0.001071 -0.000009 0.000107 0.004094 -0.001373
# 2 -0.001071 0.006642 -0.002201 -0.002054 0.000005 -0.002033
# 3 -0.000009 -0.002201 0.007837 0.000006 0.005392 0.001387
# 4 0.000107 -0.002054 0.000006 0.019177 -0.000589 0.008492
# 5 0.004094 0.000005 0.005392 -0.000589 0.039029 0.006496
# 6 -0.001373 -0.002033 0.001387 0.008492 0.006496 0.029727
#
#
# Mechanical properties :
#
#
# Convention : Reuss Voigt Hill
#
# Bulk Modulus (GPa) = 53.08435 70.06161 61.57298
# Shear Modulus (GPa) = 39.62820 50.06466 44.84643
#
# Velocity S-wave (km/s) = 3.74745 4.21211 3.98655
# Velocity P-wave (km/s) = 6.12670 6.96305 6.55822
#
# Compressibility (1/GPa) = 0.01883794
#
# Stress axis : x y z
#
# Youngs Moduli (GPa) = 91.57508 150.54936 127.59639
#
# Poissons Ratio (x) = 0.16126 0.00113
# Poissons Ratio (y) = 0.09809 0.28081
# Poissons Ratio (z) = 0.00081 0.33133
#
# Static dielectric constant tensor:
#      x y z
#    x 2.296140 0.006810 -0.018990 
#    y 0.006810 2.188210 -0.076120 
#    z -0.018990 -0.076120 2.183060 
# 
# From -- ./inp_files/522488.got.cif
#   From: 2010.05.17/outbox.cif.g08.bks.cpg/sg2_262_cif.got.tgz:522488.got - 2010.06.03 11:33:40.
