data_PCOD9053633
_publ_section_title
;
Structure prediction by ZEFSAII (Michael W. Deem and Ramdas Pophale) SiO2 
 PCOD9053633
Probable space group: P -1
;
_chemical_formula_sum "Si O2"
_cell_formula_units_Z 16
_cell_length_a 12.797260
_cell_length_b 8.578921
_cell_length_c 14.017443
_cell_angle_alpha 124.253785
_cell_angle_beta 148.383770
_cell_angle_gamma 54.165131
_cell_volume 646.507519
_symmetry_space_group_name_H-M "P -1"
_symmetry_group_IT_number 2
_symmetry_cell_setting 'triclinic'
loop_
_space_group_symop_operation_xyz
x,y,z
-x,-y,-z
loop_
_atom_site_type_symbol
_atom_site_label
_atom_site_fract_x
_atom_site_fract_y
_atom_site_fract_z
Si Si1 0.144921 0.584497 0.808923
Si Si2 0.796789 0.711525 0.812010
Si Si3 0.061175 0.878634 0.663891
Si Si4 0.349445 0.253637 0.731375
Si Si5 0.577929 0.295683 0.615400
Si Si6 0.727275 0.117224 0.864096
Si Si7 0.992479 0.708311 0.154487
Si Si8 0.270003 0.548450 0.591993
O O1 0.117052 0.748385 0.759138
O O2 0.318145 0.390847 0.847330
O O3 0.934326 0.515510 0.622424
O O4 0.200285 0.694915 0.980995
O O5 0.578451 0.736777 0.599027
O O6 0.940498 0.504385 0.821906
O O7 0.872148 0.902132 0.907799
O O8 0.816984 0.706677 0.940194
O O9 0.208746 0.767874 0.657198
O O10 0.833956 0.853914 0.453586
O O11 0.063223 0.100578 0.758698
O O12 0.561706 0.110518 0.817993
O O13 0.324827 0.411041 0.680406
O O14 0.623933 0.148747 0.690428
O O15 0.797246 0.285235 0.736186
O O16 0.449261 0.492443 0.634739
#
# Coordination Sequence:
#
# PCOD9053633 Si02
#       8
#     2   2   2   2   2   2   2   2
#     4   9  16  30  55  89 127 156 192 245 309 364
#     4  11  25  42  60  88 125 164 209 243 290 371
#     4   9  16  36  60  84 116 164 204 239 299 360
#     4   8  16  29  53  89 123 155 195 246 304 363
#     4  11  24  40  62  93 127 152 200 258 313 348
#     4  11  20  34  59  94 125 155 198 255 309 349
#     4  11  24  43  66  85 119 172 208 240 294 366
#     4   8  18  34  58  89 125 150 191 260 306 352
#
# _framework density 24.748358
#
# number of rings (size 3 to 8) (size 9 to 14) (size 15 to 20)
#    0.000    2.250    1.250    3.375    1.750    2.500 
#    0.000    0.625    0.000    3.000    0.000    0.000 
#    0.000    0.000    0.000    0.000    0.000    0.000 
#
# Total GULP energy -89417.056238 kJ/mol
# GULP energy per Si atom -5588.566015 kJ/mol
# Density = 2.469203 g / cm^3
# Si number density = 24.748358 Si / 1000 Ang^3
#
#
#
# Elastic Constant Matrix: (Units=GPa)
#
#
# Indices 1 2 3 4 5 6 
#
# 1 64.0088 31.7155 22.6687 3.7812 -5.2957 -24.7887
# 2 31.7155 157.6094 58.4944 32.8010 -21.0234 -16.8189
# 3 22.6687 58.4944 132.8642 9.7618 -29.3084 -5.0867
# 4 3.7812 32.8010 9.7618 36.9166 -4.4315 -14.2376
# 5 -5.2957 -21.0234 -29.3084 -4.4315 19.7429 7.5498
# 6 -24.7887 -16.8189 -5.0867 -14.2376 7.5498 32.2286
#
#
#
# Elastic Compliance Matrix: (Units=1/GPa)
#
#
# Indices 1 2 3 4 5 6 
#
# 1 0.028721 -0.005148 -0.005455 0.011843 -0.013520 0.026943
# 2 -0.005148 0.010328 -0.001671 -0.009107 0.006792 -0.004448
# 3 -0.005455 -0.001671 0.013279 -0.002464 0.019189 -0.008556
# 4 0.011843 -0.009107 -0.002464 0.043207 -0.010212 0.025447
# 5 -0.013520 0.006792 0.019189 -0.010212 0.091869 -0.029858
# 6 0.026943 -0.004448 -0.008556 0.025447 -0.029858 0.066316
#
#
# Mechanical properties :
#
#
# Convention : Reuss Voigt Hill
#
# Bulk Modulus (GPa) = 35.99744 64.47108 50.23426
# Shear Modulus (GPa) = 17.38959 33.88454 25.63706
#
# Velocity S-wave (km/s) = 2.65364 3.70423 3.22205
# Velocity P-wave (km/s) = 4.89551 6.66351 5.84673
#
# Compressibility (1/GPa) = 0.02777975
#
# Stress axis : x y z
#
# Youngs Moduli (GPa) = 34.81727 96.82637 75.30508
#
# Poissons Ratio (x) = 0.49847 0.41078
# Poissons Ratio (y) = 0.17924 0.12586
# Poissons Ratio (z) = 0.18992 0.16183
#
# Static dielectric constant tensor:
#      x y z
#    x 1.978580 -0.018240 0.021070 
#    y -0.018240 1.985240 -0.017330 
#    z 0.021070 -0.017330 1.974980 
# 
# From -- ./inp_files/530183.got.cif
#   From: 2010.05.17/outbox.cif.g08.bks.cpg/sg2_266_cif.got.tgz:530183.got - 2010.06.03 11:33:40.
