data_PCOD9053172
_publ_section_title
;
Structure prediction by ZEFSAII (Michael W. Deem and Ramdas Pophale) SiO2 
 PCOD9053172
Probable space group: P -1
;
_chemical_formula_sum "Si O2"
_cell_formula_units_Z 16
_cell_length_a 8.552667
_cell_length_b 18.450429
_cell_length_c 14.606704
_cell_angle_alpha 137.596490
_cell_angle_beta 139.387999
_cell_angle_gamma 32.385147
_cell_volume 771.644481
_symmetry_space_group_name_H-M "P -1"
_symmetry_group_IT_number 2
_symmetry_cell_setting 'triclinic'
loop_
_space_group_symop_operation_xyz
x,y,z
-x,-y,-z
loop_
_atom_site_type_symbol
_atom_site_label
_atom_site_fract_x
_atom_site_fract_y
_atom_site_fract_z
Si Si1 0.108362 0.209021 0.104969
Si Si2 0.176966 0.043382 0.795705
Si Si3 0.280995 0.855474 0.040780
Si Si4 0.288294 0.706882 0.656204
Si Si5 0.746936 0.000894 0.663265
Si Si6 0.223962 0.587242 0.341157
Si Si7 0.961454 0.585065 0.850134
Si Si8 0.956373 0.711645 0.140998
O O1 0.959541 0.366795 0.157831
O O2 0.467450 0.099801 0.199433
O O3 0.151200 0.126752 0.953077
O O4 0.866414 0.216640 0.068816
O O5 0.065629 0.156778 0.772792
O O6 0.953785 0.008618 0.689808
O O7 0.601066 0.768500 0.045680
O O8 0.373995 0.883267 0.205231
O O9 0.000000 0.000000 0.000000
O O10 0.227079 0.682591 0.503474
O O11 0.426513 0.566367 0.642085
O O12 0.577925 0.705757 0.787349
O O13 0.976518 0.855080 0.685530
O O14 0.500000 0.000000 0.500000
O O15 0.992705 0.447662 0.746118
O O16 0.126372 0.643290 0.248448
O O17 0.094560 0.603757 0.016890
#
# Coordination Sequence:
#
# PCOD9053172 Si02
#       8
#     2   2   2   2   2   2   2   2
#     4   9  16  31  52  76 106 142 174 208 260 323
#     4   9  17  31  52  77 106 140 172 211 263 316
#     4  11  21  32  52  86 113 133 165 221 274 309
#     4   9  18  34  54  73 100 143 182 205 256 316
#     4  11  21  36  56  79 108 140 173 212 269 324
#     4   9  19  33  53  78 100 139 187 217 245 304
#     4   9  17  33  57  74 100 141 182 210 255 308
#     4  11  19  32  54  85 108 129 173 227 262 304
#
# _framework density 20.734938
#
# number of rings (size 3 to 8) (size 9 to 14) (size 15 to 20)
#    0.750    1.500    2.500    1.875    0.000    0.000 
#    0.000    4.375    0.000    2.250    0.000    0.000 
#    0.000    0.000    0.000    0.000    0.000    0.000 
#
# Total GULP energy -89148.306287 kJ/mol
# GULP energy per Si atom -5571.769143 kJ/mol
# Density = 2.068774 g / cm^3
# Si number density = 20.734938 Si / 1000 Ang^3
#
#
#
# Elastic Constant Matrix: (Units=GPa)
#
#
# Indices 1 2 3 4 5 6 
#
# 1 58.0519 21.0819 29.2361 3.9949 11.0911 24.5528
# 2 21.0819 52.2152 19.6331 -3.5033 -0.6692 27.0205
# 3 29.2361 19.6331 100.7136 -5.8256 6.2256 23.1612
# 4 3.9949 -3.5033 -5.8256 23.4414 3.8153 -3.3443
# 5 11.0911 -0.6692 6.2256 3.8153 19.4675 -4.1080
# 6 24.5528 27.0205 23.1612 -3.3443 -4.1080 33.2646
#
#
#
# Elastic Compliance Matrix: (Units=1/GPa)
#
#
# Indices 1 2 3 4 5 6 
#
# 1 0.035442 0.000676 -0.002803 -0.006791 -0.023934 -0.028396
# 2 0.000676 0.033555 0.000264 0.001830 -0.005680 -0.028457
# 3 -0.002803 0.000264 0.012873 0.003439 -0.004735 -0.007347
# 4 -0.006791 0.001830 0.003439 0.046528 -0.005196 0.005168
# 5 -0.023934 -0.005680 -0.004735 -0.005196 0.074571 0.034263
# 6 -0.028396 -0.028457 -0.007347 0.005168 0.034263 0.084003
#
#
# Mechanical properties :
#
#
# Convention : Reuss Voigt Hill
#
# Bulk Modulus (GPa) = 12.79705 38.98697 25.89201
# Shear Modulus (GPa) = 15.78552 24.63667 20.21109
#
# Velocity S-wave (km/s) = 2.76216 3.45073 3.12546
# Velocity P-wave (km/s) = 4.04448 5.89237 5.05361
#
# Compressibility (1/GPa) = 0.07814299
#
# Stress axis : x y z
#
# Youngs Moduli (GPa) = 28.21487 29.80173 77.68376
#
# Poissons Ratio (x) = -0.02016 0.21778
# Poissons Ratio (y) = -0.01908 -0.02048
# Poissons Ratio (z) = 0.07910 -0.00786
#
# Static dielectric constant tensor:
#      x y z
#    x 1.766740 0.008740 -0.005650 
#    y 0.008740 1.786080 0.005350 
#    z -0.005650 0.005350 1.749770 
# 
# From -- ./inp_files/444344.got.cif
#   From: 2010.05.17/outbox.cif.g08.bks.cpg/sg2_223_cif.got.tgz:444344.got - 2010.06.03 11:33:40.
