data_PCOD9053765
_publ_section_title
;
Structure prediction by ZEFSAII (Michael W. Deem and Ramdas Pophale) SiO2 
 PCOD9053765
Probable space group: P -1
;
_chemical_formula_sum "Si O2"
_cell_formula_units_Z 10
_cell_length_a 14.866952
_cell_length_b 7.986090
_cell_length_c 9.504393
_cell_angle_alpha 148.761814
_cell_angle_beta 130.849443
_cell_angle_gamma 56.498508
_cell_volume 442.593298
_symmetry_space_group_name_H-M "P -1"
_symmetry_group_IT_number 2
_symmetry_cell_setting 'triclinic'
loop_
_space_group_symop_operation_xyz
x,y,z
-x,-y,-z
loop_
_atom_site_type_symbol
_atom_site_label
_atom_site_fract_x
_atom_site_fract_y
_atom_site_fract_z
Si Si1 0.697278 0.058173 0.994016
Si Si2 0.087466 0.734589 0.841629
Si Si3 0.280925 0.742175 0.255478
Si Si4 0.633861 0.934363 0.141491
Si Si5 0.600112 0.728762 0.416187
O O1 0.813055 0.157029 0.094124
O O2 0.605410 0.359129 0.108739
O O3 0.714729 0.978386 0.116827
O O4 0.639818 0.751312 0.635331
O O5 0.000000 0.500000 0.500000
O O6 0.157209 0.618122 0.969969
O O7 0.000000 0.000000 0.000000
O O8 0.313813 0.842705 0.520328
O O9 0.301046 0.083327 0.441829
O O10 0.365252 0.444702 0.088057
O O11 0.500000 0.000000 0.000000
O O12 0.500000 0.000000 0.500000
#
# Coordination Sequence:
#
# PCOD9053765 Si02
#       5
#     2   2   2   2   2
#     4  11  23  38  61  91 122 161 207 251 306 371
#     4  11  23  44  66  86 117 165 218 270 302 340
#     4  11  23  39  62  91 122 163 209 248 304 375
#     4  12  23  40  61  95 135 162 187 248 319 381
#     4  11  20  37  60  89 121 163 207 249 298 371
#
# _framework density 22.594106
#
# number of rings (size 3 to 8) (size 9 to 14) (size 15 to 20)
#    0.000    0.800    0.000   10.800    0.000    0.000 
#    0.000    6.000    0.000    0.000    0.000    0.000 
#    0.000    0.000    0.000    0.000    0.000    0.000 
#
# Total GULP energy -55769.811011 kJ/mol
# GULP energy per Si atom -5576.981101 kJ/mol
# Density = 2.254268 g / cm^3
# Si number density = 22.594106 Si / 1000 Ang^3
#
#
#
# Elastic Constant Matrix: (Units=GPa)
#
#
# Indices 1 2 3 4 5 6 
#
# 1 90.6381 17.6816 37.4952 -14.1203 -20.1316 -7.3524
# 2 17.6816 102.9355 49.2603 -8.8929 -8.6288 -10.3405
# 3 37.4952 49.2603 207.1609 -30.7262 -26.7017 -7.2424
# 4 -14.1203 -8.8929 -30.7262 60.2684 -0.1132 -4.4405
# 5 -20.1316 -8.6288 -26.7017 -0.1132 26.7009 2.4727
# 6 -7.3524 -10.3405 -7.2424 -4.4405 2.4727 37.4622
#
#
#
# Elastic Compliance Matrix: (Units=1/GPa)
#
#
# Indices 1 2 3 4 5 6 
#
# 1 0.014256 -0.000869 -0.000591 0.003089 0.009689 0.002170
# 2 -0.000869 0.011304 -0.002314 0.000472 0.000452 0.002528
# 3 -0.000591 -0.002314 0.006638 0.002953 0.005409 0.000522
# 4 0.003089 0.000472 0.002953 0.019139 0.005216 0.003232
# 5 0.009689 0.000452 0.005409 0.005216 0.050300 0.000370
# 6 0.002170 0.002528 0.000522 0.003232 0.000370 0.028277
#
#
# Mechanical properties :
#
#
# Convention : Reuss Voigt Hill
#
# Bulk Modulus (GPa) = 40.56776 67.73432 54.15104
# Shear Modulus (GPa) = 34.32215 44.63946 39.48081
#
# Velocity S-wave (km/s) = 3.90176 4.44972 4.18472
# Velocity P-wave (km/s) = 6.18808 7.51291 6.88245
#
# Compressibility (1/GPa) = 0.02465012
#
# Stress axis : x y z
#
# Youngs Moduli (GPa) = 70.14534 88.46325 150.65382
#
# Poissons Ratio (x) = 0.07688 0.08900
# Poissons Ratio (y) = 0.06096 0.34863
# Poissons Ratio (z) = 0.04144 0.20472
#
# Static dielectric constant tensor:
#      x y z
#    x 1.927560 0.014250 0.032720 
#    y 0.014250 1.891870 -0.043090 
#    z 0.032720 -0.043090 1.845560 
# 
# From -- ./inp_files/19411.got.cif
#   From: 2010.05.17/outbox.cif.g08.bks.cpg/sg2_10_cif.got.tgz:19411.got - 2010.06.03 11:33:40.
