data_PCOD9053741
_publ_section_title
;
Structure prediction by ZEFSAII (Michael W. Deem and Ramdas Pophale) SiO2 
 PCOD9053741
Probable space group: P -1
;
_chemical_formula_sum "Si O2"
_cell_formula_units_Z 10
_cell_length_a 8.459489
_cell_length_b 7.560368
_cell_length_c 11.074448
_cell_angle_alpha 123.267154
_cell_angle_beta 45.072936
_cell_angle_gamma 129.059445
_cell_volume 382.420079
_symmetry_space_group_name_H-M "P -1"
_symmetry_group_IT_number 2
_symmetry_cell_setting 'triclinic'
loop_
_space_group_symop_operation_xyz
x,y,z
-x,-y,-z
loop_
_atom_site_type_symbol
_atom_site_label
_atom_site_fract_x
_atom_site_fract_y
_atom_site_fract_z
Si Si1 0.814567 0.312695 0.439027
Si Si2 0.160180 0.309856 0.624265
Si Si3 0.618082 0.960512 0.768972
Si Si4 0.334471 0.108183 0.787581
Si Si5 0.264035 0.507942 0.890442
O O1 0.799733 0.467220 0.393386
O O2 0.582260 0.198243 0.608513
O O3 0.000000 0.500000 0.500000
O O4 0.853549 0.101487 0.272260
O O5 0.300178 0.389295 0.703033
O O6 0.867768 0.173264 0.752523
O O7 0.270032 0.154934 0.435530
O O8 0.413862 0.023622 0.836452
O O9 0.518282 0.236750 0.131716
O O10 0.263587 0.326186 0.923153
O O11 0.000000 0.500000 0.000000
#
# Coordination Sequence:
#
# PCOD9053741 Si02
#       5
#     2   2   2   2   2
#     4  11  20  36  67 103 123 153 206 272 319 361
#     4  11  22  41  68  97 126 159 211 266 315 369
#     4  11  23  42  68  96 123 162 213 266 315 366
#     4  11  23  38  65  93 126 163 208 256 315 370
#     4  12  27  44  61  90 134 174 209 253 308 378
#
# _framework density 26.149255
#
# number of rings (size 3 to 8) (size 9 to 14) (size 15 to 20)
#    0.000    0.800    6.000    3.000    2.800    1.600 
#    0.000    1.000    0.000    0.000    0.000    0.000 
#    0.000    0.000    0.000    0.000    0.000    0.000 
#
# Total GULP energy -55980.594882 kJ/mol
# GULP energy per Si atom -5598.059488 kJ/mol
# Density = 2.608974 g / cm^3
# Si number density = 26.149255 Si / 1000 Ang^3
#
#
#
# Elastic Constant Matrix: (Units=GPa)
#
#
# Indices 1 2 3 4 5 6 
#
# 1 80.1175 45.6796 10.3799 19.2868 -9.2938 -15.9454
# 2 45.6796 155.4982 37.0506 16.0082 -5.9186 11.3947
# 3 10.3799 37.0506 42.5645 -13.3073 -9.0369 1.9702
# 4 19.2868 16.0082 -13.3073 37.0364 2.1871 -6.3051
# 5 -9.2938 -5.9186 -9.0369 2.1871 44.7321 9.5922
# 6 -15.9454 11.3947 1.9702 -6.3051 9.5922 58.7310
#
#
#
# Elastic Compliance Matrix: (Units=1/GPa)
#
#
# Indices 1 2 3 4 5 6 
#
# 1 0.018378 -0.003977 -0.003439 -0.008415 0.002013 0.004644
# 2 -0.003977 0.011227 -0.011020 -0.007329 -0.000436 -0.003604
# 3 -0.003439 -0.011020 0.041607 0.021436 0.004904 0.001309
# 4 -0.008415 -0.007329 0.021436 0.042869 -0.001172 0.003212
# 5 0.002013 -0.000436 0.004904 -0.001172 0.024551 -0.003669
# 6 0.004644 -0.003604 0.001309 0.003212 -0.003669 0.019887
#
#
# Mechanical properties :
#
#
# Convention : Reuss Voigt Hill
#
# Bulk Modulus (GPa) = 29.11902 51.60004 40.35953
# Shear Modulus (GPa) = 24.17373 40.43791 32.30582
#
# Velocity S-wave (km/s) = 3.04378 3.93673 3.51869
# Velocity P-wave (km/s) = 4.84899 6.35921 5.65474
#
# Compressibility (1/GPa) = 0.03434181
#
# Stress axis : x y z
#
# Youngs Moduli (GPa) = 54.41181 89.07203 24.03448
#
# Poissons Ratio (x) = 0.35424 0.08264
# Poissons Ratio (y) = 0.21639 0.26485
# Poissons Ratio (z) = 0.18710 0.98154
#
# Static dielectric constant tensor:
#      x y z
#    x 2.116550 -0.054590 -0.035780 
#    y -0.054590 2.100290 0.034290 
#    z -0.035780 0.034290 2.140700 
# 
# From -- ./inp_files/147136.got.cif
#   From: 2010.05.17/outbox.cif.g08.bks.cpg/sg2_74_cif.got.tgz:147136.got - 2010.06.03 11:33:40.
