data_PCOD9053737
_publ_section_title
;
Structure prediction by ZEFSAII (Michael W. Deem and Ramdas Pophale) SiO2 
 PCOD9053737
Probable space group: P -1
;
_chemical_formula_sum "Si O2"
_cell_formula_units_Z 16
_cell_length_a 8.651255
_cell_length_b 14.523469
_cell_length_c 12.252081
_cell_angle_alpha 79.520582
_cell_angle_beta 32.593328
_cell_angle_gamma 61.868681
_cell_volume 651.821171
_symmetry_space_group_name_H-M "P -1"
_symmetry_group_IT_number 2
_symmetry_cell_setting 'triclinic'
loop_
_space_group_symop_operation_xyz
x,y,z
-x,-y,-z
loop_
_atom_site_type_symbol
_atom_site_label
_atom_site_fract_x
_atom_site_fract_y
_atom_site_fract_z
Si Si1 0.670763 0.746713 0.510509
Si Si2 0.470700 0.585552 0.667499
Si Si3 0.484262 0.178166 0.645900
Si Si4 0.536574 0.455102 0.866265
Si Si5 0.560385 0.286419 0.757955
Si Si6 0.646494 0.931027 0.609385
Si Si7 0.711912 0.890727 0.819629
Si Si8 0.898162 0.364340 0.356154
O O1 0.429500 0.703942 0.680744
O O2 0.730733 0.741671 0.346595
O O3 0.523256 0.874111 0.613520
O O4 0.038008 0.650661 0.374413
O O5 0.411495 0.550229 0.826854
O O6 0.868736 0.468757 0.415624
O O7 0.264759 0.599380 0.676135
O O8 0.352235 0.246155 0.824947
O O9 0.890662 0.139813 0.407757
O O10 0.521310 0.060275 0.635952
O O11 0.376885 0.385522 0.939034
O O12 0.500000 0.500000 0.000000
O O13 0.665690 0.343209 0.586920
O O14 0.918281 0.166679 0.619635
O O15 0.531286 0.931698 0.800360
O O16 0.759464 0.770478 0.835043
O O17 0.500000 0.000000 0.000000
#
# Coordination Sequence:
#
# PCOD9053737 Si02
#       8
#     2   2   2   2   2   2   2   2
#     4  11  20  36  57  83 107 149 198 228 271 344
#     4  10  17  35  62  78 108 147 195 225 272 340
#     4  10  18  36  58  80 106 151 194 227 272 335
#     4  10  22  36  52  83 120 144 174 237 295 332
#     4   8  15  33  57  75 105 144 191 216 265 339
#     4   9  19  34  55  79 111 150 188 225 276 336
#     4  10  19  36  57  85 115 138 190 235 282 335
#     4   8  16  32  59  85 100 144 190 232 262 329
#
# _framework density 24.546609
#
# number of rings (size 3 to 8) (size 9 to 14) (size 15 to 20)
#    0.000    2.750    2.500    3.000    0.000    0.000 
#    2.250    8.750    0.000    0.000    0.000    0.000 
#    0.000    0.000    0.000    0.000    0.000    0.000 
#
# Total GULP energy -89230.441487 kJ/mol
# GULP energy per Si atom -5576.902593 kJ/mol
# Density = 2.449074 g / cm^3
# Si number density = 24.546609 Si / 1000 Ang^3
#
#
#
# Elastic Constant Matrix: (Units=GPa)
#
#
# Indices 1 2 3 4 5 6 
#
# 1 88.5132 54.3857 31.9943 5.3402 23.6926 22.0363
# 2 54.3857 156.0421 15.6269 8.4851 25.3057 10.4481
# 3 31.9943 15.6269 78.5664 14.5236 37.5582 8.4305
# 4 5.3402 8.4851 14.5236 16.8111 15.0181 11.9039
# 5 23.6926 25.3057 37.5582 15.0181 40.5530 14.3102
# 6 22.0363 10.4481 8.4305 11.9039 14.3102 53.1985
#
#
#
# Elastic Compliance Matrix: (Units=1/GPa)
#
#
# Indices 1 2 3 4 5 6 
#
# 1 0.018962 -0.005563 -0.006278 0.009920 -0.002926 -0.007200
# 2 -0.005563 0.008838 0.003098 -0.002303 -0.004962 0.001928
# 3 -0.006278 0.003098 0.025477 -0.006038 -0.021413 0.005066
# 4 0.009920 -0.002303 -0.006038 0.102273 -0.030509 -0.017378
# 5 -0.002926 -0.004962 -0.021413 -0.030509 0.062113 -0.004302
# 6 -0.007200 0.001928 0.005066 -0.017378 -0.004302 0.025644
#
#
# Mechanical properties :
#
#
# Convention : Reuss Voigt Hill
#
# Bulk Modulus (GPa) = 27.93919 58.57062 43.25490
# Shear Modulus (GPa) = 18.33354 36.85349 27.59352
#
# Velocity S-wave (km/s) = 2.73589 3.87895 3.35644
# Velocity P-wave (km/s) = 4.62460 6.63133 5.71670
#
# Compressibility (1/GPa) = 0.03579202
#
# Stress axis : x y z
#
# Youngs Moduli (GPa) = 52.73600 113.14778 39.25047
#
# Poissons Ratio (x) = 0.62946 0.24642
# Poissons Ratio (y) = 0.29338 -0.12161
# Poissons Ratio (z) = 0.33108 -0.35058
#
# Static dielectric constant tensor:
#      x y z
#    x 1.947710 0.053640 -0.031070 
#    y 0.053640 2.001680 -0.010290 
#    z -0.031070 -0.010290 2.154640 
# 
# From -- ./inp_files/397409.got.cif
#   From: 2010.05.17/outbox.cif.g08.bks.cpg/sg2_199_cif.got.tgz:397409.got - 2010.06.03 11:33:40.
