data_PCOD9053567
_publ_section_title
;
Structure prediction by ZEFSAII (Michael W. Deem and Ramdas Pophale) SiO2 
 PCOD9053567
Probable space group: P -1
;
_chemical_formula_sum "Si O2"
_cell_formula_units_Z 14
_cell_length_a 10.732090
_cell_length_b 7.421266
_cell_length_c 8.037611
_cell_angle_alpha 89.130945
_cell_angle_beta 123.695320
_cell_angle_gamma 106.011759
_cell_volume 504.287001
_symmetry_space_group_name_H-M "P -1"
_symmetry_group_IT_number 2
_symmetry_cell_setting 'triclinic'
loop_
_space_group_symop_operation_xyz
x,y,z
-x,-y,-z
loop_
_atom_site_type_symbol
_atom_site_label
_atom_site_fract_x
_atom_site_fract_y
_atom_site_fract_z
Si Si1 0.671414 0.893508 0.909782
Si Si2 0.560514 0.483196 0.853563
Si Si3 0.105304 0.331813 0.838655
Si Si4 0.670607 0.196977 0.283790
Si Si5 0.023261 0.813536 0.595249
Si Si6 0.234032 0.774502 0.286699
Si Si7 0.724777 0.566339 0.523401
O O1 0.597532 0.682062 0.771188
O O2 0.513354 0.876717 0.895830
O O3 0.708718 0.071294 0.815466
O O4 0.823108 0.844682 0.093544
O O5 0.412177 0.350338 0.642014
O O6 0.500000 0.500000 0.000000
O O7 0.739672 0.485985 0.018908
O O8 0.028414 0.325399 0.601645
O O9 0.956806 0.299465 0.848880
O O10 0.701396 0.119379 0.490275
O O11 0.717949 0.418108 0.368294
O O12 0.792542 0.158614 0.244969
O O13 0.896685 0.723994 0.645798
O O14 0.000000 0.000000 0.500000
O O15 0.288217 0.585506 0.336426
#
# Coordination Sequence:
#
# PCOD9053567 Si02
#       7
#     2   2   2   2   2   2   2
#     4   9  16  28  47  72 101 117 152 199 244 276
#     4   9  16  26  46  69  99 119 149 196 241 266
#     4   9  18  28  47  73  98 122 153 198 238 275
#     4   8  18  28  49  72  94 122 157 194 236 273
#     4  11  20  32  47  69  97 129 160 193 235 283
#     4   9  16  26  48  76  95 119 153 199 239 279
#     4   9  17  30  50  70  98 116 161 195 238 275
#
# _framework density 27.761970000000002
#
# number of rings (size 3 to 8) (size 9 to 14) (size 15 to 20)
#    1.714    1.143    1.429    1.286    0.000    0.000 
#    0.000    0.714    0.000    1.714    0.000    0.000 
#    0.000    0.000    0.000    0.000    0.000    0.000 
#
# Total GULP energy -77973.993881 kJ/mol
# GULP energy per Si atom -5569.570992 kJ/mol
# Density = 2.769878 g / cm^3
# Si number density = 27.761970 Si / 1000 Ang^3
#
#
#
# Elastic Constant Matrix: (Units=GPa)
#
#
# Indices 1 2 3 4 5 6 
#
# 1 75.8937 42.9266 40.9447 2.0475 46.1392 -0.2358
# 2 42.9266 128.6671 40.1028 -28.9358 11.8701 21.4469
# 3 40.9447 40.1028 142.0539 -18.4359 37.1423 3.1921
# 4 2.0475 -28.9358 -18.4359 39.5347 6.7083 1.8245
# 5 46.1392 11.8701 37.1423 6.7083 69.7628 5.9856
# 6 -0.2358 21.4469 3.1921 1.8245 5.9856 39.0853
#
#
#
# Elastic Compliance Matrix: (Units=1/GPa)
#
#
# Indices 1 2 3 4 5 6 
#
# 1 0.033013 -0.012329 -0.002703 -0.009372 -0.018290 0.010424
# 2 -0.012329 0.015832 -0.000664 0.011435 0.005580 -0.010096
# 3 -0.002703 -0.000664 0.009577 0.004743 -0.003646 -0.000097
# 4 -0.009372 0.011435 0.004743 0.036932 -0.001115 -0.008272
# 5 -0.018290 0.005580 -0.003646 -0.001115 0.028142 -0.007132
# 6 0.010424 -0.010096 -0.000097 -0.008272 -0.007132 0.032674
#
#
# Mechanical properties :
#
#
# Convention : Reuss Voigt Hill
#
# Bulk Modulus (GPa) = 36.99629 66.06254 51.52941
# Shear Modulus (GPa) = 25.43602 44.51924 34.97763
#
# Velocity S-wave (km/s) = 3.03019 4.00885 3.55337
# Velocity P-wave (km/s) = 5.05944 6.72871 5.95288
#
# Compressibility (1/GPa) = 0.02702974
#
# Stress axis : x y z
#
# Youngs Moduli (GPa) = 30.29143 63.16344 104.41439
#
# Poissons Ratio (x) = 0.77875 0.28224
# Poissons Ratio (y) = 0.37346 0.06932
# Poissons Ratio (z) = 0.08188 0.04194
#
# Static dielectric constant tensor:
#      x y z
#    x 2.262810 -0.018250 0.035010 
#    y -0.018250 2.210900 0.046570 
#    z 0.035010 0.046570 2.204780 
# 
# From -- ./inp_files/178038.got.cif
#   From: 2010.05.17/outbox.cif.g08.bks.cpg/sg2_90_cif.got.tgz:178038.got - 2010.06.03 11:33:40.
