data_PCOD9053283
_publ_section_title
;
Structure prediction by ZEFSAII (Michael W. Deem and Ramdas Pophale) SiO2 
 PCOD9053283
Probable space group: P -1
;
_chemical_formula_sum "Si O2"
_cell_formula_units_Z 15
_cell_length_a 8.800976
_cell_length_b 14.708205
_cell_length_c 12.222362
_cell_angle_alpha 30.831094
_cell_angle_beta 48.659195
_cell_angle_gamma 55.942912
_cell_volume 608.684696
_symmetry_space_group_name_H-M "P -1"
_symmetry_group_IT_number 2
_symmetry_cell_setting 'triclinic'
loop_
_space_group_symop_operation_xyz
x,y,z
-x,-y,-z
loop_
_atom_site_type_symbol
_atom_site_label
_atom_site_fract_x
_atom_site_fract_y
_atom_site_fract_z
Si Si1 0.126454 0.622780 0.987298
Si Si2 0.474974 0.753526 0.849728
Si Si3 0.300685 0.087879 0.711080
Si Si4 0.420324 0.572765 0.715136
Si Si5 0.076107 0.239638 0.473931
Si Si6 0.500000 0.500000 0.500000
Si Si7 0.438036 0.888023 0.039169
Si Si8 0.122684 0.044775 0.286258
O O1 0.325946 0.681298 0.900092
O O2 0.203608 0.588786 0.862200
O O3 0.968416 0.778454 0.904686
O O4 0.034414 0.446494 0.267484
O O5 0.703030 0.777617 0.672316
O O6 0.388115 0.936429 0.746393
O O7 0.480685 0.598899 0.097833
O O8 0.454341 0.250528 0.494376
O O9 0.117449 0.176473 0.642270
O O10 0.272088 0.986775 0.944117
O O11 0.422388 0.557834 0.600172
O O12 0.920235 0.114210 0.613261
O O13 0.588127 0.313755 0.704886
O O14 0.645027 0.911803 0.844709
O O15 0.500000 0.000000 0.000000
O O16 0.000000 0.000000 0.500000
#
# Coordination Sequence:
#
# PCOD9053283 Si02
#       8
#     2   2   2   2   2   1   2   2
#     4  11  22  40  68 108 146 176 233 294 364 409
#     4  11  19  35  68 109 137 183 226 296 351 424
#     4  12  20  39  72  97 134 183 243 283 341 422
#     4  11  21  37  66 105 133 186 240 285 333 420
#     4  11  22  38  70 102 144 182 224 296 360 411
#     4  12  26  44  70  90 142 194 246 268 338 434
#     4  12  28  48  72  99 142 198 239 280 351 439
#     4  12  28  44  67 111 150 176 229 305 362 413
#
# _framework density 24.643303
#
# number of rings (size 3 to 8) (size 9 to 14) (size 15 to 20)
#    0.000    0.533    6.667    3.600    1.867    1.600 
#    0.000    0.667    0.000    2.400    0.000    0.000 
#    0.000    0.000    0.000    0.000    0.000    0.000 
#
# Total GULP energy -83851.695002 kJ/mol
# GULP energy per Si atom -5590.113000 kJ/mol
# Density = 2.458721 g / cm^3
# Si number density = 24.643303 Si / 1000 Ang^3
#
#
#
# Elastic Constant Matrix: (Units=GPa)
#
#
# Indices 1 2 3 4 5 6 
#
# 1 100.2210 28.6857 78.7428 0.8465 15.4852 20.8839
# 2 28.6857 79.5088 49.2380 -21.0646 1.7620 19.9849
# 3 78.7428 49.2380 178.6119 -23.4272 28.0819 -2.9546
# 4 0.8465 -21.0646 -23.4272 57.6652 -3.3047 12.3296
# 5 15.4852 1.7620 28.0819 -3.3047 54.3475 6.1901
# 6 20.8839 19.9849 -2.9546 12.3296 6.1901 33.2370
#
#
#
# Elastic Compliance Matrix: (Units=1/GPa)
#
#
# Indices 1 2 3 4 5 6 
#
# 1 0.020155 0.002873 -0.010113 0.000030 0.001159 -0.015518
# 2 0.002873 0.024987 -0.007990 0.011023 0.005755 -0.022701
# 3 -0.010113 -0.007990 0.013236 -0.000589 -0.005276 0.013536
# 4 0.000030 0.011023 -0.000589 0.024856 0.003334 -0.016541
# 5 0.001159 0.005755 -0.005276 0.003334 0.021949 -0.009982
# 6 -0.015518 -0.022701 0.013536 -0.016541 -0.009982 0.062685
#
#
# Mechanical properties :
#
#
# Convention : Reuss Voigt Hill
#
# Bulk Modulus (GPa) = 35.81607 74.63051 55.22329
# Shear Modulus (GPa) = 24.08092 42.49497 33.28794
#
# Velocity S-wave (km/s) = 3.12938 4.15710 3.67930
# Velocity P-wave (km/s) = 5.25573 7.30698 6.36454
#
# Compressibility (1/GPa) = 0.02792043
#
# Stress axis : x y z
#
# Youngs Moduli (GPa) = 49.61480 40.02046 75.55353
#
# Poissons Ratio (x) = -0.11500 0.76405
# Poissons Ratio (y) = -0.14257 0.60364
# Poissons Ratio (z) = 0.50174 0.31975
#
# Static dielectric constant tensor:
#      x y z
#    x 1.947230 -0.040650 0.008050 
#    y -0.040650 2.002520 0.065870 
#    z 0.008050 0.065870 1.964690 
# 
# From -- ./inp_files/398044.got.cif
#   From: 2010.05.17/outbox.cif.g08.bks.cpg/sg2_200_cif.got.tgz:398044.got - 2010.06.03 11:33:40.
