data_PCOD9053959
_publ_section_title
;
Structure prediction by ZEFSAII (Michael W. Deem and Ramdas Pophale) SiO2 
 PCOD9053959
Probable space group: P -1
;
_chemical_formula_sum "Si O2"
_cell_formula_units_Z 16
_cell_length_a 11.570631
_cell_length_b 9.777086
_cell_length_c 16.079515
_cell_angle_alpha 144.558160
_cell_angle_beta 70.416067
_cell_angle_gamma 123.551928
_cell_volume 853.769688
_symmetry_space_group_name_H-M "P -1"
_symmetry_group_IT_number 2
_symmetry_cell_setting 'triclinic'
loop_
_space_group_symop_operation_xyz
x,y,z
-x,-y,-z
loop_
_atom_site_type_symbol
_atom_site_label
_atom_site_fract_x
_atom_site_fract_y
_atom_site_fract_z
Si Si1 0.392185 0.553714 0.602738
Si Si2 0.910304 0.779054 0.288139
Si Si3 0.359703 0.055916 0.805418
Si Si4 0.876465 0.189702 0.393991
Si Si5 0.826440 0.009850 0.579866
Si Si6 0.576179 0.525830 0.863184
Si Si7 0.663652 0.178810 0.582846
Si Si8 0.594169 0.328021 0.149969
O O1 0.500000 0.500000 0.500000
O O2 0.243034 0.271132 0.490997
O O3 0.425549 0.599333 0.715465
O O4 0.386768 0.812008 0.699453
O O5 0.885433 0.940748 0.449186
O O6 0.765215 0.483261 0.170321
O O7 0.927237 0.979194 0.307323
O O8 0.047349 0.768243 0.282264
O O9 0.487643 0.278063 0.826618
O O10 0.216424 0.936005 0.728218
O O11 0.352952 0.202558 0.963546
O O12 0.768941 0.196855 0.493070
O O13 0.000000 0.500000 0.500000
O O14 0.707122 0.066339 0.598105
O O15 0.677254 0.460504 0.751009
O O16 0.464418 0.539557 0.835273
O O17 0.500000 0.000000 0.500000
O O18 0.500000 0.000000 0.000000
#
# Coordination Sequence:
#
# PCOD9053959 Si02
#       8
#     2   2   2   2   2   2   2   2
#     4  11  22  34  58  94 123 153 209 265 304 367
#     4   9  18  37  58  83 119 161 203 246 312 375
#     4  11  22  37  60  92 125 162 207 261 317 368
#     4  11  22  37  63  92 124 161 207 261 317 377
#     4   9  19  35  60  86 119 158 200 253 310 366
#     4  11  22  39  61  89 125 165 206 262 318 376
#     4  11  20  39  65  92 121 166 213 258 313 376
#     4  11  21  40  62  88 121 167 208 252 313 380
#
# _framework density 18.740416
#
# number of rings (size 3 to 8) (size 9 to 14) (size 15 to 20)
#    0.000    1.500    3.750    3.000    1.750    1.000 
#    0.000    0.625    0.000    1.500    0.000    0.000 
#    0.000    0.000    0.000    0.000    0.000    0.000 
#
# Total GULP energy -89178.697039 kJ/mol
# GULP energy per Si atom -5573.668565 kJ/mol
# Density = 1.869776 g / cm^3
# Si number density = 18.740416 Si / 1000 Ang^3
#
#
#
# Elastic Constant Matrix: (Units=GPa)
#
#
# Indices 1 2 3 4 5 6 
#
# 1 109.0815 40.7876 52.5139 8.2792 15.9741 -20.1945
# 2 40.7876 81.5391 26.2739 13.5078 10.0978 -13.2820
# 3 52.5139 26.2739 74.0452 17.5471 14.5139 -3.3098
# 4 8.2792 13.5078 17.5471 26.9696 1.3291 -0.5369
# 5 15.9741 10.0978 14.5139 1.3291 28.9716 1.5945
# 6 -20.1945 -13.2820 -3.3098 -0.5369 1.5945 25.6277
#
#
#
# Elastic Compliance Matrix: (Units=1/GPa)
#
#
# Indices 1 2 3 4 5 6 
#
# 1 0.018514 -0.003914 -0.011443 0.004143 -0.003929 0.011414
# 2 -0.003914 0.016875 -0.000769 -0.006473 -0.003351 0.005635
# 3 -0.011443 -0.000769 0.025679 -0.012664 -0.005374 -0.006030
# 4 0.004143 -0.006473 -0.012664 0.047061 0.004212 -0.001002
# 5 -0.003929 -0.003351 -0.005374 0.004212 0.040789 -0.007977
# 6 0.011414 0.005635 -0.006030 -0.001002 -0.007977 0.050631
#
#
# Mechanical properties :
#
#
# Convention : Reuss Voigt Hill
#
# Bulk Modulus (GPa) = 34.70405 55.97965 45.34185
# Shear Modulus (GPa) = 20.71195 25.98646 23.34920
#
# Velocity S-wave (km/s) = 3.32806 3.72782 3.53360
# Velocity P-wave (km/s) = 5.77291 6.96166 6.39497
#
# Compressibility (1/GPa) = 0.02881508
#
# Stress axis : x y z
#
# Youngs Moduli (GPa) = 54.01349 59.25887 38.94303
#
# Poissons Ratio (x) = 0.23197 0.44561
# Poissons Ratio (y) = 0.21143 0.02995
# Poissons Ratio (z) = 0.61806 0.04557
#
# Static dielectric constant tensor:
#      x y z
#    x 1.723980 0.104790 0.030860 
#    y 0.104790 2.047850 0.056200 
#    z 0.030860 0.056200 1.654240 
# 
# From -- ./inp_files/307485.got.cif
#   From: 2010.05.17/outbox.cif.g08.bks.cpg/sg2_154_cif.got.tgz:307485.got - 2010.06.03 11:33:40.
