data_PCOD9053145
_publ_section_title
;
Structure prediction by ZEFSAII (Michael W. Deem and Ramdas Pophale) SiO2 
 PCOD9053145
Probable space group: P -1
;
_chemical_formula_sum "Si O2"
_cell_formula_units_Z 12
_cell_length_a 7.502573
_cell_length_b 10.547013
_cell_length_c 6.669747
_cell_angle_alpha 63.175267
_cell_angle_beta 121.351728
_cell_angle_gamma 99.965426
_cell_volume 400.891835
_symmetry_space_group_name_H-M "P -1"
_symmetry_group_IT_number 2
_symmetry_cell_setting 'triclinic'
loop_
_space_group_symop_operation_xyz
x,y,z
-x,-y,-z
loop_
_atom_site_type_symbol
_atom_site_label
_atom_site_fract_x
_atom_site_fract_y
_atom_site_fract_z
Si Si1 0.125604 0.635023 0.405182
Si Si2 0.332368 0.929920 0.631451
Si Si3 0.211564 0.141151 0.085401
Si Si4 0.471294 0.535003 0.196198
Si Si5 0.909843 0.289082 0.216246
Si Si6 0.328473 0.194216 0.688289
O O1 0.363297 0.582643 0.521858
O O2 0.147824 0.709767 0.577987
O O3 0.000000 0.500000 0.500000
O O4 0.979188 0.733093 0.097178
O O5 0.541027 0.834684 0.749987
O O6 0.198137 0.857253 0.775199
O O7 0.199243 0.005881 0.317948
O O8 0.426444 0.064189 0.707704
O O9 0.215192 0.126015 0.858964
O O10 0.561410 0.680461 0.225878
O O11 0.500000 0.500000 0.000000
O O12 0.221662 0.571925 0.044028
O O13 0.157680 0.271136 0.381875
#
# Coordination Sequence:
#
# PCOD9053145 Si02
#       6
#     2   2   2   2   2   2
#     4  10  17  35  59  87 115 160 202 234 298 352
#     4  11  22  39  58  97 122 152 207 238 309 354
#     4  10  22  37  63  86 123 164 190 256 289 357
#     4  10  20  35  63  91 116 158 207 239 296 359
#     4  10  20  34  62  94 116 158 196 251 295 355
#     4  11  21  39  64  90 120 160 194 252 298 355
#
# _framework density 29.933256
#
# number of rings (size 3 to 8) (size 9 to 14) (size 15 to 20)
#    0.000    1.667    5.000    1.000    0.000    2.667 
#    0.000    0.833    0.000    2.000    0.000    0.000 
#    0.000    0.000    0.000    0.000    0.000    0.000 
#
# Total GULP energy -66970.791062 kJ/mol
# GULP energy per Si atom -5580.899255 kJ/mol
# Density = 2.986513 g / cm^3
# Si number density = 29.933256 Si / 1000 Ang^3
#
#
#
# Elastic Constant Matrix: (Units=GPa)
#
#
# Indices 1 2 3 4 5 6 
#
# 1 98.6302 27.4481 45.6047 -25.5986 35.1180 -9.2719
# 2 27.4481 91.4514 24.4157 -1.8770 4.9492 13.3648
# 3 45.6047 24.4157 277.8077 -55.5875 28.0199 -10.0611
# 4 -25.5986 -1.8770 -55.5875 68.5379 -17.7285 13.1885
# 5 35.1180 4.9492 28.0199 -17.7285 72.9359 -12.4205
# 6 -9.2719 13.3648 -10.0611 13.1885 -12.4205 39.7849
#
#
#
# Elastic Compliance Matrix: (Units=1/GPa)
#
#
# Indices 1 2 3 4 5 6 
#
# 1 0.014485 -0.004053 -0.000839 0.002867 -0.005356 0.001902
# 2 -0.004053 0.013110 -0.000861 -0.000768 0.000318 -0.005212
# 3 -0.000839 -0.000861 0.004500 0.003181 -0.000489 0.000025
# 4 0.002867 -0.000768 0.003181 0.019413 0.001444 -0.004254
# 5 -0.005356 0.000318 -0.000489 0.001444 0.017398 0.003474
# 6 0.001902 -0.005212 0.000025 -0.004254 0.003474 0.029830
#
#
# Mechanical properties :
#
#
# Convention : Reuss Voigt Hill
#
# Bulk Modulus (GPa) = 48.57121 73.64738 61.10930
# Shear Modulus (GPa) = 42.69695 60.94648 51.82171
#
# Velocity S-wave (km/s) = 3.78088 4.51719 4.16533
# Velocity P-wave (km/s) = 5.94321 7.20166 6.60249
#
# Compressibility (1/GPa) = 0.02058833
#
# Stress axis : x y z
#
# Youngs Moduli (GPa) = 69.03872 76.27829 222.23162
#
# Poissons Ratio (x) = 0.30914 0.18640
# Poissons Ratio (y) = 0.27980 0.19144
# Poissons Ratio (z) = 0.05791 0.06571
#
# Static dielectric constant tensor:
#      x y z
#    x 2.710180 0.475020 0.112220 
#    y 0.475020 3.232570 0.233050 
#    z 0.112220 0.233050 2.431250 
# 
# From -- ./inp_files/248000.got.cif
#   From: 2010.05.17/outbox.cif.g08.bks.cpg/sg2_124_cif.got.tgz:248000.got - 2010.06.03 11:33:40.
