data_PCOD9053630
_publ_section_title
;
Structure prediction by ZEFSAII (Michael W. Deem and Ramdas Pophale) SiO2 
 PCOD9053630
Probable space group: P -1
;
_chemical_formula_sum "Si O2"
_cell_formula_units_Z 12
_cell_length_a 4.894637
_cell_length_b 11.361181
_cell_length_c 15.895838
_cell_angle_alpha 35.682763
_cell_angle_beta 86.806603
_cell_angle_gamma 103.143420
_cell_volume 454.910506
_symmetry_space_group_name_H-M "P -1"
_symmetry_group_IT_number 2
_symmetry_cell_setting 'triclinic'
loop_
_space_group_symop_operation_xyz
x,y,z
-x,-y,-z
loop_
_atom_site_type_symbol
_atom_site_label
_atom_site_fract_x
_atom_site_fract_y
_atom_site_fract_z
Si Si1 0.981965 0.609939 0.750696
Si Si2 0.623692 0.642402 0.324515
Si Si3 0.803007 0.224329 0.843896
Si Si4 0.601287 0.174238 0.533907
Si Si5 0.029695 0.047473 0.711422
Si Si6 0.352004 0.458923 0.934752
O O1 0.901922 0.380351 0.833309
O O2 0.147373 0.582768 0.846465
O O3 0.219876 0.803452 0.570291
O O4 0.643859 0.578875 0.796131
O O5 0.317101 0.654050 0.295106
O O6 0.641043 0.424939 0.410053
O O7 0.733638 0.731659 0.365506
O O8 0.931691 0.827295 0.165001
O O9 0.500000 0.000000 0.000000
O O10 0.234816 0.026417 0.643396
O O11 0.770555 0.097859 0.645201
O O12 0.863982 0.815418 0.902776
O O13 0.500000 0.500000 0.000000
#
# Coordination Sequence:
#
# PCOD9053630 Si02
#       6
#     2   2   2   2   2   2
#     4  11  23  44  65  91 128 164 206 266 318 374
#     4  11  21  35  59  94 132 168 201 245 305 380
#     4  11  20  34  58  93 128 168 205 246 309 378
#     4  11  23  40  65  97 131 168 203 252 320 383
#     4  12  23  41  64  96 131 169 212 257 304 374
#     4  12  26  46  68  91 121 167 219 270 318 365
#
# _framework density 26.378813000000001
#
# number of rings (size 3 to 8) (size 9 to 14) (size 15 to 20)
#    0.000    0.667    0.000   11.000    0.000    0.000 
#    0.000    5.000    0.000    0.000    0.000    0.000 
#    0.000    0.000    0.000    0.000    0.000    0.000 
#
# Total GULP energy -67116.017274 kJ/mol
# GULP energy per Si atom -5593.001440 kJ/mol
# Density = 2.631877 g / cm^3
# Si number density = 26.378813 Si / 1000 Ang^3
#
#
#
# Elastic Constant Matrix: (Units=GPa)
#
#
# Indices 1 2 3 4 5 6 
#
# 1 123.3739 -11.1447 28.7721 -0.4286 -2.8739 4.1983
# 2 -11.1447 61.8075 8.5868 -16.8458 -0.3648 3.3608
# 3 28.7721 8.5868 88.3440 3.5736 1.1519 -18.0865
# 4 -0.4286 -16.8458 3.5736 34.1523 -4.6522 -3.9420
# 5 -2.8739 -0.3648 1.1519 -4.6522 66.2202 17.9600
# 6 4.1983 3.3608 -18.0865 -3.9420 17.9600 26.1037
#
#
#
# Elastic Compliance Matrix: (Units=1/GPa)
#
#
# Indices 1 2 3 4 5 6 
#
# 1 0.009915 0.003412 -0.005120 0.001879 0.002590 -0.007080
# 2 0.003412 0.020742 -0.005074 0.010382 0.003051 -0.007266
# 3 -0.005120 -0.005074 0.017031 -0.003168 -0.005213 0.016385
# 4 0.001879 0.010382 -0.003168 0.035084 0.002780 -0.000449
# 5 0.002590 0.003051 -0.005213 0.002780 0.020410 -0.018044
# 6 -0.007080 -0.007266 0.016385 -0.000449 -0.018044 0.064083
#
#
# Mechanical properties :
#
#
# Convention : Reuss Voigt Hill
#
# Bulk Modulus (GPa) = 29.30651 36.21708 32.76180
# Shear Modulus (GPa) = 26.01390 41.78265 33.89827
#
# Velocity S-wave (km/s) = 3.14374 3.98420 3.58866
# Velocity P-wave (km/s) = 4.93066 5.90970 5.44224
#
# Compressibility (1/GPa) = 0.03412211
#
# Stress axis : x y z
#
# Youngs Moduli (GPa) = 100.85240 48.21109 58.71732
#
# Poissons Ratio (x) = -0.16447 0.30064
# Poissons Ratio (y) = -0.34406 0.29796
# Poissons Ratio (z) = 0.51638 0.24465
#
# Static dielectric constant tensor:
#      x y z
#    x 2.024880 0.051200 -0.178350 
#    y 0.051200 2.095750 -0.037880 
#    z -0.178350 -0.037880 2.586750 
# 
# From -- ./inp_files/467995.got.cif
#   From: 2010.05.17/outbox.cif.g08.bks.cpg/sg2_234_cif.got.tgz:467995.got - 2010.06.03 11:33:40.
