data_PCOD9053183
_publ_section_title
;
Structure prediction by ZEFSAII (Michael W. Deem and Ramdas Pophale) SiO2 
 PCOD9053183
Probable space group: P -1
;
_chemical_formula_sum "Si O2"
_cell_formula_units_Z 16
_cell_length_a 13.504145
_cell_length_b 20.307823
_cell_length_c 11.170758
_cell_angle_alpha 24.490353
_cell_angle_beta 133.737642
_cell_angle_gamma 148.275977
_cell_volume 617.829973
_symmetry_space_group_name_H-M "P -1"
_symmetry_group_IT_number 2
_symmetry_cell_setting 'triclinic'
loop_
_space_group_symop_operation_xyz
x,y,z
-x,-y,-z
loop_
_atom_site_type_symbol
_atom_site_label
_atom_site_fract_x
_atom_site_fract_y
_atom_site_fract_z
Si Si1 0.040727 0.648276 0.141337
Si Si2 0.275390 0.347905 0.109599
Si Si3 0.289281 0.444767 0.221231
Si Si4 0.205864 0.707917 0.754875
Si Si5 0.227303 0.870905 0.169316
Si Si6 0.289731 0.125339 0.022618
Si Si7 0.859644 0.952139 0.733340
Si Si8 0.374002 0.959898 0.701028
O O1 0.190701 0.852082 0.028951
O O2 0.839724 0.582549 0.100250
O O3 0.968787 0.404670 0.500621
O O4 0.175728 0.773030 0.928368
O O5 0.500000 0.500000 0.000000
O O6 0.299737 0.342304 0.282558
O O7 0.139721 0.145526 0.228398
O O8 0.076867 0.223024 0.473413
O O9 0.259180 0.603497 0.892785
O O10 0.480727 0.616990 0.185185
O O11 0.220924 0.889747 0.403038
O O12 0.367839 0.844084 0.771593
O O13 0.000000 0.500000 0.000000
O O14 0.251645 0.052041 0.970561
O O15 0.426402 0.929859 0.250082
O O16 0.178844 0.139295 0.011120
O O17 0.668879 0.905746 0.617547
#
# Coordination Sequence:
#
# PCOD9053183 Si02
#       8
#     2   2   2   2   2   2   2   2
#     4  11  25  42  60  88 124 163 199 244 298 362
#     4  12  23  41  64  88 123 158 206 255 298 354
#     4  12  21  35  58  90 122 152 193 254 308 349
#     4  11  19  32  57  94 120 150 188 254 312 346
#     4  11  24  40  62  89 124 162 197 240 301 372
#     4  11  22  35  59  91 123 154 200 247 304 362
#     4  11  24  36  60  95 120 159 197 254 306 348
#     4  11  21  36  62  89 124 150 197 246 302 361
#
# _framework density 25.897093999999999
#
# number of rings (size 3 to 8) (size 9 to 14) (size 15 to 20)
#    0.000    0.750    6.250    3.375    3.500    0.000 
#    0.000    0.625    0.000    0.750    0.000    0.000 
#    0.000    0.000    0.000    0.000    0.000    0.000 
#
# Total GULP energy -89147.488009 kJ/mol
# GULP energy per Si atom -5571.718001 kJ/mol
# Density = 2.583815 g / cm^3
# Si number density = 25.897094 Si / 1000 Ang^3
#
#
#
# Elastic Constant Matrix: (Units=GPa)
#
#
# Indices 1 2 3 4 5 6 
#
# 1 162.9312 55.0904 22.7027 -15.8513 4.0003 -30.8652
# 2 55.0904 123.7374 17.7946 -26.0569 6.9907 -29.7207
# 3 22.7027 17.7946 37.9987 -23.8226 2.4716 -1.3256
# 4 -15.8513 -26.0569 -23.8226 42.1247 -2.4071 7.0220
# 5 4.0003 6.9907 2.4716 -2.4071 35.2656 -13.4356
# 6 -30.8652 -29.7207 -1.3256 7.0220 -13.4356 62.3519
#
#
#
# Elastic Compliance Matrix: (Units=1/GPa)
#
#
# Indices 1 2 3 4 5 6 
#
# 1 0.008044 -0.002588 -0.004555 -0.001601 0.000969 0.003040
# 2 -0.002588 0.011208 -0.000305 0.005203 -0.000251 0.003415
# 3 -0.004555 -0.000305 0.043991 0.023605 -0.002686 -0.004702
# 4 -0.001601 0.005203 0.023605 0.040076 -0.000713 -0.002478
# 5 0.000969 -0.000251 -0.002686 -0.000713 0.031138 0.007093
# 6 0.003040 0.003415 -0.004702 -0.002478 0.007093 0.020878
#
#
# Mechanical properties :
#
#
# Convention : Reuss Voigt Hill
#
# Bulk Modulus (GPa) = 20.68406 57.31584 38.99995
# Shear Modulus (GPa) = 26.83193 43.22042 35.02617
#
# Velocity S-wave (km/s) = 3.22234 4.08968 3.68164
# Velocity P-wave (km/s) = 4.67429 6.66940 5.75890
#
# Compressibility (1/GPa) = 0.04834640
#
# Stress axis : x y z
#
# Youngs Moduli (GPa) = 124.32242 89.22494 22.73218
#
# Poissons Ratio (x) = 0.23090 0.10354
# Poissons Ratio (y) = 0.32172 0.00694
# Poissons Ratio (z) = 0.56625 0.02723
#
# Static dielectric constant tensor:
#      x y z
#    x 2.070960 -0.057210 0.054340 
#    y -0.057210 2.209880 0.017660 
#    z 0.054340 0.017660 2.122470 
# 
# From -- ./inp_files/457434.got.cif
#   From: 2010.05.17/outbox.cif.g08.bks.cpg/sg2_229_cif.got.tgz:457434.got - 2010.06.03 11:33:40.
