data_PCOD9053081
_publ_section_title
;
Structure prediction by ZEFSAII (Michael W. Deem and Ramdas Pophale) SiO2 
 PCOD9053081
Probable space group: P -1
;
_chemical_formula_sum "Si O2"
_cell_formula_units_Z 16
_cell_length_a 8.139003
_cell_length_b 27.461190
_cell_length_c 27.910544
_cell_angle_alpha 168.958236
_cell_angle_beta 35.613324
_cell_angle_gamma 145.468674
_cell_volume 676.705258
_symmetry_space_group_name_H-M "P -1"
_symmetry_group_IT_number 2
_symmetry_cell_setting 'triclinic'
loop_
_space_group_symop_operation_xyz
x,y,z
-x,-y,-z
loop_
_atom_site_type_symbol
_atom_site_label
_atom_site_fract_x
_atom_site_fract_y
_atom_site_fract_z
Si Si1 0.931223 0.135956 0.540797
Si Si2 0.991088 0.400778 0.960668
Si Si3 0.569149 0.620652 0.483769
Si Si4 0.723202 0.975117 0.004261
Si Si5 0.634122 0.731859 0.047145
Si Si6 0.933630 0.866720 0.018328
Si Si7 0.764670 0.209877 0.545212
Si Si8 0.404173 0.679623 0.472583
O O1 0.775544 0.127530 0.518341
O O2 0.272557 0.226667 0.533983
O O3 0.889300 0.855366 0.305047
O O4 0.871796 0.361957 0.807562
O O5 0.642514 0.317830 0.970277
O O6 0.000000 0.500000 0.000000
O O7 0.460028 0.821627 0.738052
O O8 0.909148 0.706327 0.473004
O O9 0.417078 0.637411 0.485132
O O10 0.458794 0.323300 0.239546
O O11 0.817158 0.045324 0.995003
O O12 0.000000 0.000000 0.000000
O O13 0.928817 0.809724 0.021230
O O14 0.609517 0.964903 0.313408
O O15 0.636750 0.464351 0.815405
O O16 0.768072 0.099518 0.281516
O O17 0.757951 0.590676 0.772898
#
# Coordination Sequence:
#
# PCOD9053081 Si02
#       8
#     2   2   2   2   2   2   2   2
#     4  11  22  44  69 102 130 177 223 260 328 394
#     4  12  25  45  75 107 137 164 211 280 332 391
#     4  11  22  38  58  90 131 166 229 272 333 376
#     4  12  21  35  57  96 130 170 220 296 332 377
#     4  12  24  46  64 101 131 175 225 270 337 403
#     4  12  22  34  62  90 126 165 221 274 333 362
#     4  11  26  44  71  92 137 187 222 270 321 407
#     4  11  18  35  60  91 118 163 213 279 304 381
#
# _framework density 23.643969999999999
#
# number of rings (size 3 to 8) (size 9 to 14) (size 15 to 20)
#    0.000    0.500    5.000    4.500    0.000    4.000 
#    0.000    7.500    0.000    0.000    0.000    0.000 
#    0.000    0.000    0.000    0.000    0.000    0.000 
#
# Total GULP energy -89593.684232 kJ/mol
# GULP energy per Si atom -5599.605264 kJ/mol
# Density = 2.359016 g / cm^3
# Si number density = 23.643970 Si / 1000 Ang^3
#
#
#
# Elastic Constant Matrix: (Units=GPa)
#
#
# Indices 1 2 3 4 5 6 
#
# 1 63.1239 16.0123 34.8123 13.8816 0.2846 -4.9863
# 2 16.0123 121.0461 36.3560 21.5223 4.7735 -24.2687
# 3 34.8123 36.3560 193.0616 27.8125 3.8802 -13.0928
# 4 13.8816 21.5223 27.8125 32.4430 -12.7106 -8.9477
# 5 0.2846 4.7735 3.8802 -12.7106 37.7462 -5.5540
# 6 -4.9863 -24.2687 -13.0928 -8.9477 -5.5540 42.8035
#
#
#
# Elastic Compliance Matrix: (Units=1/GPa)
#
#
# Indices 1 2 3 4 5 6 
#
# 1 0.018684 -0.000636 -0.002294 -0.006585 -0.002121 -0.000537
# 2 -0.000636 0.010554 -0.000663 -0.006100 -0.002716 0.004080
# 3 -0.002294 -0.000663 0.006487 -0.005025 -0.002258 -0.000002
# 4 -0.006585 -0.006100 -0.005025 0.051933 0.019956 0.007683
# 5 -0.002121 -0.002716 -0.002258 0.019956 0.034716 0.006199
# 6 -0.000537 0.004080 -0.000002 0.007683 0.006199 0.028023
#
#
# Mechanical properties :
#
#
# Convention : Reuss Voigt Hill
#
# Bulk Modulus (GPa) = 35.03956 61.28808 48.16382
# Shear Modulus (GPa) = 29.92291 41.93526 35.92908
#
# Velocity S-wave (km/s) = 3.56133 4.21600 3.90242
# Velocity P-wave (km/s) = 5.63583 7.04819 6.38121
#
# Compressibility (1/GPa) = 0.02853917
#
# Stress axis : x y z
#
# Youngs Moduli (GPa) = 53.52267 94.74987 154.14375
#
# Poissons Ratio (x) = 0.06023 0.35368
# Poissons Ratio (y) = 0.03402 0.10217
# Poissons Ratio (z) = 0.12281 0.06280
#
# Static dielectric constant tensor:
#      x y z
#    x 1.889200 0.024040 -0.007780 
#    y 0.024040 1.987580 -0.002920 
#    z -0.007780 -0.002920 1.828480 
# 
# From -- ./inp_files/340561.got.cif
#   From: 2010.05.17/outbox.cif.g08.bks.cpg/sg2_171_cif.got.tgz:340561.got - 2010.06.03 11:33:40.
