data_PCOD9053670
_publ_section_title
;
Structure prediction by ZEFSAII (Michael W. Deem and Ramdas Pophale) SiO2 
 PCOD9053670
Probable space group: P -1
;
_chemical_formula_sum "Si O2"
_cell_formula_units_Z 16
_cell_length_a 5.314820
_cell_length_b 21.191217
_cell_length_c 12.065526
_cell_angle_alpha 37.699895
_cell_angle_beta 72.216980
_cell_angle_gamma 94.726795
_cell_volume 657.450828
_symmetry_space_group_name_H-M "P -1"
_symmetry_group_IT_number 2
_symmetry_cell_setting 'triclinic'
loop_
_space_group_symop_operation_xyz
x,y,z
-x,-y,-z
loop_
_atom_site_type_symbol
_atom_site_label
_atom_site_fract_x
_atom_site_fract_y
_atom_site_fract_z
Si Si1 0.748897 0.461448 0.260891
Si Si2 0.135504 0.396053 0.176069
Si Si3 0.641199 0.780933 0.641612
Si Si4 0.254609 0.886346 0.910052
Si Si5 0.114555 0.921519 0.538314
Si Si6 0.921861 0.291332 0.019873
Si Si7 0.685053 0.802253 0.373044
Si Si8 0.735153 0.944461 0.965372
O O1 0.402208 0.332825 0.469581
O O2 0.957584 0.403321 0.296659
O O3 0.900023 0.556862 0.003859
O O4 0.820698 0.559623 0.211066
O O5 0.171566 0.283802 0.313182
O O6 0.500000 0.500000 0.000000
O O7 0.395968 0.733215 0.842402
O O8 0.486303 0.773280 0.555313
O O9 0.948473 0.909048 0.460355
O O10 0.145147 0.765971 0.015091
O O11 0.458443 0.903536 0.968971
O O12 0.966523 0.898932 0.961574
O O13 0.509876 0.001143 0.637619
O O14 0.005640 0.796088 0.794436
O O15 0.000000 0.000000 0.500000
O O16 0.586007 0.863102 0.210664
O O17 0.035253 0.914077 0.212980
#
# Coordination Sequence:
#
# PCOD9053670 Si02
#       8
#     2   2   2   2   2   2   2   2
#     4  11  23  39  61 102 138 183 225 277 351 425
#     4  11  20  35  61  97 145 176 212 274 355 431
#     4  12  22  38  65 106 136 174 221 288 355 416
#     4  12  26  47  71  98 142 184 235 291 340 411
#     4  12  24  40  67 103 143 181 224 279 360 423
#     4  12  25  40  68 106 142 176 228 283 360 428
#     4  11  25  45  69  97 136 182 237 293 344 406
#     4  11  28  49  70  99 133 189 248 289 337 399
#
# _framework density 24.33642
#
# number of rings (size 3 to 8) (size 9 to 14) (size 15 to 20)
#    0.000    0.500    6.250    2.625    1.750    3.000 
#    0.000    1.250    0.000    0.000    0.000    0.000 
#    0.000    0.000    0.000    0.000    0.000    0.000 
#
# Total GULP energy -89164.488082 kJ/mol
# GULP energy per Si atom -5572.780505 kJ/mol
# Density = 2.428103 g / cm^3
# Si number density = 24.336420 Si / 1000 Ang^3
#
#
#
# Elastic Constant Matrix: (Units=GPa)
#
#
# Indices 1 2 3 4 5 6 
#
# 1 126.7369 63.4706 24.2685 -3.9910 22.0384 -7.5929
# 2 63.4706 191.9553 56.4716 -40.0015 9.1601 21.5746
# 3 24.2685 56.4716 105.0760 -24.2012 9.6373 10.8298
# 4 -3.9910 -40.0015 -24.2012 40.8773 5.5885 -2.0534
# 5 22.0384 9.1601 9.6373 5.5885 27.6846 -0.4497
# 6 -7.5929 21.5746 10.8298 -2.0534 -0.4497 44.8901
#
#
#
# Elastic Compliance Matrix: (Units=1/GPa)
#
#
# Indices 1 2 3 4 5 6 
#
# 1 0.011497 -0.004166 -0.000685 -0.002202 -0.007027 0.003941
# 2 -0.004166 0.009165 -0.001749 0.007400 -0.000672 -0.004356
# 3 -0.000685 -0.001749 0.012694 0.006260 -0.004593 -0.002098
# 4 -0.002202 0.007400 0.006260 0.036408 -0.010288 -0.003877
# 5 -0.007027 -0.000672 -0.004593 -0.010288 0.045616 0.000229
# 6 0.003941 -0.004356 -0.002098 -0.003877 0.000229 0.025368
#
#
# Mechanical properties :
#
#
# Convention : Reuss Voigt Hill
#
# Bulk Modulus (GPa) = 49.61199 79.13219 64.37209
# Shear Modulus (GPa) = 31.12037 41.32757 36.22397
#
# Velocity S-wave (km/s) = 3.57985 4.12537 3.86225
# Velocity P-wave (km/s) = 6.12513 7.43492 6.81158
#
# Compressibility (1/GPa) = 0.02015642
#
# Stress axis : x y z
#
# Youngs Moduli (GPa) = 86.98154 109.10722 78.77659
#
# Poissons Ratio (x) = 0.45458 0.05396
# Poissons Ratio (y) = 0.36239 0.13775
# Poissons Ratio (z) = 0.05958 0.19078
#
# Static dielectric constant tensor:
#      x y z
#    x 2.031210 0.079130 0.011890 
#    y 0.079130 2.127110 0.054700 
#    z 0.011890 0.054700 2.140110 
# 
# From -- ./inp_files/370019.got.cif
#   From: 2010.05.17/outbox.cif.g08.bks.cpg/sg2_186_cif.got.tgz:370019.got - 2010.06.03 11:33:40.
