data_PCOD9053832
_publ_section_title
;
Structure prediction by ZEFSAII (Michael W. Deem and Ramdas Pophale) SiO2 
 PCOD9053832
Probable space group: P -1
;
_chemical_formula_sum "Si O2"
_cell_formula_units_Z 14
_cell_length_a 10.678361
_cell_length_b 8.981081
_cell_length_c 15.548393
_cell_angle_alpha 125.459020
_cell_angle_beta 145.223955
_cell_angle_gamma 42.705257
_cell_volume 575.770404
_symmetry_space_group_name_H-M "P -1"
_symmetry_group_IT_number 2
_symmetry_cell_setting 'triclinic'
loop_
_space_group_symop_operation_xyz
x,y,z
-x,-y,-z
loop_
_atom_site_type_symbol
_atom_site_label
_atom_site_fract_x
_atom_site_fract_y
_atom_site_fract_z
Si Si1 0.908490 0.439705 0.743899
Si Si2 0.274568 0.822928 0.147011
Si Si3 0.669302 0.021939 0.240461
Si Si4 0.289285 0.068432 0.565030
Si Si5 0.925898 0.715601 0.978795
Si Si6 0.506958 0.631858 0.436971
Si Si7 0.711114 0.405725 0.308142
O O1 0.957477 0.618028 0.867787
O O2 0.779886 0.496799 0.597590
O O3 0.672477 0.461815 0.675320
O O4 0.158674 0.193047 0.793439
O O5 0.454650 0.919635 0.284650
O O6 0.508383 0.560474 0.169452
O O7 0.121262 0.792136 0.128646
O O8 0.000000 0.000000 0.000000
O O9 0.368617 0.095146 0.100986
O O10 0.669613 0.220568 0.261565
O O11 0.758662 0.975495 0.376932
O O12 0.026663 0.275781 0.443913
O O13 0.354578 0.868013 0.473941
O O14 0.000000 0.500000 0.000000
O O15 0.605587 0.593235 0.383764
#
# Coordination Sequence:
#
# PCOD9053832 Si02
#       7
#     2   2   2   2   2   2   2
#     4  11  21  36  67 106 129 171 223 281 330 391
#     4  12  26  47  68  92 143 187 214 273 343 400
#     4  12  21  40  72 101 131 172 222 281 327 389
#     4  12  24  43  70 104 138 172 219 282 338 395
#     4  12  24  46  68  95 137 180 228 270 332 406
#     4  11  20  37  69 102 134 165 223 279 341 386
#     4  12  24  43  71 104 131 174 230 281 327 396
#
# _framework density 24.315248
#
# number of rings (size 3 to 8) (size 9 to 14) (size 15 to 20)
#    0.000    0.286    8.571    1.714    0.000    1.143 
#    0.000    2.143    0.000    0.000    0.000    0.000 
#    0.000    0.000    0.000    0.000    0.000    0.000 
#
# Total GULP energy -78080.313981 kJ/mol
# GULP energy per Si atom -5577.165284 kJ/mol
# Density = 2.425991 g / cm^3
# Si number density = 24.315248 Si / 1000 Ang^3
#
#
#
# Elastic Constant Matrix: (Units=GPa)
#
#
# Indices 1 2 3 4 5 6 
#
# 1 35.5842 19.0646 22.4733 6.9513 14.3987 0.8068
# 2 19.0646 137.1625 44.3153 -28.3500 9.3978 -7.9985
# 3 22.4733 44.3153 135.8288 -26.8764 42.0880 -3.5696
# 4 6.9513 -28.3500 -26.8764 54.4619 -0.4850 5.4025
# 5 14.3987 9.3978 42.0880 -0.4850 35.9932 -5.9227
# 6 0.8068 -7.9985 -3.5696 5.4025 -5.9227 46.2647
#
#
#
# Elastic Compliance Matrix: (Units=1/GPa)
#
#
# Indices 1 2 3 4 5 6 
#
# 1 0.039635 -0.005829 -0.003140 -0.009518 -0.011162 -0.002259
# 2 -0.005829 0.009613 -0.001955 0.004668 0.002396 0.001374
# 3 -0.003140 -0.001955 0.014592 0.006637 -0.015523 -0.001919
# 4 -0.009518 0.004668 0.006637 0.025449 -0.005183 -0.002150
# 5 -0.011162 0.002396 -0.015523 -0.005183 0.050776 0.006517
# 6 -0.002259 0.001374 -0.001919 -0.002150 0.006517 0.022829
#
#
# Mechanical properties :
#
#
# Convention : Reuss Voigt Hill
#
# Bulk Modulus (GPa) = 23.81322 53.36465 38.58894
# Shear Modulus (GPa) = 25.15850 42.19212 33.67531
#
# Velocity S-wave (km/s) = 3.22013 4.17011 3.72552
# Velocity P-wave (km/s) = 4.86215 6.72168 5.86607
#
# Compressibility (1/GPa) = 0.04199347
#
# Stress axis : x y z
#
# Youngs Moduli (GPa) = 25.22993 104.02381 68.52980
#
# Poissons Ratio (x) = 0.60633 0.21520
# Poissons Ratio (y) = 0.14706 0.13396
# Poissons Ratio (z) = 0.07923 0.20334
#
# Static dielectric constant tensor:
#      x y z
#    x 2.035240 0.106040 -0.118110 
#    y 0.106040 2.015360 -0.086300 
#    z -0.118110 -0.086300 2.084490 
# 
# From -- ./inp_files/338018.got.cif
#   From: 2010.05.17/outbox.cif.g08.bks.cpg/sg2_170_cif.got.tgz:338018.got - 2010.06.03 11:33:40.
