data_PCOD9053529
_publ_section_title
;
Structure prediction by ZEFSAII (Michael W. Deem and Ramdas Pophale) SiO2 
 PCOD9053529
Probable space group: P -1
;
_chemical_formula_sum "Si O2"
_cell_formula_units_Z 12
_cell_length_a 19.951793
_cell_length_b 16.677294
_cell_length_c 8.349877
_cell_angle_alpha 26.032468
_cell_angle_beta 151.896185
_cell_angle_gamma 159.982718
_cell_volume 403.941682
_symmetry_space_group_name_H-M "P -1"
_symmetry_group_IT_number 2
_symmetry_cell_setting 'triclinic'
loop_
_space_group_symop_operation_xyz
x,y,z
-x,-y,-z
loop_
_atom_site_type_symbol
_atom_site_label
_atom_site_fract_x
_atom_site_fract_y
_atom_site_fract_z
Si Si1 0.417384 0.129616 0.612863
Si Si2 0.656664 0.591012 0.529820
Si Si3 0.737300 0.078794 0.770026
Si Si4 0.040548 0.781222 0.673620
Si Si5 0.660405 0.355089 0.444148
Si Si6 0.025246 0.201074 0.943013
O O1 0.543955 0.351452 0.611422
O O2 0.492370 0.294466 0.312868
O O3 0.194379 0.933878 0.570797
O O4 0.500000 0.000000 0.000000
O O5 0.500000 0.500000 0.500000
O O6 0.728116 0.851491 0.158361
O O7 0.850863 0.669692 0.863371
O O8 0.844159 0.201184 0.956074
O O9 0.502884 0.914971 0.519824
O O10 0.863287 0.213174 0.625201
O O11 0.842501 0.491597 0.714559
O O12 0.982808 0.944042 0.288712
O O13 0.797537 0.588265 0.188271
#
# Coordination Sequence:
#
# PCOD9053529 Si02
#       6
#     2   2   2   2   2   2
#     4  12  26  44  66  97 138 182 224 275 334 400
#     4  11  19  43  69  97 134 177 219 273 335 392
#     4  11  22  41  70 104 136 169 222 283 337 396
#     4  11  23  42  67  99 136 178 219 274 339 397
#     4  12  24  40  66 103 138 172 222 280 339 396
#     4  11  21  38  68 103 134 169 221 281 339 391
#
# _framework density 29.707259000000001
#
# number of rings (size 3 to 8) (size 9 to 14) (size 15 to 20)
#    0.000    0.667    5.000    5.500    0.000    5.333 
#    0.000    3.333    0.000    7.000    0.000    0.000 
#    0.000    0.000    0.000    0.000    0.000    0.000 
#
# Total GULP energy -66886.432762 kJ/mol
# GULP energy per Si atom -5573.869397 kJ/mol
# Density = 2.963964 g / cm^3
# Si number density = 29.707259 Si / 1000 Ang^3
#
#
#
# Elastic Constant Matrix: (Units=GPa)
#
#
# Indices 1 2 3 4 5 6 
#
# 1 175.8952 80.8748 39.8913 20.8794 -21.1294 -6.0530
# 2 80.8748 190.8300 45.1215 43.7777 -15.5015 -7.2247
# 3 39.8913 45.1215 72.1109 19.4740 -8.7397 7.7477
# 4 20.8794 43.7777 19.4740 57.4064 1.9285 -2.7107
# 5 -21.1294 -15.5015 -8.7397 1.9285 36.7177 1.8348
# 6 -6.0530 -7.2247 7.7477 -2.7107 1.8348 62.9580
#
#
#
# Elastic Compliance Matrix: (Units=1/GPa)
#
#
# Indices 1 2 3 4 5 6 
#
# 1 0.007730 -0.002390 -0.002450 -0.000221 0.002834 0.000678
# 2 -0.002390 0.007991 -0.002359 -0.004444 0.001633 0.000739
# 3 -0.002450 -0.002359 0.018308 -0.003739 0.002297 -0.002987
# 4 -0.000221 -0.004444 -0.003739 0.022344 -0.004117 0.001011
# 5 0.002834 0.001633 0.002297 -0.004117 0.030362 -0.000885
# 6 0.000678 0.000739 -0.002987 0.001011 -0.000885 0.016471
#
#
# Mechanical properties :
#
#
# Convention : Reuss Voigt Hill
#
# Bulk Modulus (GPa) = 50.94282 85.62348 68.28315
# Shear Modulus (GPa) = 40.27433 49.61298 44.94365
#
# Velocity S-wave (km/s) = 3.68599 4.09107 3.89380
# Velocity P-wave (km/s) = 5.94145 7.15547 6.57654
#
# Compressibility (1/GPa) = 0.01962985
#
# Stress axis : x y z
#
# Youngs Moduli (GPa) = 129.36997 125.13668 54.61976
#
# Poissons Ratio (x) = 0.29908 0.13384
# Poissons Ratio (y) = 0.30920 0.12887
# Poissons Ratio (z) = 0.31701 0.29524
#
# Static dielectric constant tensor:
#      x y z
#    x 2.255780 -0.043630 -0.011590 
#    y -0.043630 2.327430 0.200490 
#    z -0.011590 0.200490 2.399110 
# 
# From -- ./inp_files/348266.got.cif
#   From: 2010.05.17/outbox.cif.g08.bks.cpg/sg2_175_cif.got.tgz:348266.got - 2010.06.03 11:33:40.
