data_PCOD9053976
_publ_section_title
;
Structure prediction by ZEFSAII (Michael W. Deem and Ramdas Pophale) SiO2 
 PCOD9053976
Probable space group: P -1
;
_chemical_formula_sum "Si O2"
_cell_formula_units_Z 14
_cell_length_a 8.356828
_cell_length_b 11.754736
_cell_length_c 13.850750
_cell_angle_alpha 100.329967
_cell_angle_beta 153.270081
_cell_angle_gamma 79.734872
_cell_volume 601.553787
_symmetry_space_group_name_H-M "P -1"
_symmetry_group_IT_number 2
_symmetry_cell_setting 'triclinic'
loop_
_space_group_symop_operation_xyz
x,y,z
-x,-y,-z
loop_
_atom_site_type_symbol
_atom_site_label
_atom_site_fract_x
_atom_site_fract_y
_atom_site_fract_z
Si Si1 0.903995 0.628594 0.429731
Si Si2 0.035537 0.400185 0.758490
Si Si3 0.143026 0.170538 0.878086
Si Si4 0.083315 0.971899 0.429728
Si Si5 0.183724 0.348769 0.272798
Si Si6 0.335133 0.206454 0.512057
Si Si7 0.452621 0.205378 0.242800
O O1 0.790903 0.614763 0.255553
O O2 0.242223 0.710207 0.614251
O O3 0.000000 0.500000 0.500000
O O4 0.658410 0.698265 0.384632
O O5 0.206727 0.303726 0.906166
O O6 0.611294 0.373916 0.514408
O O7 0.027556 0.529736 0.812751
O O8 0.728219 0.169835 0.682733
O O9 0.189059 0.094570 0.795066
O O10 0.346027 0.136999 0.079847
O O11 0.409994 0.878955 0.610241
O O12 0.170292 0.089974 0.442967
O O13 0.000000 0.000000 0.500000
O O14 0.118656 0.267419 0.316864
O O15 0.146224 0.284958 0.140869
#
# Coordination Sequence:
#
# PCOD9053976 Si02
#       7
#     2   2   2   2   2   2   2
#     4  11  20  39  67  92 126 167 202 253 319 371
#     4   9  17  36  61  86 125 164 198 251 311 363
#     4  11  24  41  66  93 124 164 213 258 306 370
#     4  12  23  44  66  89 128 167 206 257 316 368
#     4   9  18  35  61  88 121 163 205 247 307 368
#     4  11  21  39  65  93 122 167 209 256 309 366
#     4  11  24  42  64  94 125 166 209 256 313 368
#
# _framework density 23.273064000000002
#
# number of rings (size 3 to 8) (size 9 to 14) (size 15 to 20)
#    0.000    1.429    7.143    0.429    2.000    1.714 
#    0.000    2.143    0.000    0.000    0.000    0.000 
#    0.000    0.000    0.000    0.000    0.000    0.000 
#
# Total GULP energy -78238.094638 kJ/mol
# GULP energy per Si atom -5588.435331 kJ/mol
# Density = 2.322009 g / cm^3
# Si number density = 23.273064 Si / 1000 Ang^3
#
#
#
# Elastic Constant Matrix: (Units=GPa)
#
#
# Indices 1 2 3 4 5 6 
#
# 1 132.6600 35.3171 26.2277 5.7639 -30.1552 -16.2353
# 2 35.3171 147.3380 23.9660 -6.5238 -9.9930 3.9149
# 3 26.2277 23.9660 64.4014 -0.7465 -23.2437 -3.6450
# 4 5.7639 -6.5238 -0.7465 11.6072 3.8565 -10.2787
# 5 -30.1552 -9.9930 -23.2437 3.8565 29.5303 5.0223
# 6 -16.2353 3.9149 -3.6450 -10.2787 5.0223 48.8280
#
#
#
# Elastic Compliance Matrix: (Units=1/GPa)
#
#
# Indices 1 2 3 4 5 6 
#
# 1 0.011509 -0.002512 0.000796 -0.010951 0.012881 0.000457
# 2 -0.002512 0.007954 -0.002967 0.006542 -0.003062 -0.000002
# 3 0.000796 -0.002967 0.023107 -0.008350 0.019345 -0.001520
# 4 -0.010951 0.006542 -0.008350 0.130526 -0.037095 0.026504
# 5 0.012881 -0.003062 0.019345 -0.037095 0.067547 -0.008784
# 6 0.000457 -0.000002 -0.001520 0.026504 -0.008784 0.027002
#
#
# Mechanical properties :
#
#
# Convention : Reuss Voigt Hill
#
# Bulk Modulus (GPa) = 30.11609 57.26900 43.69254
# Shear Modulus (GPa) = 17.35641 35.25233 26.30437
#
# Velocity S-wave (km/s) = 2.73385 3.89617 3.36557
# Velocity P-wave (km/s) = 4.78891 6.70082 5.82386
#
# Compressibility (1/GPa) = 0.03320484
#
# Stress axis : x y z
#
# Youngs Moduli (GPa) = 86.88630 125.72743 43.27722
#
# Poissons Ratio (x) = 0.31577 -0.03443
# Poissons Ratio (y) = 0.21822 0.12838
# Poissons Ratio (z) = -0.06912 0.37297
#
# Static dielectric constant tensor:
#      x y z
#    x 1.906910 -0.038690 0.026160 
#    y -0.038690 1.875620 0.013120 
#    z 0.026160 0.013120 1.900270 
# 
# From -- ./inp_files/235888.got.cif
#   From: 2010.05.17/outbox.cif.g08.bks.cpg/sg2_118_cif.got.tgz:235888.got - 2010.06.03 11:33:40.
