data_PCOD9053491
_publ_section_title
;
Structure prediction by ZEFSAII (Michael W. Deem and Ramdas Pophale) SiO2 
 PCOD9053491
Probable space group: P -1
;
_chemical_formula_sum "Si O2"
_cell_formula_units_Z 15
_cell_length_a 13.003806
_cell_length_b 9.429137
_cell_length_c 18.655761
_cell_angle_alpha 153.601883
_cell_angle_beta 145.026242
_cell_angle_gamma 35.969206
_cell_volume 556.887036
_symmetry_space_group_name_H-M "P -1"
_symmetry_group_IT_number 2
_symmetry_cell_setting 'triclinic'
loop_
_space_group_symop_operation_xyz
x,y,z
-x,-y,-z
loop_
_atom_site_type_symbol
_atom_site_label
_atom_site_fract_x
_atom_site_fract_y
_atom_site_fract_z
Si Si1 0.170491 0.288355 0.623655
Si Si2 0.724570 0.569362 0.963594
Si Si3 0.000000 0.500000 0.000000
Si Si4 0.604126 0.967392 0.756309
Si Si5 0.603214 0.737488 0.500350
Si Si6 0.726956 0.269606 0.239007
Si Si7 0.143397 0.644718 0.903259
Si Si8 0.251290 0.591822 0.305289
O O1 0.190105 0.556226 0.697222
O O2 0.069923 0.456845 0.714099
O O3 0.381417 0.101875 0.689102
O O4 0.129724 0.973180 0.421504
O O5 0.787875 0.556017 0.075370
O O6 0.800544 0.865736 0.102428
O O7 0.848764 0.295478 0.857038
O O8 0.500474 0.653826 0.868045
O O9 0.869604 0.582358 0.889226
O O10 0.659148 0.931883 0.687111
O O11 0.690883 0.611501 0.680637
O O12 0.679781 0.230977 0.961816
O O13 0.746927 0.447119 0.405951
O O14 0.447243 0.584667 0.376357
O O15 0.500000 0.000000 0.500000
O O16 0.000000 0.000000 0.000000
#
# Coordination Sequence:
#
# PCOD9053491 Si02
#       8
#     2   2   1   2   2   2   2   2
#     4  11  24  45  73 109 140 183 251 293 353 420
#     4  11  26  42  71 101 139 191 236 293 353 428
#     4  12  26  48  70  96 150 184 240 278 380 418
#     4  11  24  42  73 106 141 190 235 297 357 425
#     4  11  19  41  70 104 142 174 238 293 356 410
#     4  11  23  42  71 107 136 183 242 297 344 422
#     4  12  27  46  68 103 150 193 233 293 367 433
#     4  11  25  43  74 105 145 191 233 303 356 432
#
# _framework density 26.935445000000001
#
# number of rings (size 3 to 8) (size 9 to 14) (size 15 to 20)
#    0.000    0.800    5.333    2.800    7.467    0.000 
#    2.400    2.000    0.000    0.000    0.000    0.000 
#    0.000    0.000    0.000    0.000    0.000    0.000 
#
# Total GULP energy -83859.748333 kJ/mol
# GULP energy per Si atom -5590.649889 kJ/mol
# Density = 2.687414 g / cm^3
# Si number density = 26.935445 Si / 1000 Ang^3
#
#
#
# Elastic Constant Matrix: (Units=GPa)
#
#
# Indices 1 2 3 4 5 6 
#
# 1 95.3786 31.6117 0.4960 6.5533 -14.8592 15.1653
# 2 31.6117 111.1192 21.7725 13.8367 -9.6635 17.6420
# 3 0.4960 21.7725 110.3417 1.4316 -28.6764 11.5077
# 4 6.5533 13.8367 1.4316 48.0089 -1.3481 4.0269
# 5 -14.8592 -9.6635 -28.6764 -1.3481 55.0843 -0.8916
# 6 15.1653 17.6420 11.5077 4.0269 -0.8916 56.0853
#
#
#
# Elastic Compliance Matrix: (Units=1/GPa)
#
#
# Indices 1 2 3 4 5 6 
#
# 1 0.012550 -0.003107 0.001813 -0.000541 0.003728 -0.002690
# 2 -0.003107 0.010883 -0.001893 -0.002487 -0.000008 -0.002016
# 3 0.001813 -0.001893 0.011193 0.000309 0.005957 -0.002119
# 4 -0.000541 -0.002487 0.000309 0.021672 0.000098 -0.000689
# 5 0.003728 -0.000008 0.005957 0.000098 0.022231 -0.001881
# 6 -0.002690 -0.002016 -0.002119 -0.000689 -0.001881 0.019646
#
#
# Mechanical properties :
#
#
# Convention : Reuss Voigt Hill
#
# Bulk Modulus (GPa) = 35.39421 47.17777 41.28599
# Shear Modulus (GPa) = 43.87201 49.36633 46.61917
#
# Velocity S-wave (km/s) = 4.04020 4.28572 4.16477
# Velocity P-wave (km/s) = 5.91043 6.48406 6.20388
#
# Compressibility (1/GPa) = 0.02825321
#
# Stress axis : x y z
#
# Youngs Moduli (GPa) = 79.67810 91.88384 89.33869
#
# Poissons Ratio (x) = 0.28548 -0.16197
# Poissons Ratio (y) = 0.24756 0.16912
# Poissons Ratio (z) = -0.14445 0.17393
#
# Static dielectric constant tensor:
#      x y z
#    x 3.208330 -0.517310 -0.680790 
#    y -0.517310 2.336070 0.353580 
#    z -0.680790 0.353580 2.678840 
# 
# From -- ./inp_files/572965.got.cif
#   From: 2010.05.17/outbox.cif.g08.bks.cpg/sg2_287_cif.got.tgz:572965.got - 2010.06.03 11:33:40.
