data_PCOD9053297
_publ_section_title
;
Structure prediction by ZEFSAII (Michael W. Deem and Ramdas Pophale) SiO2 
 PCOD9053297
Probable space group: P -1
;
_chemical_formula_sum "Si O2"
_cell_formula_units_Z 14
_cell_length_a 6.528430
_cell_length_b 9.935491
_cell_length_c 11.480619
_cell_angle_alpha 70.529385
_cell_angle_beta 91.248321
_cell_angle_gamma 81.825839
_cell_volume 693.038656
_symmetry_space_group_name_H-M "P -1"
_symmetry_group_IT_number 2
_symmetry_cell_setting 'triclinic'
loop_
_space_group_symop_operation_xyz
x,y,z
-x,-y,-z
loop_
_atom_site_type_symbol
_atom_site_label
_atom_site_fract_x
_atom_site_fract_y
_atom_site_fract_z
Si Si1 0.521392 0.443768 0.723410
Si Si2 0.866371 0.436648 0.188517
Si Si3 0.898189 0.730849 0.962574
Si Si4 0.144238 0.406871 0.432100
Si Si5 0.747021 0.789129 0.317582
Si Si6 0.127661 0.800596 0.153037
Si Si7 0.568103 0.981738 0.870790
O O1 0.367090 0.551666 0.770391
O O2 0.648743 0.525729 0.611156
O O3 0.383500 0.334011 0.694594
O O4 0.698989 0.339953 0.826053
O O5 0.954195 0.317020 0.130008
O O6 0.015805 0.413258 0.309369
O O7 0.874218 0.589670 0.079515
O O8 0.674779 0.817760 0.899100
O O9 0.005196 0.830932 0.022801
O O10 0.206555 0.249514 0.536530
O O11 0.000000 0.500000 0.500000
O O12 0.961330 0.770340 0.255016
O O13 0.617247 0.943270 0.235110
O O14 0.749200 0.078685 0.832040
O O15 0.500000 0.000000 0.000000
#
# Coordination Sequence:
#
# PCOD9053297 Si02
#       7
#     2   2   2   2   2   2   2
#     4  11  19  36  59  93 116 153 198 240 301 346
#     4  11  24  38  60  88 125 155 190 246 299 352
#     4  11  21  43  56  88 128 152 193 245 294 353
#     4  12  21  38  61  88 122 152 200 249 292 343
#     4  11  22  36  61  94 114 152 202 250 288 342
#     4  11  20  38  62  89 118 153 196 246 291 346
#     4  11  23  38  63  89 117 157 202 238 292 350
#
# _framework density 20.200892
#
# number of rings (size 3 to 8) (size 9 to 14) (size 15 to 20)
#    0.000    0.857    7.143    1.714    0.000    0.571 
#    2.571    0.714    0.000    1.714    0.000    0.000 
#    0.000    0.000    0.000    0.000    0.000    0.000 
#
# Total GULP energy -78188.440371 kJ/mol
# GULP energy per Si atom -5584.888598 kJ/mol
# Density = 2.015491 g / cm^3
# Si number density = 20.200892 Si / 1000 Ang^3
#
#
#
# Elastic Constant Matrix: (Units=GPa)
#
#
# Indices 1 2 3 4 5 6 
#
# 1 104.2245 15.7818 44.1038 -2.0439 -22.9211 -25.1635
# 2 15.7818 56.0336 35.3978 -7.6251 -1.6940 -28.8905
# 3 44.1038 35.3978 123.1355 -11.6553 1.5853 -22.5666
# 4 -2.0439 -7.6251 -11.6553 28.5206 -19.0812 7.0359
# 5 -22.9211 -1.6940 1.5853 -19.0812 33.8530 -3.3215
# 6 -25.1635 -28.8905 -22.5666 7.0359 -3.3215 33.0838
#
#
#
# Elastic Compliance Matrix: (Units=1/GPa)
#
#
# Indices 1 2 3 4 5 6 
#
# 1 0.021652 0.011935 -0.006112 0.013802 0.025516 0.022348
# 2 0.011935 0.043093 -0.008217 0.014156 0.022561 0.040358
# 3 -0.006112 -0.008217 0.011925 -0.000691 -0.005903 -0.004136
# 4 0.013802 0.014156 -0.000691 0.070702 0.051162 0.012489
# 5 0.025516 0.022561 -0.005903 0.051162 0.080223 0.032256
# 6 0.022348 0.040358 -0.004136 0.012489 0.032256 0.080228
#
#
# Mechanical properties :
#
#
# Convention : Reuss Voigt Hill
#
# Bulk Modulus (GPa) = 13.91188 52.66226 33.28707
# Shear Modulus (GPa) = 14.85569 31.63216 23.24393
#
# Velocity S-wave (km/s) = 2.71476 3.96141 3.39579
# Velocity P-wave (km/s) = 4.09003 6.85927 5.64703
#
# Compressibility (1/GPa) = 0.07188101
#
# Stress axis : x y z
#
# Youngs Moduli (GPa) = 46.18599 23.20582 83.85615
#
# Poissons Ratio (x) = -0.27697 0.51257
# Poissons Ratio (y) = -0.55124 0.68904
# Poissons Ratio (z) = 0.28231 0.19068
#
# Static dielectric constant tensor:
#      x y z
#    x 1.735090 -0.002110 0.020700 
#    y -0.002110 1.743270 -0.053780 
#    z 0.020700 -0.053780 1.739120 
# 
# From -- ./inp_files/362648.got.cif
#   From: 2010.05.17/outbox.cif.g08.bks.cpg/sg2_182_cif.got.tgz:362648.got - 2010.06.03 11:33:40.
