data_PCOD9053086
_publ_section_title
;
Structure prediction by ZEFSAII (Michael W. Deem and Ramdas Pophale) SiO2 
 PCOD9053086
Probable space group: P -1
;
_chemical_formula_sum "Si O2"
_cell_formula_units_Z 16
_cell_length_a 15.572000
_cell_length_b 12.027772
_cell_length_c 16.361886
_cell_angle_alpha 54.198030
_cell_angle_beta 146.100229
_cell_angle_gamma 149.745485
_cell_volume 760.290151
_symmetry_space_group_name_H-M "P -1"
_symmetry_group_IT_number 2
_symmetry_cell_setting 'triclinic'
loop_
_space_group_symop_operation_xyz
x,y,z
-x,-y,-z
loop_
_atom_site_type_symbol
_atom_site_label
_atom_site_fract_x
_atom_site_fract_y
_atom_site_fract_z
Si Si1 0.345678 0.568543 0.050175
Si Si2 0.004884 0.999583 0.601373
Si Si3 0.763852 0.219017 0.173037
Si Si4 0.960790 0.630044 0.940993
Si Si5 0.407122 0.843084 0.759715
Si Si6 0.259076 0.453709 0.370004
Si Si7 0.788668 0.048593 0.533247
Si Si8 0.252886 0.414687 0.871073
O O1 0.686170 0.827635 0.202828
O O2 0.179767 0.580457 0.885391
O O3 0.251358 0.398840 0.975297
O O4 0.262169 0.499454 0.108845
O O5 0.962258 0.109223 0.569397
O O6 0.000000 0.000000 0.500000
O O7 0.738406 0.706316 0.541958
O O8 0.669686 0.131998 0.228547
O O9 0.027073 0.328685 0.306751
O O10 0.500000 0.000000 0.000000
O O11 0.258328 0.902605 0.092125
O O12 0.000000 0.500000 0.000000
O O13 0.877988 0.638383 0.787814
O O14 0.276780 0.840854 0.586623
O O15 0.318385 0.620090 0.803279
O O16 0.508741 0.748169 0.447568
O O17 0.967052 0.165163 0.706306
O O18 0.500000 0.500000 0.000000
#
# Coordination Sequence:
#
# PCOD9053086 Si02
#       8
#     2   2   2   2   2   2   2   2
#     4  11  22  41  65  98 130 180 227 271 331 414
#     4  12  25  41  66 100 143 171 221 278 354 409
#     4  11  18  35  66  96 131 172 215 267 348 405
#     4  12  21  39  73 106 138 165 221 286 353 405
#     4  11  23  42  70  98 134 176 235 281 333 407
#     4  12  23  39  67 105 139 172 219 285 346 405
#     4  12  25  43  66 100 137 180 226 286 335 398
#     4  11  25  49  69  90 135 192 237 272 333 404
#
# _framework density 21.044597
#
# number of rings (size 3 to 8) (size 9 to 14) (size 15 to 20)
#    0.000    0.500    6.250    3.000    0.000    0.000 
#    0.000    8.750    0.000    0.000    0.000    0.000 
#    0.000    0.000    0.000    0.000    0.000    0.000 
#
# Total GULP energy -89272.806932 kJ/mol
# GULP energy per Si atom -5579.550433 kJ/mol
# Density = 2.099670 g / cm^3
# Si number density = 21.044597 Si / 1000 Ang^3
#
#
#
# Elastic Constant Matrix: (Units=GPa)
#
#
# Indices 1 2 3 4 5 6 
#
# 1 98.2581 16.7088 16.3038 3.8411 -3.6339 1.1620
# 2 16.7088 59.2602 15.6608 -8.4320 5.3502 6.5135
# 3 16.3038 15.6608 94.7269 0.1856 -6.1748 -1.7491
# 4 3.8411 -8.4320 0.1856 28.5356 5.3514 2.9000
# 5 -3.6339 5.3502 -6.1748 5.3514 36.6652 -5.9120
# 6 1.1620 6.5135 -1.7491 2.9000 -5.9120 28.9326
#
#
#
# Elastic Compliance Matrix: (Units=1/GPa)
#
#
# Indices 1 2 3 4 5 6 
#
# 1 0.011159 -0.003560 -0.001175 -0.003029 0.002031 0.001001
# 2 -0.003560 0.021417 -0.003499 0.008769 -0.006491 -0.007095
# 3 -0.001175 -0.003499 0.011577 -0.001744 0.002972 0.002317
# 4 -0.003029 0.008769 -0.001744 0.040554 -0.009062 -0.007875
# 5 0.002031 -0.006491 0.002972 -0.009062 0.031687 0.008943
# 6 0.001001 -0.007095 0.002317 -0.007875 0.008943 0.038877
#
#
# Mechanical properties :
#
#
# Convention : Reuss Voigt Hill
#
# Bulk Modulus (GPa) = 36.12190 38.84357 37.48274
# Shear Modulus (GPa) = 27.62888 32.39813 30.01350
#
# Velocity S-wave (km/s) = 3.62729 3.92790 3.78058
# Velocity P-wave (km/s) = 5.89446 6.25052 6.07510
#
# Compressibility (1/GPa) = 0.02768403
#
# Stress axis : x y z
#
# Youngs Moduli (GPa) = 89.61049 46.69183 86.37508
#
# Poissons Ratio (x) = 0.16624 0.10151
# Poissons Ratio (y) = 0.31904 0.30226
# Poissons Ratio (z) = 0.10532 0.16339
#
# Static dielectric constant tensor:
#      x y z
#    x 1.991780 -0.090860 -0.002960 
#    y -0.090860 1.866570 -0.048630 
#    z -0.002960 -0.048630 1.792040 
# 
# From -- ./inp_files/425233.got.cif
#   From: 2010.05.17/outbox.cif.g08.bks.cpg/sg2_213_cif.got.tgz:425233.got - 2010.06.03 11:33:40.
