data_PCOD9053064
_publ_section_title
;
Structure prediction by ZEFSAII (Michael W. Deem and Ramdas Pophale) SiO2 
 PCOD9053064
Probable space group: P -1
;
_chemical_formula_sum "Si O2"
_cell_formula_units_Z 16
_cell_length_a 12.032729
_cell_length_b 11.922322
_cell_length_c 21.428777
_cell_angle_alpha 32.161134
_cell_angle_beta 37.228018
_cell_angle_gamma 59.492925
_cell_volume 847.563493
_symmetry_space_group_name_H-M "P -1"
_symmetry_group_IT_number 2
_symmetry_cell_setting 'triclinic'
loop_
_space_group_symop_operation_xyz
x,y,z
-x,-y,-z
loop_
_atom_site_type_symbol
_atom_site_label
_atom_site_fract_x
_atom_site_fract_y
_atom_site_fract_z
Si Si1 0.252840 0.407250 0.171408
Si Si2 0.424608 0.616670 0.311199
Si Si3 0.301631 0.013111 0.168485
Si Si4 0.951601 0.950038 0.448693
Si Si5 0.919752 0.269618 0.726150
Si Si6 0.680461 0.660000 0.294766
Si Si7 0.879122 0.211359 0.918090
Si Si8 0.372986 0.486935 0.260279
O O1 0.154191 0.223710 0.361559
O O2 0.240467 0.643700 0.083007
O O3 0.500000 0.500000 0.000000
O O4 0.077863 0.235070 0.278040
O O5 0.572024 0.595060 0.306370
O O6 0.471936 0.548237 0.255370
O O7 0.172995 0.434121 0.523491
O O8 0.440843 0.882074 0.175687
O O9 0.183777 0.915348 0.199687
O O10 0.447694 0.308680 0.961483
O O11 0.139090 0.934555 0.335752
O O12 0.745860 0.801902 0.565261
O O13 0.898058 0.181069 0.849319
O O14 0.806124 0.431589 0.697281
O O15 0.500000 0.500000 0.500000
O O16 0.883701 0.635934 0.230293
O O17 0.763497 0.948780 0.126884
#
# Coordination Sequence:
#
# PCOD9053064 Si02
#       8
#     2   2   2   2   2   2   2   2
#     4  11  25  40  60  84 121 167 198 245 289 346
#     4  11  19  33  55  85 123 154 188 238 300 359
#     4  11  20  33  57  90 125 150 184 244 316 360
#     4  11  22  36  56  91 119 155 197 233 301 355
#     4  11  18  34  58  88 124 150 184 253 307 361
#     4  11  24  37  59  85 118 166 194 243 291 348
#     4  11  23  41  58  87 124 155 205 236 292 360
#     4  11  19  32  54  87 121 154 182 240 306 354
#
# _framework density 18.877642000000002
#
# number of rings (size 3 to 8) (size 9 to 14) (size 15 to 20)
#    0.000    1.000    5.000    4.500    1.750    1.000 
#    0.000    0.000    0.000    0.750    0.000    9.625 
#    0.000    0.000    0.000    0.000    0.000    0.000 
#
# Total GULP energy -89190.002556 kJ/mol
# GULP energy per Si atom -5574.375160 kJ/mol
# Density = 1.883468 g / cm^3
# Si number density = 18.877642 Si / 1000 Ang^3
#
#
#
# Elastic Constant Matrix: (Units=GPa)
#
#
# Indices 1 2 3 4 5 6 
#
# 1 108.1311 10.7295 22.1546 17.8919 -2.0747 7.3577
# 2 10.7295 52.5820 28.4929 12.7821 4.0928 7.1363
# 3 22.1546 28.4929 117.5161 20.1853 -11.8027 3.1431
# 4 17.8919 12.7821 20.1853 24.5568 2.5321 -3.8816
# 5 -2.0747 4.0928 -11.8027 2.5321 28.9061 1.9502
# 6 7.3577 7.1363 3.1431 -3.8816 1.9502 24.7147
#
#
#
# Elastic Compliance Matrix: (Units=1/GPa)
#
#
# Indices 1 2 3 4 5 6 
#
# 1 0.011146 0.000718 -0.000404 -0.009132 0.001673 -0.005040
# 2 0.000718 0.025461 -0.004602 -0.010916 -0.003911 -0.008386
# 3 -0.000404 -0.004602 0.011725 -0.007869 0.006219 -0.001768
# 4 -0.009132 -0.010916 -0.007869 0.063225 -0.009043 0.017515
# 5 0.001673 -0.003911 0.006219 -0.009043 0.038914 -0.004651
# 6 -0.005040 -0.008386 -0.001768 0.017515 -0.004651 0.047726
#
#
# Mechanical properties :
#
#
# Convention : Reuss Voigt Hill
#
# Bulk Modulus (GPa) = 25.15364 44.55366 34.85365
# Shear Modulus (GPa) = 22.72470 30.09235 26.40852
#
# Velocity S-wave (km/s) = 3.47333 3.99692 3.74429
# Velocity P-wave (km/s) = 5.42576 6.70470 6.09885
#
# Compressibility (1/GPa) = 0.03975567
#
# Stress axis : x y z
#
# Youngs Moduli (GPa) = 89.72178 39.27544 85.28847
#
# Poissons Ratio (x) = -0.02821 0.03446
# Poissons Ratio (y) = -0.06444 0.39252
# Poissons Ratio (z) = 0.03625 0.18076
#
# Static dielectric constant tensor:
#      x y z
#    x 1.722310 0.060880 -0.025940 
#    y 0.060880 1.655230 -0.010970 
#    z -0.025940 -0.010970 1.719870 
# 
# From -- ./inp_files/438636.got.cif
#   From: 2010.05.17/outbox.cif.g08.bks.cpg/sg2_220_cif.got.tgz:438636.got - 2010.06.03 11:33:40.
