data_PCOD9053438
_publ_section_title
;
Structure prediction by ZEFSAII (Michael W. Deem and Ramdas Pophale) SiO2 
 PCOD9053438
Probable space group: P -1
;
_chemical_formula_sum "Si O2"
_cell_formula_units_Z 16
_cell_length_a 8.808950
_cell_length_b 11.852680
_cell_length_c 17.999273
_cell_angle_alpha 141.168127
_cell_angle_beta 140.709183
_cell_angle_gamma 40.742418
_cell_volume 687.213556
_symmetry_space_group_name_H-M "P -1"
_symmetry_group_IT_number 2
_symmetry_cell_setting 'triclinic'
loop_
_space_group_symop_operation_xyz
x,y,z
-x,-y,-z
loop_
_atom_site_type_symbol
_atom_site_label
_atom_site_fract_x
_atom_site_fract_y
_atom_site_fract_z
Si Si1 0.915575 0.490172 0.138158
Si Si2 0.446329 0.530368 0.408215
Si Si3 0.904455 0.967256 0.029145
Si Si4 0.304722 0.954790 0.600365
Si Si5 0.993382 0.339317 0.471532
Si Si6 0.116930 0.940316 0.250061
Si Si7 0.350897 0.320315 0.727370
Si Si8 0.315911 0.129367 0.851952
O O1 0.714641 0.534381 0.153739
O O2 0.788586 0.652106 0.109983
O O3 0.171791 0.525711 0.279980
O O4 0.009621 0.263279 0.040737
O O5 0.500000 0.500000 0.500000
O O6 0.444794 0.745984 0.508176
O O7 0.691619 0.371202 0.379330
O O8 0.594565 0.074488 0.966695
O O9 0.029741 0.027058 0.178539
O O10 0.000000 0.000000 0.000000
O O11 0.366711 0.118381 0.665707
O O12 0.356475 0.982933 0.721133
O O13 0.000000 0.000000 0.500000
O O14 0.000000 0.500000 0.500000
O O15 0.107419 0.386954 0.614786
O O16 0.156373 0.114171 0.398645
O O17 0.375035 0.742014 0.241614
O O18 0.892426 0.894722 0.183417
#
# Coordination Sequence:
#
# PCOD9053438 Si02
#       8
#     2   2   2   2   2   2   2   2
#     4  11  25  45  74 106 131 186 241 281 346 413
#     4  12  21  39  68 101 139 177 227 280 335 415
#     4  12  28  50  75  98 137 184 243 289 340 420
#     4  11  19  39  71 101 138 185 225 278 344 414
#     4  12  27  40  66 106 144 177 223 286 353 410
#     4  12  27  47  68 100 144 185 224 292 356 408
#     4  11  24  43  68 101 140 181 230 278 348 421
#     4  11  25  45  74 105 140 181 233 291 350 412
#
# _framework density 23.282430000000002
#
# number of rings (size 3 to 8) (size 9 to 14) (size 15 to 20)
#    0.000    0.500    3.750    6.000    3.500    2.500 
#    0.000    0.000    0.000    0.000    0.000    0.000 
#    0.000    0.000    0.000    0.000    0.000    0.000 
#
# Total GULP energy -89589.675558 kJ/mol
# GULP energy per Si atom -5599.354722 kJ/mol
# Density = 2.322944 g / cm^3
# Si number density = 23.282430 Si / 1000 Ang^3
#
#
#
# Elastic Constant Matrix: (Units=GPa)
#
#
# Indices 1 2 3 4 5 6 
#
# 1 104.3458 20.5142 -4.7716 -0.5501 7.0567 -8.9697
# 2 20.5142 102.3666 14.6227 -2.5075 3.4141 -13.4695
# 3 -4.7716 14.6227 49.0938 -7.9788 -0.5254 1.1439
# 4 -0.5501 -2.5075 -7.9788 21.5789 1.1078 9.3141
# 5 7.0567 3.4141 -0.5254 1.1078 26.6281 -9.9723
# 6 -8.9697 -13.4695 1.1439 9.3141 -9.9723 39.5459
#
#
#
# Elastic Compliance Matrix: (Units=1/GPa)
#
#
# Indices 1 2 3 4 5 6 
#
# 1 0.010295 -0.002090 0.001627 0.000304 -0.002073 0.000982
# 2 -0.002090 0.011222 -0.003963 -0.002020 0.000658 0.004105
# 3 0.001627 -0.003963 0.023464 0.010267 -0.001562 -0.004471
# 4 0.000304 -0.002020 0.010267 0.057460 -0.008195 -0.016516
# 5 -0.002073 0.000658 -0.001562 -0.008195 0.043042 0.012583
# 6 0.000982 0.004105 -0.004471 -0.016516 0.012583 0.034100
#
#
# Mechanical properties :
#
#
# Convention : Reuss Voigt Hill
#
# Bulk Modulus (GPa) = 27.67705 35.17074 31.42389
# Shear Modulus (GPa) = 24.94058 32.58000 28.76029
#
# Velocity S-wave (km/s) = 3.27650 3.74483 3.51847
# Velocity P-wave (km/s) = 5.12126 5.81698 5.48017
#
# Compressibility (1/GPa) = 0.03613102
#
# Stress axis : x y z
#
# Youngs Moduli (GPa) = 97.13452 89.10819 42.61915
#
# Poissons Ratio (x) = 0.18622 -0.06936
# Poissons Ratio (y) = 0.20299 0.16888
# Poissons Ratio (z) = -0.15808 0.35310
#
# Static dielectric constant tensor:
#      x y z
#    x 1.904630 -0.048990 -0.016530 
#    y -0.048990 1.951800 -0.000710 
#    z -0.016530 -0.000710 1.868450 
# 
# From -- ./inp_files/345890.got.cif
#   From: 2010.05.17/outbox.cif.g08.bks.cpg/sg2_173_cif.got.tgz:345890.got - 2010.06.03 11:33:40.
