data_PCOD9053196
_publ_section_title
;
Structure prediction by ZEFSAII (Michael W. Deem and Ramdas Pophale) SiO2 
 PCOD9053196
Probable space group: P -1
;
_chemical_formula_sum "Si O2"
_cell_formula_units_Z 16
_cell_length_a 15.782525
_cell_length_b 12.616904
_cell_length_c 6.895635
_cell_angle_alpha 125.627503
_cell_angle_beta 104.429803
_cell_angle_gamma 37.600230
_cell_volume 615.415037
_symmetry_space_group_name_H-M "P -1"
_symmetry_group_IT_number 2
_symmetry_cell_setting 'triclinic'
loop_
_space_group_symop_operation_xyz
x,y,z
-x,-y,-z
loop_
_atom_site_type_symbol
_atom_site_label
_atom_site_fract_x
_atom_site_fract_y
_atom_site_fract_z
Si Si1 0.827557 0.126130 0.123366
Si Si2 0.580294 0.256391 0.084039
Si Si3 0.105976 0.719855 0.415884
Si Si4 0.708848 0.388780 0.955540
Si Si5 0.589309 0.791298 0.957189
Si Si6 0.298129 0.309746 0.675341
Si Si7 0.822328 0.755802 0.717350
Si Si8 0.043777 0.243932 0.925230
O O1 0.892245 0.181535 0.303242
O O2 0.782761 0.203663 0.957171
O O3 0.660241 0.278095 0.265103
O O4 0.937602 0.883537 0.024432
O O5 0.453170 0.452287 0.063112
O O6 0.492183 0.250644 0.143725
O O7 0.731638 0.988463 0.810422
O O8 0.176629 0.715818 0.268923
O O9 0.234283 0.455468 0.258040
O O10 0.957821 0.828664 0.357599
O O11 0.682462 0.561824 0.227980
O O12 0.593642 0.837246 0.231667
O O13 0.500000 0.000000 0.000000
O O14 0.279325 0.238623 0.407857
O O15 0.129390 0.495425 0.874450
O O16 0.837111 0.789144 0.984006
O O17 0.000000 0.500000 0.500000
#
# Coordination Sequence:
#
# PCOD9053196 Si02
#       8
#     2   2   2   2   2   2   2   2
#     4  11  19  33  58  77 106 148 176 214 273 319
#     4   9  20  34  51  80 110 137 180 225 261 320
#     4   9  20  35  53  78 108 141 181 222 264 316
#     4   9  20  34  50  80 111 137 178 223 260 319
#     4   9  19  35  53  76 109 142 176 224 270 317
#     4   8  17  32  51  76 106 139 180 222 265 317
#     4   9  16  31  55  74 100 140 174 218 272 312
#     4   8  17  33  51  75 105 139 179 224 264 311
#
# _framework density 25.998716000000002
#
# number of rings (size 3 to 8) (size 9 to 14) (size 15 to 20)
#    0.000    3.500    0.000    0.750    0.000    8.000 
#    0.000    2.500    0.000   39.000    0.000    0.000 
#    0.000    0.000    0.000    0.000    0.000    0.000 
#
# Total GULP energy -89190.987375 kJ/mol
# GULP energy per Si atom -5574.436711 kJ/mol
# Density = 2.593954 g / cm^3
# Si number density = 25.998716 Si / 1000 Ang^3
#
#
#
# Elastic Constant Matrix: (Units=GPa)
#
#
# Indices 1 2 3 4 5 6 
#
# 1 55.7690 58.9067 21.1451 -16.8714 22.2617 -18.0302
# 2 58.9067 187.8298 36.6053 -15.3071 6.1721 -21.2872
# 3 21.1451 36.6053 91.9754 -17.4082 22.3541 -16.7773
# 4 -16.8714 -15.3071 -17.4082 27.3882 -14.6772 16.2183
# 5 22.2617 6.1721 22.3541 -14.6772 37.6392 -14.7838
# 6 -18.0302 -21.2872 -16.7773 16.2183 -14.7838 62.8212
#
#
#
# Elastic Compliance Matrix: (Units=1/GPa)
#
#
# Indices 1 2 3 4 5 6 
#
# 1 0.039797 -0.011371 0.001817 0.008302 -0.018944 0.001452
# 2 -0.011371 0.009257 -0.002671 -0.000287 0.007031 0.000889
# 3 0.001817 -0.002671 0.014199 0.004515 -0.007083 0.000576
# 4 0.008302 -0.000287 0.004515 0.054879 0.010646 -0.008171
# 5 -0.018944 0.007031 -0.007083 0.010646 0.046228 0.003184
# 6 0.001452 0.000889 0.000576 -0.008171 0.003184 0.019649
#
#
# Mechanical properties :
#
#
# Convention : Reuss Voigt Hill
#
# Bulk Modulus (GPa) = 25.77198 63.20982 44.49090
# Shear Modulus (GPa) = 22.58424 40.16418 31.37421
#
# Velocity S-wave (km/s) = 2.95051 3.93473 3.47761
# Velocity P-wave (km/s) = 4.64130 6.70882 5.76844
#
# Compressibility (1/GPa) = 0.03880183
#
# Stress axis : x y z
#
# Youngs Moduli (GPa) = 25.12776 108.02620 70.42868
#
# Poissons Ratio (x) = 1.22840 -0.12797
# Poissons Ratio (y) = 0.28574 0.18812
# Poissons Ratio (z) = -0.04566 0.28854
#
# Static dielectric constant tensor:
#      x y z
#    x 2.110540 -0.034490 -0.048600 
#    y -0.034490 2.037340 0.048490 
#    z -0.048600 0.048490 2.208960 
# 
# From -- ./inp_files/347071.got.cif
#   From: 2010.05.17/outbox.cif.g08.bks.cpg/sg2_174_cif.got.tgz:347071.got - 2010.06.03 11:33:40.
