data_PCOD9053149
_publ_section_title
;
Structure prediction by ZEFSAII (Michael W. Deem and Ramdas Pophale) SiO2 
 PCOD9053149
Probable space group: P -1
;
_chemical_formula_sum "Si O2"
_cell_formula_units_Z 16
_cell_length_a 10.774261
_cell_length_b 14.630500
_cell_length_c 9.521733
_cell_angle_alpha 113.952102
_cell_angle_beta 82.624620
_cell_angle_gamma 42.615796
_cell_volume 671.977615
_symmetry_space_group_name_H-M "P -1"
_symmetry_group_IT_number 2
_symmetry_cell_setting 'triclinic'
loop_
_space_group_symop_operation_xyz
x,y,z
-x,-y,-z
loop_
_atom_site_type_symbol
_atom_site_label
_atom_site_fract_x
_atom_site_fract_y
_atom_site_fract_z
Si Si1 0.121585 0.232028 0.327018
Si Si2 0.709440 0.360760 0.207364
Si Si3 0.133494 0.006721 0.707011
Si Si4 0.774569 0.862688 0.350741
Si Si5 0.338403 0.111877 0.919193
Si Si6 0.683234 0.608324 0.467180
Si Si7 0.150927 0.769475 0.577218
Si Si8 0.964752 0.501129 0.841370
O O1 0.863852 0.474217 0.494097
O O2 0.061135 0.167702 0.362198
O O3 0.366017 0.114407 0.282940
O O4 0.227522 0.144091 0.097234
O O5 0.699177 0.486726 0.319983
O O6 0.414704 0.540047 0.339772
O O7 0.802881 0.248748 0.271687
O O8 0.888792 0.206405 0.957781
O O9 0.387352 0.837216 0.662403
O O10 0.105332 0.910231 0.609408
O O11 0.193384 0.040402 0.589757
O O12 0.810467 0.821572 0.152634
O O13 0.982781 0.653187 0.272727
O O14 0.500000 0.000000 0.500000
O O15 0.289303 0.266231 0.026153
O O16 0.818733 0.590290 0.331238
O O17 0.000000 0.500000 0.000000
#
# Coordination Sequence:
#
# PCOD9053149 Si02
#       8
#     2   2   2   2   2   2   2   2
#     4   9  17  35  54  77 109 133 173 205 262 338
#     4   9  17  29  47  76 105 135 172 213 261 311
#     4  11  19  30  51  78 107 135 174 217 265 302
#     4  11  20  32  52  79 105 131 176 224 258 299
#     4   9  19  33  58  76 102 142 166 213 270 312
#     4   9  17  30  49  76 106 135 167 214 260 310
#     4   9  18  30  50  74 105 138 170 214 257 315
#     4   9  16  30  50  74  96 133 176 214 253 294
#
# _framework density 23.810317000000001
#
# number of rings (size 3 to 8) (size 9 to 14) (size 15 to 20)
#    0.000    2.500    1.250    4.125    0.000    0.000 
#    0.000    0.625    8.250    1.500    0.000    0.000 
#    0.000    0.000    0.000    0.000    0.000    0.000 
#
# Total GULP energy -89328.667564 kJ/mol
# GULP energy per Si atom -5583.041723 kJ/mol
# Density = 2.375612 g / cm^3
# Si number density = 23.810317 Si / 1000 Ang^3
#
#
#
# Elastic Constant Matrix: (Units=GPa)
#
#
# Indices 1 2 3 4 5 6 
#
# 1 81.2380 41.7745 21.0240 -2.5516 -18.4861 36.7247
# 2 41.7745 103.0202 27.3459 0.5417 -3.5133 36.9340
# 3 21.0240 27.3459 99.0350 7.6180 -18.6628 3.4382
# 4 -2.5516 0.5417 7.6180 31.8632 -0.3851 -3.2595
# 5 -18.4861 -3.5133 -18.6628 -0.3851 33.6155 0.7337
# 6 36.7247 36.9340 3.4382 -3.2595 0.7337 45.2124
#
#
#
# Elastic Compliance Matrix: (Units=1/GPa)
#
#
# Indices 1 2 3 4 5 6 
#
# 1 0.025612 -0.002901 -0.001538 0.000739 0.013340 -0.018481
# 2 -0.002901 0.015322 -0.003550 -0.000679 -0.001756 -0.009911
# 3 -0.001538 -0.003550 0.012580 -0.002705 0.005673 0.002905
# 4 0.000739 -0.000679 -0.002705 0.032348 -0.000851 0.002506
# 5 0.013340 -0.001756 0.005673 -0.000851 0.040271 -0.010547
# 6 -0.018481 -0.009911 0.002905 0.002506 -0.010547 0.045356
#
#
# Mechanical properties :
#
#
# Convention : Reuss Voigt Hill
#
# Bulk Modulus (GPa) = 26.63919 51.50913 39.07416
# Shear Modulus (GPa) = 25.00260 35.01480 30.00870
#
# Velocity S-wave (km/s) = 3.24400 3.83897 3.55395
# Velocity P-wave (km/s) = 5.02432 6.42886 5.76949
#
# Compressibility (1/GPa) = 0.03753867
#
# Stress axis : x y z
#
# Youngs Moduli (GPa) = 39.04352 65.26452 79.48918
#
# Poissons Ratio (x) = 0.18934 0.12222
# Poissons Ratio (y) = 0.11327 0.28215
# Poissons Ratio (z) = 0.06003 0.23166
#
# Static dielectric constant tensor:
#      x y z
#    x 1.965290 0.027190 0.039810 
#    y 0.027190 1.990220 0.032900 
#    z 0.039810 0.032900 1.933500 
# 
# From -- ./inp_files/423660.got.cif
#   From: 2010.05.17/outbox.cif.g08.bks.cpg/sg2_212_cif.got.tgz:423660.got - 2010.06.03 11:33:40.
