data_PCOD9053190
_publ_section_title
;
Structure prediction by ZEFSAII (Michael W. Deem and Ramdas Pophale) SiO2 
 PCOD9053190
Probable space group: P -1
;
_chemical_formula_sum "Si O2"
_cell_formula_units_Z 16
_cell_length_a 10.113322
_cell_length_b 22.447099
_cell_length_c 12.270222
_cell_angle_alpha 26.310254
_cell_angle_beta 143.107197
_cell_angle_gamma 148.576010
_cell_volume 636.343747
_symmetry_space_group_name_H-M "P -1"
_symmetry_group_IT_number 2
_symmetry_cell_setting 'triclinic'
loop_
_space_group_symop_operation_xyz
x,y,z
-x,-y,-z
loop_
_atom_site_type_symbol
_atom_site_label
_atom_site_fract_x
_atom_site_fract_y
_atom_site_fract_z
Si Si1 0.595510 0.901982 0.646079
Si Si2 0.995143 0.134707 0.703361
Si Si3 0.195595 0.430097 0.506856
Si Si4 0.701653 0.409495 0.908368
Si Si5 0.615785 0.794403 0.330265
Si Si6 0.219849 0.699668 0.386034
Si Si7 0.009603 0.887112 0.814108
Si Si8 0.590770 0.017897 0.238306
O O1 0.519382 0.988716 0.364385
O O2 0.732522 0.842386 0.747837
O O3 0.401893 0.754764 0.829947
O O4 0.784546 0.031627 0.642313
O O5 0.033904 0.266570 0.599763
O O6 0.225830 0.239393 0.597450
O O7 0.000000 0.000000 0.000000
O O8 0.448528 0.432167 0.717961
O O9 0.269290 0.565167 0.244631
O O10 0.994798 0.425234 0.470566
O O11 0.000000 0.500000 0.000000
O O12 0.407984 0.670892 0.480432
O O13 0.810448 0.947320 0.277846
O O14 0.477942 0.861582 0.054729
O O15 0.415244 0.852846 0.333379
O O16 0.072642 0.762188 0.112013
O O17 0.113579 0.912127 0.717767
#
# Coordination Sequence:
#
# PCOD9053190 Si02
#       8
#     2   2   2   2   2   2   2   2
#     4  11  19  33  54  86 119 149 188 246 294 345
#     4  11  20  37  58  89 121 151 188 241 311 352
#     4  11  22  41  64  84 120 159 195 250 294 343
#     4  11  24  40  58  86 116 161 209 239 282 356
#     4   8  17  30  53  84 120 149 186 233 295 364
#     4   9  15  33  54  79 110 157 196 230 286 357
#     4   8  14  27  48  79 114 147 184 230 288 349
#     4   9  16  26  49  87 116 144 184 239 290 348
#
# _framework density 25.143642
#
# number of rings (size 3 to 8) (size 9 to 14) (size 15 to 20)
#    0.000    2.250    2.500    4.125    0.000    0.000 
#    2.250    1.875    0.000    3.000    0.000   14.000 
#    0.000    0.000    0.000    0.000    0.000    0.000 
#
# Total GULP energy -89196.930246 kJ/mol
# GULP energy per Si atom -5574.808140 kJ/mol
# Density = 2.508641 g / cm^3
# Si number density = 25.143642 Si / 1000 Ang^3
#
#
#
# Elastic Constant Matrix: (Units=GPa)
#
#
# Indices 1 2 3 4 5 6 
#
# 1 118.9726 38.1879 30.6210 -18.7675 -43.0468 37.0284
# 2 38.1879 117.2787 43.4681 -0.5366 -12.5136 4.9172
# 3 30.6210 43.4681 114.7693 8.2665 -44.6734 13.8160
# 4 -18.7675 -0.5366 8.2665 39.2398 19.8683 -4.5232
# 5 -43.0468 -12.5136 -44.6734 19.8683 40.1502 -6.2724
# 6 37.0284 4.9172 13.8160 -4.5232 -6.2724 44.3717
#
#
#
# Elastic Compliance Matrix: (Units=1/GPa)
#
#
# Indices 1 2 3 4 5 6 
#
# 1 0.074467 -0.031604 0.082396 -0.088612 0.195249 -0.065729
# 2 -0.031604 0.023889 -0.042502 0.043404 -0.090746 0.028557
# 3 0.082396 -0.042502 0.127738 -0.134677 0.271499 -0.079173
# 4 -0.088612 0.043404 -0.134677 0.176537 -0.305264 0.085915
# 5 0.195249 -0.090746 0.271499 -0.305264 0.631090 -0.179324
# 6 -0.065729 0.028557 -0.079173 0.085915 -0.179324 0.082284
#
#
# Mechanical properties :
#
#
# Convention : Reuss Voigt Hill
#
# Bulk Modulus (GPa) = 4.12075 63.95273 34.03674
# Shear Modulus (GPa) = 4.23616 40.66856 22.45236
#
# Velocity S-wave (km/s) = 1.29940 4.02612 2.99149
# Velocity P-wave (km/s) = 1.97324 6.86316 5.04959
#
# Compressibility (1/GPa) = 0.24267442
#
# Stress axis : x y z
#
# Youngs Moduli (GPa) = 13.42884 41.86004 7.82853
#
# Poissons Ratio (x) = 1.32293 -0.64504
# Poissons Ratio (y) = 0.42440 0.33273
# Poissons Ratio (z) = -1.10649 1.77915
#
# Static dielectric constant tensor:
#      x y z
#    x 2.185890 0.154540 0.118070 
#    y 0.154540 2.057380 0.083010 
#    z 0.118070 0.083010 2.001620 
# 
# From -- ./inp_files/439459.got.cif
#   From: 2010.05.17/outbox.cif.g08.bks.cpg/sg2_220_cif.got.tgz:439459.got - 2010.06.03 11:33:40.
