data_PCOD9053362
_publ_section_title
;
Structure prediction by ZEFSAII (Michael W. Deem and Ramdas Pophale) SiO2 
 PCOD9053362
Probable space group: P -1
;
_chemical_formula_sum "Si O2"
_cell_formula_units_Z 14
_cell_length_a 12.201647
_cell_length_b 7.451053
_cell_length_c 12.213826
_cell_angle_alpha 130.405995
_cell_angle_beta 45.180757
_cell_angle_gamma 97.893419
_cell_volume 483.543178
_symmetry_space_group_name_H-M "P -1"
_symmetry_group_IT_number 2
_symmetry_cell_setting 'triclinic'
loop_
_space_group_symop_operation_xyz
x,y,z
-x,-y,-z
loop_
_atom_site_type_symbol
_atom_site_label
_atom_site_fract_x
_atom_site_fract_y
_atom_site_fract_z
Si Si1 0.476932 0.852902 0.353906
Si Si2 0.649318 0.720205 0.680820
Si Si3 0.341652 0.717786 0.106015
Si Si4 0.982704 0.819177 0.211312
Si Si5 0.872460 0.359040 0.594713
Si Si6 0.721952 0.924293 0.036832
Si Si7 0.970919 0.340082 0.129529
O O1 0.599253 0.503076 0.123926
O O2 0.569474 0.913160 0.212667
O O3 0.500000 0.000000 0.500000
O O4 0.251213 0.997251 0.557537
O O5 0.720669 0.545995 0.676756
O O6 0.788831 0.505849 0.401654
O O7 0.669177 0.989289 0.780223
O O8 0.433171 0.846392 0.849776
O O9 0.500000 0.500000 0.000000
O O10 0.174039 0.756973 0.312477
O O11 0.026274 0.045592 0.307497
O O12 0.036817 0.552636 0.144748
O O13 0.061791 0.710989 0.991511
O O14 0.878190 0.614504 0.743057
O O15 0.851197 0.939852 0.042346
#
# Coordination Sequence:
#
# PCOD9053362 Si02
#       7
#     2   2   2   2   2   2   2
#     4  11  19  37  67  96 130 166 216 271 321 389
#     4  12  23  44  71  93 137 175 213 278 327 379
#     4  11  19  39  69 100 123 173 224 259 329 393
#     4  11  21  42  64 101 131 176 219 268 331 392
#     4  11  23  41  71  95 132 176 220 268 332 386
#     4  11  22  39  66  99 125 172 221 267 326 387
#     4  11  24  39  69  93 137 173 220 269 323 398
#
# _framework density 28.952947000000002
#
# number of rings (size 3 to 8) (size 9 to 14) (size 15 to 20)
#    0.000    0.857    8.571    0.429    0.000    1.714 
#    0.000    0.714    9.429    2.571    0.000    0.000 
#    0.000    0.000    0.000    0.000    0.000    0.000 
#
# Total GULP energy -78388.679286 kJ/mol
# GULP energy per Si atom -5599.191378 kJ/mol
# Density = 2.888705 g / cm^3
# Si number density = 28.952947 Si / 1000 Ang^3
#
#
#
# Elastic Constant Matrix: (Units=GPa)
#
#
# Indices 1 2 3 4 5 6 
#
# 1 117.2579 41.9007 59.8160 -4.8036 34.3878 -18.0413
# 2 41.9007 210.4729 46.7459 6.9256 11.7206 9.9445
# 3 59.8160 46.7459 160.1433 7.3995 24.6324 -9.6786
# 4 -4.8036 6.9256 7.3995 38.0739 -10.2255 -2.4217
# 5 34.3878 11.7206 24.6324 -10.2255 64.3089 -2.8847
# 6 -18.0413 9.9445 -9.6786 -2.4217 -2.8847 48.6540
#
#
#
# Elastic Compliance Matrix: (Units=1/GPa)
#
#
# Indices 1 2 3 4 5 6 
#
# 1 0.013100 -0.001834 -0.003414 0.001607 -0.004913 0.004342
# 2 -0.001834 0.005466 -0.000996 -0.001137 0.000093 -0.002047
# 3 -0.003414 -0.000996 0.008157 -0.002201 -0.001451 0.000365
# 4 0.001607 -0.001137 -0.002201 0.028530 0.004822 0.002096
# 5 -0.004913 0.000093 -0.001451 0.004822 0.019449 -0.000736
# 6 0.004342 -0.002047 0.000365 0.002096 -0.000736 0.022715
#
#
# Mechanical properties :
#
#
# Convention : Reuss Voigt Hill
#
# Bulk Modulus (GPa) = 70.24704 87.19992 78.72348
# Shear Modulus (GPa) = 43.61058 52.83480 48.22269
#
# Velocity S-wave (km/s) = 3.88526 4.27646 4.08555
# Velocity P-wave (km/s) = 6.66650 7.38697 7.03596
#
# Compressibility (1/GPa) = 0.01423547
#
# Stress axis : x y z
#
# Youngs Moduli (GPa) = 76.33819 182.93250 122.59069
#
# Poissons Ratio (x) = 0.33552 0.41849
# Poissons Ratio (y) = 0.14001 0.12211
# Poissons Ratio (z) = 0.26060 0.18222
#
# Static dielectric constant tensor:
#      x y z
#    x 2.447410 0.025400 -0.150050 
#    y 0.025400 2.239060 -0.018310 
#    z -0.150050 -0.018310 2.391290 
# 
# From -- ./inp_files/348949.got.cif
#   From: 2010.05.17/outbox.cif.g08.bks.cpg/sg2_175_cif.got.tgz:348949.got - 2010.06.03 11:33:40.
