data_PCOD9053021
_publ_section_title
;
Structure prediction by ZEFSAII (Michael W. Deem and Ramdas Pophale) SiO2 
 PCOD9053021
Probable space group: P -1
;
_chemical_formula_sum "Si O2"
_cell_formula_units_Z 16
_cell_length_a 18.281394
_cell_length_b 8.524492
_cell_length_c 17.447039
_cell_angle_alpha 98.588067
_cell_angle_beta 163.097463
_cell_angle_gamma 72.449406
_cell_volume 651.816761
_symmetry_space_group_name_H-M "P -1"
_symmetry_group_IT_number 2
_symmetry_cell_setting 'triclinic'
loop_
_space_group_symop_operation_xyz
x,y,z
-x,-y,-z
loop_
_atom_site_type_symbol
_atom_site_label
_atom_site_fract_x
_atom_site_fract_y
_atom_site_fract_z
Si Si1 0.138814 0.626548 0.656130
Si Si2 0.168740 0.069698 0.122169
Si Si3 0.590224 0.349588 0.470480
Si Si4 0.967492 0.615119 0.899678
Si Si5 0.806954 0.946355 0.464310
Si Si6 0.479908 0.040323 0.294521
Si Si7 0.906849 0.404328 0.678204
Si Si8 0.893154 0.824727 0.268668
O O1 0.000000 0.500000 0.500000
O O2 0.990791 0.783025 0.451590
O O3 0.500000 0.500000 0.000000
O O4 0.029205 0.743236 0.633814
O O5 0.362622 0.954463 0.232507
O O6 0.896520 0.255494 0.816800
O O7 0.260587 0.170769 0.285002
O O8 0.000000 0.000000 0.000000
O O9 0.312833 0.553148 0.232729
O O10 0.531875 0.183049 0.405117
O O11 0.633237 0.387869 0.428902
O O12 0.908127 0.544784 0.753800
O O13 0.000000 0.500000 0.000000
O O14 0.747057 0.926325 0.493331
O O15 0.957734 0.066553 0.609759
O O16 0.471481 0.053487 0.097249
O O17 0.198286 0.194471 0.973319
O O18 0.947625 0.387971 0.627185
#
# Coordination Sequence:
#
# PCOD9053021 Si02
#       8
#     2   2   2   2   2   2   2   2
#     4  12  26  46  68 105 151 182 210 275 361 422
#     4  11  23  36  54  87 126 168 217 272 335 398
#     4  10  17  35  59  81 114 161 209 274 326 377
#     4  11  19  34  58  83 114 160 216 264 330 381
#     4  11  22  42  76 101 128 181 240 281 329 404
#     4   9  19  36  60  89 120 162 223 282 329 385
#     4   9  19  33  61  91 116 158 222 282 320 375
#     4  11  22  42  73 104 133 174 241 285 321 412
#
# _framework density 24.546776000000001
#
# number of rings (size 3 to 8) (size 9 to 14) (size 15 to 20)
#    0.000    1.500    5.000    2.625    0.000    0.500 
#    0.000    2.500    0.000    0.000    0.000    0.000 
#    0.000    0.000    0.000    0.000    0.000    0.000 
#
# Total GULP energy -89078.854602 kJ/mol
# GULP energy per Si atom -5567.428413 kJ/mol
# Density = 2.449091 g / cm^3
# Si number density = 24.546776 Si / 1000 Ang^3
#
#
#
# Elastic Constant Matrix: (Units=GPa)
#
#
# Indices 1 2 3 4 5 6 
#
# 1 126.0713 50.4597 25.0207 -8.3311 41.9771 -20.4080
# 2 50.4597 111.7805 20.1856 0.9248 26.0863 -22.9795
# 3 25.0207 20.1856 89.7186 -0.9020 19.4809 -7.7810
# 4 -8.3311 0.9248 -0.9020 41.4672 -6.6231 14.8532
# 5 41.9771 26.0863 19.4809 -6.6231 43.4000 -9.6940
# 6 -20.4080 -22.9795 -7.7810 14.8532 -9.6940 39.0165
#
#
#
# Elastic Compliance Matrix: (Units=1/GPa)
#
#
# Indices 1 2 3 4 5 6 
#
# 1 0.012917 -0.002927 -0.000584 0.000215 -0.009909 0.002372
# 2 -0.002927 0.012538 -0.000731 -0.003681 -0.003548 0.006227
# 3 -0.000584 -0.000731 0.012535 -0.000905 -0.004541 0.000980
# 4 0.000215 -0.003681 -0.000905 0.029310 0.004120 -0.012370
# 5 -0.009909 -0.003548 -0.004541 0.004120 0.037320 -0.000474
# 6 0.002372 0.006227 0.000980 -0.012370 -0.000474 0.035325
#
#
# Mechanical properties :
#
#
# Convention : Reuss Voigt Hill
#
# Bulk Modulus (GPa) = 33.89207 57.65580 45.77394
# Shear Modulus (GPa) = 31.59238 40.23702 35.91470
#
# Velocity S-wave (km/s) = 3.59141 4.05309 3.82922
# Velocity P-wave (km/s) = 5.57088 6.74111 6.18374
#
# Compressibility (1/GPa) = 0.02950542
#
# Stress axis : x y z
#
# Youngs Moduli (GPa) = 77.41613 79.75689 79.77427
#
# Poissons Ratio (x) = 0.23346 0.04661
# Poissons Ratio (y) = 0.22661 0.05833
# Poissons Ratio (z) = 0.04523 0.05832
#
# Static dielectric constant tensor:
#      x y z
#    x 2.568540 0.044950 0.384460 
#    y 0.044950 2.081370 0.113570 
#    z 0.384460 0.113570 2.361860 
# 
# From -- ./inp_files/575425.got.cif
#   From: 2010.05.17/outbox.cif.g08.bks.cpg/sg2_288_cif.got.tgz:575425.got - 2010.06.03 11:33:40.
