data_PCOD9053793
_publ_section_title
;
Structure prediction by ZEFSAII (Michael W. Deem and Ramdas Pophale) SiO2 
 PCOD9053793
Probable space group: P -1
;
_chemical_formula_sum "Si O2"
_cell_formula_units_Z 12
_cell_length_a 11.886683
_cell_length_b 10.688400
_cell_length_c 5.472034
_cell_angle_alpha 78.785664
_cell_angle_beta 51.020849
_cell_angle_gamma 83.245519
_cell_volume 530.117314
_symmetry_space_group_name_H-M "P -1"
_symmetry_group_IT_number 2
_symmetry_cell_setting 'triclinic'
loop_
_space_group_symop_operation_xyz
x,y,z
-x,-y,-z
loop_
_atom_site_type_symbol
_atom_site_label
_atom_site_fract_x
_atom_site_fract_y
_atom_site_fract_z
Si Si1 0.623349 0.047113 0.632336
Si Si2 0.183602 0.746542 0.165199
Si Si3 0.103153 0.779465 0.748245
Si Si4 0.397601 0.230550 0.773927
Si Si5 0.493443 0.350951 0.119763
Si Si6 0.825672 0.946606 0.028535
O O1 0.745337 0.143765 0.524736
O O2 0.525448 0.132816 0.557830
O O3 0.716120 0.941885 0.409165
O O4 0.500000 0.000000 0.000000
O O5 0.087100 0.706081 0.544199
O O6 0.124076 0.703595 0.998655
O O7 0.344295 0.695705 0.015767
O O8 0.169569 0.903128 0.099905
O O9 0.977982 0.883952 0.900114
O O10 0.396374 0.324756 0.506654
O O11 0.253825 0.143625 0.024439
O O12 0.439953 0.287492 0.959577
O O13 0.500000 0.500000 0.000000
#
# Coordination Sequence:
#
# PCOD9053793 Si02
#       6
#     2   2   2   2   2   2
#     4  11  20  37  63  99 137 175 207 260 320 398
#     4  11  21  41  63  95 127 176 213 259 324 388
#     4  11  23  39  62  95 141 175 204 253 337 410
#     4  12  24  40  66  97 130 167 218 277 327 380
#     4  12  25  44  67  92 125 173 231 278 316 372
#     4  11  24  38  64 102 142 167 204 264 345 409
#
# _framework density 22.636498
#
# number of rings (size 3 to 8) (size 9 to 14) (size 15 to 20)
#    0.000    0.667    5.000    5.500    0.000    4.000 
#    0.000    0.000    0.000    6.000    0.000    0.000 
#    0.000    0.000    0.000    0.000    0.000    0.000 
#
# Total GULP energy -66943.784511 kJ/mol
# GULP energy per Si atom -5578.648709 kJ/mol
# Density = 2.258498 g / cm^3
# Si number density = 22.636498 Si / 1000 Ang^3
#
#
#
# Elastic Constant Matrix: (Units=GPa)
#
#
# Indices 1 2 3 4 5 6 
#
# 1 100.2748 26.6934 34.4887 4.8563 15.5190 -23.0508
# 2 26.6934 62.8951 9.5436 -9.4783 6.4074 -10.7706
# 3 34.4887 9.5436 98.5547 5.3764 37.6432 -7.9522
# 4 4.8563 -9.4783 5.3764 24.8730 -6.2845 3.5712
# 5 15.5190 6.4074 37.6432 -6.2845 54.9542 3.9317
# 6 -23.0508 -10.7706 -7.9522 3.5712 3.9317 22.7724
#
#
#
# Elastic Compliance Matrix: (Units=1/GPa)
#
#
# Indices 1 2 3 4 5 6 
#
# 1 0.016792 -0.004815 -0.001652 -0.008414 -0.005182 0.016357
# 2 -0.004815 0.019749 -0.000465 0.008158 0.000094 0.003008
# 3 -0.001652 -0.000465 0.016338 -0.007438 -0.012026 0.007056
# 4 -0.008414 0.008158 -0.007438 0.052624 0.013818 -0.017894
# 5 -0.005182 0.000094 -0.012026 0.013818 0.030674 -0.016863
# 6 0.016357 0.003008 0.007056 -0.017894 -0.016863 0.070075
#
#
# Mechanical properties :
#
#
# Convention : Reuss Voigt Hill
#
# Bulk Modulus (GPa) = 25.63182 44.79733 35.21458
# Shear Modulus (GPa) = 21.44798 33.25319 27.35059
#
# Velocity S-wave (km/s) = 3.08148 3.83692 3.47976
# Velocity P-wave (km/s) = 4.89985 6.28189 5.63341
#
# Compressibility (1/GPa) = 0.03901401
#
# Stress axis : x y z
#
# Youngs Moduli (GPa) = 59.55143 50.63607 61.20544
#
# Poissons Ratio (x) = 0.24382 0.10112
# Poissons Ratio (y) = 0.28675 0.02849
# Poissons Ratio (z) = 0.09839 0.02357
#
# Static dielectric constant tensor:
#      x y z
#    x 2.000790 0.046320 0.127990 
#    y 0.046320 1.839290 0.000820 
#    z 0.127990 0.000820 1.958570 
# 
# From -- ./inp_files/68847.got.cif
#   From: 2010.05.17/outbox.cif.g08.bks.cpg/sg2_35_cif.got.tgz:68847.got - 2010.06.03 11:33:40.
