data_PCOD9053292
_publ_section_title
;
Structure prediction by ZEFSAII (Michael W. Deem and Ramdas Pophale) SiO2 
 PCOD9053292
Probable space group: P -1
;
_chemical_formula_sum "Si O2"
_cell_formula_units_Z 14
_cell_length_a 15.956638
_cell_length_b 9.720845
_cell_length_c 12.652619
_cell_angle_alpha 70.767111
_cell_angle_beta 27.243013
_cell_angle_gamma 62.090257
_cell_volume 775.432215
_symmetry_space_group_name_H-M "P -1"
_symmetry_group_IT_number 2
_symmetry_cell_setting 'triclinic'
loop_
_space_group_symop_operation_xyz
x,y,z
-x,-y,-z
loop_
_atom_site_type_symbol
_atom_site_label
_atom_site_fract_x
_atom_site_fract_y
_atom_site_fract_z
Si Si1 0.055040 0.296643 0.565813
Si Si2 0.325070 0.457365 0.471796
Si Si3 0.916644 0.303723 0.144168
Si Si4 0.224492 0.656736 0.946438
Si Si5 0.081849 0.030699 0.737273
Si Si6 0.307776 0.138626 0.634297
Si Si7 0.275906 0.517194 0.272501
O O1 0.223590 0.364315 0.343037
O O2 0.894597 0.345350 0.638696
O O3 0.133256 0.111403 0.556641
O O4 0.923563 0.380927 0.797575
O O5 0.171375 0.557136 0.708494
O O6 0.546981 0.442050 0.255968
O O7 0.345128 0.276163 0.495206
O O8 0.257205 0.535939 0.414519
O O9 0.818907 0.357739 0.123936
O O10 0.877076 0.151815 0.266517
O O11 0.153211 0.231429 0.876527
O O12 0.148855 0.847248 0.008945
O O13 0.199369 0.062748 0.695599
O O14 0.500000 0.000000 0.500000
O O15 0.500000 0.500000 0.000000
#
# Coordination Sequence:
#
# PCOD9053292 Si02
#       7
#     2   2   2   2   2   2   2
#     4   9  20  34  60  80 108 144 202 236 267 327
#     4  12  21  34  55  91 112 145 190 240 288 330
#     4  11  21  34  55  84 124 144 174 241 296 333
#     4   9  18  35  56  82 111 150 185 225 283 350
#     4   9  18  37  53  78 109 149 187 219 283 341
#     4  11  21  34  56  82 114 151 193 221 275 353
#     4  11  19  36  58  85 106 151 200 240 271 333
#
# _framework density 18.054447
#
# number of rings (size 3 to 8) (size 9 to 14) (size 15 to 20)
#    0.857    0.857    2.857    4.286    0.000    0.000 
#    0.000    0.714    0.000    0.857    0.000    0.000 
#    0.000    0.000    0.000    0.000    0.000    0.000 
#
# Total GULP energy -77981.264787 kJ/mol
# GULP energy per Si atom -5570.090342 kJ/mol
# Density = 1.801335 g / cm^3
# Si number density = 18.054447 Si / 1000 Ang^3
#
#
#
# Elastic Constant Matrix: (Units=GPa)
#
#
# Indices 1 2 3 4 5 6 
#
# 1 106.6510 35.4958 35.2880 6.4943 -3.6876 -26.3407
# 2 35.4958 70.3590 26.2961 -7.9131 4.7981 -12.3186
# 3 35.2880 26.2961 67.0140 -11.3430 -19.7138 -5.3902
# 4 6.4943 -7.9131 -11.3430 27.2832 -3.5194 1.5388
# 5 -3.6876 4.7981 -19.7138 -3.5194 25.9275 -1.5464
# 6 -26.3407 -12.3186 -5.3902 1.5388 -1.5464 22.8503
#
#
#
# Elastic Compliance Matrix: (Units=1/GPa)
#
#
# Indices 1 2 3 4 5 6 
#
# 1 0.019068 -0.003350 -0.010868 -0.011749 -0.005450 0.018033
# 2 -0.003350 0.020950 -0.008997 0.001497 -0.010724 0.004483
# 3 -0.010868 -0.008997 0.035198 0.018817 0.028936 -0.008384
# 4 -0.011749 0.001497 0.018817 0.050697 0.018617 -0.010452
# 5 -0.005450 -0.010724 0.028936 0.018617 0.064179 -0.002149
# 6 0.018033 0.004483 -0.008384 -0.010452 -0.002149 0.065549
#
#
# Mechanical properties :
#
#
# Convention : Reuss Voigt Hill
#
# Bulk Modulus (GPa) = 34.73919 48.68709 41.71314
# Shear Modulus (GPa) = 16.04268 25.00846 20.52557
#
# Velocity S-wave (km/s) = 2.98413 3.72582 3.37541
# Velocity P-wave (km/s) = 5.58180 6.74792 6.19237
#
# Compressibility (1/GPa) = 0.02878594
#
# Stress axis : x y z
#
# Youngs Moduli (GPa) = 52.44324 47.73175 28.41041
#
# Poissons Ratio (x) = 0.15992 0.30876
# Poissons Ratio (y) = 0.17571 0.25562
# Poissons Ratio (z) = 0.56994 0.42946
#
# Static dielectric constant tensor:
#      x y z
#    x 1.618510 -0.014850 -0.008210 
#    y -0.014850 1.639570 -0.045120 
#    z -0.008210 -0.045120 1.651260 
# 
# From -- ./inp_files/447291.got.cif
#   From: 2010.05.17/outbox.cif.g08.bks.cpg/sg2_224_cif.got.tgz:447291.got - 2010.06.03 11:33:40.
