data_PCOD9053346
_publ_section_title
;
Structure prediction by ZEFSAII (Michael W. Deem and Ramdas Pophale) SiO2 
 PCOD9053346
Probable space group: P -1
;
_chemical_formula_sum "Si O2"
_cell_formula_units_Z 16
_cell_length_a 11.134997
_cell_length_b 22.871534
_cell_length_c 16.142932
_cell_angle_alpha 158.685310
_cell_angle_beta 148.028816
_cell_angle_gamma 23.617967
_cell_volume 598.312859
_symmetry_space_group_name_H-M "P -1"
_symmetry_group_IT_number 2
_symmetry_cell_setting 'triclinic'
loop_
_space_group_symop_operation_xyz
x,y,z
-x,-y,-z
loop_
_atom_site_type_symbol
_atom_site_label
_atom_site_fract_x
_atom_site_fract_y
_atom_site_fract_z
Si Si1 0.332138 0.807424 0.972847
Si Si2 0.053200 0.658175 0.765894
Si Si3 0.584444 0.348893 0.457525
Si Si4 0.039069 0.607305 0.379064
Si Si5 0.646784 0.891826 0.683722
Si Si6 0.462370 0.826035 0.258755
Si Si7 0.382903 0.659038 0.222097
Si Si8 0.936358 0.931216 0.201793
O O1 0.448479 0.577886 0.714932
O O2 0.352732 0.816832 0.094733
O O3 0.522347 0.865668 0.119970
O O4 0.000000 0.000000 0.000000
O O5 0.408511 0.504918 0.797148
O O6 0.000000 0.500000 0.500000
O O7 0.861373 0.826467 0.801682
O O8 0.899280 0.794645 0.940068
O O9 0.335241 0.391893 0.306972
O O10 0.848360 0.295386 0.482635
O O11 0.680086 0.179974 0.360967
O O12 0.851068 0.755699 0.543424
O O13 0.799153 0.612208 0.196205
O O14 0.469138 0.808129 0.477349
O O15 0.223895 0.891142 0.275556
O O16 0.500000 0.000000 0.500000
O O17 0.031595 0.833894 0.220942
O O18 0.500000 0.500000 0.000000
#
# Coordination Sequence:
#
# PCOD9053346 Si02
#       8
#     2   2   2   2   2   2   2   2
#     4  12  23  38  61  95 132 166 206 247 302 400
#     4   9  21  36  63  98 113 156 223 265 301 366
#     4  11  25  39  57  97 136 164 203 250 310 384
#     4  11  23  39  57  91 136 164 205 245 307 388
#     4  11  19  37  63  89 121 167 206 249 314 367
#     4  12  20  38  59  90 125 168 208 237 303 391
#     4   9  19  38  62  92 113 154 220 266 301 362
#     4  11  20  38  67  90 126 166 200 262 316 358
#
# _framework density 26.741862000000001
#
# number of rings (size 3 to 8) (size 9 to 14) (size 15 to 20)
#    0.000    1.250    5.000    0.750    5.250    0.500 
#    0.000    0.000    0.000    7.500    0.000    0.000 
#    0.000    0.000    0.000    0.000    0.000    0.000 
#
# Total GULP energy -89388.494343 kJ/mol
# GULP energy per Si atom -5586.780896 kJ/mol
# Density = 2.668100 g / cm^3
# Si number density = 26.741862 Si / 1000 Ang^3
#
#
#
# Elastic Constant Matrix: (Units=GPa)
#
#
# Indices 1 2 3 4 5 6 
#
# 1 44.6849 22.0956 20.4620 -1.8415 -6.0664 8.5159
# 2 22.0956 208.6221 67.7514 -19.8336 -4.8888 37.3304
# 3 20.4620 67.7514 145.7770 -3.6363 4.6264 6.7558
# 4 -1.8415 -19.8336 -3.6363 63.6434 12.4050 5.0457
# 5 -6.0664 -4.8888 4.6264 12.4050 41.9049 3.6482
# 6 8.5159 37.3304 6.7558 5.0457 3.6482 50.3149
#
#
#
# Elastic Compliance Matrix: (Units=1/GPa)
#
#
# Indices 1 2 3 4 5 6 
#
# 1 0.025525 -0.001013 -0.003098 -0.000323 0.004313 -0.003433
# 2 -0.001013 0.006909 -0.002813 0.002203 0.000740 -0.004852
# 3 -0.003098 -0.002813 0.008577 -0.000255 -0.001789 0.001615
# 4 -0.000323 0.002203 -0.000255 0.017525 -0.004691 -0.002963
# 5 0.004313 0.000740 -0.001789 -0.004691 0.026376 -0.002481
# 6 -0.003433 -0.004852 0.001615 -0.002963 -0.002481 0.024316
#
#
# Mechanical properties :
#
#
# Convention : Reuss Voigt Hill
#
# Bulk Modulus (GPa) = 36.81216 68.85578 52.83397
# Shear Modulus (GPa) = 37.84173 50.42432 44.13303
#
# Velocity S-wave (km/s) = 3.76583 4.34705 4.06684
# Velocity P-wave (km/s) = 5.71876 7.14143 6.46932
#
# Compressibility (1/GPa) = 0.02716494
#
# Stress axis : x y z
#
# Youngs Moduli (GPa) = 39.17750 144.73967 116.58568
#
# Poissons Ratio (x) = 0.14655 0.36119
# Poissons Ratio (y) = 0.03967 0.32791
# Poissons Ratio (z) = 0.12137 0.40709
#
# Static dielectric constant tensor:
#      x y z
#    x 2.213690 -0.049230 0.068380 
#    y -0.049230 2.201700 0.040550 
#    z 0.068380 0.040550 2.118920 
# 
# From -- ./inp_files/574547.got.cif
#   From: 2010.05.17/outbox.cif.g08.bks.cpg/sg2_288_cif.got.tgz:574547.got - 2010.06.03 11:33:40.
