data_PCOD9053562
_publ_section_title
;
Structure prediction by ZEFSAII (Michael W. Deem and Ramdas Pophale) SiO2 
 PCOD9053562
Probable space group: P -1
;
_chemical_formula_sum "Si O2"
_cell_formula_units_Z 16
_cell_length_a 10.413133
_cell_length_b 10.826648
_cell_length_c 15.207100
_cell_angle_alpha 71.460307
_cell_angle_beta 111.009257
_cell_angle_gamma 152.254668
_cell_volume 745.084248
_symmetry_space_group_name_H-M "P -1"
_symmetry_group_IT_number 2
_symmetry_cell_setting 'triclinic'
loop_
_space_group_symop_operation_xyz
x,y,z
-x,-y,-z
loop_
_atom_site_type_symbol
_atom_site_label
_atom_site_fract_x
_atom_site_fract_y
_atom_site_fract_z
Si Si1 0.808664 0.472864 0.702892
Si Si2 0.018519 0.009723 0.256794
Si Si3 0.802429 0.009731 0.852699
Si Si4 0.659990 0.459126 0.039845
Si Si5 0.786596 0.749207 0.567157
Si Si6 0.612134 0.449579 0.825582
Si Si7 0.401342 0.927516 0.752994
Si Si8 0.239780 0.743364 0.935149
O O1 0.841178 0.644581 0.633585
O O2 0.740315 0.440374 0.798438
O O3 0.544013 0.165351 0.683040
O O4 0.095046 0.636888 0.707935
O O5 0.185305 0.146978 0.358463
O O6 0.148935 0.243600 0.188514
O O7 0.083894 0.945405 0.222496
O O8 0.684047 0.751261 0.243705
O O9 0.638911 0.011981 0.798854
O O10 0.061770 0.237274 0.931946
O O11 0.588345 0.729679 0.908217
O O12 0.735646 0.370112 0.086518
O O13 0.564766 0.388691 0.931285
O O14 0.500000 0.500000 0.500000
O O15 0.000000 0.000000 0.500000
O O16 0.293759 0.884778 0.833612
O O17 0.000000 0.500000 0.000000
O O18 0.500000 0.000000 0.000000
#
# Coordination Sequence:
#
# PCOD9053562 Si02
#       8
#     2   2   2   2   2   2   2   2
#     4  11  22  38  62  91 119 150 194 252 312 353
#     4  11  24  41  62  87 120 158 197 247 307 366
#     4  11  24  39  56  84 123 173 210 234 285 349
#     4  11  22  35  53  83 122 167 216 249 281 334
#     4  11  23  43  70  96 116 141 187 252 321 380
#     4  11  22  37  58  88 121 159 209 259 297 332
#     4  11  21  36  57  83 121 163 200 241 291 358
#     4  11  20  31  49  76 114 161 208 251 286 318
#
# _framework density 21.474081999999999
#
# number of rings (size 3 to 8) (size 9 to 14) (size 15 to 20)
#    0.000    1.000    0.000   10.500    0.000    3.000 
#    0.000    0.000    0.000    4.500    0.000    0.000 
#    0.000    0.000    0.000    0.000    0.000    0.000 
#
# Total GULP energy -89110.769123 kJ/mol
# GULP energy per Si atom -5569.423070 kJ/mol
# Density = 2.142521 g / cm^3
# Si number density = 21.474082 Si / 1000 Ang^3
#
#
#
# Elastic Constant Matrix: (Units=GPa)
#
#
# Indices 1 2 3 4 5 6 
#
# 1 62.0092 26.5304 6.0845 6.9786 -9.5776 14.7796
# 2 26.5304 159.9922 15.9302 -6.0527 2.7544 22.0005
# 3 6.0845 15.9302 77.6363 2.0252 1.2331 2.7686
# 4 6.9786 -6.0527 2.0252 45.4098 -6.1665 8.0280
# 5 -9.5776 2.7544 1.2331 -6.1665 22.9038 -4.5903
# 6 14.7796 22.0005 2.7686 8.0280 -4.5903 22.7786
#
#
#
# Elastic Compliance Matrix: (Units=1/GPa)
#
#
# Indices 1 2 3 4 5 6 
#
# 1 0.020537 -0.002158 -0.000915 -0.000806 0.006780 -0.009479
# 2 -0.002158 0.007888 -0.001205 0.002396 -0.002634 -0.007447
# 3 -0.000915 -0.001205 0.013231 -0.000799 -0.001124 0.000204
# 4 -0.000806 0.002396 -0.000799 0.024760 0.004164 -0.009581
# 5 0.006780 -0.002634 -0.001124 0.004164 0.049349 0.006759
# 6 -0.009479 -0.007447 0.000204 -0.009581 0.006759 0.061958
#
#
# Mechanical properties :
#
#
# Convention : Reuss Voigt Hill
#
# Bulk Modulus (GPa) = 30.21139 44.08088 37.14614
# Shear Modulus (GPa) = 25.34062 34.95795 30.14928
#
# Velocity S-wave (km/s) = 3.43892 4.03912 3.75104
# Velocity P-wave (km/s) = 5.46512 6.50574 6.00800
#
# Compressibility (1/GPa) = 0.03310010
#
# Stress axis : x y z
#
# Youngs Moduli (GPa) = 48.69254 126.77272 75.58078
#
# Poissons Ratio (x) = 0.27359 0.06918
# Poissons Ratio (y) = 0.10509 0.09104
# Poissons Ratio (z) = 0.04457 0.15270
#
# Static dielectric constant tensor:
#      x y z
#    x 1.824170 0.001420 0.057180 
#    y 0.001420 1.803270 -0.029340 
#    z 0.057180 -0.029340 1.856860 
# 
# From -- ./inp_files/519683.got.cif
#   From: 2010.05.17/outbox.cif.g08.bks.cpg/sg2_260_cif.got.tgz:519683.got - 2010.06.03 11:33:40.
