data_PCOD9053348
_publ_section_title
;
Structure prediction by ZEFSAII (Michael W. Deem and Ramdas Pophale) SiO2 
 PCOD9053348
Probable space group: P -1
;
_chemical_formula_sum "Si O2"
_cell_formula_units_Z 12
_cell_length_a 15.331469
_cell_length_b 9.442413
_cell_length_c 9.119916
_cell_angle_alpha 139.472697
_cell_angle_beta 49.286647
_cell_angle_gamma 137.027651
_cell_volume 570.856748
_symmetry_space_group_name_H-M "P -1"
_symmetry_group_IT_number 2
_symmetry_cell_setting 'triclinic'
loop_
_space_group_symop_operation_xyz
x,y,z
-x,-y,-z
loop_
_atom_site_type_symbol
_atom_site_label
_atom_site_fract_x
_atom_site_fract_y
_atom_site_fract_z
Si Si1 0.493423 0.157253 0.994157
Si Si2 0.943270 0.714598 0.891375
Si Si3 0.340935 0.425993 0.373238
Si Si4 0.404812 0.080247 0.529122
Si Si5 0.822961 0.397353 0.481122
Si Si6 0.287665 0.362687 0.723152
O O1 0.364587 0.189176 0.145068
O O2 0.612675 0.424035 0.111393
O O3 0.500000 0.000000 0.000000
O O4 0.523956 0.052047 0.734180
O O5 0.859060 0.528362 0.704894
O O6 0.056156 0.638657 0.735641
O O7 0.854374 0.689406 0.109866
O O8 0.000000 0.000000 0.000000
O O9 0.474131 0.659368 0.349080
O O10 0.220590 0.435501 0.435625
O O11 0.327297 0.449204 0.581427
O O12 0.318597 0.139341 0.551781
O O13 0.299025 0.880811 0.595571
#
# Coordination Sequence:
#
# PCOD9053348 Si02
#       6
#     2   2   2   2   2   2
#     4  11  19  37  63  92 127 163 191 244 317 365
#     4  11  24  44  65  81 122 175 207 241 300 365
#     4  11  24  37  63 102 122 148 206 259 302 359
#     4  11  20  39  66  91 126 160 193 248 316 370
#     4  11  25  42  62  92 124 160 206 253 302 355
#     4  11  21  39  65  91 119 162 210 241 298 374
#
# _framework density 21.021035999999999
#
# number of rings (size 3 to 8) (size 9 to 14) (size 15 to 20)
#    0.000    1.000    6.667    1.500    0.000    2.667 
#    0.000    0.833    0.000    0.000    0.000    0.000 
#    0.000    0.000    0.000    0.000    0.000    0.000 
#
# Total GULP energy -66977.762942 kJ/mol
# GULP energy per Si atom -5581.480245 kJ/mol
# Density = 2.097319 g / cm^3
# Si number density = 21.021036 Si / 1000 Ang^3
#
#
#
# Elastic Constant Matrix: (Units=GPa)
#
#
# Indices 1 2 3 4 5 6 
#
# 1 122.7424 20.0785 42.0537 -0.5485 -49.5316 -15.9836
# 2 20.0785 58.3629 17.1769 -0.0294 -18.2068 -3.0982
# 3 42.0537 17.1769 99.2325 -0.0503 -42.1939 3.9064
# 4 -0.5485 -0.0294 -0.0503 24.2211 4.5099 -7.0959
# 5 -49.5316 -18.2068 -42.1939 4.5099 40.4269 6.6590
# 6 -15.9836 -3.0982 3.9064 -7.0959 6.6590 20.2313
#
#
#
# Elastic Compliance Matrix: (Units=1/GPa)
#
#
# Indices 1 2 3 4 5 6 
#
# 1 0.017316 0.000970 0.002362 -0.002637 0.023644 0.004666
# 2 0.000970 0.020126 0.001310 -0.002590 0.012123 -0.001303
# 3 0.002362 0.001310 0.022617 -0.010370 0.030900 -0.016108
# 4 -0.002637 -0.002590 -0.010370 0.053844 -0.025651 0.026850
# 5 0.023644 0.012123 0.030900 -0.025651 0.098710 -0.026917
# 6 0.004666 -0.001303 -0.016108 0.026850 -0.026917 0.074302
#
#
# Mechanical properties :
#
#
# Convention : Reuss Voigt Hill
#
# Bulk Modulus (GPa) = 14.42090 48.77287 31.59688
# Shear Modulus (GPa) = 16.62529 30.37780 23.50154
#
# Velocity S-wave (km/s) = 2.81532 3.80559 3.34728
# Velocity P-wave (km/s) = 4.17650 6.52398 5.47748
#
# Compressibility (1/GPa) = 0.06934382
#
# Stress axis : x y z
#
# Youngs Moduli (GPa) = 57.74898 49.68583 44.21442
#
# Poissons Ratio (x) = -0.04819 -0.10444
# Poissons Ratio (y) = -0.05601 -0.05792
# Poissons Ratio (z) = -0.13641 -0.06509
#
# Static dielectric constant tensor:
#      x y z
#    x 1.791580 -0.021060 -0.026350 
#    y -0.021060 1.818580 0.039540 
#    z -0.026350 0.039540 1.766950 
# 
# From -- ./inp_files/23257.got.cif
#   From: 2010.05.17/outbox.cif.g08.bks.cpg/sg2_12_cif.got.tgz:23257.got - 2010.06.03 11:33:40.
