data_PCOD9053011
_publ_section_title
;
Structure prediction by ZEFSAII (Michael W. Deem and Ramdas Pophale) SiO2 
 PCOD9053011
Probable space group: P -1
;
_chemical_formula_sum "Si O2"
_cell_formula_units_Z 14
_cell_length_a 8.374711
_cell_length_b 11.742330
_cell_length_c 10.529612
_cell_angle_alpha 95.878925
_cell_angle_beta 42.437642
_cell_angle_gamma 86.330886
_cell_volume 679.850931
_symmetry_space_group_name_H-M "P -1"
_symmetry_group_IT_number 2
_symmetry_cell_setting 'triclinic'
loop_
_space_group_symop_operation_xyz
x,y,z
-x,-y,-z
loop_
_atom_site_type_symbol
_atom_site_label
_atom_site_fract_x
_atom_site_fract_y
_atom_site_fract_z
Si Si1 0.540244 0.141742 0.093998
Si Si2 0.675046 0.302391 0.664830
Si Si3 0.101144 0.595771 0.212206
Si Si4 0.746262 0.061575 0.717559
Si Si5 0.599136 0.662389 0.610146
Si Si6 0.728222 0.484300 0.147784
Si Si7 0.853337 0.648961 0.717958
O O1 0.535458 0.213855 0.237102
O O2 0.347801 0.233507 0.131384
O O3 0.427650 0.030517 0.182181
O O4 0.760840 0.103382 0.861608
O O5 0.766475 0.350682 0.747723
O O6 0.649368 0.172374 0.696999
O O7 0.440672 0.390954 0.764748
O O8 0.895468 0.310462 0.442414
O O9 0.816603 0.657894 0.382011
O O10 0.124366 0.457545 0.211389
O O11 0.251914 0.599646 0.997267
O O12 0.000000 0.000000 0.500000
O O13 0.405547 0.584761 0.681825
O O14 0.765121 0.604790 0.628150
O O15 0.000000 0.500000 0.000000
#
# Coordination Sequence:
#
# PCOD9053011 Si02
#       7
#     2   2   2   2   2   2   2
#     4   9  19  29  48  79 107 131 166 214 260 304
#     4  11  18  34  54  79 107 136 175 214 256 308
#     4  11  18  33  58  73 101 143 170 213 266 303
#     4  11  18  29  49  80 113 129 164 219 269 297
#     4   9  18  35  50  75 105 133 175 210 253 317
#     4  12  24  33  50  80 110 139 172 211 261 313
#     4   9  16  32  54  77 102 136 169 214 256 306
#
# _framework density 20.592751
#
# number of rings (size 3 to 8) (size 9 to 14) (size 15 to 20)
#    0.857    0.857    4.286    3.000    0.000    0.571 
#    0.000    0.000    0.000    0.857    0.000    7.000 
#    0.000    0.000    0.000    0.000    0.000    0.000 
#
# Total GULP energy -78010.673787 kJ/mol
# GULP energy per Si atom -5572.190985 kJ/mol
# Density = 2.054588 g / cm^3
# Si number density = 20.592751 Si / 1000 Ang^3
#
#
#
# Elastic Constant Matrix: (Units=GPa)
#
#
# Indices 1 2 3 4 5 6 
#
# 1 25.0873 9.7101 15.1804 0.3948 -19.6275 5.3298
# 2 9.7101 123.4678 33.5327 -7.3335 -9.0851 -1.9317
# 3 15.1804 33.5327 126.4460 6.8822 -16.1160 -5.4265
# 4 0.3948 -7.3335 6.8822 34.4847 2.9784 -2.6279
# 5 -19.6275 -9.0851 -16.1160 2.9784 31.5030 -1.0295
# 6 5.3298 -1.9317 -5.4265 -2.6279 -1.0295 6.1263
#
#
#
# Elastic Compliance Matrix: (Units=1/GPa)
#
#
# Indices 1 2 3 4 5 6 
#
# 1 0.127887 -0.005104 -0.009019 -0.015719 0.071300 -0.115618
# 2 -0.005104 0.009187 -0.001902 0.003037 -0.001572 0.006691
# 3 -0.009019 -0.001902 0.010188 -0.001106 -0.000336 0.015740
# 4 -0.015719 0.003037 -0.001106 0.033030 -0.011761 0.025845
# 5 0.071300 -0.001572 -0.000336 -0.011761 0.074845 -0.055291
# 6 -0.115618 0.006691 0.015740 0.025845 -0.055291 0.281663
#
#
# Mechanical properties :
#
#
# Convention : Reuss Voigt Hill
#
# Bulk Modulus (GPa) = 8.67963 43.53860 26.10912
# Shear Modulus (GPa) = 8.23378 28.86133 18.54755
#
# Velocity S-wave (km/s) = 2.00177 3.74776 3.00439
# Velocity P-wave (km/s) = 3.09302 6.31793 4.97408
#
# Compressibility (1/GPa) = 0.11521224
#
# Stress axis : x y z
#
# Youngs Moduli (GPa) = 7.81940 108.85327 98.15024
#
# Poissons Ratio (x) = 0.55563 0.88517
# Poissons Ratio (y) = 0.03991 0.18668
# Poissons Ratio (z) = 0.07052 0.20704
#
# Static dielectric constant tensor:
#      x y z
#    x 1.775130 0.049650 0.032950 
#    y 0.049650 1.751690 0.030020 
#    z 0.032950 0.030020 1.807230 
# 
# From -- ./inp_files/390322.got.cif
#   From: 2010.05.17/outbox.cif.g08.bks.cpg/sg2_196_cif.got.tgz:390322.got - 2010.06.03 11:33:40.
