data_PCOD9053455
_publ_section_title
;
Structure prediction by ZEFSAII (Michael W. Deem and Ramdas Pophale) SiO2 
 PCOD9053455
Probable space group: P -1
;
_chemical_formula_sum "Si O2"
_cell_formula_units_Z 16
_cell_length_a 8.536905
_cell_length_b 18.602187
_cell_length_c 11.899943
_cell_angle_alpha 48.575987
_cell_angle_beta 54.205779
_cell_angle_gamma 28.756625
_cell_volume 681.650283
_symmetry_space_group_name_H-M "P -1"
_symmetry_group_IT_number 2
_symmetry_cell_setting 'triclinic'
loop_
_space_group_symop_operation_xyz
x,y,z
-x,-y,-z
loop_
_atom_site_type_symbol
_atom_site_label
_atom_site_fract_x
_atom_site_fract_y
_atom_site_fract_z
Si Si1 0.637838 0.549986 0.813613
Si Si2 0.870166 0.155664 0.106308
Si Si3 0.454830 0.451959 0.385810
Si Si4 0.403556 0.259168 0.010561
Si Si5 0.747036 0.807675 0.047314
Si Si6 0.765108 0.701857 0.519567
Si Si7 0.045047 0.591393 0.743832
Si Si8 0.643740 0.158690 0.648133
O O1 0.413152 0.686801 0.860169
O O2 0.482317 0.559773 0.761857
O O3 0.802077 0.572377 0.653174
O O4 0.895296 0.377360 0.939426
O O5 0.709224 0.185203 0.026106
O O6 0.020141 0.006667 0.265992
O O7 0.159086 0.121926 0.024277
O O8 0.665538 0.450641 0.351910
O O9 0.580131 0.297176 0.530663
O O10 0.078322 0.612645 0.412128
O O11 0.155584 0.325410 0.143161
O O12 0.462404 0.144664 0.022184
O O13 0.221399 0.416457 0.853904
O O14 0.617690 0.794063 0.216449
O O15 0.433415 0.848104 0.438540
O O16 0.795337 0.718940 0.617638
#
# Coordination Sequence:
#
# PCOD9053455 Si02
#       8
#     2   2   2   2   2   2   2   2
#     4  11  19  40  66  91 125 168 220 275 314 379
#     4  12  26  42  66 101 133 179 214 268 342 379
#     4  11  21  38  68  96 126 177 220 263 335 383
#     4  11  23  42  67  98 136 161 223 281 317 387
#     4  12  22  45  69  95 131 176 224 271 323 388
#     4  11  20  40  66  92 135 166 218 273 319 384
#     4  11  21  40  65 104 127 165 223 282 321 379
#     4  11  25  44  62  98 138 173 216 268 325 404
#
# _framework density 23.472449000000001
#
# number of rings (size 3 to 8) (size 9 to 14) (size 15 to 20)
#    0.000    0.750    5.000    4.125    0.000    2.500 
#    2.250    0.625    0.000    0.000    0.000    0.000 
#    0.000    0.000    0.000    0.000    0.000    0.000 
#
# Total GULP energy -89306.210018 kJ/mol
# GULP energy per Si atom -5581.638126 kJ/mol
# Density = 2.341902 g / cm^3
# Si number density = 23.472449 Si / 1000 Ang^3
#
#
#
# Elastic Constant Matrix: (Units=GPa)
#
#
# Indices 1 2 3 4 5 6 
#
# 1 135.2524 21.6235 52.6312 6.9971 9.3448 -7.6688
# 2 21.6235 29.9402 19.5410 0.5486 0.2128 -3.9745
# 3 52.6312 19.5410 92.5825 4.3388 11.2852 -0.7146
# 4 6.9971 0.5486 4.3388 29.3688 -10.8143 3.6951
# 5 9.3448 0.2128 11.2852 -10.8143 48.1937 3.0849
# 6 -7.6688 -3.9745 -0.7146 3.6951 3.0849 31.3028
#
#
#
# Elastic Compliance Matrix: (Units=1/GPa)
#
#
# Indices 1 2 3 4 5 6 
#
# 1 0.010208 -0.003981 -0.004629 -0.002559 -0.001602 0.002350
# 2 -0.003981 0.041117 -0.006738 0.001552 0.002281 0.003684
# 3 -0.004629 -0.006738 0.015311 -0.002014 -0.003039 -0.001103
# 4 -0.002559 0.001552 -0.002014 0.039459 0.010208 -0.006140
# 5 -0.001602 0.002281 -0.003039 0.010208 0.024294 -0.003772
# 6 0.002350 0.003684 -0.001103 -0.006140 -0.003772 0.034061
#
#
# Mechanical properties :
#
#
# Convention : Reuss Voigt Hill
#
# Bulk Modulus (GPa) = 27.82384 49.48516 38.65450
# Shear Modulus (GPa) = 24.13998 32.70501 28.42249
#
# Velocity S-wave (km/s) = 3.21041 3.73679 3.48356
# Velocity P-wave (km/s) = 5.06180 6.30445 5.71699
#
# Compressibility (1/GPa) = 0.03594040
#
# Stress axis : x y z
#
# Youngs Moduli (GPa) = 97.96459 24.32102 65.31150
#
# Poissons Ratio (x) = 0.09681 0.30235
# Poissons Ratio (y) = 0.38997 0.44005
# Poissons Ratio (z) = 0.45351 0.16387
#
# Static dielectric constant tensor:
#      x y z
#    x 2.055670 -0.006510 0.019920 
#    y -0.006510 1.924200 0.005740 
#    z 0.019920 0.005740 1.862110 
# 
# From -- ./inp_files/283477.got.cif
#   From: 2010.05.17/outbox.cif.g08.bks.cpg/sg2_142_cif.got.tgz:283477.got - 2010.06.03 11:33:40.
