data_PCOD9053819
_publ_section_title
;
Structure prediction by ZEFSAII (Michael W. Deem and Ramdas Pophale) SiO2 
 PCOD9053819
Probable space group: P -1
;
_chemical_formula_sum "Si O2"
_cell_formula_units_Z 14
_cell_length_a 11.549837
_cell_length_b 13.770654
_cell_length_c 13.900823
_cell_angle_alpha 35.060686
_cell_angle_beta 60.044198
_cell_angle_gamma 34.135634
_cell_volume 593.907781
_symmetry_space_group_name_H-M "P -1"
_symmetry_group_IT_number 2
_symmetry_cell_setting 'triclinic'
loop_
_space_group_symop_operation_xyz
x,y,z
-x,-y,-z
loop_
_atom_site_type_symbol
_atom_site_label
_atom_site_fract_x
_atom_site_fract_y
_atom_site_fract_z
Si Si1 0.940853 0.278832 0.524553
Si Si2 0.728015 0.729928 0.399038
Si Si3 0.957456 0.321808 0.001739
Si Si4 0.511787 0.780004 0.164741
Si Si5 0.559480 0.630541 0.043760
Si Si6 0.149797 0.834001 0.973592
Si Si7 0.358006 0.040406 0.445922
O O1 0.776726 0.603223 0.377655
O O2 0.745779 0.438476 0.394300
O O3 0.195046 0.072767 0.539352
O O4 0.014328 0.087375 0.740838
O O5 0.000000 0.500000 0.500000
O O6 0.571109 0.066926 0.194078
O O7 0.574006 0.767364 0.500963
O O8 0.838581 0.348593 0.118860
O O9 0.852853 0.623332 0.794005
O O10 0.853368 0.345125 0.928736
O O11 0.250795 0.002469 0.137798
O O12 0.520725 0.703994 0.112613
O O13 0.500000 0.000000 0.000000
O O14 0.415086 0.628303 0.058180
O O15 0.000000 0.000000 0.000000
O O16 0.500000 0.000000 0.500000
#
# Coordination Sequence:
#
# PCOD9053819 Si02
#       7
#     2   2   2   2   2   2   2
#     4  12  25  43  67 104 137 175 234 277 341 407
#     4  11  20  37  67 101 133 169 225 284 335 389
#     4  11  25  45  68 101 143 179 226 279 343 404
#     4  12  24  43  72 101 142 181 222 281 341 413
#     4  11  23  44  72 101 135 177 228 282 341 403
#     4  12  26  47  73  98 137 186 228 287 342 406
#     4  11  22  37  69 101 133 172 229 290 335 389
#
# _framework density 23.572682
#
# number of rings (size 3 to 8) (size 9 to 14) (size 15 to 20)
#    0.000    0.571    7.143    1.286    2.000    2.286 
#    0.000    0.714    0.000    0.000    0.000    0.000 
#    0.000    0.000    0.000    0.000    0.000    0.000 
#
# Total GULP energy -78245.820250 kJ/mol
# GULP energy per Si atom -5588.987161 kJ/mol
# Density = 2.351903 g / cm^3
# Si number density = 23.572682 Si / 1000 Ang^3
#
#
#
# Elastic Constant Matrix: (Units=GPa)
#
#
# Indices 1 2 3 4 5 6 
#
# 1 56.7055 23.4709 24.4304 -10.6349 9.3378 -13.8682
# 2 23.4709 195.2333 54.4165 -16.7218 15.0283 -35.5512
# 3 24.4304 54.4165 111.1393 0.6309 20.0779 -19.2372
# 4 -10.6349 -16.7218 0.6309 25.3148 1.4148 -0.3626
# 5 9.3378 15.0283 20.0779 1.4148 33.0977 -6.8561
# 6 -13.8682 -35.5512 -19.2372 -0.3626 -6.8561 35.9306
#
#
#
# Elastic Compliance Matrix: (Units=1/GPa)
#
#
# Indices 1 2 3 4 5 6 
#
# 1 0.023244 0.000707 -0.003619 0.010629 -0.003658 0.007143
# 2 0.000707 0.007400 -0.002582 0.005391 -0.000963 0.006083
# 3 -0.003619 -0.002582 0.012218 -0.003242 -0.004737 0.001653
# 4 0.010629 0.005391 -0.003242 0.047939 -0.003991 0.007423
# 5 -0.003658 -0.000963 -0.004737 -0.003991 0.035091 0.001754
# 6 0.007143 0.006083 0.001653 0.007423 0.001754 0.037902
#
#
# Mechanical properties :
#
#
# Convention : Reuss Voigt Hill
#
# Bulk Modulus (GPa) = 31.37361 63.07931 47.22646
# Shear Modulus (GPa) = 26.96767 36.25262 31.61015
#
# Velocity S-wave (km/s) = 3.38601 3.92587 3.66589
# Velocity P-wave (km/s) = 5.35023 6.88241 6.16411
#
# Compressibility (1/GPa) = 0.03187392
#
# Stress axis : x y z
#
# Youngs Moduli (GPa) = 43.02166 135.12636 81.84706
#
# Poissons Ratio (x) = -0.09551 0.29618
# Poissons Ratio (y) = -0.03041 0.21137
# Poissons Ratio (z) = 0.15568 0.34896
#
# Static dielectric constant tensor:
#      x y z
#    x 1.705430 -0.134910 -0.149590 
#    y -0.134910 1.876830 -0.029300 
#    z -0.149590 -0.029300 1.916010 
# 
# From -- ./inp_files/303165.got.cif
#   From: 2010.05.17/outbox.cif.g08.bks.cpg/sg2_152_cif.got.tgz:303165.got - 2010.06.03 11:33:40.
