data_PCOD9053035
_publ_section_title
;
Structure prediction by ZEFSAII (Michael W. Deem and Ramdas Pophale) SiO2 
 PCOD9053035
Probable space group: P -1
;
_chemical_formula_sum "Si O2"
_cell_formula_units_Z 14
_cell_length_a 16.143148
_cell_length_b 10.591397
_cell_length_c 18.654345
_cell_angle_alpha 134.743224
_cell_angle_beta 157.843818
_cell_angle_gamma 33.281962
_cell_volume 620.809206
_symmetry_space_group_name_H-M "P -1"
_symmetry_group_IT_number 2
_symmetry_cell_setting 'triclinic'
loop_
_space_group_symop_operation_xyz
x,y,z
-x,-y,-z
loop_
_atom_site_type_symbol
_atom_site_label
_atom_site_fract_x
_atom_site_fract_y
_atom_site_fract_z
Si Si1 0.122339 0.048952 0.053401
Si Si2 0.821711 0.241254 0.351034
Si Si3 0.765760 0.763288 0.955769
Si Si4 0.830187 0.312676 0.551103
Si Si5 0.314883 0.095002 0.597593
Si Si6 0.207204 0.807938 0.303003
Si Si7 0.771162 0.590667 0.034629
O O1 0.963390 0.073397 0.862395
O O2 0.003233 0.313957 0.081266
O O3 0.484723 0.863330 0.262360
O O4 0.000000 0.000000 0.000000
O O5 0.779996 0.344298 0.438064
O O6 0.492375 0.354327 0.109359
O O7 0.030189 0.950784 0.415774
O O8 0.982500 0.284228 0.441565
O O9 0.519336 0.944276 0.771575
O O10 0.629236 0.754503 0.914050
O O11 0.000000 0.500000 0.000000
O O12 0.968951 0.821030 0.161423
O O13 0.511792 0.528098 0.420622
O O14 0.055391 0.348441 0.763475
O O15 0.293399 0.940628 0.464560
#
# Coordination Sequence:
#
# PCOD9053035 Si02
#       7
#     2   2   2   2   2   2   2
#     4  11  25  44  64  87 117 160 219 263 292 348
#     4  11  23  36  58  96 133 157 190 240 313 376
#     4  11  18  32  56  92 126 151 190 243 299 362
#     4  11  21  36  61  93 131 166 189 235 311 379
#     4  11  23  39  62  93 123 156 204 253 305 362
#     4  11  21  39  65  91 122 162 204 250 301 364
#     4  12  22  39  59  92 129 166 196 246 301 365
#
# _framework density 22.551213000000001
#
# number of rings (size 3 to 8) (size 9 to 14) (size 15 to 20)
#    0.000    0.857    5.714    3.857    0.000    4.571 
#    0.000    0.714    0.000    1.714    0.000    0.000 
#    0.000    0.000    0.000    0.000    0.000    0.000 
#
# Total GULP energy -78335.505966 kJ/mol
# GULP energy per Si atom -5595.393283 kJ/mol
# Density = 2.249989 g / cm^3
# Si number density = 22.551213 Si / 1000 Ang^3
#
#
#
# Elastic Constant Matrix: (Units=GPa)
#
#
# Indices 1 2 3 4 5 6 
#
# 1 97.7485 12.5864 44.3219 7.8851 38.3057 -1.6158
# 2 12.5864 46.6623 26.4489 -1.8304 -5.8363 -10.6593
# 3 44.3219 26.4489 162.8308 17.9101 32.4274 -7.2880
# 4 7.8851 -1.8304 17.9101 30.6432 -11.6865 5.2170
# 5 38.3057 -5.8363 32.4274 -11.6865 44.6798 2.8736
# 6 -1.6158 -10.6593 -7.2880 5.2170 2.8736 22.1920
#
#
#
# Elastic Compliance Matrix: (Units=1/GPa)
#
#
# Indices 1 2 3 4 5 6 
#
# 1 0.024656 -0.012872 0.004895 -0.023786 -0.033050 0.007091
# 2 -0.012872 0.036096 -0.010233 0.021615 0.028557 0.004261
# 3 0.004895 -0.010233 0.012681 -0.017937 -0.019840 0.006392
# 4 -0.023786 0.021615 -0.017937 0.076382 0.057671 -0.022665
# 5 -0.033050 0.028557 -0.019840 0.057671 0.085204 -0.019796
# 6 0.007091 0.004261 0.006392 -0.022665 -0.019796 0.057615
#
#
# Mechanical properties :
#
#
# Convention : Reuss Voigt Hill
#
# Bulk Modulus (GPa) = 27.01776 52.66178 39.83977
# Shear Modulus (GPa) = 14.64592 34.42861 24.53727
#
# Velocity S-wave (km/s) = 2.55120 3.91152 3.30217
# Velocity P-wave (km/s) = 4.54805 6.61837 5.67836
#
# Compressibility (1/GPa) = 0.03701269
#
# Stress axis : x y z
#
# Youngs Moduli (GPa) = 40.55827 27.70389 78.85645
#
# Poissons Ratio (x) = 0.35661 -0.38601
# Poissons Ratio (y) = 0.52207 0.80697
# Poissons Ratio (z) = -0.19854 0.28350
#
# Static dielectric constant tensor:
#      x y z
#    x 1.849040 0.006910 0.038660 
#    y 0.006910 1.852080 -0.004670 
#    z 0.038660 -0.004670 1.851370 
# 
# From -- ./inp_files/225790.got.cif
#   From: 2010.05.17/outbox.cif.g08.bks.cpg/sg2_113_cif.got.tgz:225790.got - 2010.06.03 11:33:40.
