data_PCOD9053704
_publ_section_title
;
Structure prediction by ZEFSAII (Michael W. Deem and Ramdas Pophale) SiO2 
 PCOD9053704
Probable space group: P -1
;
_chemical_formula_sum "Si O2"
_cell_formula_units_Z 12
_cell_length_a 12.537081
_cell_length_b 10.965196
_cell_length_c 11.752958
_cell_angle_alpha 50.955481
_cell_angle_beta 120.860234
_cell_angle_gamma 147.113684
_cell_volume 680.853991
_symmetry_space_group_name_H-M "P -1"
_symmetry_group_IT_number 2
_symmetry_cell_setting 'triclinic'
loop_
_space_group_symop_operation_xyz
x,y,z
-x,-y,-z
loop_
_atom_site_type_symbol
_atom_site_label
_atom_site_fract_x
_atom_site_fract_y
_atom_site_fract_z
Si Si1 0.298219 0.396547 0.966080
Si Si2 0.812996 0.822895 0.420015
Si Si3 0.567553 0.142574 0.274891
Si Si4 0.726910 0.058046 0.570302
Si Si5 0.486574 0.247158 0.583146
Si Si6 0.021285 0.094379 0.774304
O O1 0.348888 0.627735 0.880323
O O2 0.177597 0.271853 0.855367
O O3 0.500000 0.500000 0.000000
O O4 0.160953 0.181642 0.111244
O O5 0.685039 0.538988 0.530611
O O6 0.672898 0.827926 0.378887
O O7 0.883231 0.898454 0.284528
O O8 0.000000 0.000000 0.500000
O O9 0.727321 0.220604 0.403278
O O10 0.391134 0.027092 0.328304
O O11 0.498074 0.924988 0.291497
O O12 0.929734 0.169757 0.637648
O O13 0.595999 0.822143 0.551497
#
# Coordination Sequence:
#
# PCOD9053704 Si02
#       6
#     2   2   2   2   2   2
#     4  11  23  39  58  84 127 153 186 234 298 351
#     4  11  20  36  59  86 115 148 198 239 282 341
#     4   9  18  37  58  85 116 153 187 241 296 329
#     4   9  17  35  59  88 113 140 197 243 287 326
#     4   9  20  35  56  85 114 148 183 246 286 326
#     4  11  23  36  59  93 111 158 193 233 288 352
#
# _framework density 17.624925000000001
#
# number of rings (size 3 to 8) (size 9 to 14) (size 15 to 20)
#    1.000    1.000    3.333    1.000    0.000    0.667 
#    3.000    0.833    0.000    2.000    0.000    0.000 
#    0.000    0.000    0.000    0.000    0.000    0.000 
#
# Total GULP energy -66863.077820 kJ/mol
# GULP energy per Si atom -5571.923152 kJ/mol
# Density = 1.758481 g / cm^3
# Si number density = 17.624925 Si / 1000 Ang^3
#
#
#
# Elastic Constant Matrix: (Units=GPa)
#
#
# Indices 1 2 3 4 5 6 
#
# 1 133.0081 51.1417 40.3555 -18.4690 -6.6242 -4.7684
# 2 51.1417 95.3306 22.8757 -8.4851 4.0946 3.0476
# 3 40.3555 22.8757 40.1297 -11.1441 5.6790 3.6983
# 4 -18.4690 -8.4851 -11.1441 20.7403 0.2003 4.4410
# 5 -6.6242 4.0946 5.6790 0.2003 29.5257 -1.6685
# 6 -4.7684 3.0476 3.6983 4.4410 -1.6685 25.2364
#
#
#
# Elastic Compliance Matrix: (Units=1/GPa)
#
#
# Indices 1 2 3 4 5 6 
#
# 1 0.013770 -0.004750 -0.011631 0.002988 0.006234 0.004766
# 2 -0.004750 0.013854 -0.002286 0.000781 -0.002697 -0.002551
# 3 -0.011631 -0.002286 0.045019 0.015587 -0.011737 -0.012038
# 4 0.002988 0.000781 0.015587 0.062397 -0.003596 -0.013032
# 5 0.006234 -0.002697 -0.011737 -0.003596 0.038284 0.006388
# 6 0.004766 -0.002551 -0.012038 -0.013032 0.006388 0.045314
#
#
# Mechanical properties :
#
#
# Convention : Reuss Voigt Hill
#
# Bulk Modulus (GPa) = 28.32384 55.24601 41.78492
# Shear Modulus (GPa) = 18.67465 25.37350 22.02408
#
# Velocity S-wave (km/s) = 3.25862 3.79837 3.53880
# Velocity P-wave (km/s) = 5.50121 7.11690 6.36057
#
# Compressibility (1/GPa) = 0.03530595
#
# Stress axis : x y z
#
# Youngs Moduli (GPa) = 72.62059 72.18233 22.21306
#
# Poissons Ratio (x) = 0.34289 0.25837
# Poissons Ratio (y) = 0.34497 0.05079
# Poissons Ratio (z) = 0.84469 0.16504
#
# Static dielectric constant tensor:
#      x y z
#    x 1.597150 -0.005560 0.011940 
#    y -0.005560 1.604140 -0.002890 
#    z 0.011940 -0.002890 1.595390 
# 
# From -- ./inp_files/65153.got.cif
#   From: 2010.05.17/outbox.cif.g08.bks.cpg/sg2_33_cif.got.tgz:65153.got - 2010.06.03 11:33:40.
