data_PCOD9053169
_publ_section_title
;
Structure prediction by ZEFSAII (Michael W. Deem and Ramdas Pophale) SiO2 
 PCOD9053169
Probable space group: P -1
;
_chemical_formula_sum "Si O2"
_cell_formula_units_Z 16
_cell_length_a 11.810408
_cell_length_b 7.188762
_cell_length_c 8.998263
_cell_angle_alpha 91.516814
_cell_angle_beta 87.830770
_cell_angle_gamma 119.284626
_cell_volume 665.831938
_symmetry_space_group_name_H-M "P -1"
_symmetry_group_IT_number 2
_symmetry_cell_setting 'triclinic'
loop_
_space_group_symop_operation_xyz
x,y,z
-x,-y,-z
loop_
_atom_site_type_symbol
_atom_site_label
_atom_site_fract_x
_atom_site_fract_y
_atom_site_fract_z
Si Si1 0.781296 0.721992 0.260412
Si Si2 0.081244 0.296526 0.468146
Si Si3 0.806789 0.219192 0.469495
Si Si4 0.332080 0.755979 0.825060
Si Si5 0.698672 0.653940 0.748116
Si Si6 0.710789 0.921344 0.034731
Si Si7 0.534500 0.189995 0.762871
Si Si8 0.399490 0.211090 0.491693
O O1 0.895242 0.737575 0.361030
O O2 0.708000 0.489549 0.179815
O O3 0.812041 0.899697 0.138845
O O4 0.685225 0.739150 0.384851
O O5 0.138649 0.550735 0.457281
O O6 0.169610 0.248154 0.352488
O O7 0.929988 0.185211 0.438463
O O8 0.736840 0.216310 0.318958
O O9 0.697587 0.028062 0.564657
O O10 0.277528 0.845025 0.960792
O O11 0.483879 0.939574 0.800186
O O12 0.661118 0.413828 0.793171
O O13 0.584114 0.637784 0.643078
O O14 0.710099 0.807012 0.883069
O O15 0.573248 0.791602 0.126942
O O16 0.508725 0.204053 0.587646
#
# Coordination Sequence:
#
# PCOD9053169 Si02
#       8
#     2   2   2   2   2   2   2   2
#     4   9  16  34  53  76  96 140 179 200 255 308
#     4   9  20  31  59  76 103 130 175 224 248 310
#     4   9  16  38  54  77 100 136 174 212 269 295
#     4   8  17  33  57  71 100 144 174 202 250 318
#     4  11  19  32  49  84 104 132 174 214 258 296
#     4   9  19  34  52  73 111 142 164 209 253 314
#     4   8  17  34  53  71 105 144 164 208 259 305
#     4   9  18  32  57  75 100 133 174 218 253 306
#
# _framework density 24.030089
#
# number of rings (size 3 to 8) (size 9 to 14) (size 15 to 20)
#    0.750    2.250    1.250    0.750    0.000    2.000 
#    2.250   13.750    0.000    2.250    0.000    0.000 
#    0.000    0.000    0.000    0.000    0.000    0.000 
#
# Total GULP energy -89234.780696 kJ/mol
# GULP energy per Si atom -5577.173793 kJ/mol
# Density = 2.397540 g / cm^3
# Si number density = 24.030089 Si / 1000 Ang^3
#
#
#
# Elastic Constant Matrix: (Units=GPa)
#
#
# Indices 1 2 3 4 5 6 
#
# 1 71.9809 13.1857 28.4638 4.0276 -10.8628 -2.5798
# 2 13.1857 120.3341 11.5681 24.0189 -6.4072 -16.2884
# 3 28.4638 11.5681 106.9821 15.9104 -4.3139 -5.4702
# 4 4.0276 24.0189 15.9104 26.9674 -8.4617 1.0925
# 5 -10.8628 -6.4072 -4.3139 -8.4617 18.7182 0.1715
# 6 -2.5798 -16.2884 -5.4702 1.0925 0.1715 30.7629
#
#
#
# Elastic Compliance Matrix: (Units=1/GPa)
#
#
# Indices 1 2 3 4 5 6 
#
# 1 0.017490 -0.002080 -0.004853 0.005531 0.010827 -0.000754
# 2 -0.002080 0.011517 0.001292 -0.011703 -0.002318 0.006582
# 3 -0.004853 0.001292 0.011772 -0.008601 -0.003574 0.002695
# 4 0.005531 -0.011703 -0.008601 0.059774 0.024330 -0.009521
# 5 0.010827 -0.002318 -0.003574 0.024330 0.069109 -0.002204
# 6 -0.000754 0.006582 0.002695 -0.009521 -0.002204 0.036758
#
#
# Mechanical properties :
#
#
# Convention : Reuss Voigt Hill
#
# Bulk Modulus (GPa) = 33.90164 45.08137 39.49151
# Shear Modulus (GPa) = 21.97458 31.69499 26.83478
#
# Velocity S-wave (km/s) = 3.02729 3.63570 3.34536
# Velocity P-wave (km/s) = 5.13400 6.03536 5.60283
#
# Compressibility (1/GPa) = 0.02949709
#
# Stress axis : x y z
#
# Youngs Moduli (GPa) = 57.17548 86.82459 84.94853
#
# Poissons Ratio (x) = 0.18055 0.41226
# Poissons Ratio (y) = 0.11890 -0.10971
# Poissons Ratio (z) = 0.27748 -0.11214
#
# Static dielectric constant tensor:
#      x y z
#    x 1.974900 -0.038830 0.031220 
#    y -0.038830 1.967460 0.038500 
#    z 0.031220 0.038500 1.904010 
# 
# From -- ./inp_files/292968.got.cif
#   From: 2010.05.17/outbox.cif.g08.bks.cpg/sg2_147_cif.got.tgz:292968.got - 2010.06.03 11:33:40.
