data_PCOD9053655
_publ_section_title
;
Structure prediction by ZEFSAII (Michael W. Deem and Ramdas Pophale) SiO2 
 PCOD9053655
Probable space group: P -1
;
_chemical_formula_sum "Si O2"
_cell_formula_units_Z 16
_cell_length_a 23.209473
_cell_length_b 10.171726
_cell_length_c 11.460280
_cell_angle_alpha 54.903475
_cell_angle_beta 20.966475
_cell_angle_gamma 55.907200
_cell_volume 789.499231
_symmetry_space_group_name_H-M "P -1"
_symmetry_group_IT_number 2
_symmetry_cell_setting 'triclinic'
loop_
_space_group_symop_operation_xyz
x,y,z
-x,-y,-z
loop_
_atom_site_type_symbol
_atom_site_label
_atom_site_fract_x
_atom_site_fract_y
_atom_site_fract_z
Si Si1 0.395917 0.822050 0.911614
Si Si2 0.275573 0.623368 0.841205
Si Si3 0.744868 0.908405 0.142370
Si Si4 0.734267 0.460680 0.827693
Si Si5 0.025989 0.901562 0.226866
Si Si6 0.700024 0.067737 0.708344
Si Si7 0.478363 0.243419 0.854338
Si Si8 0.904288 0.665921 0.776821
O O1 0.584241 0.853051 0.535239
O O2 0.309239 0.945459 0.918432
O O3 0.362769 0.644377 0.023248
O O4 0.320660 0.860552 0.160010
O O5 0.441361 0.661896 0.449090
O O6 0.290682 0.606089 0.960349
O O7 0.143114 0.775464 0.997130
O O8 0.208673 0.463643 0.995854
O O9 0.826417 0.765487 0.981420
O O10 0.866299 0.977715 0.969302
O O11 0.924897 0.427374 0.463280
O O12 0.662103 0.644170 0.874957
O O13 0.941481 0.792602 0.539599
O O14 0.884493 0.001544 0.374180
O O15 0.621257 0.192724 0.700191
O O16 0.594131 0.914208 0.977903
#
# Coordination Sequence:
#
# PCOD9053655 Si02
#       8
#     2   2   2   2   2   2   2   2
#     4  11  22  37  62  92 120 154 192 250 296 348
#     4  11  22  37  61  89 121 151 198 252 295 342
#     4  11  21  35  60  96 121 147 197 246 301 348
#     4  11  22  38  62  90 121 153 197 248 299 344
#     4  11  20  38  60  91 120 153 195 244 301 349
#     4  11  24  41  63  82 123 163 197 239 289 362
#     4  11  25  42  58  88 119 164 202 235 292 353
#     4  11  20  35  59  92 122 150 187 250 303 346
#
# _framework density 20.266010999999999
#
# number of rings (size 3 to 8) (size 9 to 14) (size 15 to 20)
#    0.000    1.000    3.750    6.000    1.750    1.000 
#    0.000    1.250    0.000    3.000    0.000    0.000 
#    0.000    0.000    0.000    0.000    0.000    0.000 
#
# Total GULP energy -89514.215911 kJ/mol
# GULP energy per Si atom -5594.638494 kJ/mol
# Density = 2.021988 g / cm^3
# Si number density = 20.266011 Si / 1000 Ang^3
#
#
#
# Elastic Constant Matrix: (Units=GPa)
#
#
# Indices 1 2 3 4 5 6 
#
# 1 16.3384 12.4270 15.7685 -25.9046 -30.9021 -5.0985
# 2 12.4270 87.9409 12.1958 12.9680 -0.1663 18.8974
# 3 15.7685 12.1958 42.2710 27.0014 -1.2258 4.8634
# 4 -25.9046 12.9680 27.0014 18.3590 -8.9822 -21.2033
# 5 -30.9021 -0.1663 -1.2258 -8.9822 16.8024 3.7044
# 6 -5.0985 18.8974 4.8634 -21.2033 3.7044 31.1091
#
#
#
# Elastic Compliance Matrix: (Units=1/GPa)
#
#
# Indices 1 2 3 4 5 6 
#
# 1 0.014600 0.006247 0.016582 -0.031555 0.017332 -0.027565
# 2 0.006247 0.013623 -0.002581 -0.003318 0.011984 -0.010537
# 3 0.016582 -0.002581 0.025725 -0.008744 0.029709 -0.009233
# 4 -0.031555 -0.003318 -0.008744 0.027303 -0.049107 0.022668
# 5 0.017332 0.011984 0.029709 -0.049107 0.078878 -0.051947
# 6 -0.027565 -0.010537 -0.009233 0.022668 -0.051947 0.057107
#
#
# Mechanical properties :
#
#
# Convention : Reuss Voigt Hill
#
# Bulk Modulus (GPa) = 10.58849 25.25923 17.92386
# Shear Modulus (GPa) = 24.01281 20.33137 22.17209
#
# Velocity S-wave (km/s) = 3.44594 3.17081 3.31124
# Velocity P-wave (km/s) = 4.59008 5.08884 4.84588
#
# Compressibility (1/GPa) = 0.09444215
#
# Stress axis : x y z
#
# Youngs Moduli (GPa) = 68.49292 73.40692 38.87269
#
# Poissons Ratio (x) = -0.45854 -0.64458
# Poissons Ratio (y) = -0.42784 0.10033
# Poissons Ratio (z) = -1.13573 0.18947
#
# Static dielectric constant tensor:
#      x y z
#    x 1.697340 -0.031740 -0.019330 
#    y -0.031740 1.714090 0.020700 
#    z -0.019330 0.020700 1.706220 
# 
# From -- ./inp_files/182570.got.cif
#   From: 2010.05.17/outbox.cif.g08.bks.cpg/sg2_92_cif.got.tgz:182570.got - 2010.06.03 11:33:40.
