data_PCOD9053570
_publ_section_title
;
Structure prediction by ZEFSAII (Michael W. Deem and Ramdas Pophale) SiO2 
 PCOD9053570
Probable space group: P -1
;
_chemical_formula_sum "Si O2"
_cell_formula_units_Z 16
_cell_length_a 12.583936
_cell_length_b 5.209013
_cell_length_c 13.459949
_cell_angle_alpha 86.294825
_cell_angle_beta 112.159000
_cell_angle_gamma 64.696378
_cell_volume 711.354040
_symmetry_space_group_name_H-M "P -1"
_symmetry_group_IT_number 2
_symmetry_cell_setting 'triclinic'
loop_
_space_group_symop_operation_xyz
x,y,z
-x,-y,-z
loop_
_atom_site_type_symbol
_atom_site_label
_atom_site_fract_x
_atom_site_fract_y
_atom_site_fract_z
Si Si1 0.126070 0.849881 0.335437
Si Si2 0.921681 0.900810 0.896558
Si Si3 0.964263 0.339291 0.404352
Si Si4 0.378089 0.862344 0.707197
Si Si5 0.279249 0.514868 0.569407
Si Si6 0.447907 0.298079 0.040103
Si Si7 0.155621 0.114588 0.772918
Si Si8 0.816440 0.680592 0.026961
O O1 0.240354 0.571251 0.438525
O O2 0.984002 0.866502 0.288340
O O3 0.145693 0.889322 0.226020
O O4 0.091860 0.125368 0.390323
O O5 0.822080 0.823967 0.921430
O O6 0.038574 0.596468 0.901960
O O7 0.000000 0.000000 0.000000
O O8 0.863387 0.270579 0.431941
O O9 0.869817 0.569775 0.283146
O O10 0.000000 0.500000 0.500000
O O11 0.331769 0.180120 0.632158
O O12 0.268539 0.890744 0.748067
O O13 0.378705 0.630455 0.634472
O O14 0.499596 0.770326 0.826236
O O15 0.292573 0.415037 0.992422
O O16 0.500000 0.500000 0.000000
O O17 0.500000 0.000000 0.000000
O O18 0.200558 0.084863 0.901406
#
# Coordination Sequence:
#
# PCOD9053570 Si02
#       8
#     2   2   2   2   2   2   2   2
#     4  12  21  35  61  90 130 177 224 268 340 406
#     4  11  25  42  67  98 133 184 227 284 338 409
#     4  11  20  32  51  88 130 173 208 260 340 404
#     4  11  24  40  60  97 130 172 217 268 340 401
#     4  11  23  37  58  90 136 172 214 273 334 403
#     4  12  27  44  73 102 133 184 227 284 348 404
#     4  11  20  33  60  88 134 170 210 272 330 420
#     4  11  25  44  64  97 138 177 230 282 346 402
#
# _framework density 22.492315000000001
#
# number of rings (size 3 to 8) (size 9 to 14) (size 15 to 20)
#    0.000    0.750    6.250    2.625    5.250    0.000 
#    0.000    0.000    0.000    1.500    0.000    0.000 
#    0.000    0.000    0.000    0.000    0.000    0.000 
#
# Total GULP energy -89319.647176 kJ/mol
# GULP energy per Si atom -5582.477949 kJ/mol
# Density = 2.244112 g / cm^3
# Si number density = 22.492315 Si / 1000 Ang^3
#
#
#
# Elastic Constant Matrix: (Units=GPa)
#
#
# Indices 1 2 3 4 5 6 
#
# 1 79.8701 23.3318 43.9740 -1.2553 -5.5819 18.9478
# 2 23.3318 59.7733 35.4177 5.9146 -0.5774 25.0257
# 3 43.9740 35.4177 161.1583 -5.6762 -8.2246 16.8844
# 4 -1.2553 5.9146 -5.6762 29.6318 10.2796 4.9477
# 5 -5.5819 -0.5774 -8.2246 10.2796 37.6721 0.8162
# 6 18.9478 25.0257 16.8844 4.9477 0.8162 18.7704
#
#
#
# Elastic Compliance Matrix: (Units=1/GPa)
#
#
# Indices 1 2 3 4 5 6 
#
# 1 0.018515 0.003205 -0.003427 0.002273 0.001870 -0.020561
# 2 0.003205 0.040177 -0.004076 -0.000291 0.001431 -0.053120
# 3 -0.003427 -0.004076 0.008007 0.001771 0.000669 0.001195
# 4 0.002273 -0.000291 0.001771 0.039941 -0.009885 -0.013597
# 5 0.001870 0.001431 0.000669 -0.009885 0.029754 -0.003085
# 6 -0.020561 -0.053120 0.001195 -0.013597 -0.003085 0.147496
#
#
# Mechanical properties :
#
#
# Convention : Reuss Voigt Hill
#
# Bulk Modulus (GPa) = 17.21081 56.24984 36.73032
# Shear Modulus (GPa) = 16.03320 30.42008 23.22664
#
# Velocity S-wave (km/s) = 2.67278 3.68158 3.21697
# Velocity P-wave (km/s) = 4.14651 6.56771 5.49219
#
# Compressibility (1/GPa) = 0.05810303
#
# Stress axis : x y z
#
# Youngs Moduli (GPa) = 54.01079 24.88995 124.88776
#
# Poissons Ratio (x) = -0.07977 0.42796
# Poissons Ratio (y) = -0.17310 0.50905
# Poissons Ratio (z) = 0.18508 0.10145
#
# Static dielectric constant tensor:
#      x y z
#    x 1.840020 0.026110 0.002950 
#    y 0.026110 1.985380 0.011470 
#    z 0.002950 0.011470 1.902780 
# 
# From -- ./inp_files/410603.got.cif
#   From: 2010.05.17/outbox.cif.g08.bks.cpg/sg2_206_cif.got.tgz:410603.got - 2010.06.03 11:33:40.
