data_PCOD9053565
_publ_section_title
;
Structure prediction by ZEFSAII (Michael W. Deem and Ramdas Pophale) SiO2 
 PCOD9053565
Probable space group: P -1
;
_chemical_formula_sum "Si O2"
_cell_formula_units_Z 14
_cell_length_a 12.466091
_cell_length_b 7.195325
_cell_length_c 9.882038
_cell_angle_alpha 67.312721
_cell_angle_beta 133.299800
_cell_angle_gamma 108.612726
_cell_volume 593.206452
_symmetry_space_group_name_H-M "P -1"
_symmetry_group_IT_number 2
_symmetry_cell_setting 'triclinic'
loop_
_space_group_symop_operation_xyz
x,y,z
-x,-y,-z
loop_
_atom_site_type_symbol
_atom_site_label
_atom_site_fract_x
_atom_site_fract_y
_atom_site_fract_z
Si Si1 0.236884 0.422520 0.089025
Si Si2 0.747178 0.251832 0.765379
Si Si3 0.534646 0.230987 0.352445
Si Si4 0.980993 0.870589 0.841945
Si Si5 0.080949 0.686993 0.693255
Si Si6 0.226644 0.429410 0.524725
Si Si7 0.261569 0.991663 0.568800
O O1 0.291944 0.619445 0.172353
O O2 0.370519 0.287405 0.214172
O O3 0.111587 0.301307 0.104003
O O4 0.167548 0.501041 0.870094
O O5 0.605808 0.177487 0.574577
O O6 0.820377 0.424928 0.678666
O O7 0.864977 0.093863 0.953658
O O8 0.634514 0.436258 0.333960
O O9 0.582828 0.073233 0.329179
O O10 0.032156 0.794691 0.760335
O O11 0.859413 0.024288 0.654583
O O12 0.186289 0.844228 0.657000
O O13 0.922216 0.624152 0.504870
O O14 0.276555 0.221653 0.566588
#
# Coordination Sequence:
#
# PCOD9053565 Si02
#       7
#     2   2   2   2   2   2   2
#     4  11  17  35  61  80 110 150 182 220 278 329
#     4   9  17  34  57  81 105 140 183 227 270 309
#     4  10  23  34  55  88 112 146 177 225 279 332
#     4  10  17  35  61  82 105 144 188 231 269 315
#     4  10  19  35  60  83 105 149 189 222 270 327
#     4   9  18  39  55  80 111 139 180 233 267 311
#     4  11  22  35  57  86 112 143 185 223 276 329
#
# _framework density 23.600550999999999
#
# number of rings (size 3 to 8) (size 9 to 14) (size 15 to 20)
#    0.857    1.143    4.286    3.000    0.000    2.286 
#    0.000    0.714    0.000    6.857    0.000    1.000 
#    0.000    0.000    0.000    0.000    0.000    0.000 
#
# Total GULP energy -78169.615047 kJ/mol
# GULP energy per Si atom -5583.543932 kJ/mol
# Density = 2.354684 g / cm^3
# Si number density = 23.600551 Si / 1000 Ang^3
#
#
#
# Elastic Constant Matrix: (Units=GPa)
#
#
# Indices 1 2 3 4 5 6 
#
# 1 94.1673 36.6916 18.6362 -9.8001 10.8463 -7.0720
# 2 36.6916 65.6301 11.4734 -2.8454 -1.4711 -3.1238
# 3 18.6362 11.4734 72.3824 -10.2533 10.6089 -9.4598
# 4 -9.8001 -2.8454 -10.2533 25.5534 6.0258 2.9311
# 5 10.8463 -1.4711 10.6089 6.0258 42.3499 -16.8653
# 6 -7.0720 -3.1238 -9.4598 2.9311 -16.8653 29.6720
#
#
#
# Elastic Compliance Matrix: (Units=1/GPa)
#
#
# Indices 1 2 3 4 5 6 
#
# 1 0.015148 -0.008180 -0.001180 0.005762 -0.005131 -0.001113
# 2 -0.008180 0.020237 -0.001891 -0.003052 0.004728 0.002567
# 3 -0.001180 -0.001891 0.016173 0.006590 -0.004071 0.001711
# 4 0.005762 -0.003052 0.006590 0.047991 -0.013822 -0.009444
# 5 -0.005131 0.004728 -0.004071 -0.013822 0.035954 0.019778
# 6 -0.001113 0.002567 0.001711 -0.009444 0.019778 0.046427
#
#
# Mechanical properties :
#
#
# Convention : Reuss Voigt Hill
#
# Bulk Modulus (GPa) = 34.42012 40.64245 37.53129
# Shear Modulus (GPa) = 23.35162 30.54030 26.94596
#
# Velocity S-wave (km/s) = 3.14897 3.60119 3.38265
# Velocity P-wave (km/s) = 5.27612 5.87791 5.58513
#
# Compressibility (1/GPa) = 0.02905277
#
# Stress axis : x y z
#
# Youngs Moduli (GPa) = 66.01743 49.41509 61.83130
#
# Poissons Ratio (x) = 0.40423 0.07299
# Poissons Ratio (y) = 0.54004 0.11695
# Poissons Ratio (z) = 0.07793 0.09347
#
# Static dielectric constant tensor:
#      x y z
#    x 1.881620 -0.023710 -0.001690 
#    y -0.023710 1.961280 0.028330 
#    z -0.001690 0.028330 1.890220 
# 
# From -- ./inp_files/419002.got.cif
#   From: 2010.05.17/outbox.cif.g08.bks.cpg/sg2_210_cif.got.tgz:419002.got - 2010.06.03 11:33:40.
