data_PCOD9053063
_publ_section_title
;
Structure prediction by ZEFSAII (Michael W. Deem and Ramdas Pophale) SiO2 
 PCOD9053063
Probable space group: P -1
;
_chemical_formula_sum "Si O2"
_cell_formula_units_Z 16
_cell_length_a 13.625264
_cell_length_b 21.692237
_cell_length_c 21.584871
_cell_angle_alpha 160.334391
_cell_angle_beta 20.128935
_cell_angle_gamma 160.589354
_cell_volume 635.753017
_symmetry_space_group_name_H-M "P -1"
_symmetry_group_IT_number 2
_symmetry_cell_setting 'triclinic'
loop_
_space_group_symop_operation_xyz
x,y,z
-x,-y,-z
loop_
_atom_site_type_symbol
_atom_site_label
_atom_site_fract_x
_atom_site_fract_y
_atom_site_fract_z
Si Si1 0.236602 0.501956 0.976109
Si Si2 0.753817 0.397861 0.807509
Si Si3 0.785112 0.075844 0.306047
Si Si4 0.008450 0.695857 0.717372
Si Si5 0.268011 0.208927 0.767056
Si Si6 0.577570 0.957194 0.981895
Si Si7 0.441420 0.610687 0.821286
Si Si8 0.308521 0.667602 0.641252
O O1 0.174430 0.266902 0.809902
O O2 0.247182 0.563173 0.956272
O O3 0.633088 0.638479 0.886714
O O4 0.094019 0.576167 0.187957
O O5 0.329327 0.413302 0.962737
O O6 0.038107 0.471855 0.658068
O O7 0.435710 0.166197 0.770410
O O8 0.781287 0.098486 0.255101
O O9 0.581070 0.183602 0.553137
O O10 0.171966 0.214363 0.225162
O O11 0.149432 0.708211 0.713251
O O12 0.000000 0.500000 0.500000
O O13 0.955154 0.012084 0.798120
O O14 0.566465 0.126699 0.194879
O O15 0.500000 0.000000 0.000000
O O16 0.365803 0.726243 0.919536
O O17 0.439913 0.402965 0.600421
#
# Coordination Sequence:
#
# PCOD9053063 Si02
#       8
#     2   2   2   2   2   2   2   2
#     4   9  19  37  54  90 132 155 187 243 302 371
#     4   9  22  33  53  92 128 164 197 229 296 373
#     4  11  20  35  61  93 131 158 188 236 307 381
#     4  11  18  34  57  95 133 159 188 233 305 381
#     4   9  19  40  58  82 128 155 188 260 302 350
#     4  11  27  44  62  86 115 162 221 263 293 345
#     4  11  23  38  62  92 123 162 199 241 308 366
#     4  11  22  40  63  85 122 168 198 248 309 353
#
# _framework density 25.167006000000001
#
# number of rings (size 3 to 8) (size 9 to 14) (size 15 to 20)
#    0.750    1.000    3.750    0.750    3.500    5.000 
#    0.000    0.625    0.000    3.000    0.000    0.000 
#    0.000    0.000    0.000    0.000    0.000    0.000 
#
# Total GULP energy -89467.571130 kJ/mol
# GULP energy per Si atom -5591.723196 kJ/mol
# Density = 2.510972 g / cm^3
# Si number density = 25.167006 Si / 1000 Ang^3
#
#
#
# Elastic Constant Matrix: (Units=GPa)
#
#
# Indices 1 2 3 4 5 6 
#
# 1 172.6936 6.7532 16.0398 1.2554 29.9720 -42.7055
# 2 6.7532 112.6287 -5.7145 -13.2094 5.0021 -41.4044
# 3 16.0398 -5.7145 44.5785 -0.6927 16.9045 -13.3352
# 4 1.2554 -13.2094 -0.6927 34.9935 -8.3803 7.8633
# 5 29.9720 5.0021 16.9045 -8.3803 34.1872 -0.7569
# 6 -42.7055 -41.4044 -13.3352 7.8633 -0.7569 41.4306
#
#
#
# Elastic Compliance Matrix: (Units=1/GPa)
#
#
# Indices 1 2 3 4 5 6 
#
# 1 0.020417 0.016910 0.020895 -0.012181 -0.032665 0.046385
# 2 0.016910 0.031593 0.028799 -0.009809 -0.034775 0.059499
# 3 0.020895 0.028799 0.061073 -0.018260 -0.055603 0.072425
# 4 -0.012181 -0.009809 -0.018260 0.040112 0.030195 -0.035297
# 5 -0.032665 -0.034775 -0.055603 0.030195 0.095873 -0.090299
# 6 0.046385 0.059499 0.072425 -0.035297 -0.090299 0.159772
#
#
# Mechanical properties :
#
#
# Convention : Reuss Voigt Hill
#
# Bulk Modulus (GPa) = 4.06027 40.45086 22.25556
# Shear Modulus (GPa) = 13.97704 42.97709 28.47706
#
# Velocity S-wave (km/s) = 2.35919 4.13689 3.36746
# Velocity P-wave (km/s) = 3.00630 6.23909 4.89715
#
# Compressibility (1/GPa) = 0.24628929
#
# Stress axis : x y z
#
# Youngs Moduli (GPa) = 48.97904 31.65247 16.37388
#
# Poissons Ratio (x) = -0.53524 -0.34212
# Poissons Ratio (y) = -0.82824 -0.47155
# Poissons Ratio (z) = -1.02339 -0.91155
#
# Static dielectric constant tensor:
#      x y z
#    x 2.249280 0.071510 -0.004530 
#    y 0.071510 2.054290 -0.000970 
#    z -0.004530 -0.000970 1.977730 
# 
# From -- ./inp_files/308193.got.cif
#   From: 2010.05.17/outbox.cif.g08.bks.cpg/sg2_155_cif.got.tgz:308193.got - 2010.06.03 11:33:40.
