data_PCOD9053465
_publ_section_title
;
Structure prediction by ZEFSAII (Michael W. Deem and Ramdas Pophale) SiO2 
 PCOD9053465
Probable space group: P -1
;
_chemical_formula_sum "Si O2"
_cell_formula_units_Z 16
_cell_length_a 15.847825
_cell_length_b 20.895997
_cell_length_c 9.702683
_cell_angle_alpha 35.800548
_cell_angle_beta 35.446354
_cell_angle_gamma 22.929104
_cell_volume 699.218859
_symmetry_space_group_name_H-M "P -1"
_symmetry_group_IT_number 2
_symmetry_cell_setting 'triclinic'
loop_
_space_group_symop_operation_xyz
x,y,z
-x,-y,-z
loop_
_atom_site_type_symbol
_atom_site_label
_atom_site_fract_x
_atom_site_fract_y
_atom_site_fract_z
Si Si1 0.612455 0.987825 0.663829
Si Si2 0.888035 0.593397 0.630797
Si Si3 0.931478 0.166461 0.326419
Si Si4 0.709134 0.725700 0.182407
Si Si5 0.403358 0.790694 0.001500
Si Si6 0.558759 0.606840 0.412150
Si Si7 0.219289 0.112760 0.805759
Si Si8 0.916936 0.213124 0.591850
O O1 0.833808 0.925917 0.433535
O O2 0.445007 0.156816 0.685291
O O3 0.464604 0.017030 0.691611
O O4 0.702047 0.836343 0.903342
O O5 0.894174 0.721305 0.412412
O O6 0.000000 0.500000 0.500000
O O7 0.038755 0.450543 0.797334
O O8 0.631507 0.698228 0.786315
O O9 0.667304 0.327733 0.355393
O O10 0.954712 0.177956 0.437424
O O11 0.000000 0.000000 0.500000
O O12 0.083982 0.158745 0.045074
O O13 0.602419 0.686516 0.309450
O O14 0.494148 0.684285 0.209464
O O15 0.244598 0.793042 0.137596
O O16 0.254858 0.980118 0.911583
O O17 0.775024 0.404368 0.474195
#
# Coordination Sequence:
#
# PCOD9053465 Si02
#       8
#     2   2   2   2   2   2   2   2
#     4  11  22  41  70 104 130 173 230 279 331 387
#     4  12  28  45  67  95 139 184 223 270 339 413
#     4  11  19  40  69 101 135 174 221 278 337 394
#     4  11  23  43  70 101 137 175 227 283 332 400
#     4  11  24  45  67  98 135 181 222 272 338 404
#     4  11  23  38  71 108 136 165 229 291 339 380
#     4  12  24  44  71  98 135 180 225 272 334 416
#     4  11  24  37  68 107 137 166 223 295 335 388
#
# _framework density 22.882677000000001
#
# number of rings (size 3 to 8) (size 9 to 14) (size 15 to 20)
#    0.000    0.750    5.000    4.875    5.250    1.000 
#    0.000    1.250    0.000    0.000    0.000    0.000 
#    0.000    0.000    0.000    0.000    0.000    0.000 
#
# Total GULP energy -89674.909192 kJ/mol
# GULP energy per Si atom -5604.681824 kJ/mol
# Density = 2.283060 g / cm^3
# Si number density = 22.882677 Si / 1000 Ang^3
#
#
#
# Elastic Constant Matrix: (Units=GPa)
#
#
# Indices 1 2 3 4 5 6 
#
# 1 32.4573 -12.6276 15.7750 8.4940 -12.4517 0.6588
# 2 -12.6276 92.4622 43.3300 4.2808 -4.1273 2.9461
# 3 15.7750 43.3300 110.8940 6.5705 -11.7719 -4.1639
# 4 8.4940 4.2808 6.5705 43.6812 -1.9290 -8.4419
# 5 -12.4517 -4.1273 -11.7719 -1.9290 36.3844 -2.9770
# 6 0.6588 2.9461 -4.1639 -8.4419 -2.9770 33.0222
#
#
#
# Elastic Compliance Matrix: (Units=1/GPa)
#
#
# Indices 1 2 3 4 5 6 
#
# 1 0.048302 0.012413 -0.009859 -0.009374 0.013887 -0.004459
# 2 0.012413 0.016583 -0.007836 -0.003357 0.003147 -0.003290
# 3 -0.009859 -0.007836 0.013566 0.001236 0.000434 0.002961
# 4 -0.009374 -0.003357 0.001236 0.026204 -0.001208 0.007232
# 5 0.013887 0.003147 0.000434 -0.001208 0.032846 0.002149
# 6 -0.004459 -0.003290 0.002961 0.007232 0.002149 0.033081
#
#
# Mechanical properties :
#
#
# Convention : Reuss Voigt Hill
#
# Bulk Modulus (GPa) = 14.73050 36.52981 25.63015
# Shear Modulus (GPa) = 24.53690 35.23996 29.88843
#
# Velocity S-wave (km/s) = 3.27814 3.92858 3.61800
# Velocity P-wave (km/s) = 4.55847 6.04788 5.35521
#
# Compressibility (1/GPa) = 0.06788635
#
# Stress axis : x y z
#
# Youngs Moduli (GPa) = 20.70321 60.30181 73.71424
#
# Poissons Ratio (x) = -0.74851 0.72675
# Poissons Ratio (y) = -0.25698 0.57762
# Poissons Ratio (z) = 0.20411 0.47252
#
# Static dielectric constant tensor:
#      x y z
#    x 1.837020 -0.008370 0.019240 
#    y -0.008370 1.848530 0.012700 
#    z 0.019240 0.012700 1.865890 
# 
# From -- ./inp_files/467419.got.cif
#   From: 2010.05.17/outbox.cif.g08.bks.cpg/sg2_234_cif.got.tgz:467419.got - 2010.06.03 11:33:40.
