data_PCOD9053583
_publ_section_title
;
Structure prediction by ZEFSAII (Michael W. Deem and Ramdas Pophale) SiO2 
 PCOD9053583
Probable space group: P -1
;
_chemical_formula_sum "Si O2"
_cell_formula_units_Z 16
_cell_length_a 22.755527
_cell_length_b 12.020272
_cell_length_c 10.924768
_cell_angle_alpha 24.250636
_cell_angle_beta 140.912983
_cell_angle_gamma 141.410524
_cell_volume 741.632482
_symmetry_space_group_name_H-M "P -1"
_symmetry_group_IT_number 2
_symmetry_cell_setting 'triclinic'
loop_
_space_group_symop_operation_xyz
x,y,z
-x,-y,-z
loop_
_atom_site_type_symbol
_atom_site_label
_atom_site_fract_x
_atom_site_fract_y
_atom_site_fract_z
Si Si1 0.760894 0.941900 0.856105
Si Si2 0.718173 0.410092 0.184570
Si Si3 0.025288 0.072196 0.798771
Si Si4 0.102129 0.549376 0.740244
Si Si5 0.280798 0.825790 0.920019
Si Si6 0.801761 0.102438 0.035035
Si Si7 0.074031 0.278832 0.398634
Si Si8 0.385091 0.424128 0.378937
O O1 0.702400 0.093476 0.521339
O O2 0.766612 0.080478 0.859883
O O3 0.872323 0.986855 0.946539
O O4 0.719831 0.607885 0.106039
O O5 0.823905 0.477068 0.221250
O O6 0.647296 0.479191 0.900796
O O7 0.047937 0.237729 0.540619
O O8 0.973496 0.269692 0.593239
O O9 0.950566 0.762046 0.982514
O O10 0.173639 0.715228 0.797044
O O11 0.336456 0.097284 0.658420
O O12 0.270086 0.887049 0.982860
O O13 0.337416 0.594219 0.226144
O O14 0.895273 0.386332 0.915858
O O15 0.828426 0.808579 0.385046
O O16 0.000000 0.000000 0.500000
O O17 0.500000 0.500000 0.500000
#
# Coordination Sequence:
#
# PCOD9053583 Si02
#       8
#     2   2   2   2   2   2   2   2
#     4  11  23  38  56  84 124 171 204 230 283 348
#     4  11  23  40  60  84 117 157 198 244 303 360
#     4  11  21  33  51  81 122 166 210 244 279 330
#     4  11  21  35  55  84 119 160 209 257 290 325
#     4  11  22  40  65  93 120 149 194 249 308 350
#     4  11  22  37  58  84 120 161 199 241 288 353
#     4  11  20  33  52  79 117 163 212 253 286 320
#     4  11  24  44  71  95 114 141 186 251 315 370
#
# _framework density 21.574028999999999
#
# number of rings (size 3 to 8) (size 9 to 14) (size 15 to 20)
#    0.000    1.000    0.000   10.500    0.000    3.000 
#    0.000    0.000    0.000    4.500    0.000    0.000 
#    0.000    0.000    0.000    0.000    0.000    0.000 
#
# Total GULP energy -89344.786368 kJ/mol
# GULP energy per Si atom -5584.049148 kJ/mol
# Density = 2.152493 g / cm^3
# Si number density = 21.574029 Si / 1000 Ang^3
#
#
#
# Elastic Constant Matrix: (Units=GPa)
#
#
# Indices 1 2 3 4 5 6 
#
# 1 13.3694 24.3620 -40.4442 -7.1438 -12.5362 -17.9946
# 2 24.3620 74.3042 30.1964 3.3241 9.1177 -5.5496
# 3 -40.4442 30.1964 65.5472 -26.0852 -23.5169 18.2174
# 4 -7.1438 3.3241 -26.0852 29.4319 -3.5193 7.6764
# 5 -12.5362 9.1177 -23.5169 -3.5193 2.1467 -0.7438
# 6 -17.9946 -5.5496 18.2174 7.6764 -0.7438 33.8857
#
#
#
# Elastic Compliance Matrix: (Units=1/GPa)
#
#
# Indices 1 2 3 4 5 6 
#
# 1 0.022193 0.003817 -0.011783 -0.015005 -0.032869 0.021423
# 2 0.003817 0.009896 0.002359 0.002721 0.011255 0.002010
# 3 -0.011783 0.002359 0.005791 0.002924 -0.014043 -0.009955
# 4 -0.015005 0.002721 0.002924 0.035341 -0.015259 -0.017436
# 5 -0.032869 0.011255 -0.014043 -0.015259 0.045980 -0.003596
# 6 0.021423 0.002010 -0.009955 -0.017436 -0.003596 0.050439
#
#
# Mechanical properties :
#
#
# Convention : Reuss Voigt Hill
#
# Bulk Modulus (GPa) = 37.50318 20.16101 28.83209
# Shear Modulus (GPa) = 26.35126 22.36664 24.35895
#
# Velocity S-wave (km/s) = 3.49869 3.22334 3.36383
# Velocity P-wave (km/s) = 5.80882 4.81856 5.33671
#
# Compressibility (1/GPa) = 0.02666441
#
# Stress axis : x y z
#
# Youngs Moduli (GPa) = 45.05922 101.05563 172.67660
#
# Poissons Ratio (x) = -0.38571 2.03467
# Poissons Ratio (y) = -0.17198 -0.40729
# Poissons Ratio (z) = 0.53094 -0.23836
#
# Static dielectric constant tensor:
#      x y z
#    x 1.754610 -0.048490 0.036540 
#    y -0.048490 1.877480 0.030040 
#    z 0.036540 0.030040 1.705190 
# 
# From -- ./inp_files/474820.got.cif
#   From: 2010.05.17/outbox.cif.g08.bks.cpg/sg2_238_cif.got.tgz:474820.got - 2010.06.03 11:33:40.
