data_PCOD9053712
_publ_section_title
;
Structure prediction by ZEFSAII (Michael W. Deem and Ramdas Pophale) SiO2 
 PCOD9053712
Probable space group: P -1
;
_chemical_formula_sum "Si O2"
_cell_formula_units_Z 16
_cell_length_a 16.749685
_cell_length_b 10.702238
_cell_length_c 9.631127
_cell_angle_alpha 122.119762
_cell_angle_beta 53.097331
_cell_angle_gamma 151.030648
_cell_volume 668.582774
_symmetry_space_group_name_H-M "P -1"
_symmetry_group_IT_number 2
_symmetry_cell_setting 'triclinic'
loop_
_space_group_symop_operation_xyz
x,y,z
-x,-y,-z
loop_
_atom_site_type_symbol
_atom_site_label
_atom_site_fract_x
_atom_site_fract_y
_atom_site_fract_z
Si Si1 0.886819 0.042829 0.394913
Si Si2 0.811457 0.301488 0.272829
Si Si3 0.398542 0.506375 0.687321
Si Si4 0.740294 0.392671 0.648931
Si Si5 0.733698 0.355317 0.098893
Si Si6 0.381505 0.465316 0.011677
Si Si7 0.903080 0.099503 0.081536
Si Si8 0.794578 0.220702 0.732968
O O1 0.890719 0.086097 0.252923
O O2 0.773731 0.029718 0.586619
O O3 0.083560 0.303181 0.393753
O O4 0.795630 0.774818 0.333049
O O5 0.693229 0.241486 0.473430
O O6 0.800777 0.373856 0.183807
O O7 0.786199 0.097083 0.154062
O O8 0.007091 0.540541 0.273325
O O9 0.500000 0.500000 0.500000
O O10 0.411247 0.695661 0.755306
O O11 0.423332 0.518583 0.834679
O O12 0.782768 0.320910 0.677727
O O13 0.618067 0.369737 0.828047
O O14 0.684836 0.158072 0.936015
O O15 0.897265 0.631642 0.012374
O O16 0.186051 0.156902 0.032343
O O17 0.500000 0.500000 0.000000
#
# Coordination Sequence:
#
# PCOD9053712 Si02
#       8
#     2   2   2   2   2   2   2   2
#     4  10  18  36  66  90 110 149 197 242 286 342
#     4  10  20  34  59  97 123 139 181 251 302 336
#     4  11  25  43  57  81 123 160 192 237 291 342
#     4  11  18  37  65  91 113 147 198 241 285 344
#     4  11  21  37  62  91 120 150 186 241 299 343
#     4  11  25  42  60  82 116 160 202 238 276 344
#     4  10  18  38  63  90 115 146 195 243 289 340
#     4  10  17  35  61  94 116 140 192 245 290 343
#
# _framework density 23.931215999999999
#
# number of rings (size 3 to 8) (size 9 to 14) (size 15 to 20)
#    0.000    1.500    5.000    3.000    1.750    2.000 
#    6.750    5.625    0.000    0.000    0.000    0.000 
#    0.000    0.000    0.000    0.000    0.000    0.000 
#
# Total GULP energy -89398.215712 kJ/mol
# GULP energy per Si atom -5587.388482 kJ/mol
# Density = 2.387675 g / cm^3
# Si number density = 23.931216 Si / 1000 Ang^3
#
#
#
# Elastic Constant Matrix: (Units=GPa)
#
#
# Indices 1 2 3 4 5 6 
#
# 1 50.1253 8.0097 36.0844 14.0781 -16.7558 -4.4937
# 2 8.0097 49.1824 9.6682 12.5266 -13.0610 2.3699
# 3 36.0844 9.6682 157.3755 23.6162 -39.5938 -12.6672
# 4 14.0781 12.5266 23.6162 26.2744 -13.3476 -15.2417
# 5 -16.7558 -13.0610 -39.5938 -13.3476 39.3332 2.6555
# 6 -4.4937 2.3699 -12.6672 -15.2417 2.6555 26.3701
#
#
#
# Elastic Compliance Matrix: (Units=1/GPa)
#
#
# Indices 1 2 3 4 5 6 
#
# 1 0.026855 0.000730 -0.003728 -0.011919 0.004195 -0.004592
# 2 0.000730 0.026942 0.001240 -0.019914 0.004671 -0.013682
# 3 -0.003728 0.001240 0.009504 -0.002344 0.007480 0.001711
# 4 -0.011919 -0.019914 -0.002344 0.092548 0.013932 0.050722
# 5 0.004195 0.004671 0.007480 0.013932 0.040488 0.007863
# 6 -0.004592 -0.013682 0.001711 0.050722 0.007863 0.067716
#
#
# Mechanical properties :
#
#
# Convention : Reuss Voigt Hill
#
# Bulk Modulus (GPa) = 16.72641 40.46753 28.59697
# Shear Modulus (GPa) = 17.39146 31.92359 24.65752
#
# Velocity S-wave (km/s) = 2.69871 3.65632 3.21339
# Velocity P-wave (km/s) = 4.08843 5.89674 5.07380
#
# Compressibility (1/GPa) = 0.05978571
#
# Stress axis : x y z
#
# Youngs Moduli (GPa) = 37.23650 37.11719 105.21783
#
# Poissons Ratio (x) = -0.02711 0.39224
# Poissons Ratio (y) = -0.02720 -0.13044
# Poissons Ratio (z) = 0.13882 -0.04602
#
# Static dielectric constant tensor:
#      x y z
#    x 1.858070 0.044530 -0.066490 
#    y 0.044530 2.010090 -0.058350 
#    z -0.066490 -0.058350 1.942010 
# 
# From -- ./inp_files/216684.got.cif
#   From: 2010.05.17/outbox.cif.g08.bks.cpg/sg2_109_cif.got.tgz:216684.got - 2010.06.03 11:33:40.
