data_PCOD9053527
_publ_section_title
;
Structure prediction by ZEFSAII (Michael W. Deem and Ramdas Pophale) SiO2 
 PCOD9053527
Probable space group: P -1
;
_chemical_formula_sum "Si O2"
_cell_formula_units_Z 16
_cell_length_a 7.743013
_cell_length_b 6.935866
_cell_length_c 14.533588
_cell_angle_alpha 87.484474
_cell_angle_beta 91.771912
_cell_angle_gamma 123.211907
_cell_volume 652.370306
_symmetry_space_group_name_H-M "P -1"
_symmetry_group_IT_number 2
_symmetry_cell_setting 'triclinic'
loop_
_space_group_symop_operation_xyz
x,y,z
-x,-y,-z
loop_
_atom_site_type_symbol
_atom_site_label
_atom_site_fract_x
_atom_site_fract_y
_atom_site_fract_z
Si Si1 0.224577 0.429601 0.088025
Si Si2 0.317395 0.242945 0.469044
Si Si3 0.808817 0.183968 0.193738
Si Si4 0.766009 0.051680 0.692462
Si Si5 0.608971 0.419491 0.099850
Si Si6 0.110715 0.422131 0.571962
Si Si7 0.381676 0.928985 0.117292
Si Si8 0.348530 0.919440 0.615636
O O1 0.433355 0.458310 0.131318
O O2 0.237188 0.670319 0.088226
O O3 0.013453 0.251547 0.140912
O O4 0.247152 0.401148 0.979925
O O5 0.500000 0.500000 0.500000
O O6 0.137046 0.249503 0.515681
O O7 0.268567 0.164038 0.363542
O O8 0.333390 0.049537 0.526624
O O9 0.745540 0.373653 0.172892
O O10 0.809937 0.135042 0.302624
O O11 0.597174 0.965641 0.155049
O O12 0.731718 0.030753 0.800696
O O13 0.976449 0.278992 0.659818
O O14 0.578627 0.075307 0.655288
O O15 0.468335 0.161440 0.055013
O O16 0.308259 0.669555 0.598388
O O17 0.000000 0.500000 0.500000
#
# Coordination Sequence:
#
# PCOD9053527 Si02
#       8
#     2   2   2   2   2   2   2   2
#     4  11  19  43  69  89 135 169 203 268 321 373
#     4  12  24  41  66  88 121 174 206 261 320 368
#     4   9  22  42  61  96 130 166 210 264 313 379
#     4  11  22  43  60  89 128 160 214 262 310 376
#     4   9  22  40  63 102 125 165 220 251 316 401
#     4  12  24  40  64  90 119 169 215 261 317 375
#     4   9  22  41  59  94 127 164 210 264 314 378
#     4  11  23  45  59  91 131 157 218 262 314 379
#
# _framework density 24.525945
#
# number of rings (size 3 to 8) (size 9 to 14) (size 15 to 20)
#    0.750    0.750    2.500    3.000    0.000    1.000 
#   13.500    1.250    0.000    0.000    0.000    0.000 
#    0.000    0.000    0.000    0.000    0.000    0.000 
#
# Total GULP energy -89191.756056 kJ/mol
# GULP energy per Si atom -5574.484754 kJ/mol
# Density = 2.447012 g / cm^3
# Si number density = 24.525945 Si / 1000 Ang^3
#
#
#
# Elastic Constant Matrix: (Units=GPa)
#
#
# Indices 1 2 3 4 5 6 
#
# 1 88.3327 18.9785 25.8671 -6.2199 -28.7298 -6.1186
# 2 18.9785 108.0079 14.3451 0.6450 -17.4929 5.6209
# 3 25.8671 14.3451 105.2946 -12.2073 -31.2073 7.8354
# 4 -6.2199 0.6450 -12.2073 21.7107 7.5799 -4.6854
# 5 -28.7298 -17.4929 -31.2073 7.5799 37.6991 -6.6239
# 6 -6.1186 5.6209 7.8354 -4.6854 -6.6239 31.4470
#
#
#
# Elastic Compliance Matrix: (Units=1/GPa)
#
#
# Indices 1 2 3 4 5 6 
#
# 1 0.016231 -0.001141 -0.000503 0.001488 0.012229 0.006285
# 2 -0.001141 0.010215 -0.000087 -0.002413 0.004013 -0.001540
# 3 -0.000503 -0.000087 0.012895 0.003668 0.009377 -0.000773
# 4 0.001488 -0.002413 0.003668 0.052183 -0.006344 0.006245
# 5 0.012229 0.004013 0.009377 -0.006344 0.048246 0.008543
# 6 0.006285 -0.001540 -0.000773 0.006245 0.008543 0.036220
#
#
# Mechanical properties :
#
#
# Convention : Reuss Voigt Hill
#
# Bulk Modulus (GPa) = 27.87123 46.66849 37.26986
# Shear Modulus (GPa) = 26.12186 34.33433 30.22810
#
# Velocity S-wave (km/s) = 3.26708 3.74561 3.51450
# Velocity P-wave (km/s) = 5.06166 6.14619 5.63010
#
# Compressibility (1/GPa) = 0.03587929
#
# Stress axis : x y z
#
# Youngs Moduli (GPa) = 61.61237 97.89435 77.55220
#
# Poissons Ratio (x) = 0.11165 0.03898
# Poissons Ratio (y) = 0.07027 0.00676
# Poissons Ratio (z) = 0.03097 0.00854
#
# Static dielectric constant tensor:
#      x y z
#    x 2.097620 0.066670 -0.093610 
#    y 0.066670 2.054060 0.001810 
#    z -0.093610 0.001810 2.006760 
# 
# From -- ./inp_files/552687.got.cif
#   From: 2010.05.17/outbox.cif.g08.bks.cpg/sg2_277_cif.got.tgz:552687.got - 2010.06.03 11:33:40.
