data_PCOD9053533
_publ_section_title
;
Structure prediction by ZEFSAII (Michael W. Deem and Ramdas Pophale) SiO2 
 PCOD9053533
Probable space group: P -1
;
_chemical_formula_sum "Si O2"
_cell_formula_units_Z 14
_cell_length_a 10.144996
_cell_length_b 12.667719
_cell_length_c 7.939790
_cell_angle_alpha 51.545461
_cell_angle_beta 113.112569
_cell_angle_gamma 131.026206
_cell_volume 602.603650
_symmetry_space_group_name_H-M "P -1"
_symmetry_group_IT_number 2
_symmetry_cell_setting 'triclinic'
loop_
_space_group_symop_operation_xyz
x,y,z
-x,-y,-z
loop_
_atom_site_type_symbol
_atom_site_label
_atom_site_fract_x
_atom_site_fract_y
_atom_site_fract_z
Si Si1 0.692425 0.639858 0.909798
Si Si2 0.167295 0.736205 0.852573
Si Si3 0.626661 0.407326 0.818934
Si Si4 0.918155 0.635563 0.528716
Si Si5 0.953048 0.231053 0.872256
Si Si6 0.200740 0.057174 0.509522
Si Si7 0.763393 0.845302 0.209054
O O1 0.710575 0.573987 0.804786
O O2 0.722942 0.813416 0.727828
O O3 0.500000 0.500000 0.000000
O O4 0.842152 0.675618 0.075328
O O5 0.013315 0.623940 0.752765
O O6 0.220970 0.911404 0.636845
O O7 0.311047 0.698685 0.962561
O O8 0.118634 0.740610 0.019509
O O9 0.720571 0.473481 0.617652
O O10 0.417456 0.296438 0.826571
O O11 0.888981 0.782922 0.355737
O O12 0.041126 0.679183 0.384554
O O13 0.860519 0.033443 0.004667
O O14 0.295445 0.143163 0.645049
O O15 0.000000 0.000000 0.500000
#
# Coordination Sequence:
#
# PCOD9053533 Si02
#       7
#     2   2   2   2   2   2   2
#     4  12  24  43  68 107 137 174 230 290 331 403
#     4  11  24  47  70  97 144 181 224 277 346 408
#     4  12  26  43  70 103 141 173 224 297 339 384
#     4  12  22  41  74  97 135 180 232 275 341 399
#     4  11  24  42  69  99 136 183 227 271 341 411
#     4  11  19  43  72  93 136 190 221 265 347 407
#     4  11  22  42  69 103 133 179 236 272 335 415
#
# _framework density 23.232516
#
# number of rings (size 3 to 8) (size 9 to 14) (size 15 to 20)
#    0.000    0.571    7.143    2.143    2.000    4.000 
#    0.000    2.857    0.000    0.000    0.000    0.000 
#    0.000    0.000    0.000    0.000    0.000    0.000 
#
# Total GULP energy -78166.906431 kJ/mol
# GULP energy per Si atom -5583.350459 kJ/mol
# Density = 2.317964 g / cm^3
# Si number density = 23.232516 Si / 1000 Ang^3
#
#
#
# Elastic Constant Matrix: (Units=GPa)
#
#
# Indices 1 2 3 4 5 6 
#
# 1 45.7656 11.1464 39.8953 -6.8103 13.1009 8.0539
# 2 11.1464 90.9193 22.9612 -1.2938 5.7831 3.4416
# 3 39.8953 22.9612 98.1798 -8.6073 -3.4344 4.6054
# 4 -6.8103 -1.2938 -8.6073 37.0340 -8.1415 3.3558
# 5 13.1009 5.7831 -3.4344 -8.1415 40.6890 -8.2501
# 6 8.0539 3.4416 4.6054 3.3558 -8.2501 27.1519
#
#
#
# Elastic Compliance Matrix: (Units=1/GPa)
#
#
# Indices 1 2 3 4 5 6 
#
# 1 0.047498 0.001020 -0.019318 0.001385 -0.020295 -0.017280
# 2 0.001020 0.011948 -0.003263 -0.000591 -0.002836 -0.002052
# 3 -0.019318 -0.003263 0.019096 0.002444 0.009924 0.005618
# 4 0.001385 -0.000591 0.002444 0.029183 0.005115 -0.002803
# 5 -0.020295 -0.002836 0.009924 0.005115 0.036445 0.015138
# 6 -0.017280 -0.002052 0.005618 -0.002803 0.015138 0.046209
#
#
# Mechanical properties :
#
#
# Convention : Reuss Voigt Hill
#
# Bulk Modulus (GPa) = 28.23228 42.54117 35.38672
# Shear Modulus (GPa) = 20.38258 31.69910 26.04084
#
# Velocity S-wave (km/s) = 2.96519 3.69782 3.35159
# Velocity P-wave (km/s) = 4.88892 6.04836 5.49928
#
# Compressibility (1/GPa) = 0.03542045
#
# Stress axis : x y z
#
# Youngs Moduli (GPa) = 21.05330 83.69911 52.36643
#
# Poissons Ratio (x) = -0.08538 1.01159
# Poissons Ratio (y) = -0.02148 0.17090
# Poissons Ratio (z) = 0.40670 0.27315
#
# Static dielectric constant tensor:
#      x y z
#    x 1.940330 -0.066680 -0.066840 
#    y -0.066680 1.978850 0.022990 
#    z -0.066840 0.022990 1.860630 
# 
# From -- ./inp_files/266902.got.cif
#   From: 2010.05.17/outbox.cif.g08.bks.cpg/sg2_134_cif.got.tgz:266902.got - 2010.06.03 11:33:40.
