data_PCOD9053590
_publ_section_title
;
Structure prediction by ZEFSAII (Michael W. Deem and Ramdas Pophale) SiO2 
 PCOD9053590
Probable space group: P -1
;
_chemical_formula_sum "Si O2"
_cell_formula_units_Z 16
_cell_length_a 6.608403
_cell_length_b 16.985942
_cell_length_c 11.391693
_cell_angle_alpha 30.095026
_cell_angle_beta 100.348189
_cell_angle_gamma 93.995512
_cell_volume 621.164165
_symmetry_space_group_name_H-M "P -1"
_symmetry_group_IT_number 2
_symmetry_cell_setting 'triclinic'
loop_
_space_group_symop_operation_xyz
x,y,z
-x,-y,-z
loop_
_atom_site_type_symbol
_atom_site_label
_atom_site_fract_x
_atom_site_fract_y
_atom_site_fract_z
Si Si1 0.415764 0.465535 0.662458
Si Si2 0.430433 0.000568 0.296576
Si Si3 0.223466 0.470523 0.993850
Si Si4 0.791310 0.881948 0.634123
Si Si5 0.101284 0.261855 0.823538
Si Si6 0.169576 0.720986 0.005768
Si Si7 0.471799 0.317273 0.413217
Si Si8 0.051161 0.365483 0.424108
O O1 0.500000 0.500000 0.500000
O O2 0.194608 0.413916 0.686978
O O3 0.581075 0.318914 0.922208
O O4 0.429535 0.617186 0.547164
O O5 0.675001 0.980649 0.385873
O O6 0.414661 0.832814 0.452564
O O7 0.308536 0.041038 0.355041
O O8 0.307308 0.127343 0.030752
O O9 0.266178 0.295400 0.164548
O O10 0.391382 0.462227 0.126473
O O11 0.000000 0.500000 0.000000
O O12 0.161596 0.600505 0.717849
O O13 0.039142 0.832164 0.749673
O O14 0.040487 0.284651 0.652852
O O15 0.924335 0.228756 0.939405
O O16 0.111988 0.542470 0.215897
O O17 0.249543 0.272339 0.493694
#
# Coordination Sequence:
#
# PCOD9053590 Si02
#       8
#     2   2   2   2   2   2   2   2
#     4  11  21  35  55  85 112 142 184 232 280 328
#     4   9  18  31  54  81 109 149 186 219 275 337
#     4   8  14  26  50  78 101 136 187 226 267 317
#     4   8  15  31  53  76 106 148 186 219 267 335
#     4  11  20  33  56  87 108 144 186 226 280 331
#     4   9  18  33  56  79 106 145 183 229 267 324
#     4   9  17  32  51  77 110 145 180 228 275 327
#     4   9  16  28  49  79 104 135 182 229 266 321
#
# _framework density 25.758085999999999
#
# number of rings (size 3 to 8) (size 9 to 14) (size 15 to 20)
#    0.000    2.750    2.500    1.125    0.000    0.500 
#    0.000    0.625    0.000   36.000    0.000    0.000 
#    0.000    0.000    0.000    0.000    0.000    0.000 
#
# Total GULP energy -89415.220317 kJ/mol
# GULP energy per Si atom -5588.451270 kJ/mol
# Density = 2.569946 g / cm^3
# Si number density = 25.758086 Si / 1000 Ang^3
#
#
#
# Elastic Constant Matrix: (Units=GPa)
#
#
# Indices 1 2 3 4 5 6 
#
# 1 68.2410 31.4027 17.9419 3.8845 20.2822 5.8307
# 2 31.4027 176.8668 61.5989 8.1117 10.5605 -1.0253
# 3 17.9419 61.5989 144.5450 22.3043 36.5744 7.0269
# 4 3.8845 8.1117 22.3043 54.2247 2.1763 8.3051
# 5 20.2822 10.5605 36.5744 2.1763 33.6815 12.2200
# 6 5.8307 -1.0253 7.0269 8.3051 12.2200 47.2966
#
#
#
# Elastic Compliance Matrix: (Units=1/GPa)
#
#
# Indices 1 2 3 4 5 6 
#
# 1 0.019757 -0.003576 0.002851 -0.001639 -0.014130 0.001002
# 2 -0.003576 0.007339 -0.003747 0.000535 0.003863 0.000065
# 3 0.002851 -0.003747 0.012439 -0.004524 -0.014585 0.002282
# 4 -0.001639 0.000535 -0.004524 0.020760 0.005950 -0.004297
# 5 -0.014130 0.003863 -0.014585 0.005950 0.056684 -0.011698
# 6 0.001002 0.000065 0.002282 -0.004297 -0.011698 0.024459
#
#
# Mechanical properties :
#
#
# Convention : Reuss Voigt Hill
#
# Bulk Modulus (GPa) = 32.68907 67.94889 50.31898
# Shear Modulus (GPa) = 31.13743 45.62117 38.37930
#
# Velocity S-wave (km/s) = 3.48061 4.21306 3.86423
# Velocity P-wave (km/s) = 5.37319 7.07837 6.28389
#
# Compressibility (1/GPa) = 0.03059127
#
# Stress axis : x y z
#
# Youngs Moduli (GPa) = 50.61424 136.25722 80.39458
#
# Poissons Ratio (x) = 0.48729 -0.22922
# Poissons Ratio (y) = 0.18101 0.30122
# Poissons Ratio (z) = -0.14431 0.51053
#
# Static dielectric constant tensor:
#      x y z
#    x 2.247290 0.012540 -0.020520 
#    y 0.012540 1.991070 -0.000600 
#    z -0.020520 -0.000600 2.093350 
# 
# From -- ./inp_files/398426.got.cif
#   From: 2010.05.17/outbox.cif.g08.bks.cpg/sg2_200_cif.got.tgz:398426.got - 2010.06.03 11:33:40.
