data_PCOD9053434
_publ_section_title
;
Structure prediction by ZEFSAII (Michael W. Deem and Ramdas Pophale) SiO2 
 PCOD9053434
Probable space group: P -1
;
_chemical_formula_sum "Si O2"
_cell_formula_units_Z 14
_cell_length_a 10.521946
_cell_length_b 8.720892
_cell_length_c 8.240476
_cell_angle_alpha 66.188271
_cell_angle_beta 76.875348
_cell_angle_gamma 65.832557
_cell_volume 629.422091
_symmetry_space_group_name_H-M "P -1"
_symmetry_group_IT_number 2
_symmetry_cell_setting 'triclinic'
loop_
_space_group_symop_operation_xyz
x,y,z
-x,-y,-z
loop_
_atom_site_type_symbol
_atom_site_label
_atom_site_fract_x
_atom_site_fract_y
_atom_site_fract_z
Si Si1 0.832452 0.768786 0.342142
Si Si2 0.362439 0.683443 0.436477
Si Si3 0.518047 0.305360 0.143909
Si Si4 0.816065 0.144739 0.280513
Si Si5 0.958570 0.360725 0.963048
Si Si6 0.747417 0.508398 0.691800
Si Si7 0.487509 0.041983 0.682987
O O1 0.835791 0.601524 0.523808
O O2 0.673850 0.841944 0.292233
O O3 0.935089 0.716964 0.182427
O O4 0.855838 0.929949 0.369069
O O5 0.500000 0.500000 0.500000
O O6 0.250800 0.738423 0.591790
O O7 0.274037 0.657241 0.320951
O O8 0.417795 0.846885 0.340793
O O9 0.679861 0.208248 0.177256
O O10 0.411368 0.356445 0.303722
O O11 0.476479 0.145196 0.149060
O O12 0.500000 0.500000 0.000000
O O13 0.935268 0.206205 0.144053
O O14 0.813167 0.464749 0.868291
O O15 0.000000 0.500000 0.000000
O O16 0.500000 0.000000 0.500000
#
# Coordination Sequence:
#
# PCOD9053434 Si02
#       7
#     2   2   2   2   2   2   2
#     4  11  22  44  68  95 133 177 223 261 322 403
#     4  12  20  37  73 105 129 167 218 276 330 390
#     4  11  20  39  67  98 135 165 213 280 330 385
#     4  11  22  42  69  96 136 171 213 276 335 381
#     4  12  28  45  64  91 134 183 221 269 327 390
#     4  12  23  41  69  98 131 170 225 266 327 392
#     4  11  19  39  70 100 131 169 213 272 332 388
#
# _framework density 22.242625
#
# number of rings (size 3 to 8) (size 9 to 14) (size 15 to 20)
#    0.000    0.571    8.571    1.714    0.000    0.000 
#    0.000    7.857    0.000    0.000    0.000    0.000 
#    0.000    0.000    0.000    0.000    0.000    0.000 
#
# Total GULP energy -78098.056268 kJ/mol
# GULP energy per Si atom -5578.432591 kJ/mol
# Density = 2.219200 g / cm^3
# Si number density = 22.242625 Si / 1000 Ang^3
#
#
#
# Elastic Constant Matrix: (Units=GPa)
#
#
# Indices 1 2 3 4 5 6 
#
# 1 77.9297 40.0037 34.5152 -6.8619 -12.6779 35.4349
# 2 40.0037 101.4817 31.7257 -7.7247 -4.2151 32.2556
# 3 34.5152 31.7257 58.5102 -2.0397 -25.4941 15.6439
# 4 -6.8619 -7.7247 -2.0397 41.7128 -1.9508 -16.1060
# 5 -12.6779 -4.2151 -25.4941 -1.9508 44.3005 8.8803
# 6 35.4349 32.2556 15.6439 -16.1060 8.8803 46.9485
#
#
#
# Elastic Compliance Matrix: (Units=1/GPa)
#
#
# Indices 1 2 3 4 5 6 
#
# 1 0.026073 -0.002464 -0.006029 -0.003254 0.007318 -0.018478
# 2 -0.002464 0.014331 -0.005131 -0.000459 -0.001065 -0.006233
# 3 -0.006029 -0.005131 0.033244 -0.002254 0.018268 -0.007230
# 4 -0.003254 -0.000459 -0.002254 0.028475 -0.003827 0.014015
# 5 0.007318 -0.001065 0.018268 -0.003827 0.038826 -0.019536
# 6 -0.018478 -0.006233 -0.007230 0.014015 -0.019536 0.050441
#
#
# Mechanical properties :
#
#
# Convention : Reuss Voigt Hill
#
# Bulk Modulus (GPa) = 21.55122 50.04566 35.79844
# Shear Modulus (GPa) = 21.35794 35.37081 28.36438
#
# Velocity S-wave (km/s) = 3.10211 3.99209 3.57490
# Velocity P-wave (km/s) = 4.74774 6.61799 5.75929
#
# Compressibility (1/GPa) = 0.04640108
#
# Stress axis : x y z
#
# Youngs Moduli (GPa) = 38.35390 69.77795 30.08073
#
# Poissons Ratio (x) = 0.17191 0.18135
# Poissons Ratio (y) = 0.09449 0.15434
# Poissons Ratio (z) = 0.23123 0.35803
#
# Static dielectric constant tensor:
#      x y z
#    x 1.827440 -0.005420 0.010480 
#    y -0.005420 1.903960 -0.031310 
#    z 0.010480 -0.031310 1.919740 
# 
# From -- ./inp_files/157107.got.cif
#   From: 2010.05.17/outbox.cif.g08.bks.cpg/sg2_79_cif.got.tgz:157107.got - 2010.06.03 11:33:40.
