data_PCOD9053803
_publ_section_title
;
Structure prediction by ZEFSAII (Michael W. Deem and Ramdas Pophale) SiO2 
 PCOD9053803
Probable space group: P -1
;
_chemical_formula_sum "Si O2"
_cell_formula_units_Z 16
_cell_length_a 11.194433
_cell_length_b 9.441404
_cell_length_c 8.149102
_cell_angle_alpha 129.635014
_cell_angle_beta 73.895259
_cell_angle_gamma 115.263546
_cell_volume 599.840189
_symmetry_space_group_name_H-M "P -1"
_symmetry_group_IT_number 2
_symmetry_cell_setting 'triclinic'
loop_
_space_group_symop_operation_xyz
x,y,z
-x,-y,-z
loop_
_atom_site_type_symbol
_atom_site_label
_atom_site_fract_x
_atom_site_fract_y
_atom_site_fract_z
Si Si1 0.523691 0.526735 0.312422
Si Si2 0.818000 0.808349 0.422178
Si Si3 0.172370 0.892274 0.607628
Si Si4 0.574683 0.904970 0.112781
Si Si5 0.139949 0.561696 0.780456
Si Si6 0.731630 0.419890 0.618586
Si Si7 0.036128 0.232206 0.149291
Si Si8 0.310144 0.919093 0.151668
O O1 0.500000 0.500000 0.500000
O O2 0.673496 0.656369 0.323593
O O3 0.422538 0.626988 0.358434
O O4 0.481301 0.322316 0.082247
O O5 0.898134 0.667172 0.335005
O O6 0.874224 0.953582 0.358867
O O7 0.781788 0.954695 0.670324
O O8 0.226930 0.729202 0.392472
O O9 0.046422 0.750381 0.646404
O O10 0.302384 0.021480 0.755647
O O11 0.442992 0.959738 0.238192
O O12 0.636962 0.008614 0.996299
O O13 0.222914 0.592472 0.598737
O O14 0.027617 0.661237 0.878817
O O15 0.231159 0.692172 0.984159
O O16 0.811541 0.642473 0.801528
O O17 0.000000 0.000000 0.000000
#
# Coordination Sequence:
#
# PCOD9053803 Si02
#       8
#     2   2   2   2   2   2   2   2
#     4  12  21  38  70 103 140 181 231 277 343 418
#     4  12  26  42  69 108 147 178 218 296 365 392
#     4  11  25  45  65 104 144 178 229 296 348 402
#     4  11  20  37  65 100 137 187 233 279 328 420
#     4  11  22  44  69  99 135 181 235 277 338 425
#     4  11  22  43  73  97 134 187 237 282 334 411
#     4  11  25  47  77 101 128 187 244 279 334 420
#     4  11  21  38  68 100 136 184 236 272 344 418
#
# _framework density 26.673770999999999
#
# number of rings (size 3 to 8) (size 9 to 14) (size 15 to 20)
#    0.000    0.750    6.250    3.000    1.750    2.500 
#    4.500    3.125    0.000    0.000    0.000    0.000 
#    0.000    0.000    0.000    0.000    0.000    0.000 
#
# Total GULP energy -89518.659891 kJ/mol
# GULP energy per Si atom -5594.916243 kJ/mol
# Density = 2.661306 g / cm^3
# Si number density = 26.673771 Si / 1000 Ang^3
#
#
#
# Elastic Constant Matrix: (Units=GPa)
#
#
# Indices 1 2 3 4 5 6 
#
# 1 103.4597 23.2672 33.3066 18.7878 5.5323 -21.3879
# 2 23.2672 102.3576 29.1767 30.1222 -9.5217 -20.7350
# 3 33.3066 29.1767 110.2262 46.5109 10.7728 -5.5471
# 4 18.7878 30.1222 46.5109 51.5825 2.5254 -10.6653
# 5 5.5323 -9.5217 10.7728 2.5254 36.8366 19.0061
# 6 -21.3879 -20.7350 -5.5471 -10.6653 19.0061 50.2067
#
#
#
# Elastic Compliance Matrix: (Units=1/GPa)
#
#
# Indices 1 2 3 4 5 6 
#
# 1 0.012314 -0.001255 -0.002712 0.000203 -0.004600 0.006212
# 2 -0.001255 0.012757 -0.000572 -0.006151 0.002907 0.002263
# 3 -0.002712 -0.000572 0.015734 -0.013016 -0.002736 -0.001383
# 4 0.000203 -0.006151 -0.013016 0.035750 -0.002703 0.004726
# 5 -0.004600 0.002907 -0.002736 -0.002703 0.037802 -0.015946
# 6 0.006212 0.002263 -0.001383 0.004726 -0.015946 0.030386
#
#
# Mechanical properties :
#
#
# Convention : Reuss Voigt Hill
#
# Bulk Modulus (GPa) = 31.52046 54.17160 42.84603
# Shear Modulus (GPa) = 30.41390 43.07802 36.74596
#
# Velocity S-wave (km/s) = 3.38037 4.02306 3.71564
# Velocity P-wave (km/s) = 5.20371 6.47557 5.87417
#
# Compressibility (1/GPa) = 0.03172542
#
# Stress axis : x y z
#
# Youngs Moduli (GPa) = 81.20588 78.38715 63.55860
#
# Poissons Ratio (x) = 0.09840 0.17238
# Poissons Ratio (y) = 0.10194 0.03638
# Poissons Ratio (z) = 0.22024 0.04487
#
# Static dielectric constant tensor:
#      x y z
#    x 2.118890 -0.040530 -0.046810 
#    y -0.040530 2.098230 -0.076440 
#    z -0.046810 -0.076440 2.230990 
# 
# From -- ./inp_files/245997.got.cif
#   From: 2010.05.17/outbox.cif.g08.bks.cpg/sg2_123_cif.got.tgz:245997.got - 2010.06.03 11:33:40.
