data_PCOD9053116
_publ_section_title
;
Structure prediction by ZEFSAII (Michael W. Deem and Ramdas Pophale) SiO2 
 PCOD9053116
Probable space group: P -1
;
_chemical_formula_sum "Si O2"
_cell_formula_units_Z 16
_cell_length_a 6.680435
_cell_length_b 13.057601
_cell_length_c 9.024068
_cell_angle_alpha 60.943602
_cell_angle_beta 75.168438
_cell_angle_gamma 99.806485
_cell_volume 623.430141
_symmetry_space_group_name_H-M "P -1"
_symmetry_group_IT_number 2
_symmetry_cell_setting 'triclinic'
loop_
_space_group_symop_operation_xyz
x,y,z
-x,-y,-z
loop_
_atom_site_type_symbol
_atom_site_label
_atom_site_fract_x
_atom_site_fract_y
_atom_site_fract_z
Si Si1 0.237504 0.283492 0.412715
Si Si2 0.756175 0.905428 0.703223
Si Si3 0.466612 0.440542 0.839317
Si Si4 0.983673 0.628525 0.848225
Si Si5 0.467225 0.939991 0.214004
Si Si6 0.059725 0.886093 0.904695
Si Si7 0.708042 0.286127 0.031272
Si Si8 0.333888 0.245214 0.744634
O O1 0.251321 0.163658 0.404020
O O2 0.458542 0.410002 0.275167
O O3 0.052216 0.327466 0.338125
O O4 0.214974 0.257282 0.607886
O O5 0.720364 0.033804 0.668331
O O6 0.970505 0.897383 0.750093
O O7 0.531369 0.812339 0.884697
O O8 0.672574 0.409452 0.893826
O O9 0.412155 0.370084 0.742020
O O10 0.246778 0.377658 0.023281
O O11 0.000000 0.500000 0.000000
O O12 0.214017 0.718579 0.811553
O O13 0.458451 0.798328 0.297931
O O14 0.702915 0.009490 0.199801
O O15 0.500000 0.000000 0.000000
O O16 0.844214 0.870527 0.052716
O O17 0.891863 0.238301 0.961073
#
# Coordination Sequence:
#
# PCOD9053116 Si02
#       8
#     2   2   2   2   2   2   2   2
#     4  12  25  41  66 102 144 171 215 280 346 387
#     4  11  22  42  70 100 129 176 231 274 324 401
#     4  12  23  45  69  95 135 185 229 262 324 413
#     4  12  22  39  69  94 127 181 229 265 316 398
#     4  11  24  43  77  99 124 178 234 272 327 398
#     4  11  21  42  73  97 128 174 235 269 325 401
#     4  11  18  37  71  94 125 169 236 267 310 382
#     4  12  24  44  65 103 139 174 215 286 339 389
#
# _framework density 25.664465
#
# number of rings (size 3 to 8) (size 9 to 14) (size 15 to 20)
#    0.000    0.500    7.500    2.625    0.000    0.500 
#    0.000    8.125    0.000    0.000    0.000    0.000 
#    0.000    0.000    0.000    0.000    0.000    0.000 
#
# Total GULP energy -89236.850015 kJ/mol
# GULP energy per Si atom -5577.303126 kJ/mol
# Density = 2.560605 g / cm^3
# Si number density = 25.664465 Si / 1000 Ang^3
#
#
#
# Elastic Constant Matrix: (Units=GPa)
#
#
# Indices 1 2 3 4 5 6 
#
# 1 162.5209 60.5493 38.9320 27.2689 15.2401 -7.2471
# 2 60.5493 110.4397 54.1286 27.4563 8.0913 -5.8048
# 3 38.9320 54.1286 85.5797 29.6754 23.5384 6.6930
# 4 27.2689 27.4563 29.6754 44.9422 13.2317 0.9225
# 5 15.2401 8.0913 23.5384 13.2317 40.9078 10.0333
# 6 -7.2471 -5.8048 6.6930 0.9225 10.0333 58.9033
#
#
#
# Elastic Compliance Matrix: (Units=1/GPa)
#
#
# Indices 1 2 3 4 5 6 
#
# 1 0.008121 -0.003619 -0.000307 -0.002027 -0.001723 0.001003
# 2 -0.003619 0.015688 -0.008368 -0.002971 0.003659 0.001475
# 3 -0.000307 -0.008368 0.021822 -0.006665 -0.008179 -0.001844
# 4 -0.002027 -0.002971 -0.006665 0.031171 -0.005048 0.000587
# 5 -0.001723 0.003659 -0.008179 -0.005048 0.031745 -0.004250
# 6 0.001003 0.001475 -0.001844 0.000587 -0.004250 0.018170
#
#
# Mechanical properties :
#
#
# Convention : Reuss Voigt Hill
#
# Bulk Modulus (GPa) = 47.52042 73.97334 60.74688
# Shear Modulus (GPa) = 31.58146 42.61269 37.09708
#
# Velocity S-wave (km/s) = 3.51173 4.07919 3.80605
# Velocity P-wave (km/s) = 5.91601 7.14649 6.56016
#
# Compressibility (1/GPa) = 0.02104358
#
# Stress axis : x y z
#
# Youngs Moduli (GPa) = 123.13090 63.74191 45.82468
#
# Poissons Ratio (x) = 0.23070 0.01406
# Poissons Ratio (y) = 0.44564 0.38346
# Poissons Ratio (z) = 0.03779 0.53339
#
# Static dielectric constant tensor:
#      x y z
#    x 1.987680 -0.109920 0.028170 
#    y -0.109920 2.344340 0.005620 
#    z 0.028170 0.005620 2.030370 
# 
# From -- ./inp_files/138950.got.cif
#   From: 2010.05.17/outbox.cif.g08.bks.cpg/sg2_70_cif.got.tgz:138950.got - 2010.06.03 11:33:40.
