data_PCOD9053375
_publ_section_title
;
Structure prediction by ZEFSAII (Michael W. Deem and Ramdas Pophale) SiO2 
 PCOD9053375
Probable space group: P -1
;
_chemical_formula_sum "Si O2"
_cell_formula_units_Z 12
_cell_length_a 12.003367
_cell_length_b 16.465958
_cell_length_c 13.261700
_cell_angle_alpha 156.637045
_cell_angle_beta 143.185412
_cell_angle_gamma 25.987347
_cell_volume 450.854118
_symmetry_space_group_name_H-M "P -1"
_symmetry_group_IT_number 2
_symmetry_cell_setting 'triclinic'
loop_
_space_group_symop_operation_xyz
x,y,z
-x,-y,-z
loop_
_atom_site_type_symbol
_atom_site_label
_atom_site_fract_x
_atom_site_fract_y
_atom_site_fract_z
Si Si1 0.136946 0.621519 0.089388
Si Si2 0.708483 0.902527 0.954898
Si Si3 0.733351 0.510048 0.405095
Si Si4 0.669178 0.175250 0.871843
Si Si5 0.541575 0.545542 0.693556
Si Si6 0.607003 0.980658 0.406194
O O1 0.907201 0.862316 0.127225
O O2 0.385853 0.473176 0.031816
O O3 0.158270 0.358077 0.821637
O O4 0.194163 0.662766 0.289313
O O5 0.857008 0.609075 0.667394
O O6 0.500000 0.000000 0.000000
O O7 0.559958 0.147520 0.043566
O O8 0.648558 0.435329 0.351738
O O9 0.498817 0.805866 0.518475
O O10 0.834459 0.253975 0.110130
O O11 0.633111 0.986089 0.692771
O O12 0.689566 0.076501 0.662229
O O13 0.500000 0.500000 0.500000
#
# Coordination Sequence:
#
# PCOD9053375 Si02
#       6
#     2   2   2   2   2   2
#     4   9  21  41  63  87 122 162 192 254 306 346
#     4  12  24  41  59  88 125 159 207 252 292 360
#     4  11  19  38  62  87 126 155 195 258 292 352
#     4   8  18  37  65  91 116 161 200 244 304 358
#     4  11  23  43  59  88 120 161 207 251 298 356
#     4   9  17  38  68  87 120 157 202 247 303 353
#
# _framework density 26.616149
#
# number of rings (size 3 to 8) (size 9 to 14) (size 15 to 20)
#    1.000    1.000    3.333    0.500    0.000    1.333 
#    6.000    1.667    0.000    0.000    0.000    0.000 
#    0.000    0.000    0.000    0.000    0.000    0.000 
#
# Total GULP energy -66815.922539 kJ/mol
# GULP energy per Si atom -5567.993545 kJ/mol
# Density = 2.655557 g / cm^3
# Si number density = 26.616149 Si / 1000 Ang^3
#
#
#
# Elastic Constant Matrix: (Units=GPa)
#
#
# Indices 1 2 3 4 5 6 
#
# 1 21.3221 3.8483 -2.7341 8.0843 5.7491 16.6995
# 2 3.8483 117.2006 14.2203 -12.7419 1.9839 21.9853
# 3 -2.7341 14.2203 215.8252 -34.9741 -1.0706 12.0825
# 4 8.0843 -12.7419 -34.9741 53.5055 21.3807 2.2599
# 5 5.7491 1.9839 -1.0706 21.3807 31.1780 3.6977
# 6 16.6995 21.9853 12.0825 2.2599 3.6977 41.9553
#
#
#
# Elastic Compliance Matrix: (Units=1/GPa)
#
#
# Indices 1 2 3 4 5 6 
#
# 1 0.074458 0.002567 0.001497 -0.005905 -0.006169 -0.030551
# 2 0.002567 0.010033 0.000291 0.003580 -0.002809 -0.006308
# 3 0.001497 0.000291 0.005526 0.004800 -0.003121 -0.002323
# 4 -0.005905 0.003580 0.004800 0.031900 -0.020755 -0.000797
# 5 -0.006169 -0.002809 -0.003121 -0.020755 0.047306 0.001775
# 6 -0.030551 -0.006308 -0.002323 -0.000797 0.001775 0.039856
#
#
# Mechanical properties :
#
#
# Convention : Reuss Voigt Hill
#
# Bulk Modulus (GPa) = 10.12896 42.77966 26.45431
# Shear Modulus (GPa) = 21.43366 47.92864 34.68115
#
# Velocity S-wave (km/s) = 2.84084 4.24811 3.61364
# Velocity P-wave (km/s) = 3.81763 6.33795 5.23182
#
# Compressibility (1/GPa) = 0.09872680
#
# Stress axis : x y z
#
# Youngs Moduli (GPa) = 13.43030 99.67153 180.97513
#
# Poissons Ratio (x) = -0.25586 -0.27092
# Poissons Ratio (y) = -0.03448 -0.05264
# Poissons Ratio (z) = -0.02011 -0.02899
#
# Static dielectric constant tensor:
#      x y z
#    x 2.097590 -0.123440 0.081000 
#    y -0.123440 2.301730 -0.105630 
#    z 0.081000 -0.105630 2.314980 
# 
# From -- ./inp_files/453370.got.cif
#   From: 2010.05.17/outbox.cif.g08.bks.cpg/sg2_227_cif.got.tgz:453370.got - 2010.06.03 11:33:40.
