data_PCOD9053930
_publ_section_title
;
Structure prediction by ZEFSAII (Michael W. Deem and Ramdas Pophale) SiO2 
 PCOD9053930
Probable space group: P -1
;
_chemical_formula_sum "Si O2"
_cell_formula_units_Z 12
_cell_length_a 11.672749
_cell_length_b 6.398222
_cell_length_c 13.698118
_cell_angle_alpha 56.662949
_cell_angle_beta 132.678627
_cell_angle_gamma 106.212692
_cell_volume 621.051641
_symmetry_space_group_name_H-M "P -1"
_symmetry_group_IT_number 2
_symmetry_cell_setting 'triclinic'
loop_
_space_group_symop_operation_xyz
x,y,z
-x,-y,-z
loop_
_atom_site_type_symbol
_atom_site_label
_atom_site_fract_x
_atom_site_fract_y
_atom_site_fract_z
Si Si1 0.003463 0.589782 0.652637
Si Si2 0.949164 0.301837 0.892153
Si Si3 0.445135 0.309448 0.096633
Si Si4 0.777998 0.427899 0.939125
Si Si5 0.751563 0.008610 0.303745
Si Si6 0.224567 0.115932 0.859296
O O1 0.090254 0.353557 0.701506
O O2 0.947127 0.448450 0.750982
O O3 0.860789 0.769082 0.473958
O O4 0.137029 0.771935 0.702178
O O5 0.789213 0.389527 0.838957
O O6 0.095249 0.394803 0.007376
O O7 0.000000 0.000000 0.000000
O O8 0.318690 0.182544 0.992712
O O9 0.602410 0.113030 0.257122
O O10 0.500000 0.500000 0.000000
O O11 0.373385 0.454446 0.114644
O O12 0.836155 0.145134 0.084527
O O13 0.686720 0.938255 0.178431
#
# Coordination Sequence:
#
# PCOD9053930 Si02
#       6
#     2   2   2   2   2   2
#     4  11  22  40  58  92 120 153 195 247 301 342
#     4  11  20  39  62  86 115 155 201 245 282 354
#     4  12  21  37  58  90 120 157 198 240 294 350
#     4  11  22  34  61  91 112 148 208 242 289 339
#     4  11  24  37  59  90 128 150 191 246 302 354
#     4  12  19  38  60  89 117 154 202 241 290 352
#
# _framework density 19.322064999999998
#
# number of rings (size 3 to 8) (size 9 to 14) (size 15 to 20)
#    0.000    0.667    8.333    1.000    0.000    0.000 
#    0.000    0.833    0.000    4.000    0.000    0.000 
#    0.000    0.000    0.000    0.000    0.000    0.000 
#
# Total GULP energy -66865.253077 kJ/mol
# GULP energy per Si atom -5572.104423 kJ/mol
# Density = 1.927809 g / cm^3
# Si number density = 19.322065 Si / 1000 Ang^3
#
#
#
# Elastic Constant Matrix: (Units=GPa)
#
#
# Indices 1 2 3 4 5 6 
#
# 1 142.6880 35.6758 39.6578 -17.5498 0.8525 -32.3688
# 2 35.6758 103.2554 44.3802 -32.5716 0.5797 -3.6901
# 3 39.6578 44.3802 91.4159 -25.4540 10.3121 -2.0639
# 4 -17.5498 -32.5716 -25.4540 30.5379 -1.1878 -1.1733
# 5 0.8525 0.5797 10.3121 -1.1878 33.5904 -3.9633
# 6 -32.3688 -3.6901 -2.0639 -1.1733 -3.9633 30.7880
#
#
#
# Elastic Compliance Matrix: (Units=1/GPa)
#
#
# Indices 1 2 3 4 5 6 
#
# 1 0.011325 -0.001016 -0.003582 0.002990 0.002347 0.011960
# 2 -0.001016 0.015881 -0.003680 0.013396 0.001508 0.001293
# 3 -0.003582 -0.003680 0.016965 0.007823 -0.005183 -0.003439
# 4 0.002990 0.013396 0.007823 0.055563 0.000130 0.007408
# 5 0.002347 0.001508 -0.005183 0.000130 0.032039 0.006430
# 6 0.011960 0.001293 -0.003439 0.007408 0.006430 0.046089
#
#
# Mechanical properties :
#
#
# Convention : Reuss Voigt Hill
#
# Bulk Modulus (GPa) = 36.21254 64.08745 50.14999
# Shear Modulus (GPa) = 24.55535 33.49295 29.02415
#
# Velocity S-wave (km/s) = 3.56876 4.16793 3.87993
# Velocity P-wave (km/s) = 5.98027 7.51014 6.78844
#
# Compressibility (1/GPa) = 0.02761475
#
# Stress axis : x y z
#
# Youngs Moduli (GPa) = 88.30231 62.96930 58.94573
#
# Poissons Ratio (x) = 0.06397 0.21113
# Poissons Ratio (y) = 0.08970 0.21692
# Poissons Ratio (z) = 0.31628 0.23173
#
# Static dielectric constant tensor:
#      x y z
#    x 1.770730 -0.031790 0.007540 
#    y -0.031790 1.710690 0.004930 
#    z 0.007540 0.004930 1.664940 
# 
# From -- ./inp_files/68874.got.cif
#   From: 2010.05.17/outbox.cif.g08.bks.cpg/sg2_35_cif.got.tgz:68874.got - 2010.06.03 11:33:40.
