data_PCOD9053693
_publ_section_title
;
Structure prediction by ZEFSAII (Michael W. Deem and Ramdas Pophale) SiO2 
 PCOD9053693
Probable space group: P -1
;
_chemical_formula_sum "Si O2"
_cell_formula_units_Z 16
_cell_length_a 9.699405
_cell_length_b 15.904561
_cell_length_c 10.141808
_cell_angle_alpha 35.527967
_cell_angle_beta 85.420914
_cell_angle_gamma 60.051473
_cell_volume 599.750970
_symmetry_space_group_name_H-M "P -1"
_symmetry_group_IT_number 2
_symmetry_cell_setting 'triclinic'
loop_
_space_group_symop_operation_xyz
x,y,z
-x,-y,-z
loop_
_atom_site_type_symbol
_atom_site_label
_atom_site_fract_x
_atom_site_fract_y
_atom_site_fract_z
Si Si1 0.739794 0.876752 0.018192
Si Si2 0.054182 0.785835 0.765663
Si Si3 0.711971 0.782172 0.441198
Si Si4 0.834104 0.608380 0.106990
Si Si5 0.932273 0.130133 0.972464
Si Si6 0.181980 0.693673 0.594048
Si Si7 0.397863 0.587327 0.188076
Si Si8 0.622969 0.057687 0.343003
O O1 0.920074 0.852633 0.030309
O O2 0.515282 0.114040 0.683654
O O3 0.730174 0.831437 0.228134
O O4 0.790764 0.707706 0.127688
O O5 0.193035 0.635716 0.818157
O O6 0.217182 0.642851 0.054243
O O7 0.000000 0.000000 0.500000
O O8 0.821052 0.898109 0.632057
O O9 0.931214 0.531577 0.775746
O O10 0.686975 0.922441 0.377881
O O11 0.856345 0.415611 0.353624
O O12 0.621023 0.796068 0.797200
O O13 0.987728 0.953265 0.288635
O O14 0.692674 0.353310 0.733152
O O15 0.000000 0.000000 0.000000
O O16 0.372808 0.635087 0.593785
O O17 0.404333 0.750470 0.933383
#
# Coordination Sequence:
#
# PCOD9053693 Si02
#       8
#     2   2   2   2   2   2   2   2
#     4  10  23  34  58  81 115 160 197 239 289 349
#     4  10  17  35  61  91 118 149 196 254 293 345
#     4  10  18  37  55  80 112 155 206 243 280 338
#     4  10  19  34  58  85 113 146 201 240 283 345
#     4  12  24  40  57  87 131 160 186 238 302 357
#     4  11  21  37  63  92 117 156 196 246 297 349
#     4  10  21  35  58  91 121 152 199 245 296 349
#     4   9  17  31  55  88 111 142 189 246 292 336
#
# _framework density 26.677741000000001
#
# number of rings (size 3 to 8) (size 9 to 14) (size 15 to 20)
#    0.000    1.750    3.750    2.250    0.000    2.500 
#    0.000    0.000    0.000    3.750    0.000    0.000 
#    0.000    0.000    0.000    0.000    0.000    0.000 
#
# Total GULP energy -89412.735624 kJ/mol
# GULP energy per Si atom -5588.295977 kJ/mol
# Density = 2.661702 g / cm^3
# Si number density = 26.677741 Si / 1000 Ang^3
#
#
#
# Elastic Constant Matrix: (Units=GPa)
#
#
# Indices 1 2 3 4 5 6 
#
# 1 174.2530 54.8846 51.4110 -16.5386 57.1796 10.6838
# 2 54.8846 154.0140 27.8053 -3.8318 22.2876 11.1577
# 3 51.4110 27.8053 127.6231 -16.9001 50.5577 10.6729
# 4 -16.5386 -3.8318 -16.9001 33.2558 -6.6075 8.4529
# 5 57.1796 22.2876 50.5577 -6.6075 55.8326 -10.2610
# 6 10.6838 11.1577 10.6729 8.4529 -10.2610 46.4680
#
#
#
# Elastic Compliance Matrix: (Units=1/GPa)
#
#
# Indices 1 2 3 4 5 6 
#
# 1 0.010815 -0.001788 0.002552 0.005510 -0.013228 -0.006567
# 2 -0.001788 0.007466 -0.000328 -0.000028 -0.001141 -0.001553
# 3 0.002552 -0.000328 0.015642 0.008115 -0.017418 -0.009423
# 4 0.005510 -0.000028 0.008115 0.037944 -0.010769 -0.012405
# 5 -0.013228 -0.001141 -0.017418 -0.010769 0.050151 0.020349
# 6 -0.006567 -0.001553 -0.009423 -0.012405 0.020349 0.032317
#
#
# Mechanical properties :
#
#
# Convention : Reuss Voigt Hill
#
# Bulk Modulus (GPa) = 28.73981 80.45466 54.59724
# Shear Modulus (GPa) = 30.29170 48.56390 39.42780
#
# Velocity S-wave (km/s) = 3.37333 4.27123 3.84855
# Velocity P-wave (km/s) = 5.09596 7.38566 6.34495
#
# Compressibility (1/GPa) = 0.03479494
#
# Stress axis : x y z
#
# Youngs Moduli (GPa) = 92.46189 133.93646 63.93185
#
# Poissons Ratio (x) = 0.23945 -0.16315
# Poissons Ratio (y) = 0.16530 0.02098
# Poissons Ratio (z) = -0.23595 0.04396
#
# Static dielectric constant tensor:
#      x y z
#    x 2.205660 -0.077500 -0.017600 
#    y -0.077500 2.119660 0.076630 
#    z -0.017600 0.076630 2.266440 
# 
# From -- ./inp_files/431106.got.cif
#   From: 2010.05.17/outbox.cif.g08.bks.cpg/sg2_216_cif.got.tgz:431106.got - 2010.06.03 11:33:40.
