data_PCOD9053652
_publ_section_title
;
Structure prediction by ZEFSAII (Michael W. Deem and Ramdas Pophale) SiO2 
 PCOD9053652
Probable space group: P -1
;
_chemical_formula_sum "Si O2"
_cell_formula_units_Z 16
_cell_length_a 16.010565
_cell_length_b 21.601550
_cell_length_c 24.750574
_cell_angle_alpha 163.616125
_cell_angle_beta 19.557650
_cell_angle_gamma 153.016874
_cell_volume 800.702883
_symmetry_space_group_name_H-M "P -1"
_symmetry_group_IT_number 2
_symmetry_cell_setting 'triclinic'
loop_
_space_group_symop_operation_xyz
x,y,z
-x,-y,-z
loop_
_atom_site_type_symbol
_atom_site_label
_atom_site_fract_x
_atom_site_fract_y
_atom_site_fract_z
Si Si1 0.091661 0.528235 0.586150
Si Si2 0.876179 0.118114 0.343797
Si Si3 0.638175 0.614206 0.336812
Si Si4 0.631076 0.129800 0.757226
Si Si5 0.341515 0.170568 0.684329
Si Si6 0.883719 0.446066 0.938084
Si Si7 0.051545 0.165031 0.156383
Si Si8 0.544067 0.711491 0.115795
O O1 0.052118 0.272238 0.395818
O O2 0.350376 0.587046 0.501961
O O3 0.091651 0.605936 0.588278
O O4 0.838284 0.660622 0.877251
O O5 0.591301 0.250060 0.624094
O O6 0.962936 0.093812 0.208712
O O7 0.842549 0.900226 0.216279
O O8 0.730342 0.466106 0.104701
O O9 0.669198 0.864278 0.509396
O O10 0.827929 0.556949 0.222679
O O11 0.621434 0.244861 0.801037
O O12 0.825069 0.230212 0.761308
O O13 0.344848 0.184079 0.998025
O O14 0.214255 0.345891 0.866112
O O15 0.459620 0.939742 0.390586
O O16 0.000000 0.000000 0.000000
O O17 0.500000 0.500000 0.000000
#
# Coordination Sequence:
#
# PCOD9053652 Si02
#       8
#     2   2   2   2   2   2   2   2
#     4  11  21  37  59  93 121 157 206 253 313 369
#     4  11  22  35  61  90 123 161 198 256 316 378
#     4  11  23  42  65  88 125 166 214 266 302 359
#     4  11  22  40  65  93 123 160 210 257 314 370
#     4  11  22  39  59  92 129 162 205 251 312 380
#     4  11  24  42  63  90 124 169 215 256 306 369
#     4  11  20  35  58  92 126 150 193 267 316 362
#     4  11  22  39  63  94 129 165 196 258 320 375
#
# _framework density 19.982443
#
# number of rings (size 3 to 8) (size 9 to 14) (size 15 to 20)
#    0.000    1.000    3.750    5.250    1.750    0.000 
#    0.000    0.625    0.000    1.500    0.000    0.000 
#    0.000    0.000    0.000    0.000    0.000    0.000 
#
# Total GULP energy -89369.928883 kJ/mol
# GULP energy per Si atom -5585.620555 kJ/mol
# Density = 1.993696 g / cm^3
# Si number density = 19.982443 Si / 1000 Ang^3
#
#
#
# Elastic Constant Matrix: (Units=GPa)
#
#
# Indices 1 2 3 4 5 6 
#
# 1 103.2032 48.6401 23.0464 -13.7349 -7.2133 7.2641
# 2 48.6401 101.0314 14.3195 -2.0166 -1.9740 2.1192
# 3 23.0464 14.3195 40.7501 -4.2708 -5.5525 9.9802
# 4 -13.7349 -2.0166 -4.2708 29.5153 3.0640 1.1262
# 5 -7.2133 -1.9740 -5.5525 3.0640 41.3226 -1.7039
# 6 7.2641 2.1192 9.9802 1.1262 -1.7039 34.3838
#
#
#
# Elastic Compliance Matrix: (Units=1/GPa)
#
#
# Indices 1 2 3 4 5 6 
#
# 1 0.014644 -0.006174 -0.005036 0.005601 0.001112 -0.001380
# 2 -0.006174 0.013027 -0.001632 -0.002210 -0.000469 0.001024
# 3 -0.005036 -0.001632 0.030388 0.001955 0.002668 -0.007588
# 4 0.005601 -0.002210 0.001955 0.036909 -0.001722 -0.002909
# 5 0.001112 -0.000469 0.002668 -0.001722 0.024871 0.000308
# 6 -0.001380 0.001024 -0.007588 -0.002909 0.000308 0.031625
#
#
# Mechanical properties :
#
#
# Convention : Reuss Voigt Hill
#
# Bulk Modulus (GPa) = 30.88801 46.33295 38.61048
# Shear Modulus (GPa) = 26.60421 31.64294 29.12357
#
# Velocity S-wave (km/s) = 3.65277 3.98369 3.82181
# Velocity P-wave (km/s) = 5.76900 6.66309 6.23210
#
# Compressibility (1/GPa) = 0.03237502
#
# Stress axis : x y z
#
# Youngs Moduli (GPa) = 68.28530 76.76417 32.90740
#
# Poissons Ratio (x) = 0.47395 0.16572
# Poissons Ratio (y) = 0.42160 0.05371
# Poissons Ratio (z) = 0.34389 0.12529
#
# Static dielectric constant tensor:
#      x y z
#    x 1.742740 0.022320 0.049750 
#    y 0.022320 1.769310 0.039570 
#    z 0.049750 0.039570 1.743920 
# 
# From -- ./inp_files/612267.got.cif
#   From: 2010.05.17/outbox.cif.g08.bks.cpg/sg2_307_cif.got.tgz:612267.got - 2010.06.03 11:33:40.
