data_PCOD9053302
_publ_section_title
;
Structure prediction by ZEFSAII (Michael W. Deem and Ramdas Pophale) SiO2 
 PCOD9053302
Probable space group: P -1
;
_chemical_formula_sum "Si O2"
_cell_formula_units_Z 16
_cell_length_a 7.660090
_cell_length_b 16.526025
_cell_length_c 18.035814
_cell_angle_alpha 24.618895
_cell_angle_beta 125.406874
_cell_angle_gamma 133.705053
_cell_volume 678.501057
_symmetry_space_group_name_H-M "P -1"
_symmetry_group_IT_number 2
_symmetry_cell_setting 'triclinic'
loop_
_space_group_symop_operation_xyz
x,y,z
-x,-y,-z
loop_
_atom_site_type_symbol
_atom_site_label
_atom_site_fract_x
_atom_site_fract_y
_atom_site_fract_z
Si Si1 0.888219 0.561246 0.638342
Si Si2 0.222491 0.058261 0.060465
Si Si3 0.745291 0.834378 0.641978
Si Si4 0.264247 0.498046 0.889563
Si Si5 0.604662 0.533859 0.731134
Si Si6 0.915616 0.288312 0.236925
Si Si7 0.473824 0.861405 0.183941
Si Si8 0.034924 0.984602 0.239326
O O1 0.676047 0.553989 0.646582
O O2 0.739308 0.386142 0.682568
O O3 0.060767 0.495271 0.783934
O O4 0.054884 0.807628 0.443979
O O5 0.134132 0.977588 0.188179
O O6 0.387876 0.963054 0.144476
O O7 0.361988 0.323586 0.870035
O O8 0.000000 0.000000 0.000000
O O9 0.526096 0.669523 0.776570
O O10 0.637650 0.748979 0.602892
O O11 0.989814 0.804485 0.730125
O O12 0.831403 0.093856 0.440875
O O13 0.257189 0.607862 0.875966
O O14 0.181001 0.238615 0.090339
O O15 0.821075 0.506665 0.847022
O O16 0.743193 0.897050 0.235759
O O17 0.500000 0.000000 0.000000
#
# Coordination Sequence:
#
# PCOD9053302 Si02
#       8
#     2   2   2   2   2   2   2   2
#     4  11  23  39  57  86 118 152 195 239 284 344
#     4  12  21  36  61  86 115 155 194 236 286 338
#     4   9  17  32  60  86 111 148 193 238 278 346
#     4  11  19  36  61  82 115 151 186 234 299 334
#     4   9  17  35  57  81 117 151 183 236 287 328
#     4   8  17  31  57  91 107 146 201 227 281 350
#     4  12  21  38  60  79 115 158 192 234 289 334
#     4  12  24  39  58  86 118 151 196 241 282 343
#
# _framework density 23.581395000000001
#
# number of rings (size 3 to 8) (size 9 to 14) (size 15 to 20)
#    0.750    0.750    5.000    1.500    0.000    0.500 
#    2.250    0.000    0.000    7.500    0.000    0.000 
#    0.000    0.000    0.000    0.000    0.000    0.000 
#
# Total GULP energy -89231.837638 kJ/mol
# GULP energy per Si atom -5576.989852 kJ/mol
# Density = 2.352772 g / cm^3
# Si number density = 23.581395 Si / 1000 Ang^3
#
#
#
# Elastic Constant Matrix: (Units=GPa)
#
#
# Indices 1 2 3 4 5 6 
#
# 1 112.2105 16.0140 23.0672 -9.0790 -6.3827 -9.0076
# 2 16.0140 66.4442 24.6260 -6.5695 3.0675 11.3142
# 3 23.0672 24.6260 128.2797 -12.3372 -14.1754 3.7380
# 4 -9.0790 -6.5695 -12.3372 22.7918 -2.5528 -10.2061
# 5 -6.3827 3.0675 -14.1754 -2.5528 31.2522 -13.2538
# 6 -9.0076 11.3142 3.7380 -10.2061 -13.2538 31.9378
#
#
#
# Elastic Compliance Matrix: (Units=1/GPa)
#
#
# Indices 1 2 3 4 5 6 
#
# 1 0.011644 -0.004286 0.000262 0.009594 0.008525 0.011375
# 2 -0.004286 0.020192 -0.004565 -0.006223 -0.011649 -0.014650
# 3 0.000262 -0.004565 0.010182 0.008287 0.008655 0.006739
# 4 0.009594 -0.006223 0.008287 0.070716 0.028350 0.038303
# 5 0.008525 -0.011649 0.008655 0.028350 0.057410 0.038402
# 6 0.011375 -0.014650 0.006739 0.038303 0.038402 0.067097
#
#
# Mechanical properties :
#
#
# Convention : Reuss Voigt Hill
#
# Bulk Modulus (GPa) = 40.25476 48.26097 44.25787
# Shear Modulus (GPa) = 19.03335 33.41150 26.22243
#
# Velocity S-wave (km/s) = 2.84409 3.76820 3.33828
# Velocity P-wave (km/s) = 5.28136 6.28033 5.80239
#
# Compressibility (1/GPa) = 0.02484178
#
# Stress axis : x y z
#
# Youngs Moduli (GPa) = 85.88264 49.52445 98.21638
#
# Poissons Ratio (x) = 0.21224 -0.02575
# Poissons Ratio (y) = 0.36805 0.44831
# Poissons Ratio (z) = -0.02252 0.22605
#
# Static dielectric constant tensor:
#      x y z
#    x 1.968660 -0.020460 0.069460 
#    y -0.020460 1.906690 0.020590 
#    z 0.069460 0.020590 1.877650 
# 
# From -- ./inp_files/608552.got.cif
#   From: 2010.05.17/outbox.cif.g08.bks.cpg/sg2_305_cif.got.tgz:608552.got - 2010.06.03 11:33:40.
