data_PCOD9053291
_publ_section_title
;
Structure prediction by ZEFSAII (Michael W. Deem and Ramdas Pophale) SiO2 
 PCOD9053291
Probable space group: P -1
;
_chemical_formula_sum "Si O2"
_cell_formula_units_Z 16
_cell_length_a 8.977118
_cell_length_b 18.341609
_cell_length_c 10.701741
_cell_angle_alpha 137.370576
_cell_angle_beta 122.556285
_cell_angle_gamma 49.836113
_cell_volume 905.078351
_symmetry_space_group_name_H-M "P -1"
_symmetry_group_IT_number 2
_symmetry_cell_setting 'triclinic'
loop_
_space_group_symop_operation_xyz
x,y,z
-x,-y,-z
loop_
_atom_site_type_symbol
_atom_site_label
_atom_site_fract_x
_atom_site_fract_y
_atom_site_fract_z
Si Si1 0.874100 0.418905 0.704043
Si Si2 0.533272 0.617354 0.189635
Si Si3 0.697806 0.039305 0.219971
Si Si4 0.302186 0.341019 0.928077
Si Si5 0.074572 0.406508 0.527888
Si Si6 0.777647 0.822416 0.140431
Si Si7 0.824402 0.228674 0.598927
Si Si8 0.752971 0.814026 0.845513
O O1 0.807843 0.318915 0.592893
O O2 0.088758 0.379473 0.815288
O O3 0.912074 0.426514 0.584990
O O4 0.729460 0.546267 0.857333
O O5 0.548498 0.673734 0.134454
O O6 0.739146 0.585541 0.312240
O O7 0.359841 0.706963 0.311193
O O8 0.500000 0.500000 0.000000
O O9 0.827458 0.106508 0.396735
O O10 0.482063 0.136521 0.208190
O O11 0.678586 0.961293 0.229842
O O12 0.782406 0.935477 0.022250
O O13 0.340796 0.226507 0.885971
O O14 0.145753 0.276175 0.333003
O O15 0.000000 0.500000 0.500000
O O16 0.981085 0.795158 0.265361
O O17 0.817195 0.756470 0.939950
#
# Coordination Sequence:
#
# PCOD9053291 Si02
#       8
#     2   2   2   2   2   2   2   2
#     4   9  19  32  55  79 112 143 181 222 282 322
#     4  11  22  34  56  83 116 140 179 235 281 316
#     4   9  19  36  59  80 110 152 184 224 270 324
#     4   9  17  34  52  82 107 147 179 227 272 329
#     4  11  22  37  58  82 111 150 186 219 274 345
#     4   9  19  33  62  78 106 144 192 220 270 327
#     4  11  19  36  58  84 110 142 185 235 274 317
#     4   9  19  36  57  80 110 149 185 216 277 327
#
# _framework density 17.678028999999999
#
# number of rings (size 3 to 8) (size 9 to 14) (size 15 to 20)
#    0.750    1.500    2.500    1.125    3.500    0.000 
#    0.000    3.125    2.750    0.000    0.000    0.000 
#    0.000    0.000    0.000    0.000    0.000    0.000 
#
# Total GULP energy -89093.078702 kJ/mol
# GULP energy per Si atom -5568.317419 kJ/mol
# Density = 1.763779 g / cm^3
# Si number density = 17.678029 Si / 1000 Ang^3
#
#
#
# Elastic Constant Matrix: (Units=GPa)
#
#
# Indices 1 2 3 4 5 6 
#
# 1 78.5533 28.3958 46.5143 -0.7316 -7.9832 26.1019
# 2 28.3958 64.6960 40.7540 -2.9058 5.0689 21.4111
# 3 46.5143 40.7540 96.0850 0.1462 -9.6211 18.6931
# 4 -0.7316 -2.9058 0.1462 26.6170 0.8245 1.3528
# 5 -7.9832 5.0689 -9.6211 0.8245 24.3546 1.0209
# 6 26.1019 21.4111 18.6931 1.3528 1.0209 29.8304
#
#
#
# Elastic Compliance Matrix: (Units=1/GPa)
#
#
# Indices 1 2 3 4 5 6 
#
# 1 0.022925 -0.000858 -0.007247 0.001178 0.005425 -0.015142
# 2 -0.000858 0.026799 -0.009464 0.003870 -0.009208 -0.012414
# 3 -0.007247 -0.009464 0.018326 -0.001620 0.006826 0.001490
# 4 0.001178 0.003870 -0.001620 0.038328 -0.002170 -0.004457
# 5 0.005425 -0.009208 0.006826 -0.002170 0.047690 -0.003949
# 6 -0.015142 -0.012414 0.001490 -0.004457 -0.003949 0.055086
#
#
# Mechanical properties :
#
#
# Convention : Reuss Voigt Hill
#
# Bulk Modulus (GPa) = 30.38398 52.29583 41.33991
# Shear Modulus (GPa) = 19.58769 24.40509 21.99639
#
# Velocity S-wave (km/s) = 3.33231 3.71958 3.53126
# Velocity P-wave (km/s) = 5.65955 6.93496 6.32946
#
# Compressibility (1/GPa) = 0.03291208
#
# Stress axis : x y z
#
# Youngs Moduli (GPa) = 43.62023 37.31487 54.56792
#
# Poissons Ratio (x) = 0.03202 0.39544
# Poissons Ratio (y) = 0.03743 0.51643
# Poissons Ratio (z) = 0.31610 0.35315
#
# Static dielectric constant tensor:
#      x y z
#    x 1.584710 0.010250 0.007390 
#    y 0.010250 1.609480 -0.004930 
#    z 0.007390 -0.004930 1.625150 
# 
# From -- ./inp_files/215932.got.cif
#   From: 2010.05.17/outbox.cif.g08.bks.cpg/sg2_108_cif.got.tgz:215932.got - 2010.06.03 11:33:40.
