data_PCOD9053096
_publ_section_title
;
Structure prediction by ZEFSAII (Michael W. Deem and Ramdas Pophale) SiO2 
 PCOD9053096
Probable space group: P -1
;
_chemical_formula_sum "Si O2"
_cell_formula_units_Z 12
_cell_length_a 15.418364
_cell_length_b 9.066786
_cell_length_c 17.981480
_cell_angle_alpha 132.626545
_cell_angle_beta 22.363602
_cell_angle_gamma 143.433561
_cell_volume 545.457645
_symmetry_space_group_name_H-M "P -1"
_symmetry_group_IT_number 2
_symmetry_cell_setting 'triclinic'
loop_
_space_group_symop_operation_xyz
x,y,z
-x,-y,-z
loop_
_atom_site_type_symbol
_atom_site_label
_atom_site_fract_x
_atom_site_fract_y
_atom_site_fract_z
Si Si1 0.953394 0.261680 0.913420
Si Si2 0.329781 0.267035 0.817364
Si Si3 0.896903 0.566674 0.757121
Si Si4 0.075784 0.548996 0.142987
Si Si5 0.596452 0.822656 0.437664
Si Si6 0.479370 0.707900 0.171501
O O1 0.854753 0.238602 0.898265
O O2 0.241024 0.279370 0.690583
O O3 0.000000 0.500000 0.000000
O O4 0.709734 0.004783 0.064770
O O5 0.540343 0.307766 0.729543
O O6 0.431102 0.252539 0.652330
O O7 0.280083 0.476941 0.932948
O O8 0.000000 0.000000 0.000000
O O9 0.903346 0.422837 0.774398
O O10 0.798419 0.426585 0.707995
O O11 0.181395 0.867655 0.629585
O O12 0.639550 0.583889 0.987305
O O13 0.728949 0.311632 0.321359
#
# Coordination Sequence:
#
# PCOD9053096 Si02
#       6
#     2   2   2   2   2   2
#     4  11  20  35  58  84 112 149 188 228 279 333
#     4  11  18  36  59  83 109 148 189 230 272 326
#     4   9  19  35  56  86 110 145 188 231 277 328
#     4  11  21  34  59  86 114 147 186 230 279 333
#     4  11  21  36  60  87 110 145 193 229 276 331
#     4   9  19  35  58  84 112 146 188 228 282 328
#
# _framework density 21.999874999999999
#
# number of rings (size 3 to 8) (size 9 to 14) (size 15 to 20)
#    0.000    1.667    6.667    1.000    0.000    0.667 
#    0.000    0.833    0.000    1.000    0.000    0.000 
#    0.000    0.000    0.000    0.000    0.000    0.000 
#
# Total GULP energy -67020.077001 kJ/mol
# GULP energy per Si atom -5585.006417 kJ/mol
# Density = 2.194980 g / cm^3
# Si number density = 21.999875 Si / 1000 Ang^3
#
#
#
# Elastic Constant Matrix: (Units=GPa)
#
#
# Indices 1 2 3 4 5 6 
#
# 1 164.9676 55.8540 40.2292 10.4426 -38.7378 -8.9886
# 2 55.8540 34.5387 18.8389 10.3641 -15.5447 -1.2594
# 3 40.2292 18.8389 91.5416 9.9828 -13.9737 3.9094
# 4 10.4426 10.3641 9.9828 21.6097 -0.9892 -5.6517
# 5 -38.7378 -15.5447 -13.9737 -0.9892 36.1904 5.3360
# 6 -8.9886 -1.2594 3.9094 -5.6517 5.3360 35.4859
#
#
#
# Elastic Compliance Matrix: (Units=1/GPa)
#
#
# Indices 1 2 3 4 5 6 
#
# 1 0.015457 -0.022969 -0.001969 0.005592 0.005576 0.003369
# 2 -0.022969 0.079187 -0.001320 -0.028129 0.009441 -0.008762
# 3 -0.001969 -0.001320 0.013190 -0.005232 0.002755 -0.003246
# 4 0.005592 -0.028129 -0.005232 0.062282 -0.008205 0.012148
# 5 0.005576 0.009441 0.002755 -0.008205 0.039346 -0.005779
# 6 0.003369 -0.008762 -0.003246 0.012148 -0.005779 0.031884
#
#
# Mechanical properties :
#
#
# Convention : Reuss Voigt Hill
#
# Bulk Modulus (GPa) = 18.07650 57.87692 37.97671
# Shear Modulus (GPa) = 16.01014 30.39892 23.20453
#
# Velocity S-wave (km/s) = 2.70059 3.72126 3.25123
# Velocity P-wave (km/s) = 4.23777 6.69542 5.60301
#
# Compressibility (1/GPa) = 0.05532044
#
# Stress axis : x y z
#
# Youngs Moduli (GPa) = 64.69356 12.62835 75.81264
#
# Poissons Ratio (x) = 0.29006 0.14925
# Poissons Ratio (y) = 1.48594 0.10004
# Poissons Ratio (z) = 0.12736 0.01666
#
# Static dielectric constant tensor:
#      x y z
#    x 1.859640 0.016880 -0.025850 
#    y 0.016880 1.792010 0.013970 
#    z -0.025850 0.013970 1.833180 
# 
# From -- ./inp_files/149480.got.cif
#   From: 2010.05.17/outbox.cif.g08.bks.cpg/sg2_75_cif.got.tgz:149480.got - 2010.06.03 11:33:40.
