data_PCOD9053755
_publ_section_title
;
Structure prediction by ZEFSAII (Michael W. Deem and Ramdas Pophale) SiO2 
 PCOD9053755
Probable space group: P -1
;
_chemical_formula_sum "Si O2"
_cell_formula_units_Z 14
_cell_length_a 15.409192
_cell_length_b 5.219075
_cell_length_c 14.347946
_cell_angle_alpha 115.364512
_cell_angle_beta 48.101834
_cell_angle_gamma 97.552046
_cell_volume 755.287479
_symmetry_space_group_name_H-M "P -1"
_symmetry_group_IT_number 2
_symmetry_cell_setting 'triclinic'
loop_
_space_group_symop_operation_xyz
x,y,z
-x,-y,-z
loop_
_atom_site_type_symbol
_atom_site_label
_atom_site_fract_x
_atom_site_fract_y
_atom_site_fract_z
Si Si1 0.240166 0.852888 0.416383
Si Si2 0.867907 0.484003 0.412815
Si Si3 0.678293 0.996040 0.937726
Si Si4 0.845159 0.369208 0.918068
Si Si5 0.041406 0.099743 0.083792
Si Si6 0.547954 0.182208 0.872607
Si Si7 0.893149 0.420468 0.688555
O O1 0.221032 0.665902 0.489737
O O2 0.373388 0.795982 0.270257
O O3 0.156709 0.766731 0.380764
O O4 0.196114 0.193197 0.520802
O O5 0.931191 0.296334 0.251313
O O6 0.978088 0.509760 0.406580
O O7 0.567658 0.951793 0.072073
O O8 0.716984 0.291313 0.983937
O O9 0.791402 0.720792 0.820665
O O10 0.635055 0.008365 0.863367
O O11 0.864382 0.693959 0.966306
O O12 0.904670 0.268473 0.758645
O O13 0.905797 0.171823 0.929219
O O14 0.000000 0.000000 0.000000
O O15 0.500000 0.500000 0.000000
#
# Coordination Sequence:
#
# PCOD9053755 Si02
#       7
#     2   2   2   2   2   2   2
#     4  12  23  36  54  87 123 172 184 236 287 344
#     4  11  24  36  57  85 122 150 201 235 304 369
#     4  11  20  37  58  85 121 165 209 243 267 336
#     4  11  20  37  62  89 118 150 200 243 294 355
#     4  11  24  42  63  87 117 153 196 259 311 357
#     4  11  23  35  56  81 128 172 213 232 265 337
#     4  11  21  36  56  85 127 161 195 231 285 359
#
# _framework density 18.535986999999999
#
# number of rings (size 3 to 8) (size 9 to 14) (size 15 to 20)
#    0.000    0.857    5.714    3.857    2.000    0.000 
#    0.000    0.000    0.000    0.000    0.000    6.000 
#    0.000    0.000    0.000    0.000    0.000    0.000 
#
# Total GULP energy -78211.791280 kJ/mol
# GULP energy per Si atom -5586.556520 kJ/mol
# Density = 1.849380 g / cm^3
# Si number density = 18.535987 Si / 1000 Ang^3
#
#
#
# Elastic Constant Matrix: (Units=GPa)
#
#
# Indices 1 2 3 4 5 6 
#
# 1 34.7293 24.3676 7.3799 -10.1158 0.3124 15.8034
# 2 24.3676 113.9286 17.1066 -17.2227 -6.2949 11.6382
# 3 7.3799 17.1066 53.2643 -14.3933 -15.1703 18.4289
# 4 -10.1158 -17.2227 -14.3933 30.6127 6.6383 -11.9577
# 5 0.3124 -6.2949 -15.1703 6.6383 36.5931 -6.9758
# 6 15.8034 11.6382 18.4289 -11.9577 -6.9758 34.1626
#
#
#
# Elastic Compliance Matrix: (Units=1/GPa)
#
#
# Indices 1 2 3 4 5 6 
#
# 1 0.043140 -0.007231 0.002649 0.005466 -0.004940 -0.018017
# 2 -0.007231 0.010990 -0.002077 0.003452 0.000867 0.002107
# 3 0.002649 -0.002077 0.026784 0.006295 0.007439 -0.011244
# 4 0.005466 0.003452 0.006295 0.042913 -0.003244 0.007257
# 5 -0.004940 0.000867 0.007439 -0.003244 0.031828 0.003341
# 6 -0.018017 0.002107 -0.011244 0.007257 0.003341 0.046177
#
#
# Mechanical properties :
#
#
# Convention : Reuss Voigt Hill
#
# Bulk Modulus (GPa) = 14.79352 33.29226 24.04289
# Shear Modulus (GPa) = 21.03643 30.47823 25.75733
#
# Velocity S-wave (km/s) = 3.37248 4.05936 3.73176
# Velocity P-wave (km/s) = 4.81281 6.32227 5.61846
#
# Compressibility (1/GPa) = 0.06759716
#
# Stress axis : x y z
#
# Youngs Moduli (GPa) = 23.18030 90.98835 37.33522
#
# Poissons Ratio (x) = 0.65792 -0.09890
# Poissons Ratio (y) = 0.16761 0.07755
# Poissons Ratio (z) = -0.06141 0.18899
#
# Static dielectric constant tensor:
#      x y z
#    x 1.652400 0.005260 -0.033130 
#    y 0.005260 1.716550 -0.006490 
#    z -0.033130 -0.006490 1.646860 
# 
# From -- ./inp_files/410992.got.cif
#   From: 2010.05.17/outbox.cif.g08.bks.cpg/sg2_206_cif.got.tgz:410992.got - 2010.06.03 11:33:40.
