data_PCOD9053713
_publ_section_title
;
Structure prediction by ZEFSAII (Michael W. Deem and Ramdas Pophale) SiO2 
 PCOD9053713
Probable space group: P -1
;
_chemical_formula_sum "Si O2"
_cell_formula_units_Z 14
_cell_length_a 10.896798
_cell_length_b 11.418054
_cell_length_c 8.388230
_cell_angle_alpha 43.460335
_cell_angle_beta 63.362295
_cell_angle_gamma 76.789043
_cell_volume 633.671931
_symmetry_space_group_name_H-M "P -1"
_symmetry_group_IT_number 2
_symmetry_cell_setting 'triclinic'
loop_
_space_group_symop_operation_xyz
x,y,z
-x,-y,-z
loop_
_atom_site_type_symbol
_atom_site_label
_atom_site_fract_x
_atom_site_fract_y
_atom_site_fract_z
Si Si1 0.934279 0.609820 0.563590
Si Si2 0.429472 0.537056 0.335123
Si Si3 0.642852 0.093462 0.901411
Si Si4 0.150470 0.698204 0.633145
Si Si5 0.789796 0.811871 0.228699
Si Si6 0.079953 0.172385 0.206733
Si Si7 0.286494 0.433918 0.006981
O O1 0.895075 0.784895 0.335348
O O2 0.000000 0.500000 0.500000
O O3 0.053590 0.646565 0.589156
O O4 0.792018 0.531832 0.817801
O O5 0.500000 0.500000 0.500000
O O6 0.373941 0.719215 0.204628
O O7 0.313733 0.370993 0.537042
O O8 0.549056 0.555010 0.112372
O O9 0.749461 0.132058 0.652547
O O10 0.500000 0.000000 0.000000
O O11 0.702136 0.969465 0.117117
O O12 0.246262 0.565866 0.767558
O O13 0.040099 0.708996 0.825996
O O14 0.873236 0.831109 0.996520
O O15 0.208670 0.251103 0.165870
O O16 0.000000 0.000000 0.500000
#
# Coordination Sequence:
#
# PCOD9053713 Si02
#       7
#     2   2   2   2   2   2   2
#     4  11  24  41  67  97 136 172 212 277 338 393
#     4  12  22  41  71  93 130 175 220 279 314 391
#     4  12  22  38  66  98 126 170 225 267 324 387
#     4  11  22  40  66  95 127 171 220 270 323 394
#     4  12  24  43  65 100 135 172 220 273 338 383
#     4  11  20  36  61  93 127 163 216 268 315 389
#     4  11  22  42  67  96 127 171 226 264 324 396
#
# _framework density 22.093450000000001
#
# number of rings (size 3 to 8) (size 9 to 14) (size 15 to 20)
#    0.000    0.571    5.714    4.286    0.000    1.143 
#    0.000    0.714    0.000    0.000    0.000    0.000 
#    0.000    0.000    0.000    0.000    0.000    0.000 
#
# Total GULP energy -78241.824197 kJ/mol
# GULP energy per Si atom -5588.701728 kJ/mol
# Density = 2.204316 g / cm^3
# Si number density = 22.093450 Si / 1000 Ang^3
#
#
#
# Elastic Constant Matrix: (Units=GPa)
#
#
# Indices 1 2 3 4 5 6 
#
# 1 61.7672 33.3114 52.1041 2.3794 14.3210 -26.1719
# 2 33.3114 91.0920 51.8679 4.1757 8.5743 -33.8021
# 3 52.1041 51.8679 147.6396 -0.2014 -5.3797 -12.6580
# 4 2.3794 4.1757 -0.2014 53.1394 -16.5340 -1.4106
# 5 14.3210 8.5743 -5.3797 -16.5340 54.2586 -0.4345
# 6 -26.1719 -33.8021 -12.6580 -1.4106 -0.4345 31.9578
#
#
#
# Elastic Compliance Matrix: (Units=1/GPa)
#
#
# Indices 1 2 3 4 5 6 
#
# 1 0.047987 0.010337 -0.017571 -0.007489 -0.017981 0.042697
# 2 0.010337 0.025735 -0.010340 -0.004474 -0.008933 0.031271
# 3 -0.017571 -0.010340 0.015307 0.003900 0.008826 -0.018971
# 4 -0.007489 -0.004474 0.003900 0.022357 0.009817 -0.008200
# 5 -0.017981 -0.008933 0.008826 0.009817 0.028296 -0.019861
# 6 0.042697 0.031271 -0.018971 -0.008200 -0.019861 0.091188
#
#
# Mechanical properties :
#
#
# Convention : Reuss Voigt Hill
#
# Bulk Modulus (GPa) = 18.55954 63.89618 41.22786
# Shear Modulus (GPa) = 17.60693 38.75218 28.17956
#
# Velocity S-wave (km/s) = 2.82606 4.19264 3.57525
# Velocity P-wave (km/s) = 4.36664 7.24025 5.97866
#
# Compressibility (1/GPa) = 0.05388065
#
# Stress axis : x y z
#
# Youngs Moduli (GPa) = 20.83910 38.85704 65.32825
#
# Poissons Ratio (x) = -0.40165 1.14791
# Poissons Ratio (y) = -0.21541 0.67547
# Poissons Ratio (z) = 0.36617 0.40177
#
# Static dielectric constant tensor:
#      x y z
#    x 1.816610 -0.038840 0.004840 
#    y -0.038840 1.919720 -0.041800 
#    z 0.004840 -0.041800 1.835180 
# 
# From -- ./inp_files/255702.got.cif
#   From: 2010.05.17/outbox.cif.g08.bks.cpg/sg2_128_cif.got.tgz:255702.got - 2010.06.03 11:33:40.
