data_PCOD9053074
_publ_section_title
;
Structure prediction by ZEFSAII (Michael W. Deem and Ramdas Pophale) SiO2 
 PCOD9053074
Probable space group: P -1
;
_chemical_formula_sum "Si O2"
_cell_formula_units_Z 16
_cell_length_a 23.374963
_cell_length_b 9.860173
_cell_length_c 16.204058
_cell_angle_alpha 34.587649
_cell_angle_beta 159.857424
_cell_angle_gamma 149.865152
_cell_volume 644.278022
_symmetry_space_group_name_H-M "P -1"
_symmetry_group_IT_number 2
_symmetry_cell_setting 'triclinic'
loop_
_space_group_symop_operation_xyz
x,y,z
-x,-y,-z
loop_
_atom_site_type_symbol
_atom_site_label
_atom_site_fract_x
_atom_site_fract_y
_atom_site_fract_z
Si Si1 0.447465 0.514823 0.188268
Si Si2 0.126611 0.147794 0.178840
Si Si3 0.429956 0.143777 0.487352
Si Si4 0.709965 0.960561 0.916305
Si Si5 0.877951 0.341554 0.803640
Si Si6 0.233622 0.217916 0.622569
Si Si7 0.974214 0.618701 0.320002
Si Si8 0.860918 0.690256 0.384860
O O1 0.507134 0.417324 0.400218
O O2 0.414517 0.274984 0.199114
O O3 0.605163 0.769262 0.225775
O O4 0.248369 0.510437 0.935362
O O5 0.047971 0.937646 0.253391
O O6 0.329413 0.195108 0.403152
O O7 0.000000 0.000000 0.000000
O O8 0.077637 0.384116 0.017985
O O9 0.584534 0.047523 0.759234
O O10 0.275145 0.901354 0.340681
O O11 0.835186 0.216217 0.899852
O O12 0.805487 0.817395 0.169633
O O13 0.852818 0.605903 0.626895
O O14 0.278455 0.348644 0.709207
O O15 0.075846 0.916147 0.579133
O O16 0.000000 0.500000 0.500000
O O17 0.109742 0.565997 0.467603
#
# Coordination Sequence:
#
# PCOD9053074 Si02
#       8
#     2   2   2   2   2   2   2   2
#     4  11  20  37  62  88 115 153 198 248 291 340
#     4  10  18  31  56  89 112 148 189 244 293 333
#     4  10  18  32  60  93 113 144 199 252 293 330
#     4  11  19  37  60  90 115 142 203 251 286 337
#     4  10  17  35  59  84 114 149 194 243 288 344
#     4  11  24  41  58  85 123 163 195 230 296 363
#     4  12  22  38  60  91 123 150 194 247 294 347
#     4  11  26  40  56  88 124 163 190 233 300 358
#
# _framework density 24.834002000000002
#
# number of rings (size 3 to 8) (size 9 to 14) (size 15 to 20)
#    0.000    1.250    7.500    2.250    0.000    2.500 
#    0.000    0.000    0.000    0.750    0.000    0.000 
#    0.000    0.000    0.000    0.000    0.000    0.000 
#
# Total GULP energy -89451.758011 kJ/mol
# GULP energy per Si atom -5590.734876 kJ/mol
# Density = 2.477748 g / cm^3
# Si number density = 24.834002 Si / 1000 Ang^3
#
#
#
# Elastic Constant Matrix: (Units=GPa)
#
#
# Indices 1 2 3 4 5 6 
#
# 1 67.6093 7.1376 28.6762 0.3578 14.9915 23.0652
# 2 7.1376 53.3140 -4.8286 -0.7740 -7.0670 12.8789
# 3 28.6762 -4.8286 98.7924 -17.3438 30.1873 -3.1386
# 4 0.3578 -0.7740 -17.3438 21.4697 13.6475 -4.1516
# 5 14.9915 -7.0670 30.1873 13.6475 43.2611 -1.1132
# 6 23.0652 12.8789 -3.1386 -4.1516 -1.1132 31.0221
#
#
#
# Elastic Compliance Matrix: (Units=1/GPa)
#
#
# Indices 1 2 3 4 5 6 
#
# 1 0.028486 0.001817 -0.015317 -0.022685 0.007594 -0.026247
# 2 0.001817 0.022168 -0.004920 -0.011838 0.009843 -0.012283
# 3 -0.015317 -0.004920 0.038896 0.062772 -0.041815 0.024266
# 4 -0.022685 -0.011838 0.062772 0.162076 -0.087803 0.046671
# 5 0.007594 0.009843 -0.041815 -0.087803 0.078380 -0.022901
# 6 -0.026247 -0.012283 0.024266 0.046671 -0.022901 0.064728
#
#
# Mechanical properties :
#
#
# Convention : Reuss Voigt Hill
#
# Bulk Modulus (GPa) = 18.97176 31.29845 25.13511
# Shear Modulus (GPa) = 11.13231 31.73261 21.43246
#
# Velocity S-wave (km/s) = 2.11953 3.57849 2.94092
# Velocity P-wave (km/s) = 3.69404 5.45019 4.65567
#
# Compressibility (1/GPa) = 0.05270992
#
# Stress axis : x y z
#
# Youngs Moduli (GPa) = 35.10518 45.11020 25.70961
#
# Poissons Ratio (x) = -0.08196 0.39379
# Poissons Ratio (y) = -0.06378 0.12649
# Poissons Ratio (z) = 0.53770 0.22194
#
# Static dielectric constant tensor:
#      x y z
#    x 2.003320 -0.041020 0.000540 
#    y -0.041020 2.052910 0.099740 
#    z 0.000540 0.099740 1.944980 
# 
# From -- ./inp_files/260762.got.cif
#   From: 2010.05.17/outbox.cif.g08.bks.cpg/sg2_131_cif.got.tgz:260762.got - 2010.06.03 11:33:40.
