data_PCOD9053858
_publ_section_title
;
Structure prediction by ZEFSAII (Michael W. Deem and Ramdas Pophale) SiO2 
 PCOD9053858
Probable space group: P -1
;
_chemical_formula_sum "Si O2"
_cell_formula_units_Z 16
_cell_length_a 16.433878
_cell_length_b 11.874799
_cell_length_c 13.717553
_cell_angle_alpha 109.332625
_cell_angle_beta 26.643893
_cell_angle_gamma 128.164076
_cell_volume 734.907307
_symmetry_space_group_name_H-M "P -1"
_symmetry_group_IT_number 2
_symmetry_cell_setting 'triclinic'
loop_
_space_group_symop_operation_xyz
x,y,z
-x,-y,-z
loop_
_atom_site_type_symbol
_atom_site_label
_atom_site_fract_x
_atom_site_fract_y
_atom_site_fract_z
Si Si1 0.104235 0.623144 0.093720
Si Si2 0.299834 0.092144 0.222339
Si Si3 0.792071 0.851408 0.966317
Si Si4 0.558680 0.963073 0.146795
Si Si5 0.062329 0.808001 0.539839
Si Si6 0.469344 0.586863 0.419476
Si Si7 0.622281 0.720283 0.510998
Si Si8 0.099890 0.600120 0.318260
O O1 0.019773 0.557727 0.278713
O O2 0.816964 0.481337 0.300942
O O3 0.334778 0.643645 0.820515
O O4 0.255482 0.827524 0.974082
O O5 0.280365 0.011541 0.320480
O O6 0.362896 0.042328 0.047237
O O7 0.589321 0.304910 0.986904
O O8 0.000000 0.000000 0.500000
O O9 0.806209 0.756720 0.839652
O O10 0.617743 0.879985 0.128074
O O11 0.668862 0.729203 0.159286
O O12 0.107024 0.061090 0.699692
O O13 0.228625 0.828073 0.455543
O O14 0.038893 0.708328 0.444679
O O15 0.617426 0.681768 0.391459
O O16 0.379067 0.402373 0.459963
O O17 0.000000 0.500000 0.500000
#
# Coordination Sequence:
#
# PCOD9053858 Si02
#       8
#     2   2   2   2   2   2   2   2
#     4  12  23  45  69  95 138 183 216 275 349 393
#     4  11  20  38  62  87 127 178 224 253 311 394
#     4  12  24  43  72  99 134 176 225 276 339 398
#     4  11  21  38  65  94 131 177 219 266 326 403
#     4  11  22  42  62  96 134 181 222 259 330 406
#     4  11  28  45  71 103 130 171 235 286 333 404
#     4  11  25  50  71  96 135 177 223 286 346 394
#     4  11  25  39  61  99 141 171 218 276 320 395
#
# _framework density 21.771453000000001
#
# number of rings (size 3 to 8) (size 9 to 14) (size 15 to 20)
#    0.000    0.750    6.250    1.500    5.250    0.000 
#    0.000    1.875    0.000    0.000    0.000    0.000 
#    0.000    0.000    0.000    0.000    0.000    0.000 
#
# Total GULP energy -89204.225431 kJ/mol
# GULP energy per Si atom -5575.264089 kJ/mol
# Density = 2.172190 g / cm^3
# Si number density = 21.771453 Si / 1000 Ang^3
#
#
#
# Elastic Constant Matrix: (Units=GPa)
#
#
# Indices 1 2 3 4 5 6 
#
# 1 86.0818 18.2795 25.2308 -6.3454 9.7424 -28.1897
# 2 18.2795 33.9495 25.2217 4.4300 6.4397 -13.2096
# 3 25.2308 25.2217 66.7638 3.0249 12.6155 -27.9531
# 4 -6.3454 4.4300 3.0249 23.5186 -10.2553 0.9034
# 5 9.7424 6.4397 12.6155 -10.2553 48.7348 -1.8728
# 6 -28.1897 -13.2096 -27.9531 0.9034 -1.8728 32.9256
#
#
#
# Elastic Compliance Matrix: (Units=1/GPa)
#
#
# Indices 1 2 3 4 5 6 
#
# 1 0.017302 -0.005181 0.001221 0.004234 -0.001678 0.013560
# 2 -0.005181 0.044686 -0.012605 -0.009861 -0.003571 0.002858
# 3 0.001221 -0.012605 0.029341 -0.004635 -0.006355 0.020664
# 4 0.004234 -0.009861 -0.004635 0.051688 0.012342 -0.004982
# 5 -0.001678 -0.003571 -0.006355 0.012342 0.025293 -0.007165
# 6 0.013560 0.002858 0.020664 -0.004982 -0.007165 0.060400
#
#
# Mechanical properties :
#
#
# Convention : Reuss Voigt Hill
#
# Bulk Modulus (GPa) = 17.18261 36.02879 26.60570
# Shear Modulus (GPa) = 17.77840 28.90668 23.34254
#
# Velocity S-wave (km/s) = 2.86071 3.64776 3.27794
# Velocity P-wave (km/s) = 4.33831 5.85885 5.15495
#
# Compressibility (1/GPa) = 0.05819838
#
# Stress axis : x y z
#
# Youngs Moduli (GPa) = 57.79816 22.37845 34.08174
#
# Poissons Ratio (x) = 0.11595 -0.04163
# Poissons Ratio (y) = 0.29947 0.42961
# Poissons Ratio (z) = -0.07059 0.28208
#
# Static dielectric constant tensor:
#      x y z
#    x 1.837870 -0.029200 -0.072470 
#    y -0.029200 1.943360 -0.039270 
#    z -0.072470 -0.039270 1.820990 
# 
# From -- ./inp_files/447812.got.cif
#   From: 2010.05.17/outbox.cif.g08.bks.cpg/sg2_224_cif.got.tgz:447812.got - 2010.06.03 11:33:40.
