data_PCOD9053632
_publ_section_title
;
Structure prediction by ZEFSAII (Michael W. Deem and Ramdas Pophale) SiO2 
 PCOD9053632
Probable space group: P -1
;
_chemical_formula_sum "Si O2"
_cell_formula_units_Z 16
_cell_length_a 17.463584
_cell_length_b 9.931288
_cell_length_c 8.804482
_cell_angle_alpha 89.451052
_cell_angle_beta 95.817341
_cell_angle_gamma 153.842903
_cell_volume 658.056993
_symmetry_space_group_name_H-M "P -1"
_symmetry_group_IT_number 2
_symmetry_cell_setting 'triclinic'
loop_
_space_group_symop_operation_xyz
x,y,z
-x,-y,-z
loop_
_atom_site_type_symbol
_atom_site_label
_atom_site_fract_x
_atom_site_fract_y
_atom_site_fract_z
Si Si1 0.605221 0.506159 0.442809
Si Si2 0.697914 0.872913 0.070929
Si Si3 0.733354 0.069510 0.770082
Si Si4 0.070929 0.826362 0.353813
Si Si5 0.510232 0.762660 0.244182
Si Si6 0.612708 0.177335 0.676834
Si Si7 0.161362 0.357226 0.518095
Si Si8 0.870371 0.920532 0.950747
O O1 0.443298 0.296129 0.308882
O O2 0.763983 0.856203 0.514736
O O3 0.516256 0.320710 0.585232
O O4 0.685395 0.496749 0.383751
O O5 0.668490 0.924045 0.206703
O O6 0.500000 0.500000 0.000000
O O7 0.762964 0.073614 0.947342
O O8 0.837494 0.969866 0.086446
O O9 0.885705 0.257286 0.685346
O O10 0.682980 0.144858 0.742691
O O11 0.070947 0.905522 0.191196
O O12 0.896512 0.597479 0.411641
O O13 0.504740 0.916431 0.234725
O O14 0.328413 0.440252 0.124538
O O15 0.784972 0.530952 0.646225
O O16 0.500000 0.000000 0.500000
O O17 0.000000 0.000000 0.500000
O O18 0.000000 0.000000 0.000000
#
# Coordination Sequence:
#
# PCOD9053632 Si02
#       8
#     2   2   2   2   2   2   2   2
#     4   9  17  34  57  85 119 154 194 248 297 347
#     4   9  20  36  56  88 118 149 203 251 288 350
#     4  11  20  34  59  87 119 161 194 244 302 353
#     4   9  19  32  54  85 120 148 199 251 294 345
#     4   9  18  36  57  84 121 152 195 245 292 349
#     4  11  21  38  61  87 127 159 194 243 303 359
#     4   9  18  34  55  82 113 153 196 239 285 350
#     4   9  18  35  58  83 115 155 195 248 296 346
#
# _framework density 24.314004000000001
#
# number of rings (size 3 to 8) (size 9 to 14) (size 15 to 20)
#    0.000    2.500    2.500    1.875    0.000    3.000 
#    0.000    5.000    2.750    1.500    0.000    0.000 
#    0.000    0.000    0.000    0.000    0.000    0.000 
#
# Total GULP energy -89275.431121 kJ/mol
# GULP energy per Si atom -5579.714445 kJ/mol
# Density = 2.425866 g / cm^3
# Si number density = 24.314004 Si / 1000 Ang^3
#
#
#
# Elastic Constant Matrix: (Units=GPa)
#
#
# Indices 1 2 3 4 5 6 
#
# 1 206.0221 15.3199 52.4835 -19.0383 -29.3962 31.3694
# 2 15.3199 45.4089 7.3173 -7.2594 0.0110 14.9246
# 3 52.4835 7.3173 53.0097 -6.5016 -20.8500 15.8062
# 4 -19.0383 -7.2594 -6.5016 13.9658 11.3196 -2.6515
# 5 -29.3962 0.0110 -20.8500 11.3196 45.8624 -14.4677
# 6 31.3694 14.9246 15.8062 -2.6515 -14.4677 39.5647
#
#
#
# Elastic Compliance Matrix: (Units=1/GPa)
#
#
# Indices 1 2 3 4 5 6 
#
# 1 0.007427 0.000960 -0.005782 0.008067 -0.001054 -0.003785
# 2 0.000960 0.029834 -0.002412 0.021204 -0.009902 -0.013252
# 3 -0.005782 -0.002412 0.029063 -0.003903 0.009561 -0.002882
# 4 0.008067 0.021204 -0.003903 0.112650 -0.029481 -0.016066
# 5 -0.001054 -0.009902 0.009561 -0.029481 0.036589 0.012155
# 6 -0.003785 -0.013252 -0.002882 -0.016066 0.012155 0.037794
#
#
# Mechanical properties :
#
#
# Convention : Reuss Voigt Hill
#
# Bulk Modulus (GPa) = 19.28348 50.52024 34.90186
# Shear Modulus (GPa) = 17.53704 35.16658 26.35181
#
# Velocity S-wave (km/s) = 2.68857 3.80722 3.29570
# Velocity P-wave (km/s) = 4.19358 6.33640 5.37289
#
# Compressibility (1/GPa) = 0.05185787
#
# Stress axis : x y z
#
# Youngs Moduli (GPa) = 134.64545 33.51827 34.40747
#
# Poissons Ratio (x) = -0.03218 0.19895
# Poissons Ratio (y) = -0.12928 0.08298
# Poissons Ratio (z) = 0.77852 0.08083
#
# Static dielectric constant tensor:
#      x y z
#    x 2.034340 -0.038070 -0.062810 
#    y -0.038070 2.114660 0.011470 
#    z -0.062810 0.011470 1.935680 
# 
# From -- ./inp_files/332066.got.cif
#   From: 2010.05.17/outbox.cif.g08.bks.cpg/sg2_167_cif.got.tgz:332066.got - 2010.06.03 11:33:40.
