data_PCOD9053907
_publ_section_title
;
Structure prediction by ZEFSAII (Michael W. Deem and Ramdas Pophale) SiO2 
 PCOD9053907
Probable space group: P -1
;
_chemical_formula_sum "Si O2"
_cell_formula_units_Z 16
_cell_length_a 13.716510
_cell_length_b 22.114111
_cell_length_c 19.417018
_cell_angle_alpha 158.374897
_cell_angle_beta 33.462265
_cell_angle_gamma 158.924021
_cell_volume 755.686242
_symmetry_space_group_name_H-M "P -1"
_symmetry_group_IT_number 2
_symmetry_cell_setting 'triclinic'
loop_
_space_group_symop_operation_xyz
x,y,z
-x,-y,-z
loop_
_atom_site_type_symbol
_atom_site_label
_atom_site_fract_x
_atom_site_fract_y
_atom_site_fract_z
Si Si1 0.095307 0.020975 0.146099
Si Si2 0.659024 0.279515 0.719254
Si Si3 0.823828 0.273932 0.419682
Si Si4 0.132667 0.418301 0.528741
Si Si5 0.676474 0.971329 0.838588
Si Si6 0.418955 0.585396 0.219385
Si Si7 0.693354 0.837232 0.976709
Si Si8 0.239527 0.419991 0.906321
O O1 0.036229 0.171568 0.351813
O O2 0.192287 0.012606 0.152069
O O3 0.304276 0.177179 0.122532
O O4 0.848955 0.727456 0.950900
O O5 0.550035 0.347673 0.807843
O O6 0.972076 0.452943 0.697614
O O7 0.500000 0.000000 0.500000
O O8 0.645028 0.335486 0.863140
O O9 0.631573 0.273215 0.567451
O O10 0.000000 0.500000 0.500000
O O11 0.029831 0.355348 0.444118
O O12 0.678537 0.017780 0.196998
O O13 0.457481 0.685009 0.631774
O O14 0.907810 0.184204 0.869187
O O15 0.500000 0.000000 0.000000
O O16 0.663328 0.669449 0.203085
O O17 0.423990 0.553561 0.869406
O O18 0.000000 0.000000 0.000000
#
# Coordination Sequence:
#
# PCOD9053907 Si02
#       8
#     2   2   2   2   2   2   2   2
#     4  12  23  44  71  97 136 175 227 273 344 389
#     4  11  22  37  65  99 134 160 226 286 334 381
#     4  11  20  38  69 102 132 173 215 273 346 392
#     4  11  24  42  66  98 132 179 225 275 327 403
#     4  12  26  48  67  92 136 186 230 268 325 409
#     4  11  21  36  64 103 129 170 218 285 329 390
#     4  12  23  42  69 104 139 165 212 287 346 395
#     4  12  23  41  67  98 134 176 222 274 342 391
#
# _framework density 21.172809999999998
#
# number of rings (size 3 to 8) (size 9 to 14) (size 15 to 20)
#    0.000    0.500    6.250    3.750    1.750    0.000 
#    0.000    1.250    0.000    0.000    0.000    0.000 
#    0.000    0.000    0.000    0.000    0.000    0.000 
#
# Total GULP energy -89321.065013 kJ/mol
# GULP energy per Si atom -5582.566563 kJ/mol
# Density = 2.112462 g / cm^3
# Si number density = 21.172810 Si / 1000 Ang^3
#
#
#
# Elastic Constant Matrix: (Units=GPa)
#
#
# Indices 1 2 3 4 5 6 
#
# 1 59.0736 25.4620 8.9098 -2.5328 -17.5488 -12.7290
# 2 25.4620 122.4611 13.9547 10.0094 -5.1200 -20.1297
# 3 8.9098 13.9547 89.9631 0.5414 -17.5157 10.3651
# 4 -2.5328 10.0094 0.5414 32.6462 -5.5776 1.5941
# 5 -17.5488 -5.1200 -17.5157 -5.5776 35.5168 -0.9753
# 6 -12.7290 -20.1297 10.3651 1.5941 -0.9753 35.8470
#
#
#
# Elastic Compliance Matrix: (Units=1/GPa)
#
#
# Indices 1 2 3 4 5 6 
#
# 1 0.023739 -0.003724 -0.000215 0.004720 0.012007 0.006517
# 2 -0.003724 0.010291 -0.002176 -0.003989 -0.001913 0.005211
# 3 -0.000215 -0.002176 0.013263 0.001746 0.006257 -0.005041
# 4 0.004720 -0.003989 0.001746 0.033646 0.007837 -0.002352
# 5 0.012007 -0.001913 0.006257 0.007837 0.038186 0.002071
# 6 0.006517 0.005211 -0.005041 -0.002352 0.002071 0.034755
#
#
# Mechanical properties :
#
#
# Convention : Reuss Voigt Hill
#
# Bulk Modulus (GPa) = 28.52058 40.90566 34.71312
# Shear Modulus (GPa) = 28.12192 35.68007 31.90100
#
# Velocity S-wave (km/s) = 3.64841 4.10955 3.88583
# Velocity P-wave (km/s) = 5.58995 6.47146 6.04679
#
# Compressibility (1/GPa) = 0.03506240
#
# Stress axis : x y z
#
# Youngs Moduli (GPa) = 42.12469 97.17451 75.39778
#
# Poissons Ratio (x) = 0.36186 0.01622
# Poissons Ratio (y) = 0.15686 0.16409
# Poissons Ratio (z) = 0.00906 0.21148
#
# Static dielectric constant tensor:
#      x y z
#    x 1.758190 -0.008160 0.002030 
#    y -0.008160 1.948040 -0.046740 
#    z 0.002030 -0.046740 1.790100 
# 
# From -- ./inp_files/500655.got.cif
#   From: 2010.05.17/outbox.cif.g08.bks.cpg/sg2_251_cif.got.tgz:500655.got - 2010.06.03 11:33:40.
