data_PCOD9053220
_publ_section_title
;
Structure prediction by ZEFSAII (Michael W. Deem and Ramdas Pophale) SiO2 
 PCOD9053220
Probable space group: P -1
;
_chemical_formula_sum "Si O2"
_cell_formula_units_Z 14
_cell_length_a 21.578292
_cell_length_b 11.391414
_cell_length_c 12.190229
_cell_angle_alpha 35.183072
_cell_angle_beta 144.349827
_cell_angle_gamma 151.381261
_cell_volume 776.288479
_symmetry_space_group_name_H-M "P -1"
_symmetry_group_IT_number 2
_symmetry_cell_setting 'triclinic'
loop_
_space_group_symop_operation_xyz
x,y,z
-x,-y,-z
loop_
_atom_site_type_symbol
_atom_site_label
_atom_site_fract_x
_atom_site_fract_y
_atom_site_fract_z
Si Si1 0.529630 0.283666 0.419223
Si Si2 0.977884 0.215998 0.813928
Si Si3 0.388948 0.648352 0.939279
Si Si4 0.562020 0.661940 0.352820
Si Si5 0.786019 0.199421 0.371949
Si Si6 0.421790 0.123325 0.164341
Si Si7 0.759555 0.937124 0.883733
O O1 0.585379 0.511611 0.412353
O O2 0.535436 0.337046 0.255744
O O3 0.362285 0.091176 0.335740
O O4 0.587307 0.130562 0.637842
O O5 0.873444 0.169494 0.604979
O O6 0.113622 0.517338 0.760836
O O7 0.904321 0.164010 0.864937
O O8 0.000000 0.000000 0.000000
O O9 0.325211 0.793163 0.732446
O O10 0.516449 0.772131 0.945700
O O11 0.447458 0.667934 0.128108
O O12 0.276149 0.342383 0.976812
O O13 0.500000 0.500000 0.500000
O O14 0.700255 0.952063 0.356598
O O15 0.280475 0.052788 0.057149
#
# Coordination Sequence:
#
# PCOD9053220 Si02
#       7
#     2   2   2   2   2   2   2
#     4   8  18  32  55  85 112 147 181 241 297 337
#     4  11  22  41  56  80 116 160 204 234 269 338
#     4  11  19  34  58  91 115 144 189 241 296 350
#     4  11  22  35  55  87 127 151 177 241 309 351
#     4  11  24  36  60  86 116 158 192 232 296 347
#     4   9  17  32  55  88 109 147 191 233 295 336
#     4   9  17  31  55  80 111 142 186 244 271 326
#
# _framework density 18.034531999999999
#
# number of rings (size 3 to 8) (size 9 to 14) (size 15 to 20)
#    0.857    1.143    1.429    4.286    0.000    0.000 
#    0.000    0.000    0.000    1.714    0.000    0.000 
#    0.000    0.000    0.000    0.000    0.000    0.000 
#
# Total GULP energy -77940.509376 kJ/mol
# GULP energy per Si atom -5567.179241 kJ/mol
# Density = 1.799349 g / cm^3
# Si number density = 18.034532 Si / 1000 Ang^3
#
#
#
# Elastic Constant Matrix: (Units=GPa)
#
#
# Indices 1 2 3 4 5 6 
#
# 1 108.5372 44.7447 35.2260 -7.2894 -0.9066 1.5881
# 2 44.7447 71.4405 21.0079 -6.9002 2.8135 -4.9128
# 3 35.2260 21.0079 85.6055 -8.4935 -1.0422 -4.3326
# 4 -7.2894 -6.9002 -8.4935 13.5182 1.6731 -4.6358
# 5 -0.9066 2.8135 -1.0422 1.6731 31.4879 -11.4688
# 6 1.5881 -4.9128 -4.3326 -4.6358 -11.4688 31.4531
#
#
#
# Elastic Compliance Matrix: (Units=1/GPa)
#
#
# Indices 1 2 3 4 5 6 
#
# 1 0.013622 -0.007537 -0.003845 0.000275 0.000076 -0.002326
# 2 -0.007537 0.019986 -0.000905 0.007084 -0.000921 0.004086
# 3 -0.003845 -0.000905 0.014445 0.007629 0.001380 0.003670
# 4 0.000275 0.007084 0.007629 0.087700 0.000526 0.015261
# 5 0.000076 -0.000921 0.001380 0.000526 0.036790 0.013535
# 6 -0.002326 0.004086 0.003670 0.015261 0.013535 0.040239
#
#
# Mechanical properties :
#
#
# Convention : Reuss Voigt Hill
#
# Bulk Modulus (GPa) = 42.59182 51.94893 47.27037
# Shear Modulus (GPa) = 20.39297 26.26549 23.32923
#
# Velocity S-wave (km/s) = 3.36635 3.82042 3.60055
# Velocity P-wave (km/s) = 6.22718 6.95188 6.59948
#
# Compressibility (1/GPa) = 0.02347869
#
# Stress axis : x y z
#
# Youngs Moduli (GPa) = 73.41176 50.03517 69.22736
#
# Poissons Ratio (x) = 0.37713 0.26619
# Poissons Ratio (y) = 0.55333 0.06263
# Poissons Ratio (z) = 0.28228 0.04526
#
# Static dielectric constant tensor:
#      x y z
#    x 1.664910 0.010440 -0.011340 
#    y 0.010440 1.613750 -0.032470 
#    z -0.011340 -0.032470 1.645090 
# 
# From -- ./inp_files/470296.got.cif
#   From: 2010.05.17/outbox.cif.g08.bks.cpg/sg2_236_cif.got.tgz:470296.got - 2010.06.03 11:33:40.
