data_PCOD9053452
_publ_section_title
;
Structure prediction by ZEFSAII (Michael W. Deem and Ramdas Pophale) SiO2 
 PCOD9053452
Probable space group: P -1
;
_chemical_formula_sum "Si O2"
_cell_formula_units_Z 16
_cell_length_a 9.645010
_cell_length_b 18.799864
_cell_length_c 9.270993
_cell_angle_alpha 36.050475
_cell_angle_beta 104.827370
_cell_angle_gamma 120.715502
_cell_volume 808.500073
_symmetry_space_group_name_H-M "P -1"
_symmetry_group_IT_number 2
_symmetry_cell_setting 'triclinic'
loop_
_space_group_symop_operation_xyz
x,y,z
-x,-y,-z
loop_
_atom_site_type_symbol
_atom_site_label
_atom_site_fract_x
_atom_site_fract_y
_atom_site_fract_z
Si Si1 0.442727 0.338867 0.600734
Si Si2 0.613091 0.195581 0.050859
Si Si3 0.706374 0.108871 0.473860
Si Si4 0.385174 0.123917 0.694515
Si Si5 0.800533 0.937691 0.561856
Si Si6 0.277499 0.335282 0.842579
Si Si7 0.948326 0.339087 0.725943
Si Si8 0.245912 0.828837 0.310894
O O1 0.384211 0.243195 0.598757
O O2 0.297758 0.319366 0.702784
O O3 0.571024 0.506590 0.331893
O O4 0.543388 0.285918 0.813643
O O5 0.666066 0.212484 0.204777
O O6 0.465276 0.028691 0.281663
O O7 0.776363 0.234814 0.937508
O O8 0.814323 0.178978 0.529194
O O9 0.774459 0.042617 0.485505
O O10 0.287460 0.090218 0.572099
O O11 0.582296 0.174840 0.640678
O O12 0.298090 0.978551 0.003796
O O13 0.717482 0.787510 0.869744
O O14 0.000000 0.000000 0.500000
O O15 0.099392 0.320763 0.844432
O O16 0.898726 0.296251 0.617943
O O17 0.000000 0.500000 0.500000
#
# Coordination Sequence:
#
# PCOD9053452 Si02
#       8
#     2   2   2   2   2   2   2   2
#     4  11  22  42  65  91 125 168 214 250 311 382
#     4  11  19  40  64  89 124 161 208 261 302 367
#     4  11  22  37  65  93 121 159 214 263 303 366
#     4  11  21  38  63  93 122 161 212 259 304 372
#     4  12  25  40  61  94 134 166 200 261 322 368
#     4  11  24  41  63  91 129 172 201 254 323 371
#     4  12  23  41  65  91 126 166 211 256 310 371
#     4  11  20  36  64  94 119 160 216 259 302 360
#
# _framework density 19.789729999999999
#
# number of rings (size 3 to 8) (size 9 to 14) (size 15 to 20)
#    0.000    0.750    5.000    4.500    0.000    1.500 
#    0.000    3.125    0.000    0.000    0.000    0.000 
#    0.000    0.000    0.000    0.000    0.000    0.000 
#
# Total GULP energy -89413.987518 kJ/mol
# GULP energy per Si atom -5588.374220 kJ/mol
# Density = 1.974469 g / cm^3
# Si number density = 19.789730 Si / 1000 Ang^3
#
#
#
# Elastic Constant Matrix: (Units=GPa)
#
#
# Indices 1 2 3 4 5 6 
#
# 1 71.7274 10.0631 9.0077 -1.9707 -7.3671 -6.1514
# 2 10.0631 149.1991 41.6240 13.9351 6.1385 -20.0524
# 3 9.0077 41.6240 70.1447 11.5679 2.2398 -1.6756
# 4 -1.9707 13.9351 11.5679 26.9731 0.6545 6.7345
# 5 -7.3671 6.1385 2.2398 0.6545 26.2703 3.1897
# 6 -6.1514 -20.0524 -1.6756 6.7345 3.1897 28.8276
#
#
#
# Elastic Compliance Matrix: (Units=1/GPa)
#
#
# Indices 1 2 3 4 5 6 
#
# 1 0.014898 -0.000538 -0.001955 0.001643 0.004206 0.001842
# 2 -0.000538 0.009635 -0.004557 -0.004939 -0.002837 0.007790
# 3 -0.001955 -0.004557 0.018065 -0.005209 -0.000743 -0.001238
# 4 0.001643 -0.004939 -0.005209 0.045487 0.002663 -0.014309
# 5 0.004206 -0.002837 -0.000743 0.002663 0.040663 -0.006240
# 6 0.001842 0.007790 -0.001238 -0.014309 -0.006240 0.044462
#
#
# Mechanical properties :
#
#
# Convention : Reuss Voigt Hill
#
# Bulk Modulus (GPa) = 35.09198 45.82896 40.46047
# Shear Modulus (GPa) = 25.40524 31.77261 28.58893
#
# Velocity S-wave (km/s) = 3.58685 4.01123 3.80496
# Velocity P-wave (km/s) = 5.90973 6.68293 6.30818
#
# Compressibility (1/GPa) = 0.02849654
#
# Stress axis : x y z
#
# Youngs Moduli (GPa) = 67.12413 103.78668 55.35654
#
# Poissons Ratio (x) = 0.05588 0.10822
# Poissons Ratio (y) = 0.03614 0.25227
# Poissons Ratio (z) = 0.13122 0.47298
#
# Static dielectric constant tensor:
#      x y z
#    x 1.724640 -0.019870 0.002850 
#    y -0.019870 1.723230 0.013240 
#    z 0.002850 0.013240 1.691010 
# 
# From -- ./inp_files/216514.got.cif
#   From: 2010.05.17/outbox.cif.g08.bks.cpg/sg2_109_cif.got.tgz:216514.got - 2010.06.03 11:33:40.
