data_PCOD9053369
_publ_section_title
;
Structure prediction by ZEFSAII (Michael W. Deem and Ramdas Pophale) SiO2 
 PCOD9053369
Probable space group: P -1
;
_chemical_formula_sum "Si O2"
_cell_formula_units_Z 12
_cell_length_a 18.564867
_cell_length_b 10.682556
_cell_length_c 12.835966
_cell_angle_alpha 32.792321
_cell_angle_beta 21.721943
_cell_angle_gamma 40.843767
_cell_volume 506.451085
_symmetry_space_group_name_H-M "P -1"
_symmetry_group_IT_number 2
_symmetry_cell_setting 'triclinic'
loop_
_space_group_symop_operation_xyz
x,y,z
-x,-y,-z
loop_
_atom_site_type_symbol
_atom_site_label
_atom_site_fract_x
_atom_site_fract_y
_atom_site_fract_z
Si Si1 0.215753 0.124947 0.597926
Si Si2 0.109890 0.611222 0.378441
Si Si3 0.405928 0.050198 0.725946
Si Si4 0.126546 0.402743 0.802889
Si Si5 0.787994 0.084816 0.709017
Si Si6 0.179822 0.044137 0.468509
O O1 0.201299 0.393129 0.456483
O O2 0.370466 0.995883 0.543858
O O3 0.273728 0.118548 0.401316
O O4 0.000000 0.000000 0.000000
O O5 0.000000 0.500000 0.500000
O O6 0.933157 0.742382 0.569340
O O7 0.281792 0.827134 0.993749
O O8 0.327165 0.288142 0.630631
O O9 0.346677 0.040266 0.934420
O O10 0.184336 0.640512 0.498085
O O11 0.000000 0.500000 0.000000
O O12 0.976052 0.177462 0.132338
O O13 0.720260 0.036033 0.714826
O O14 0.000000 0.000000 0.500000
#
# Coordination Sequence:
#
# PCOD9053369 Si02
#       6
#     2   2   2   2   2   2
#     4  11  25  42  61  92 137 178 222 270 308 381
#     4   9  19  41  64  89 127 169 217 265 313 389
#     4  11  22  41  68  99 127 177 217 257 343 387
#     4   9  18  37  63  96 126 159 214 264 328 396
#     4  11  19  37  72  95 127 169 205 281 339 384
#     4   9  20  39  63  93 128 168 217 268 326 383
#
# _framework density 23.694292999999998
#
# number of rings (size 3 to 8) (size 9 to 14) (size 15 to 20)
#    0.000    2.000    5.000    0.500    2.333    0.667 
#    9.000    7.500    0.000    0.000    0.000    0.000 
#    0.000    0.000    0.000    0.000    0.000    0.000 
#
# Total GULP energy -66886.916425 kJ/mol
# GULP energy per Si atom -5573.909702 kJ/mol
# Density = 2.364036 g / cm^3
# Si number density = 23.694293 Si / 1000 Ang^3
#
#
#
# Elastic Constant Matrix: (Units=GPa)
#
#
# Indices 1 2 3 4 5 6 
#
# 1 105.4432 56.5504 18.5405 3.8673 0.6665 18.8528
# 2 56.5504 198.2056 42.2226 -20.3710 -14.5979 -27.6833
# 3 18.5405 42.2226 34.3027 10.7785 -6.0589 -13.1228
# 4 3.8673 -20.3710 10.7785 39.0448 -11.1546 -1.3117
# 5 0.6665 -14.5979 -6.0589 -11.1546 38.1480 3.2276
# 6 18.8528 -27.6833 -13.1228 -1.3117 3.2276 66.5276
#
#
#
# Elastic Compliance Matrix: (Units=1/GPa)
#
#
# Indices 1 2 3 4 5 6 
#
# 1 0.014053 -0.004884 -0.003384 -0.004175 -0.003314 -0.006604
# 2 -0.004884 0.011117 -0.012297 0.011341 0.005403 0.003546
# 3 -0.003384 -0.012297 0.054918 -0.021841 -0.002850 0.006382
# 4 -0.004175 0.011341 -0.021841 0.041745 0.012999 0.001787
# 5 -0.003314 0.005403 -0.002850 0.012999 0.031573 0.001349
# 6 -0.006604 0.003546 0.006382 0.001787 0.001349 0.019607
#
#
# Mechanical properties :
#
#
# Convention : Reuss Voigt Hill
#
# Bulk Modulus (GPa) = 25.66816 63.61982 44.64399
# Shear Modulus (GPa) = 22.01407 43.45326 32.73366
#
# Velocity S-wave (km/s) = 3.05140 4.28707 3.72089
# Velocity P-wave (km/s) = 4.82403 7.17034 6.11086
#
# Compressibility (1/GPa) = 0.03895877
#
# Stress axis : x y z
#
# Youngs Moduli (GPa) = 71.15954 89.95235 18.20911
#
# Poissons Ratio (x) = 0.43934 0.06161
# Poissons Ratio (y) = 0.34755 0.22391
# Poissons Ratio (z) = 0.24078 1.10611
#
# Static dielectric constant tensor:
#      x y z
#    x 2.001890 0.023730 0.022020 
#    y 0.023730 1.915670 0.046100 
#    z 0.022020 0.046100 1.924310 
# 
# From -- ./inp_files/373320.got.cif
#   From: 2010.05.17/outbox.cif.g08.bks.cpg/sg2_187_cif.got.tgz:373320.got - 2010.06.03 11:33:40.
