data_PCOD9053277
_publ_section_title
;
Structure prediction by ZEFSAII (Michael W. Deem and Ramdas Pophale) SiO2 
 PCOD9053277
Probable space group: P -1
;
_chemical_formula_sum "Si O2"
_cell_formula_units_Z 14
_cell_length_a 20.371388
_cell_length_b 8.655111
_cell_length_c 11.096767
_cell_angle_alpha 139.582825
_cell_angle_beta 154.504664
_cell_angle_gamma 44.226140
_cell_volume 542.983698
_symmetry_space_group_name_H-M "P -1"
_symmetry_group_IT_number 2
_symmetry_cell_setting 'triclinic'
loop_
_space_group_symop_operation_xyz
x,y,z
-x,-y,-z
loop_
_atom_site_type_symbol
_atom_site_label
_atom_site_fract_x
_atom_site_fract_y
_atom_site_fract_z
Si Si1 0.451090 0.991629 0.711546
Si Si2 0.778505 0.266113 0.102941
Si Si3 0.419198 0.339106 0.091415
Si Si4 0.326036 0.432037 0.662353
Si Si5 0.103873 0.114450 0.496549
Si Si6 0.230497 0.125810 0.960850
Si Si7 0.145689 0.581618 0.219796
O O1 0.600676 0.951348 0.853911
O O2 0.469403 0.183289 0.964074
O O3 0.323414 0.146966 0.513108
O O4 0.457705 0.744375 0.651141
O O5 0.629142 0.382496 0.851993
O O6 0.772211 0.431721 0.312064
O O7 0.937744 0.257472 0.290158
O O8 0.776813 0.004752 0.001528
O O9 0.252755 0.249107 0.794655
O O10 0.273250 0.524098 0.499338
O O11 0.500000 0.500000 0.000000
O O12 0.120017 0.858482 0.306388
O O13 0.119525 0.050398 0.627076
O O14 0.189001 0.406265 0.077414
O O15 0.000000 0.500000 0.000000
#
# Coordination Sequence:
#
# PCOD9053277 Si02
#       7
#     2   2   2   2   2   2   2
#     4   9  19  38  58  88 122 160 210 257 304 372
#     4  11  19  35  65  93 122 164 212 256 315 374
#     4   9  20  35  65  87 120 173 209 247 317 384
#     4  11  20  37  65  93 125 166 205 261 317 370
#     4  11  21  41  61  90 130 167 207 259 316 378
#     4  11  21  38  65  94 124 163 212 266 312 370
#     4  12  24  38  65  99 127 162 213 265 317 369
#
# _framework density 25.783462
#
# number of rings (size 3 to 8) (size 9 to 14) (size 15 to 20)
#    0.000    1.429    4.286    2.571    0.000    0.571 
#    0.000    0.714   12.571    7.714    0.000    0.000 
#    0.000    0.000    0.000    0.000    0.000    0.000 
#
# Total GULP energy -78308.089121 kJ/mol
# GULP energy per Si atom -5593.434937 kJ/mol
# Density = 2.572478 g / cm^3
# Si number density = 25.783462 Si / 1000 Ang^3
#
#
#
# Elastic Constant Matrix: (Units=GPa)
#
#
# Indices 1 2 3 4 5 6 
#
# 1 79.3421 19.8121 12.0596 1.3587 14.2785 -19.6036
# 2 19.8121 163.2397 17.8215 7.9345 -3.2583 -21.1898
# 3 12.0596 17.8215 49.2479 -5.6602 11.1753 -10.0713
# 4 1.3587 7.9345 -5.6602 28.6199 -0.3685 0.3945
# 5 14.2785 -3.2583 11.1753 -0.3685 32.6825 -3.9717
# 6 -19.6036 -21.1898 -10.0713 0.3945 -3.9717 56.0805
#
#
#
# Elastic Compliance Matrix: (Units=1/GPa)
#
#
# Indices 1 2 3 4 5 6 
#
# 1 0.015204 -0.001252 -0.001160 -0.000738 -0.005866 0.004223
# 2 -0.001252 0.006976 -0.002636 -0.002392 0.002349 0.001908
# 3 -0.001160 -0.002636 0.024423 0.005483 -0.007754 0.002397
# 4 -0.000738 -0.002392 0.005483 0.036712 -0.001442 -0.000538
# 5 -0.005866 0.002349 -0.007754 -0.001442 0.036030 0.000006
# 6 0.004223 0.001908 0.002397 -0.000538 0.000006 0.020464
#
#
# Mechanical properties :
#
#
# Convention : Reuss Voigt Hill
#
# Bulk Modulus (GPa) = 27.39079 43.46846 35.42962
# Shear Modulus (GPa) = 30.85002 39.61902 35.23452
#
# Velocity S-wave (km/s) = 3.46280 3.92421 3.70071
# Velocity P-wave (km/s) = 5.16086 6.11786 5.65962
#
# Compressibility (1/GPa) = 0.03650863
#
# Stress axis : x y z
#
# Youngs Moduli (GPa) = 65.77109 143.33887 40.94468
#
# Poissons Ratio (x) = 0.17941 0.04751
# Poissons Ratio (y) = 0.08232 0.10792
# Poissons Ratio (z) = 0.07632 0.37780
#
# Static dielectric constant tensor:
#      x y z
#    x 2.033150 0.083730 0.035180 
#    y 0.083730 2.087000 0.025540 
#    z 0.035180 0.025540 2.090620 
# 
# From -- ./inp_files/280166.got.cif
#   From: 2010.05.17/outbox.cif.g08.bks.cpg/sg2_141_cif.got.tgz:280166.got - 2010.06.03 11:33:40.
