data_PCOD9053475
_publ_section_title
;
Structure prediction by ZEFSAII (Michael W. Deem and Ramdas Pophale) SiO2 
 PCOD9053475
Probable space group: P -1
;
_chemical_formula_sum "Si O2"
_cell_formula_units_Z 11
_cell_length_a 10.628346
_cell_length_b 7.110341
_cell_length_c 12.362975
_cell_angle_alpha 127.028385
_cell_angle_beta 35.739485
_cell_angle_gamma 111.225697
_cell_volume 419.259798
_symmetry_space_group_name_H-M "P -1"
_symmetry_group_IT_number 2
_symmetry_cell_setting 'triclinic'
loop_
_space_group_symop_operation_xyz
x,y,z
-x,-y,-z
loop_
_atom_site_type_symbol
_atom_site_label
_atom_site_fract_x
_atom_site_fract_y
_atom_site_fract_z
Si Si1 0.516022 0.834444 0.647738
Si Si2 0.260185 0.825291 0.270320
Si Si3 0.040488 0.516271 0.833074
Si Si4 0.702383 0.189873 0.997628
Si Si5 0.000000 0.000000 0.000000
Si Si6 0.898478 0.626664 0.726272
O O1 0.709169 0.645905 0.382997
O O2 0.277176 0.918706 0.788959
O O3 0.618140 0.060303 0.683569
O O4 0.483561 0.722954 0.750501
O O5 0.378276 0.835132 0.076894
O O6 0.256911 0.549925 0.199019
O O7 0.000000 0.000000 0.500000
O O8 0.862371 0.366779 0.926747
O O9 0.990114 0.776157 0.014326
O O10 0.023465 0.613640 0.751825
O O11 0.825384 0.913162 0.852402
O O12 0.000000 0.500000 0.500000
#
# Coordination Sequence:
#
# PCOD9053475 Si02
#       6
#     2   2   2   2   1   2
#     4  12  24  48  74 102 148 190 232 301 351 420
#     4  11  21  41  72 110 148 179 232 302 359 427
#     4  11  25  51  70 105 147 183 246 298 341 431
#     4  11  23  44  74 110 141 183 241 295 366 421
#     4  12  28  50  74 102 142 200 246 280 354 430
#     4  11  19  40  74 107 144 180 229 293 367 419
#
# _framework density 26.236716000000001
#
# number of rings (size 3 to 8) (size 9 to 14) (size 15 to 20)
#    0.000    0.727    7.273    1.091    0.000    1.455 
#    9.818    1.818    0.000    0.000    0.000    0.000 
#    0.000    0.000    0.000    0.000    0.000    0.000 
#
# Total GULP energy -61340.795122 kJ/mol
# GULP energy per Si atom -5576.435920 kJ/mol
# Density = 2.617700 g / cm^3
# Si number density = 26.236716 Si / 1000 Ang^3
#
#
#
# Elastic Constant Matrix: (Units=GPa)
#
#
# Indices 1 2 3 4 5 6 
#
# 1 101.7487 36.1507 -5.9623 1.8576 -15.1683 -7.7065
# 2 36.1507 192.5367 33.2065 17.6767 -12.9810 14.3312
# 3 -5.9623 33.2065 58.0214 -1.6590 -17.7695 -12.0271
# 4 1.8576 17.6767 -1.6590 41.5538 -4.1138 4.8021
# 5 -15.1683 -12.9810 -17.7695 -4.1138 56.4941 -15.9276
# 6 -7.7065 14.3312 -12.0271 4.8021 -15.9276 47.5636
#
#
#
# Elastic Compliance Matrix: (Units=1/GPa)
#
#
# Indices 1 2 3 4 5 6 
#
# 1 0.013294 -0.003966 0.007437 0.001234 0.007207 0.007518
# 2 -0.003966 0.007611 -0.006997 -0.003030 -0.003288 -0.005500
# 3 0.007437 -0.006997 0.029624 0.003478 0.014253 0.015226
# 4 0.001234 -0.003030 0.003478 0.025669 0.002683 0.000299
# 5 0.007207 -0.003288 0.014253 0.002683 0.027725 0.014776
# 6 0.007518 -0.005500 0.015226 0.000299 0.014776 0.032668
#
#
# Mechanical properties :
#
#
# Convention : Reuss Voigt Hill
#
# Bulk Modulus (GPa) = 23.00078 53.23295 38.11687
# Shear Modulus (GPa) = 31.61840 48.38309 40.00074
#
# Velocity S-wave (km/s) = 3.47525 4.29896 3.90886
# Velocity P-wave (km/s) = 4.98887 6.70633 5.91032
#
# Compressibility (1/GPa) = 0.04347678
#
# Stress axis : x y z
#
# Youngs Moduli (GPa) = 75.22118 131.38708 33.75587
#
# Poissons Ratio (x) = 0.52104 -0.25103
# Poissons Ratio (y) = 0.29830 0.23620
# Poissons Ratio (z) = -0.55938 0.91935
#
# Static dielectric constant tensor:
#      x y z
#    x 1.787180 -0.294100 -0.100200 
#    y -0.294100 1.789360 -0.095720 
#    z -0.100200 -0.095720 2.074790 
# 
# From -- ./inp_files/510540.got.cif
#   From: 2010.05.17/outbox.cif.g08.bks.cpg/sg2_256_cif.got.tgz:510540.got - 2010.06.03 11:33:40.
