data_PCOD9053437
_publ_section_title
;
Structure prediction by ZEFSAII (Michael W. Deem and Ramdas Pophale) SiO2 
 PCOD9053437
Probable space group: P -1
;
_chemical_formula_sum "Si O2"
_cell_formula_units_Z 14
_cell_length_a 14.949800
_cell_length_b 8.674405
_cell_length_c 11.917098
_cell_angle_alpha 58.884460
_cell_angle_beta 46.345825
_cell_angle_gamma 29.081100
_cell_volume 526.765790
_symmetry_space_group_name_H-M "P -1"
_symmetry_group_IT_number 2
_symmetry_cell_setting 'triclinic'
loop_
_space_group_symop_operation_xyz
x,y,z
-x,-y,-z
loop_
_atom_site_type_symbol
_atom_site_label
_atom_site_fract_x
_atom_site_fract_y
_atom_site_fract_z
Si Si1 0.241587 0.309305 0.360017
Si Si2 0.732411 0.141719 0.722674
Si Si3 0.082451 0.242207 0.938185
Si Si4 0.590712 0.742279 0.103526
Si Si5 0.700019 0.367141 0.432563
Si Si6 0.203944 0.387878 0.622335
Si Si7 0.175359 0.781118 0.159431
O O1 0.280958 0.302571 0.459464
O O2 0.236993 0.494566 0.216330
O O3 0.000000 0.500000 0.500000
O O4 0.439920 0.949992 0.268318
O O5 0.490446 0.344779 0.846894
O O6 0.777959 0.174033 0.551676
O O7 0.746171 0.258256 0.769493
O O8 0.934435 0.755470 0.714922
O O9 0.223868 0.171619 0.746632
O O10 0.852088 0.446222 0.008890
O O11 0.000000 0.500000 0.000000
O O12 0.215693 0.917314 0.003616
O O13 0.500000 0.000000 0.000000
O O14 0.500000 0.500000 0.500000
O O15 0.687875 0.586574 0.405321
O O16 0.904859 0.106009 0.267826
#
# Coordination Sequence:
#
# PCOD9053437 Si02
#       7
#     2   2   2   2   2   2   2
#     4  12  23  45  75 107 142 189 244 304 357 423
#     4  11  19  39  71 100 135 187 245 280 361 431
#     4  12  23  43  71 104 144 190 234 294 363 427
#     4  12  24  44  73 103 142 192 240 288 372 445
#     4  11  20  35  69 107 141 185 244 293 356 430
#     4  11  21  42  70  99 145 188 238 293 360 422
#     4  11  22  41  73 103 142 186 240 300 354 420
#
# _framework density 26.577275
#
# number of rings (size 3 to 8) (size 9 to 14) (size 15 to 20)
#    0.000    0.571    8.571    1.714    0.000    0.000 
#    0.000    6.429    6.286    1.714    0.000    1.000 
#    0.000    0.000    0.000    0.000    0.000    0.000 
#
# Total GULP energy -78442.986438 kJ/mol
# GULP energy per Si atom -5603.070460 kJ/mol
# Density = 2.651678 g / cm^3
# Si number density = 26.577275 Si / 1000 Ang^3
#
#
#
# Elastic Constant Matrix: (Units=GPa)
#
#
# Indices 1 2 3 4 5 6 
#
# 1 161.9445 43.7718 41.4401 5.6588 -19.7367 -12.4917
# 2 43.7718 80.2816 58.9441 -20.0834 2.3375 13.9295
# 3 41.4401 58.9441 136.4412 -43.8180 -9.7236 1.4712
# 4 5.6588 -20.0834 -43.8180 66.1723 -3.2791 -3.2795
# 5 -19.7367 2.3375 -9.7236 -3.2791 43.8136 -0.9378
# 6 -12.4917 13.9295 1.4712 -3.2795 -0.9378 43.9569
#
#
#
# Elastic Compliance Matrix: (Units=1/GPa)
#
#
# Indices 1 2 3 4 5 6 
#
# 1 0.008839 -0.005734 -0.000811 -0.002624 0.004002 0.004246
# 2 -0.005734 0.023834 -0.008416 0.001421 -0.005807 -0.008918
# 3 -0.000811 -0.008416 0.013650 0.006864 0.003682 0.002570
# 4 -0.002624 0.001421 0.006864 0.020409 0.001796 0.000135
# 5 0.004002 -0.005807 0.003682 0.001796 0.025964 0.003542
# 6 0.004246 -0.008918 0.002570 0.000135 0.003542 0.026782
#
#
# Mechanical properties :
#
#
# Convention : Reuss Voigt Hill
#
# Bulk Modulus (GPa) = 60.97041 74.10881 67.53961
# Shear Modulus (GPa) = 32.28595 46.42265 39.35430
#
# Velocity S-wave (km/s) = 3.48917 4.18389 3.85223
# Velocity P-wave (km/s) = 6.26283 7.16134 6.72710
#
# Compressibility (1/GPa) = 0.01640140
#
# Stress axis : x y z
#
# Youngs Moduli (GPa) = 113.13313 41.95774 73.25778
#
# Poissons Ratio (x) = 0.24057 0.05942
# Poissons Ratio (y) = 0.64865 0.61655
# Poissons Ratio (z) = 0.09176 0.35313
#
# Static dielectric constant tensor:
#      x y z
#    x 2.056490 0.031620 0.007900 
#    y 0.031620 2.081720 -0.013500 
#    z 0.007900 -0.013500 2.147970 
# 
# From -- ./inp_files/446921.got.cif
#   From: 2010.05.17/outbox.cif.g08.bks.cpg/sg2_224_cif.got.tgz:446921.got - 2010.06.03 11:33:40.
