data_PCOD9053984
_publ_section_title
;
Structure prediction by ZEFSAII (Michael W. Deem and Ramdas Pophale) SiO2 
 PCOD9053984
Probable space group: P -1
;
_chemical_formula_sum "Si O2"
_cell_formula_units_Z 16
_cell_length_a 15.516448
_cell_length_b 7.492633
_cell_length_c 7.911287
_cell_angle_alpha 76.941961
_cell_angle_beta 113.123469
_cell_angle_gamma 130.822443
_cell_volume 639.473209
_symmetry_space_group_name_H-M "P -1"
_symmetry_group_IT_number 2
_symmetry_cell_setting 'triclinic'
loop_
_space_group_symop_operation_xyz
x,y,z
-x,-y,-z
loop_
_atom_site_type_symbol
_atom_site_label
_atom_site_fract_x
_atom_site_fract_y
_atom_site_fract_z
Si Si1 0.919475 0.072107 0.381365
Si Si2 0.487947 0.760349 0.507898
Si Si3 0.621041 0.395802 0.205802
Si Si4 0.840322 0.467852 0.556943
Si Si5 0.752597 0.846400 0.987522
Si Si6 0.363340 0.956404 0.996735
Si Si7 0.714596 0.967376 0.439821
Si Si8 0.748980 0.520361 0.822471
O O1 0.806621 0.931168 0.451024
O O2 0.018817 0.351752 0.418380
O O3 0.865397 0.004414 0.167301
O O4 0.000000 0.000000 0.500000
O O5 0.439890 0.604354 0.671154
O O6 0.383776 0.616001 0.323486
O O7 0.500000 0.000000 0.500000
O O8 0.603012 0.805104 0.510316
O O9 0.744149 0.453068 0.360203
O O10 0.655519 0.596226 0.061224
O O11 0.508604 0.135428 0.103949
O O12 0.795439 0.207543 0.557783
O O13 0.822910 0.528174 0.719595
O O14 0.691158 0.970446 0.918261
O O15 0.790987 0.766765 0.876873
O O16 0.281548 0.673386 0.018767
O O17 0.334162 0.004179 0.780084
#
# Coordination Sequence:
#
# PCOD9053984 Si02
#       8
#     2   2   2   2   2   2   2   2
#     4  11  25  46  66  92 133 179 235 279 318 393
#     4  11  20  39  68 108 136 171 218 275 344 409
#     4  11  20  40  68  97 144 165 215 277 336 403
#     4  11  22  44  68  99 127 182 228 270 334 390
#     4  11  25  43  66 101 132 183 225 272 340 398
#     4  11  23  40  66 104 137 172 220 271 346 414
#     4  11  22  41  70  99 131 173 225 276 335 403
#     4  11  23  43  70  98 144 171 214 283 340 403
#
# _framework density 25.020595
#
# number of rings (size 3 to 8) (size 9 to 14) (size 15 to 20)
#    0.000    1.000    5.000    2.250    0.000    3.000 
#    4.500    6.250    0.000    0.000    0.000    0.000 
#    0.000    0.000    0.000    0.000    0.000    0.000 
#
# Total GULP energy -89481.121841 kJ/mol
# GULP energy per Si atom -5592.570115 kJ/mol
# Density = 2.496365 g / cm^3
# Si number density = 25.020595 Si / 1000 Ang^3
#
#
#
# Elastic Constant Matrix: (Units=GPa)
#
#
# Indices 1 2 3 4 5 6 
#
# 1 126.9714 28.3705 35.8473 20.8950 -8.7168 3.1596
# 2 28.3705 61.9573 10.6777 15.8244 -5.3329 0.4759
# 3 35.8473 10.6777 88.1623 19.2992 -14.8899 11.0478
# 4 20.8950 15.8244 19.2992 47.0521 1.4560 -5.1889
# 5 -8.7168 -5.3329 -14.8899 1.4560 44.4410 6.6902
# 6 3.1596 0.4759 11.0478 -5.1889 6.6902 42.3714
#
#
#
# Elastic Compliance Matrix: (Units=1/GPa)
#
#
# Indices 1 2 3 4 5 6 
#
# 1 0.009879 -0.003426 -0.003016 -0.002046 0.000622 -0.000260
# 2 -0.003426 0.019167 0.000794 -0.005452 0.002252 -0.001190
# 3 -0.003016 0.000794 0.015439 -0.006037 0.005694 -0.005448
# 4 -0.002046 -0.005452 -0.006037 0.027272 -0.004859 0.005895
# 5 0.000622 0.002252 0.005694 -0.004859 0.025901 -0.006241
# 6 -0.000260 -0.001190 -0.005448 0.005895 -0.006241 0.026761
#
#
# Mechanical properties :
#
#
# Convention : Reuss Voigt Hill
#
# Bulk Modulus (GPa) = 30.12976 47.43134 38.78055
# Shear Modulus (GPa) = 34.06529 40.25261 37.15895
#
# Velocity S-wave (km/s) = 3.69384 4.01531 3.85793
# Velocity P-wave (km/s) = 5.50098 6.36357 5.94793
#
# Compressibility (1/GPa) = 0.03318977
#
# Stress axis : x y z
#
# Youngs Moduli (GPa) = 101.22883 52.17226 64.77124
#
# Poissons Ratio (x) = 0.17872 0.19537
# Poissons Ratio (y) = 0.34677 -0.05145
# Poissons Ratio (z) = 0.30534 -0.04144
#
# Static dielectric constant tensor:
#      x y z
#    x 2.074150 -0.004240 -0.073000 
#    y -0.004240 2.344790 -0.090750 
#    z -0.073000 -0.090750 2.015190 
# 
# From -- ./inp_files/295571.got.cif
#   From: 2010.05.17/outbox.cif.g08.bks.cpg/sg2_148_cif.got.tgz:295571.got - 2010.06.03 11:33:40.
