data_PCOD9053534
_publ_section_title
;
Structure prediction by ZEFSAII (Michael W. Deem and Ramdas Pophale) SiO2 
 PCOD9053534
Probable space group: P -1
;
_chemical_formula_sum "Si O2"
_cell_formula_units_Z 16
_cell_length_a 15.469811
_cell_length_b 8.644374
_cell_length_c 6.441915
_cell_angle_alpha 58.350239
_cell_angle_beta 83.211734
_cell_angle_gamma 69.317919
_cell_volume 683.632600
_symmetry_space_group_name_H-M "P -1"
_symmetry_group_IT_number 2
_symmetry_cell_setting 'triclinic'
loop_
_space_group_symop_operation_xyz
x,y,z
-x,-y,-z
loop_
_atom_site_type_symbol
_atom_site_label
_atom_site_fract_x
_atom_site_fract_y
_atom_site_fract_z
Si Si1 0.067180 0.107096 0.809860
Si Si2 0.962476 0.681836 0.728008
Si Si3 0.688782 0.491012 0.983454
Si Si4 0.455623 0.359587 0.725049
Si Si5 0.192634 0.044017 0.199850
Si Si6 0.863603 0.213811 0.303291
Si Si7 0.351882 0.854943 0.990773
Si Si8 0.599122 0.864781 0.475503
O O1 0.027903 0.295346 0.540551
O O2 0.134225 0.942183 0.760975
O O3 0.127221 0.138051 0.957731
O O4 0.000000 0.000000 0.000000
O O5 0.031853 0.793882 0.698369
O O6 0.854010 0.791217 0.733347
O O7 0.000000 0.500000 0.000000
O O8 0.654530 0.696626 0.735673
O O9 0.622702 0.515888 0.183782
O O10 0.792664 0.413772 0.097679
O O11 0.674407 0.328888 0.947442
O O12 0.500000 0.500000 0.500000
O O13 0.418854 0.243427 0.649007
O O14 0.539807 0.216560 0.933681
O O15 0.171616 0.857229 0.427279
O O16 0.294562 0.963760 0.131443
O O17 0.341698 0.002470 0.700746
O O18 0.500000 0.000000 0.500000
#
# Coordination Sequence:
#
# PCOD9053534 Si02
#       8
#     2   2   2   2   2   2   2   2
#     4  11  19  43  73  87 131 185 230 273 341 415
#     4  11  25  42  64 106 142 178 228 295 354 417
#     4  12  26  45  71 104 139 187 237 292 359 425
#     4  12  24  46  72  98 140 186 228 291 358 421
#     4  11  23  44  68  99 131 185 232 283 350 421
#     4  11  23  42  69  97 135 178 233 287 344 423
#     4  12  25  46  71 103 139 183 241 293 355 428
#     4  12  27  48  71 102 143 185 235 295 358 425
#
# _framework density 23.404382999999999
#
# number of rings (size 3 to 8) (size 9 to 14) (size 15 to 20)
#    0.000    0.500    6.250    3.000    0.000    2.500 
#    2.250    0.000    0.000    0.000    0.000    0.000 
#    0.000    0.000    0.000    0.000    0.000    0.000 
#
# Total GULP energy -89366.593413 kJ/mol
# GULP energy per Si atom -5585.412088 kJ/mol
# Density = 2.335111 g / cm^3
# Si number density = 23.404383 Si / 1000 Ang^3
#
#
#
# Elastic Constant Matrix: (Units=GPa)
#
#
# Indices 1 2 3 4 5 6 
#
# 1 54.4082 26.4660 7.7464 -2.8820 -2.1346 -16.5193
# 2 26.4660 79.9762 36.8993 -12.0560 -9.7133 -25.8652
# 3 7.7464 36.8993 160.7867 -28.8921 -8.0892 -2.4740
# 4 -2.8820 -12.0560 -28.8921 47.2543 -0.9770 -3.0070
# 5 -2.1346 -9.7133 -8.0892 -0.9770 45.4985 0.8841
# 6 -16.5193 -25.8652 -2.4740 -3.0070 0.8841 29.2428
#
#
#
# Elastic Compliance Matrix: (Units=1/GPa)
#
#
# Indices 1 2 3 4 5 6 
#
# 1 0.023506 -0.004810 0.000283 0.000961 -0.000031 0.009148
# 2 -0.004810 0.022450 -0.003691 0.004346 0.003671 0.017164
# 3 0.000283 -0.003691 0.007717 0.003676 0.000717 -0.002095
# 4 0.000961 0.004346 0.003676 0.025078 0.002025 0.007215
# 5 -0.000031 0.003671 0.000717 0.002025 0.022877 0.002807
# 6 0.009148 0.017164 -0.002095 0.007215 0.002807 0.055025
#
#
# Mechanical properties :
#
#
# Convention : Reuss Voigt Hill
#
# Bulk Modulus (GPa) = 26.85353 48.59939 37.72646
# Shear Modulus (GPa) = 26.95408 39.33642 33.14525
#
# Velocity S-wave (km/s) = 3.39731 4.10412 3.76732
# Velocity P-wave (km/s) = 5.18532 6.57788 5.92267
#
# Compressibility (1/GPa) = 0.03723905
#
# Stress axis : x y z
#
# Youngs Moduli (GPa) = 42.54222 44.54344 129.58317
#
# Poissons Ratio (x) = 0.21423 -0.03670
# Poissons Ratio (y) = 0.20461 0.47825
# Poissons Ratio (z) = -0.01205 0.16440
#
# Static dielectric constant tensor:
#      x y z
#    x 1.876770 -0.009060 0.008760 
#    y -0.009060 1.930210 0.000360 
#    z 0.008760 0.000360 1.984050 
# 
# From -- ./inp_files/106270.got.cif
#   From: 2010.05.17/outbox.cif.g08.bks.cpg/sg2_54_cif.got.tgz:106270.got - 2010.06.03 11:33:40.
