data_PCOD9053754
_publ_section_title
;
Structure prediction by ZEFSAII (Michael W. Deem and Ramdas Pophale) SiO2 
 PCOD9053754
Probable space group: P -1
;
_chemical_formula_sum "Si O2"
_cell_formula_units_Z 16
_cell_length_a 24.223259
_cell_length_b 14.648177
_cell_length_c 10.946540
_cell_angle_alpha 27.555504
_cell_angle_beta 155.496772
_cell_angle_gamma 151.410768
_cell_volume 691.768560
_symmetry_space_group_name_H-M "P -1"
_symmetry_group_IT_number 2
_symmetry_cell_setting 'triclinic'
loop_
_space_group_symop_operation_xyz
x,y,z
-x,-y,-z
loop_
_atom_site_type_symbol
_atom_site_label
_atom_site_fract_x
_atom_site_fract_y
_atom_site_fract_z
Si Si1 0.354104 0.467360 0.597605
Si Si2 0.483250 0.613957 0.207087
Si Si3 0.068729 0.122635 0.369045
Si Si4 0.538013 0.853984 0.653586
Si Si5 0.803108 0.717190 0.989923
Si Si6 0.249916 0.002106 0.674210
Si Si7 0.099120 0.694276 0.555760
Si Si8 0.212580 0.957259 0.246951
O O1 0.447563 0.481538 0.647331
O O2 0.187905 0.349947 0.371530
O O3 0.404120 0.689246 0.505825
O O4 0.392179 0.297107 0.959486
O O5 0.500000 0.500000 0.500000
O O6 0.583065 0.863368 0.117792
O O7 0.311718 0.523206 0.954214
O O8 0.153452 0.011067 0.586246
O O9 0.000000 0.000000 0.500000
O O10 0.939993 0.144403 0.006144
O O11 0.658292 0.004275 0.628286
O O12 0.500000 0.000000 0.500000
O O13 0.968543 0.754059 0.272568
O O14 0.778155 0.844742 0.669880
O O15 0.777386 0.816961 0.945910
O O16 0.204130 0.769003 0.797518
O O17 0.000000 0.500000 0.500000
O O18 0.207751 0.830450 0.510321
#
# Coordination Sequence:
#
# PCOD9053754 Si02
#       8
#     2   2   2   2   2   2   2   2
#     4  10  22  40  65  92 118 164 211 243 314 368
#     4   9  18  32  63  87 114 150 199 245 297 365
#     4  11  19  35  64  88 117 160 207 246 297 373
#     4  11  24  43  64  89 125 163 208 260 298 366
#     4  10  17  35  62  83 112 154 197 242 296 354
#     4   9  18  35  56  84 114 148 194 244 293 350
#     4  11  22  36  57  90 122 154 197 253 303 363
#     4  11  20  40  61  88 117 159 208 246 306 358
#
# _framework density 23.129124000000001
#
# number of rings (size 3 to 8) (size 9 to 14) (size 15 to 20)
#    0.000    1.750    5.000    0.750    0.000    1.000 
#    2.250    3.750    0.000    0.000    0.000    0.000 
#    0.000    0.000    0.000    0.000    0.000    0.000 
#
# Total GULP energy -89261.200911 kJ/mol
# GULP energy per Si atom -5578.825057 kJ/mol
# Density = 2.307648 g / cm^3
# Si number density = 23.129124 Si / 1000 Ang^3
#
#
#
# Elastic Constant Matrix: (Units=GPa)
#
#
# Indices 1 2 3 4 5 6 
#
# 1 182.5768 77.5069 30.1212 -0.3641 6.3862 11.6063
# 2 77.5069 215.2051 36.9001 11.9075 17.2743 -19.7022
# 3 30.1212 36.9001 32.9290 5.8721 4.5435 -1.2786
# 4 -0.3641 11.9075 5.8721 33.4711 0.5441 1.3150
# 5 6.3862 17.2743 4.5435 0.5441 24.4930 4.7653
# 6 11.6063 -19.7022 -1.2786 1.3150 4.7653 49.7988
#
#
#
# Elastic Compliance Matrix: (Units=1/GPa)
#
#
# Indices 1 2 3 4 5 6 
#
# 1 0.007391 -0.002300 -0.004777 0.001833 0.001106 -0.002909
# 2 -0.002300 0.007061 -0.004776 -0.001775 -0.004165 0.003652
# 3 -0.004777 -0.004776 0.041550 -0.005621 -0.003112 0.000737
# 4 0.001833 -0.001775 -0.005621 0.031577 0.001554 -0.002256
# 5 0.001106 -0.004165 -0.003112 0.001554 0.045257 -0.006357
# 6 -0.002909 0.003652 0.000737 -0.002256 -0.006357 0.022891
#
#
# Mechanical properties :
#
#
# Convention : Reuss Voigt Hill
#
# Bulk Modulus (GPa) = 30.96170 79.97417 55.46793
# Shear Modulus (GPa) = 26.28863 40.63144 33.46004
#
# Velocity S-wave (km/s) = 3.37501 4.19587 3.80763
# Velocity P-wave (km/s) = 5.34819 7.62405 6.58518
#
# Compressibility (1/GPa) = 0.03229797
#
# Stress axis : x y z
#
# Youngs Moduli (GPa) = 135.29468 141.62925 24.06760
#
# Poissons Ratio (x) = 0.32568 0.11496
# Poissons Ratio (y) = 0.31111 0.11494
# Poissons Ratio (z) = 0.64625 0.67638
#
# Static dielectric constant tensor:
#      x y z
#    x 1.823040 -0.027440 -0.077580 
#    y -0.027440 1.905540 -0.018770 
#    z -0.077580 -0.018770 1.902070 
# 
# From -- ./inp_files/475123.got.cif
#   From: 2010.05.17/outbox.cif.g08.bks.cpg/sg2_238_cif.got.tgz:475123.got - 2010.06.03 11:33:40.
