data_PCOD9053694
_publ_section_title
;
Structure prediction by ZEFSAII (Michael W. Deem and Ramdas Pophale) SiO2 
 PCOD9053694
Probable space group: P -1
;
_chemical_formula_sum "Si O2"
_cell_formula_units_Z 14
_cell_length_a 13.124858
_cell_length_b 11.190790
_cell_length_c 11.531037
_cell_angle_alpha 139.262805
_cell_angle_beta 32.659561
_cell_angle_gamma 123.815757
_cell_volume 580.303311
_symmetry_space_group_name_H-M "P -1"
_symmetry_group_IT_number 2
_symmetry_cell_setting 'triclinic'
loop_
_space_group_symop_operation_xyz
x,y,z
-x,-y,-z
loop_
_atom_site_type_symbol
_atom_site_label
_atom_site_fract_x
_atom_site_fract_y
_atom_site_fract_z
Si Si1 0.649353 0.031174 0.282010
Si Si2 0.719752 0.503561 0.324146
Si Si3 0.260599 0.210939 0.666651
Si Si4 0.480025 0.194726 0.098601
Si Si5 0.088988 0.690663 0.777287
Si Si6 0.168832 0.284695 0.288151
Si Si7 0.119211 0.897578 0.418951
O O1 0.490992 0.148361 0.425679
O O2 0.788972 0.167367 0.284108
O O3 0.500000 0.000000 0.500000
O O4 0.791613 0.837405 0.956986
O O5 0.500000 0.500000 0.500000
O O6 0.798456 0.588640 0.197727
O O7 0.828038 0.343406 0.190941
O O8 0.685366 0.674075 0.572414
O O9 0.199814 0.049028 0.528775
O O10 0.135119 0.233284 0.920196
O O11 0.689495 0.239597 0.920091
O O12 0.385150 0.213314 0.079092
O O13 0.500000 0.000000 0.000000
O O14 0.118489 0.508663 0.529432
O O15 0.012314 0.202862 0.450729
O O16 0.000000 0.000000 0.500000
#
# Coordination Sequence:
#
# PCOD9053694 Si02
#       7
#     2   2   2   2   2   2   2
#     4  12  27  50  74  94 131 187 239 289 335 390
#     4  11  22  36  64  96 143 177 211 273 344 409
#     4  12  24  44  67 102 142 181 227 279 341 413
#     4  11  20  36  56  92 133 181 216 256 330 406
#     4  11  26  44  68 104 137 175 229 282 348 413
#     4  11  24  44  64  99 135 173 227 281 335 404
#     4  12  22  34  67  97 136 178 217 265 340 415
#
# _framework density 24.125315000000001
#
# number of rings (size 3 to 8) (size 9 to 14) (size 15 to 20)
#    0.000    0.571    7.143    1.286    4.000    1.143 
#    0.000    0.714    0.000    0.000    0.000    0.000 
#    0.000    0.000    0.000    0.000    0.000    0.000 
#
# Total GULP energy -78110.230486 kJ/mol
# GULP energy per Si atom -5579.302178 kJ/mol
# Density = 2.407040 g / cm^3
# Si number density = 24.125315 Si / 1000 Ang^3
#
#
#
# Elastic Constant Matrix: (Units=GPa)
#
#
# Indices 1 2 3 4 5 6 
#
# 1 51.7885 25.5760 15.2516 0.9264 -1.7641 6.1146
# 2 25.5760 150.5955 66.0295 -22.4466 19.9645 23.6617
# 3 15.2516 66.0295 148.7132 -20.1527 6.3686 8.4446
# 4 0.9264 -22.4466 -20.1527 45.5384 2.6021 2.3604
# 5 -1.7641 19.9645 6.3686 2.6021 42.0794 -1.6974
# 6 6.1146 23.6617 8.4446 2.3604 -1.6974 34.7751
#
#
#
# Elastic Compliance Matrix: (Units=1/GPa)
#
#
# Indices 1 2 3 4 5 6 
#
# 1 0.021825 -0.004094 -0.000942 -0.003036 0.003169 -0.000463
# 2 -0.004094 0.011331 -0.003325 0.004870 -0.005619 -0.006787
# 3 -0.000942 -0.003325 0.008573 0.002157 0.000116 0.000205
# 4 -0.003036 0.004870 0.002157 0.025912 -0.004580 -0.005286
# 5 0.003169 -0.005619 0.000116 -0.004580 0.027025 0.004868
# 6 -0.000463 -0.006787 0.000205 -0.005286 0.004868 0.034002
#
#
# Mechanical properties :
#
#
# Convention : Reuss Voigt Hill
#
# Bulk Modulus (GPa) = 39.98675 62.75684 51.37179
# Shear Modulus (GPa) = 32.52572 40.76125 36.64348
#
# Velocity S-wave (km/s) = 3.67577 4.11489 3.90151
# Velocity P-wave (km/s) = 5.88435 6.97465 6.45257
#
# Compressibility (1/GPa) = 0.02500828
#
# Stress axis : x y z
#
# Youngs Moduli (GPa) = 45.81875 88.25670 116.64626
#
# Poissons Ratio (x) = 0.36129 0.10982
# Poissons Ratio (y) = 0.18756 0.38786
# Poissons Ratio (z) = 0.04314 0.29346
#
# Static dielectric constant tensor:
#      x y z
#    x 2.255430 -0.148630 0.046660 
#    y -0.148630 1.945780 0.035460 
#    z 0.046660 0.035460 2.032610 
# 
# From -- ./inp_files/260432.got.cif
#   From: 2010.05.17/outbox.cif.g08.bks.cpg/sg2_131_cif.got.tgz:260432.got - 2010.06.03 11:33:40.
