data_PCOD9053002
_publ_section_title
;
Structure prediction by ZEFSAII (Michael W. Deem and Ramdas Pophale) SiO2 
 PCOD9053002
Probable space group: P -1
;
_chemical_formula_sum "Si O2"
_cell_formula_units_Z 14
_cell_length_a 7.097822
_cell_length_b 11.530240
_cell_length_c 10.277208
_cell_angle_alpha 89.772710
_cell_angle_beta 138.372414
_cell_angle_gamma 73.572348
_cell_volume 504.372502
_symmetry_space_group_name_H-M "P -1"
_symmetry_group_IT_number 2
_symmetry_cell_setting 'triclinic'
loop_
_space_group_symop_operation_xyz
x,y,z
-x,-y,-z
loop_
_atom_site_type_symbol
_atom_site_label
_atom_site_fract_x
_atom_site_fract_y
_atom_site_fract_z
Si Si1 0.982698 0.234076 0.688595
Si Si2 0.834210 0.070501 0.784897
Si Si3 0.255807 0.497020 0.481800
Si Si4 0.774101 0.025977 0.260673
Si Si5 0.636583 0.742346 0.797449
Si Si6 0.460009 0.576676 0.846957
Si Si7 0.152977 0.245467 0.367085
O O1 0.026546 0.360885 0.686215
O O2 0.672270 0.249222 0.444088
O O3 0.822300 0.282272 0.265564
O O4 0.268282 0.104571 0.786169
O O5 0.458081 0.123033 0.577313
O O6 0.980362 0.021861 0.240015
O O7 0.881712 0.199504 0.775844
O O8 0.000000 0.000000 0.000000
O O9 0.500000 0.500000 0.500000
O O10 0.374300 0.502881 0.687838
O O11 0.191062 0.375390 0.423601
O O12 0.469909 0.143953 0.153731
O O13 0.000000 0.000000 0.500000
O O14 0.730779 0.611714 0.927616
O O15 0.849063 0.754811 0.791299
O O16 0.500000 0.500000 0.000000
#
# Coordination Sequence:
#
# PCOD9053002 Si02
#       7
#     2   2   2   2   2   2   2
#     4   7  15  28  57  82 112 163 191 231 318 351
#     4   9  17  30  57  92 123 155 200 255 300 362
#     4  11  17  40  65  86 122 169 198 258 318 373
#     4   8  13  30  55  82 113 170 188 235 315 357
#     4   9  17  36  59  83 124 163 195 255 308 368
#     4  11  25  39  59  96 125 158 217 263 299 373
#     4  11  21  38  66  92 123 170 205 244 329 370
#
# _framework density 27.757263999999999
#
# number of rings (size 3 to 8) (size 9 to 14) (size 15 to 20)
#    0.857    1.714    5.714    0.429    0.000    1.714 
#    0.000    0.714    0.000    7.714    3.714    0.000 
#    0.000    0.000    0.000    0.000    0.000    0.000 
#
# Total GULP energy -78318.649711 kJ/mol
# GULP energy per Si atom -5594.189265 kJ/mol
# Density = 2.769409 g / cm^3
# Si number density = 27.757264 Si / 1000 Ang^3
#
#
#
# Elastic Constant Matrix: (Units=GPa)
#
#
# Indices 1 2 3 4 5 6 
#
# 1 116.5934 22.7173 56.9149 -2.3835 -27.2591 -28.4636
# 2 22.7173 145.9050 38.4882 11.0246 -16.2309 -28.7646
# 3 56.9149 38.4882 189.5446 3.6246 -50.5952 -8.7196
# 4 -2.3835 11.0246 3.6246 40.5801 -3.8298 -15.8155
# 5 -27.2591 -16.2309 -50.5952 -3.8298 61.8209 3.1523
# 6 -28.4636 -28.7646 -8.7196 -15.8155 3.1523 46.6127
#
#
#
# Elastic Compliance Matrix: (Units=1/GPa)
#
#
# Indices 1 2 3 4 5 6 
#
# 1 0.012927 0.000525 -0.002749 0.004721 0.003418 0.009074
# 2 0.000525 0.008240 -0.001314 -0.000009 0.001060 0.005085
# 3 -0.002749 -0.001314 0.007551 -0.000670 0.004664 -0.001619
# 4 0.004721 -0.000009 -0.000670 0.030241 0.002751 0.012827
# 5 0.003418 0.001060 0.004664 0.002751 0.021792 0.003073
# 6 0.009074 0.005085 -0.001619 0.012827 0.003073 0.033974
#
#
# Mechanical properties :
#
#
# Convention : Reuss Voigt Hill
#
# Bulk Modulus (GPa) = 46.20473 76.47599 61.34036
# Shear Modulus (GPa) = 38.75533 52.06425 45.40979
#
# Velocity S-wave (km/s) = 3.74066 4.33563 4.04909
# Velocity P-wave (km/s) = 5.94465 7.25776 6.63378
#
# Compressibility (1/GPa) = 0.02164280
#
# Stress axis : x y z
#
# Youngs Moduli (GPa) = 77.35564 121.36537 132.42821
#
# Poissons Ratio (x) = -0.06369 0.36401
# Poissons Ratio (y) = -0.04059 0.17397
# Poissons Ratio (z) = 0.21263 0.15944
#
# Static dielectric constant tensor:
#      x y z
#    x 2.200590 0.038160 0.071480 
#    y 0.038160 2.276840 -0.065070 
#    z 0.071480 -0.065070 2.246240 
# 
# From -- ./inp_files/196940.got.cif
#   From: 2010.05.17/outbox.cif.g08.bks.cpg/sg2_99_cif.got.tgz:196940.got - 2010.06.03 11:33:40.
