data_PCOD9053990
_publ_section_title
;
Structure prediction by ZEFSAII (Michael W. Deem and Ramdas Pophale) SiO2 
 PCOD9053990
Probable space group: P -1
;
_chemical_formula_sum "Si O2"
_cell_formula_units_Z 14
_cell_length_a 14.564814
_cell_length_b 15.538083
_cell_length_c 9.270408
_cell_angle_alpha 40.390798
_cell_angle_beta 39.779971
_cell_angle_gamma 29.570578
_cell_volume 632.918444
_symmetry_space_group_name_H-M "P -1"
_symmetry_group_IT_number 2
_symmetry_cell_setting 'triclinic'
loop_
_space_group_symop_operation_xyz
x,y,z
-x,-y,-z
loop_
_atom_site_type_symbol
_atom_site_label
_atom_site_fract_x
_atom_site_fract_y
_atom_site_fract_z
Si Si1 0.569791 0.992614 0.755775
Si Si2 0.931411 0.877459 0.616180
Si Si3 0.101949 0.050251 0.110050
Si Si4 0.451206 0.354527 0.387452
Si Si5 0.450975 0.251883 0.094664
Si Si6 0.648758 0.518123 0.344979
Si Si7 0.761014 0.394164 0.906557
O O1 0.791410 0.896176 0.648184
O O2 0.562816 0.890792 0.763074
O O3 0.469657 0.186151 0.556722
O O4 0.500000 0.000000 0.000000
O O5 0.852116 0.922552 0.819669
O O6 0.141508 0.675099 0.629365
O O7 0.969629 0.004862 0.361085
O O8 0.968624 0.230563 0.940966
O O9 0.312960 0.875551 0.013333
O O10 0.445328 0.358557 0.560546
O O11 0.255456 0.549259 0.311175
O O12 0.628303 0.343905 0.145206
O O13 0.348300 0.407584 0.142923
O O14 0.347731 0.383261 0.913652
O O15 0.500000 0.500000 0.500000
#
# Coordination Sequence:
#
# PCOD9053990 Si02
#       7
#     2   2   2   2   2   2   2
#     4  12  24  41  64  99 136 166 215 279 331 379
#     4  11  21  36  67 100 129 166 222 277 320 377
#     4  11  20  39  68  98 125 171 225 266 317 390
#     4  11  23  44  66  96 133 170 215 274 320 389
#     4  12  24  41  69  97 132 170 216 277 326 381
#     4  12  20  39  70 101 126 164 226 274 316 378
#     4  11  24  44  68  94 131 177 220 259 328 394
#
# _framework density 22.119754
#
# number of rings (size 3 to 8) (size 9 to 14) (size 15 to 20)
#    0.000    0.571    8.571    0.000    0.000    1.143 
#    5.143    2.857    0.000    0.000    0.000    0.000 
#    0.000    0.000    0.000    0.000    0.000    0.000 
#
# Total GULP energy -78023.032404 kJ/mol
# GULP energy per Si atom -5573.073743 kJ/mol
# Density = 2.206941 g / cm^3
# Si number density = 22.119754 Si / 1000 Ang^3
#
#
#
# Elastic Constant Matrix: (Units=GPa)
#
#
# Indices 1 2 3 4 5 6 
#
# 1 62.2911 6.1623 13.8060 -12.1736 -5.0219 -8.5644
# 2 6.1623 69.8937 14.7217 -25.0219 -4.6711 -17.0385
# 3 13.8060 14.7217 41.2716 -26.8971 8.5240 0.5572
# 4 -12.1736 -25.0219 -26.8971 33.5859 -4.3614 -0.3036
# 5 -5.0219 -4.6711 8.5240 -4.3614 22.3981 -18.2539
# 6 -8.5644 -17.0385 0.5572 -0.3036 -18.2539 51.2640
#
#
#
# Elastic Compliance Matrix: (Units=1/GPa)
#
#
# Indices 1 2 3 4 5 6 
#
# 1 0.024557 0.011010 -0.009761 0.013215 0.028975 0.018264
# 2 0.011010 0.035736 -0.003557 0.033356 0.041056 0.028572
# 3 -0.009761 -0.003557 0.059455 0.037478 -0.029441 -0.013720
# 4 0.013215 0.033356 0.037478 0.094231 0.035168 0.025967
# 5 0.028975 0.041056 -0.029441 0.035168 0.131379 0.065796
# 6 0.018264 0.028572 -0.013720 0.025967 0.065796 0.055786
#
#
# Mechanical properties :
#
#
# Convention : Reuss Voigt Hill
#
# Bulk Modulus (GPa) = 8.68564 26.98183 17.83374
# Shear Modulus (GPa) = 11.25777 30.70070 20.97923
#
# Velocity S-wave (km/s) = 2.25843 3.72954 3.08301
# Velocity P-wave (km/s) = 3.27656 5.54711 4.55556
#
# Compressibility (1/GPa) = 0.11513251
#
# Stress axis : x y z
#
# Youngs Moduli (GPa) = 40.72095 27.98262 16.81954
#
# Poissons Ratio (x) = -0.30810 0.16417
# Poissons Ratio (y) = -0.44835 0.05983
# Poissons Ratio (z) = 0.39747 0.09955
#
# Static dielectric constant tensor:
#      x y z
#    x 1.859750 0.087770 -0.028380 
#    y 0.087770 1.869800 0.007480 
#    z -0.028380 0.007480 1.874840 
# 
# From -- ./inp_files/180031.got.cif
#   From: 2010.05.17/outbox.cif.g08.bks.cpg/sg2_91_cif.got.tgz:180031.got - 2010.06.03 11:33:40.
