data_PCOD9053392
_publ_section_title
;
Structure prediction by ZEFSAII (Michael W. Deem and Ramdas Pophale) SiO2 
 PCOD9053392
Probable space group: P -1
;
_chemical_formula_sum "Si O2"
_cell_formula_units_Z 14
_cell_length_a 6.789679
_cell_length_b 13.018559
_cell_length_c 12.763916
_cell_angle_alpha 129.864301
_cell_angle_beta 54.420797
_cell_angle_gamma 108.374280
_cell_volume 701.300955
_symmetry_space_group_name_H-M "P -1"
_symmetry_group_IT_number 2
_symmetry_cell_setting 'triclinic'
loop_
_space_group_symop_operation_xyz
x,y,z
-x,-y,-z
loop_
_atom_site_type_symbol
_atom_site_label
_atom_site_fract_x
_atom_site_fract_y
_atom_site_fract_z
Si Si1 0.233415 0.945484 0.674059
Si Si2 0.523636 0.830745 0.126941
Si Si3 0.325991 0.049141 0.177039
Si Si4 0.579548 0.271279 0.373607
Si Si5 0.142432 0.873774 0.435288
Si Si6 0.893170 0.640583 0.485293
Si Si7 0.116259 0.355247 0.254727
O O1 0.306000 0.072301 0.799973
O O2 0.383627 0.811926 0.584887
O O3 0.264517 0.946852 0.541320
O O4 0.946498 0.931768 0.770016
O O5 0.338278 0.788895 0.245963
O O6 0.344966 0.928898 0.175242
O O7 0.683672 0.729216 0.934496
O O8 0.463704 0.167948 0.263556
O O9 0.500000 0.000000 0.000000
O O10 0.358216 0.386857 0.513481
O O11 0.846655 0.308285 0.286504
O O12 0.986498 0.767072 0.474632
O O13 0.000000 0.000000 0.500000
O O14 0.847859 0.655151 0.636045
O O15 0.091292 0.512623 0.335775
#
# Coordination Sequence:
#
# PCOD9053392 Si02
#       7
#     2   2   2   2   2   2   2
#     4  11  21  39  62  94 125 162 204 258 317 366
#     4  11  24  36  63  92 130 161 208 254 308 372
#     4  11  20  34  59  95 128 155 201 263 313 363
#     4  11  19  38  65  91 121 160 211 257 306 366
#     4  12  22  44  64  93 124 167 203 259 317 369
#     4  11  24  43  67  88 130 165 214 250 307 373
#     4  11  24  43  63  94 124 173 206 255 304 366
#
# _framework density 19.962900000000001
#
# number of rings (size 3 to 8) (size 9 to 14) (size 15 to 20)
#    0.000    0.857    4.286    4.286    0.000    2.857 
#    0.000    0.000    0.000    1.714    0.000    0.000 
#    0.000    0.000    0.000    0.000    0.000    0.000 
#
# Total GULP energy -77941.770868 kJ/mol
# GULP energy per Si atom -5567.269348 kJ/mol
# Density = 1.991746 g / cm^3
# Si number density = 19.962900 Si / 1000 Ang^3
#
#
#
# Elastic Constant Matrix: (Units=GPa)
#
#
# Indices 1 2 3 4 5 6 
#
# 1 116.7192 42.9844 23.3992 -2.8120 -11.4550 -23.0084
# 2 42.9844 109.6535 37.3067 0.8597 -4.1930 -16.2621
# 3 23.3992 37.3067 113.0736 -5.4601 -2.5269 -15.1416
# 4 -2.8120 0.8597 -5.4601 28.6619 -2.0712 -9.1613
# 5 -11.4550 -4.1930 -2.5269 -2.0712 26.3224 -3.4095
# 6 -23.0084 -16.2621 -15.1416 -9.1613 -3.4095 33.4137
#
#
#
# Elastic Compliance Matrix: (Units=1/GPa)
#
#
# Indices 1 2 3 4 5 6 
#
# 1 0.012221 -0.003324 0.000098 0.004564 0.006289 0.008735
# 2 -0.003324 0.011732 -0.002941 -0.000585 0.000348 0.001964
# 3 0.000098 -0.002941 0.010624 0.003705 0.001484 0.004618
# 4 0.004564 -0.000585 0.003705 0.042003 0.007735 0.016843
# 5 0.006289 0.000348 0.001484 0.007735 0.043047 0.011686
# 6 0.008735 0.001964 0.004618 0.016843 0.011686 0.044802
#
#
# Mechanical properties :
#
#
# Convention : Reuss Voigt Hill
#
# Bulk Modulus (GPa) = 44.95374 60.75853 52.85614
# Shear Modulus (GPa) = 27.14780 33.39666 30.27223
#
# Velocity S-wave (km/s) = 3.69170 4.09459 3.89835
# Velocity P-wave (km/s) = 6.38272 7.27022 6.84087
#
# Compressibility (1/GPa) = 0.02224509
#
# Stress axis : x y z
#
# Youngs Moduli (GPa) = 81.82580 85.23556 94.12540
#
# Poissons Ratio (x) = 0.28332 -0.00926
# Poissons Ratio (y) = 0.27199 0.27678
# Poissons Ratio (z) = -0.00805 0.25064
#
# Static dielectric constant tensor:
#      x y z
#    x 1.751970 -0.064790 0.016250 
#    y -0.064790 1.936830 -0.064000 
#    z 0.016250 -0.064000 1.865300 
# 
# From -- ./inp_files/84449.got.cif
#   From: 2010.05.17/outbox.cif.g08.bks.cpg/sg2_43_cif.got.tgz:84449.got - 2010.06.03 11:33:40.
