data_PCOD9053276
_publ_section_title
;
Structure prediction by ZEFSAII (Michael W. Deem and Ramdas Pophale) SiO2 
 PCOD9053276
Probable space group: P -1
;
_chemical_formula_sum "Si O2"
_cell_formula_units_Z 12
_cell_length_a 6.710654
_cell_length_b 15.313810
_cell_length_c 9.141271
_cell_angle_alpha 143.499050
_cell_angle_beta 96.071268
_cell_angle_gamma 83.197319
_cell_volume 554.771921
_symmetry_space_group_name_H-M "P -1"
_symmetry_group_IT_number 2
_symmetry_cell_setting 'triclinic'
loop_
_space_group_symop_operation_xyz
x,y,z
-x,-y,-z
loop_
_atom_site_type_symbol
_atom_site_label
_atom_site_fract_x
_atom_site_fract_y
_atom_site_fract_z
Si Si1 0.610613 0.688302 0.537275
Si Si2 0.286082 0.853381 0.856803
Si Si3 0.309485 0.538594 0.136263
Si Si4 0.029855 0.300748 0.871158
Si Si5 0.089648 0.128445 0.365850
Si Si6 0.164341 0.598886 0.715263
O O1 0.527874 0.827719 0.814732
O O2 0.398515 0.661245 0.408872
O O3 0.791787 0.735903 0.512881
O O4 0.673125 0.528022 0.390379
O O5 0.236707 0.706656 0.743611
O O6 0.121760 0.881807 0.750497
O O7 0.229326 0.986596 0.143202
O O8 0.135368 0.607992 0.115673
O O9 0.500000 0.500000 0.000000
O O10 0.224909 0.398564 0.021557
O O11 0.071545 0.159101 0.579659
O O12 0.933613 0.303605 0.028101
O O13 0.000000 0.500000 0.500000
#
# Coordination Sequence:
#
# PCOD9053276 Si02
#       6
#     2   2   2   2   2   2
#     4  12  21  41  69  91 123 162 215 256 303 369
#     4  11  25  41  61  92 130 166 206 250 315 366
#     4  11  19  35  64  97 116 158 210 257 301 359
#     4  11  22  38  63  93 128 157 206 258 308 368
#     4  11  23  42  64  89 125 171 209 251 297 380
#     4  12  24  41  63  96 129 159 202 267 318 353
#
# _framework density 21.630509
#
# number of rings (size 3 to 8) (size 9 to 14) (size 15 to 20)
#    0.000    0.667    6.667    3.000    0.000    0.667 
#    0.000    0.000    0.000    3.000    0.000    0.000 
#    0.000    0.000    0.000    0.000    0.000    0.000 
#
# Total GULP energy -66899.706738 kJ/mol
# GULP energy per Si atom -5574.975562 kJ/mol
# Density = 2.158128 g / cm^3
# Si number density = 21.630509 Si / 1000 Ang^3
#
#
#
# Elastic Constant Matrix: (Units=GPa)
#
#
# Indices 1 2 3 4 5 6 
#
# 1 76.4419 -4.7856 15.2189 -7.3855 -17.4808 3.2423
# 2 -4.7856 34.8652 -2.6530 -2.2803 -8.8185 8.4701
# 3 15.2189 -2.6530 95.3648 -12.5314 -27.1444 -2.0130
# 4 -7.3855 -2.2803 -12.5314 34.6511 3.0492 -7.1528
# 5 -17.4808 -8.8185 -27.1444 3.0492 49.5378 -2.0848
# 6 3.2423 8.4701 -2.0130 -7.1528 -2.0848 18.7970
#
#
#
# Elastic Compliance Matrix: (Units=1/GPa)
#
#
# Indices 1 2 3 4 5 6 
#
# 1 0.015066 0.004349 -0.000481 0.002181 0.005560 -0.003163
# 2 0.004349 0.035366 0.002406 0.000196 0.008488 -0.015413
# 3 -0.000481 0.002406 0.013468 0.004918 0.007468 0.003140
# 4 0.002181 0.000196 0.004918 0.033642 0.001979 0.013083
# 5 0.005560 0.008488 0.007468 0.001979 0.027623 -0.000167
# 6 -0.003163 -0.015413 0.003140 0.013083 -0.000167 0.065987
#
#
# Mechanical properties :
#
#
# Convention : Reuss Voigt Hill
#
# Bulk Modulus (GPa) = 13.08077 24.69250 18.88663
# Shear Modulus (GPa) = 24.49945 33.85662 29.17803
#
# Velocity S-wave (km/s) = 3.36911 3.96058 3.67676
# Velocity P-wave (km/s) = 4.60381 5.68818 5.17448
#
# Compressibility (1/GPa) = 0.07644811
#
# Stress axis : x y z
#
# Youngs Moduli (GPa) = 66.37392 28.27573 74.25090
#
# Poissons Ratio (x) = -0.12296 0.03572
# Poissons Ratio (y) = -0.28864 -0.17867
# Poissons Ratio (z) = 0.03193 -0.06804
#
# Static dielectric constant tensor:
#      x y z
#    x 1.907280 -0.000240 -0.050900 
#    y -0.000240 1.809490 0.015510 
#    z -0.050900 0.015510 2.306420 
# 
# From -- ./inp_files/28707.got.cif
#   From: 2010.05.17/outbox.cif.g08.bks.cpg/sg2_15_cif.got.tgz:28707.got - 2010.06.03 11:33:40.
