data_PCOD9053308
_publ_section_title
;
Structure prediction by ZEFSAII (Michael W. Deem and Ramdas Pophale) SiO2 
 PCOD9053308
Probable space group: P -1
;
_chemical_formula_sum "Si O2"
_cell_formula_units_Z 12
_cell_length_a 11.877857
_cell_length_b 8.974221
_cell_length_c 6.158539
_cell_angle_alpha 73.678221
_cell_angle_beta 74.111896
_cell_angle_gamma 55.980953
_cell_volume 516.550898
_symmetry_space_group_name_H-M "P -1"
_symmetry_group_IT_number 2
_symmetry_cell_setting 'triclinic'
loop_
_space_group_symop_operation_xyz
x,y,z
-x,-y,-z
loop_
_atom_site_type_symbol
_atom_site_label
_atom_site_fract_x
_atom_site_fract_y
_atom_site_fract_z
Si Si1 0.272712 0.338735 0.321270
Si Si2 0.914743 0.254134 0.565474
Si Si3 0.208442 0.105797 0.704757
Si Si4 0.445452 0.418870 0.878727
Si Si5 0.689397 0.236774 0.492700
Si Si6 0.080348 0.292157 0.121079
O O1 0.190745 0.545200 0.366638
O O2 0.292094 0.208360 0.565603
O O3 0.172505 0.294691 0.262145
O O4 0.381984 0.324899 0.095474
O O5 0.823753 0.166140 0.602336
O O6 0.051177 0.176101 0.671744
O O7 0.966847 0.261440 0.295727
O O8 0.293648 0.909327 0.632684
O O9 0.176220 0.143391 0.958699
O O10 0.565982 0.290040 0.702215
O O11 0.342205 0.585598 0.705008
O O12 0.500000 0.500000 0.000000
O O13 0.000000 0.500000 0.000000
#
# Coordination Sequence:
#
# PCOD9053308 Si02
#       6
#     2   2   2   2   2   2
#     4  11  22  40  68  95 124 172 219 256 314 389
#     4  11  21  39  67  98 132 166 208 261 326 389
#     4  11  24  40  66 103 133 160 209 273 319 377
#     4  11  25  46  69  86 128 180 217 261 317 380
#     4  11  26  43  65  98 128 169 221 262 318 377
#     4  11  19  36  63  95 133 168 206 252 327 381
#
# _framework density 23.231012
#
# number of rings (size 3 to 8) (size 9 to 14) (size 15 to 20)
#    0.000    1.000    5.000    2.500    0.000    4.000 
#    0.000    1.667    0.000    0.000    0.000    0.000 
#    0.000    0.000    0.000    0.000    0.000    0.000 
#
# Total GULP energy -66961.325787 kJ/mol
# GULP energy per Si atom -5580.110482 kJ/mol
# Density = 2.317814 g / cm^3
# Si number density = 23.231012 Si / 1000 Ang^3
#
#
#
# Elastic Constant Matrix: (Units=GPa)
#
#
# Indices 1 2 3 4 5 6 
#
# 1 52.7963 4.2606 17.6697 -2.4507 -22.2056 1.8869
# 2 4.2606 77.0428 38.6261 30.0882 -11.2856 12.6314
# 3 17.6697 38.6261 131.8761 32.3511 -30.5452 1.7024
# 4 -2.4507 30.0882 32.3511 46.1176 6.5137 10.2053
# 5 -22.2056 -11.2856 -30.5452 6.5137 41.2051 3.1765
# 6 1.8869 12.6314 1.7024 10.2053 3.1765 16.8540
#
#
#
# Elastic Compliance Matrix: (Units=1/GPa)
#
#
# Indices 1 2 3 4 5 6 
#
# 1 0.025231 0.002213 -0.000572 -0.000174 0.014348 -0.007024
# 2 0.002213 0.021048 -0.001606 -0.011330 0.008373 -0.010578
# 3 -0.000572 -0.001606 0.013032 -0.010546 0.010240 0.004407
# 4 -0.000174 -0.011330 -0.010546 0.041570 -0.016625 -0.012462
# 5 0.014348 0.008373 0.010240 -0.016625 0.045079 -0.007346
# 6 -0.007024 -0.010578 0.004407 -0.012462 -0.007346 0.076532
#
#
# Mechanical properties :
#
#
# Convention : Reuss Voigt Hill
#
# Bulk Modulus (GPa) = 16.84057 42.53645 29.68851
# Shear Modulus (GPa) = 20.64263 34.24592 27.44428
#
# Velocity S-wave (km/s) = 2.98414 3.84363 3.44083
# Velocity P-wave (km/s) = 4.37474 6.16830 5.34726
#
# Compressibility (1/GPa) = 0.05938043
#
# Stress axis : x y z
#
# Youngs Moduli (GPa) = 39.63331 47.50970 76.73556
#
# Poissons Ratio (x) = -0.10513 0.04391
# Poissons Ratio (y) = -0.08770 0.12324
# Poissons Ratio (z) = 0.02268 0.07630
#
# Static dielectric constant tensor:
#      x y z
#    x 1.872350 -0.014080 -0.025920 
#    y -0.014080 1.863770 -0.017290 
#    z -0.025920 -0.017290 1.810640 
# 
# From -- ./inp_files/21361.got.cif
#   From: 2010.05.17/outbox.cif.g08.bks.cpg/sg2_11_cif.got.tgz:21361.got - 2010.06.03 11:33:40.
