data_PCOD9053771
_publ_section_title
;
Structure prediction by ZEFSAII (Michael W. Deem and Ramdas Pophale) SiO2 
 PCOD9053771
Probable space group: P -1
;
_chemical_formula_sum "Si O2"
_cell_formula_units_Z 16
_cell_length_a 9.795743
_cell_length_b 15.573935
_cell_length_c 9.951580
_cell_angle_alpha 36.298816
_cell_angle_beta 104.605363
_cell_angle_gamma 119.161717
_cell_volume 755.279740
_symmetry_space_group_name_H-M "P -1"
_symmetry_group_IT_number 2
_symmetry_cell_setting 'triclinic'
loop_
_space_group_symop_operation_xyz
x,y,z
-x,-y,-z
loop_
_atom_site_type_symbol
_atom_site_label
_atom_site_fract_x
_atom_site_fract_y
_atom_site_fract_z
Si Si1 0.316766 0.392979 0.720115
Si Si2 0.337295 0.948707 0.439940
Si Si3 0.632765 0.368474 0.793627
Si Si4 0.531004 0.012715 0.148175
Si Si5 0.891464 0.910100 0.773661
Si Si6 0.129860 0.249399 0.309962
Si Si7 0.256806 0.601295 0.911876
Si Si8 0.512218 0.675557 0.642057
O O1 0.448862 0.339091 0.775327
O O2 0.274592 0.476565 0.479942
O O3 0.409602 0.538938 0.672852
O O4 0.163490 0.229704 0.949377
O O5 0.224916 0.754708 0.688482
O O6 0.500000 0.000000 0.500000
O O7 0.382575 0.971579 0.265323
O O8 0.263014 0.062778 0.321041
O O9 0.648255 0.208405 0.957971
O O10 0.679799 0.394180 0.927950
O O11 0.571213 0.867088 0.374555
O O12 0.500000 0.000000 0.000000
O O13 0.922474 0.834855 0.742306
O O14 0.035740 0.101356 0.581311
O O15 0.322227 0.321650 0.285508
O O16 0.113813 0.413690 0.095713
O O17 0.394736 0.636528 0.789695
#
# Coordination Sequence:
#
# PCOD9053771 Si02
#       8
#     2   2   2   2   2   2   2   2
#     4  11  20  37  61  86 120 150 195 246 286 351
#     4  11  21  37  63  89 116 152 194 252 289 344
#     4  11  21  34  59  90 115 150 194 249 292 336
#     4  11  21  34  56  92 120 147 195 250 296 340
#     4  11  23  40  58  90 125 154 193 244 305 346
#     4  11  23  37  60  90 121 158 194 244 296 353
#     4  11  21  36  61  90 115 151 204 242 288 348
#     4  11  21  35  64  90 116 153 200 245 285 352
#
# _framework density 21.184206
#
# number of rings (size 3 to 8) (size 9 to 14) (size 15 to 20)
#    0.000    1.000    6.250    2.625    0.000    0.500 
#    0.000    0.625    0.000    0.750    0.000    0.000 
#    0.000    0.000    0.000    0.000    0.000    0.000 
#
# Total GULP energy -89287.758457 kJ/mol
# GULP energy per Si atom -5580.484904 kJ/mol
# Density = 2.113599 g / cm^3
# Si number density = 21.184206 Si / 1000 Ang^3
#
#
#
# Elastic Constant Matrix: (Units=GPa)
#
#
# Indices 1 2 3 4 5 6 
#
# 1 18.4278 4.0384 15.2870 -5.8148 -9.3204 -2.0614
# 2 4.0384 66.4183 33.0002 0.5578 2.7012 -21.8794
# 3 15.2870 33.0002 211.1638 -12.5351 -2.8658 -11.7146
# 4 -5.8148 0.5578 -12.5351 45.2626 -11.2159 4.3961
# 5 -9.3204 2.7012 -2.8658 -11.2159 34.0370 -9.1938
# 6 -2.0614 -21.8794 -11.7146 4.3961 -9.1938 15.4809
#
#
#
# Elastic Compliance Matrix: (Units=1/GPa)
#
#
# Indices 1 2 3 4 5 6 
#
# 1 0.082934 0.006737 -0.003723 0.015136 0.036306 0.035010
# 2 0.006737 0.033375 -0.002652 -0.002370 0.012881 0.054382
# 3 -0.003723 -0.002652 0.005454 0.001082 -0.000129 -0.000501
# 4 0.015136 -0.002370 0.001082 0.027740 0.013456 -0.000402
# 5 0.036306 0.012881 -0.000129 0.013456 0.057037 0.052994
# 6 0.035010 0.054382 -0.000501 -0.000402 0.052994 0.177324
#
#
# Mechanical properties :
#
#
# Convention : Reuss Voigt Hill
#
# Bulk Modulus (GPa) = 8.16427 44.51790 26.34108
# Shear Modulus (GPa) = 11.79328 35.20173 23.49751
#
# Velocity S-wave (km/s) = 2.36201 4.08081 3.33408
# Velocity P-wave (km/s) = 3.36171 6.57756 5.22329
#
# Compressibility (1/GPa) = 0.12248496
#
# Stress axis : x y z
#
# Youngs Moduli (GPa) = 12.05784 29.96267 183.33792
#
# Poissons Ratio (x) = -0.20185 0.68260
# Poissons Ratio (y) = -0.08123 0.48629
# Poissons Ratio (z) = 0.04489 0.07947
#
# Static dielectric constant tensor:
#      x y z
#    x 1.779790 -0.015130 0.008810 
#    y -0.015130 1.795010 -0.053970 
#    z 0.008810 -0.053970 1.888450 
# 
# From -- ./inp_files/269483.got.cif
#   From: 2010.05.17/outbox.cif.g08.bks.cpg/sg2_135_cif.got.tgz:269483.got - 2010.06.03 11:33:40.
