data_PCOD9053742
_publ_section_title
;
Structure prediction by ZEFSAII (Michael W. Deem and Ramdas Pophale) SiO2 
 PCOD9053742
Probable space group: P -1
;
_chemical_formula_sum "Si O2"
_cell_formula_units_Z 14
_cell_length_a 6.213846
_cell_length_b 8.904141
_cell_length_c 16.999436
_cell_angle_alpha 142.380746
_cell_angle_beta 71.370573
_cell_angle_gamma 106.360350
_cell_volume 543.379678
_symmetry_space_group_name_H-M "P -1"
_symmetry_group_IT_number 2
_symmetry_cell_setting 'triclinic'
loop_
_space_group_symop_operation_xyz
x,y,z
-x,-y,-z
loop_
_atom_site_type_symbol
_atom_site_label
_atom_site_fract_x
_atom_site_fract_y
_atom_site_fract_z
Si Si1 0.783229 0.812519 0.135902
Si Si2 0.654465 0.649655 0.605595
Si Si3 0.462389 0.704072 0.880015
Si Si4 0.206173 0.730147 0.777448
Si Si5 0.011786 0.051455 0.661159
Si Si6 0.175710 0.629576 0.389405
Si Si7 0.320785 0.583037 0.132481
O O1 0.864800 0.859873 0.235442
O O2 0.509163 0.785090 0.164528
O O3 0.883944 0.028150 0.155253
O O4 0.816145 0.558962 0.980168
O O5 0.500000 0.500000 0.500000
O O6 0.467848 0.754214 0.729552
O O7 0.787902 0.459696 0.562531
O O8 0.825133 0.845159 0.626594
O O9 0.227296 0.691034 0.852512
O O10 0.626457 0.509185 0.737021
O O11 0.524973 0.611939 0.921601
O O12 0.500000 0.000000 0.000000
O O13 0.061010 0.500243 0.664905
O O14 0.862841 0.269872 0.736873
O O15 0.165716 0.923481 0.524835
#
# Coordination Sequence:
#
# PCOD9053742 Si02
#       7
#     2   2   2   2   2   2   2
#     4  11  23  43  72 101 134 180 227 285 335 397
#     4  11  20  36  67 103 140 171 218 278 338 395
#     4  11  26  48  68  94 137 185 229 275 337 411
#     4  11  21  42  70 102 131 176 231 276 331 402
#     4  12  23  40  68 107 141 170 224 285 345 400
#     4  11  25  39  71 105 132 178 228 277 341 404
#     4  11  26  45  67  99 140 182 226 280 341 398
#
# _framework density 25.764671
#
# number of rings (size 3 to 8) (size 9 to 14) (size 15 to 20)
#    0.000    0.857    5.714    1.714    0.000    2.286 
#    2.571    1.429    0.000    0.000    0.000    0.000 
#    0.000    0.000    0.000    0.000    0.000    0.000 
#
# Total GULP energy -78092.347485 kJ/mol
# GULP energy per Si atom -5578.024820 kJ/mol
# Density = 2.570603 g / cm^3
# Si number density = 25.764671 Si / 1000 Ang^3
#
#
#
# Elastic Constant Matrix: (Units=GPa)
#
#
# Indices 1 2 3 4 5 6 
#
# 1 75.9152 36.5233 57.2162 3.0232 35.1953 -25.7895
# 2 36.5233 85.6746 24.2918 7.7901 4.7475 -21.8810
# 3 57.2162 24.2918 147.4224 3.7775 5.6401 -11.3210
# 4 3.0232 7.7901 3.7775 31.0661 -5.1156 -2.1079
# 5 35.1953 4.7475 5.6401 -5.1156 64.4223 -11.2685
# 6 -25.7895 -21.8810 -11.3210 -2.1079 -11.2685 49.4010
#
#
#
# Elastic Compliance Matrix: (Units=1/GPa)
#
#
# Indices 1 2 3 4 5 6 
#
# 1 0.037621 -0.009326 -0.011667 -0.002189 -0.017487 0.008753
# 2 -0.009326 0.016186 0.001114 -0.002361 0.004215 0.003416
# 3 -0.011667 0.001114 0.010778 0.000239 0.005022 -0.001971
# 4 -0.002189 -0.002361 0.000239 0.033650 0.004061 0.000228
# 5 -0.017487 0.004215 0.005022 0.004061 0.024591 -0.000329
# 6 0.008753 0.003416 -0.001971 0.000228 -0.000329 0.025808
#
#
# Mechanical properties :
#
#
# Convention : Reuss Voigt Hill
#
# Bulk Modulus (GPa) = 40.27988 60.56386 50.42187
# Shear Modulus (GPa) = 25.42380 41.70993 33.56687
#
# Velocity S-wave (km/s) = 3.14470 4.02790 3.61338
# Velocity P-wave (km/s) = 5.37152 6.72232 6.08452
#
# Compressibility (1/GPa) = 0.02482629
#
# Stress axis : x y z
#
# Youngs Moduli (GPa) = 26.58118 61.78352 92.78112
#
# Poissons Ratio (x) = 0.57621 1.08247
# Poissons Ratio (y) = 0.24790 -0.10337
# Poissons Ratio (z) = 0.31012 -0.06884
#
# Static dielectric constant tensor:
#      x y z
#    x 2.016680 -0.010060 -0.106590 
#    y -0.010060 2.157280 -0.115390 
#    z -0.106590 -0.115390 2.228760 
# 
# From -- ./inp_files/548481.got.cif
#   From: 2010.05.17/outbox.cif.g08.bks.cpg/sg2_275_cif.got.tgz:548481.got - 2010.06.03 11:33:40.
