data_PCOD9053412
_publ_section_title
;
Structure prediction by ZEFSAII (Michael W. Deem and Ramdas Pophale) SiO2 
 PCOD9053412
Probable space group: P -1
;
_chemical_formula_sum "Si O2"
_cell_formula_units_Z 16
_cell_length_a 8.454848
_cell_length_b 17.877315
_cell_length_c 9.806881
_cell_angle_alpha 38.039795
_cell_angle_beta 95.061758
_cell_angle_gamma 113.971407
_cell_volume 760.654555
_symmetry_space_group_name_H-M "P -1"
_symmetry_group_IT_number 2
_symmetry_cell_setting 'triclinic'
loop_
_space_group_symop_operation_xyz
x,y,z
-x,-y,-z
loop_
_atom_site_type_symbol
_atom_site_label
_atom_site_fract_x
_atom_site_fract_y
_atom_site_fract_z
Si Si1 0.016764 0.653205 0.153916
Si Si2 0.530886 0.461622 0.909468
Si Si3 0.519082 0.830265 0.704078
Si Si4 0.248777 0.852445 0.446298
Si Si5 0.569612 0.171770 0.980925
Si Si6 0.600781 0.447233 0.484375
Si Si7 0.913461 0.095046 0.384553
Si Si8 0.043220 0.453920 0.216141
O O1 0.827616 0.548944 0.374477
O O2 0.042443 0.552216 0.195372
O O3 0.204214 0.755884 0.111009
O O4 0.987979 0.758582 0.904110
O O5 0.448933 0.524772 0.708436
O O6 0.750886 0.522514 0.808856
O O7 0.500000 0.500000 0.000000
O O8 0.430396 0.288414 0.143067
O O9 0.354803 0.805741 0.626718
O O10 0.697348 0.991864 0.462680
O O11 0.464142 0.818956 0.873670
O O12 0.113509 0.877735 0.498345
O O13 0.119407 0.716214 0.535393
O O14 0.414984 0.003717 0.175169
O O15 0.532496 0.282305 0.742473
O O16 0.500000 0.500000 0.500000
O O17 0.000000 0.000000 0.500000
O O18 0.000000 0.500000 0.000000
#
# Coordination Sequence:
#
# PCOD9053412 Si02
#       8
#     2   2   2   2   2   2   2   2
#     4  12  22  41  67  96 128 178 229 267 325 404
#     4  12  25  40  66 101 140 172 220 278 336 387
#     4  11  19  39  65  94 135 169 218 276 320 386
#     4  11  22  39  66  96 134 172 221 272 329 393
#     4  11  21  44  65  93 129 179 220 269 322 400
#     4  12  26  43  65 100 137 173 221 281 334 389
#     4  11  21  32  59 101 135 160 220 281 332 372
#     4  12  21  40  66  96 130 175 222 270 329 400
#
# _framework density 21.034514999999999
#
# number of rings (size 3 to 8) (size 9 to 14) (size 15 to 20)
#    0.000    0.500    7.500    2.625    3.500    0.000 
#    0.000    1.250    0.000    0.000    0.000    0.000 
#    0.000    0.000    0.000    0.000    0.000    0.000 
#
# Total GULP energy -89495.435354 kJ/mol
# GULP energy per Si atom -5593.464710 kJ/mol
# Density = 2.098664 g / cm^3
# Si number density = 21.034515 Si / 1000 Ang^3
#
#
#
# Elastic Constant Matrix: (Units=GPa)
#
#
# Indices 1 2 3 4 5 6 
#
# 1 81.7455 18.0038 31.8137 -7.3672 9.1958 -11.5995
# 2 18.0038 68.7533 39.4571 -27.1797 0.2567 1.2740
# 3 31.8137 39.4571 140.3968 -28.4010 15.6051 2.4392
# 4 -7.3672 -27.1797 -28.4010 44.2739 5.1885 -2.4489
# 5 9.1958 0.2567 15.6051 5.1885 39.3377 -2.4039
# 6 -11.5995 1.2740 2.4392 -2.4489 -2.4039 19.1540
#
#
#
# Elastic Compliance Matrix: (Units=1/GPa)
#
#
# Indices 1 2 3 4 5 6 
#
# 1 0.015459 -0.002685 -0.002714 -0.000059 -0.001923 0.009637
# 2 -0.002685 0.021261 -0.003281 0.010391 0.000344 -0.001251
# 3 -0.002714 -0.003281 0.010024 0.004292 -0.004049 -0.002661
# 4 -0.000059 0.010391 0.004292 0.032521 -0.005915 0.002142
# 5 -0.001923 0.000344 -0.004049 -0.005915 0.028385 0.002134
# 6 0.009637 -0.001251 -0.002661 0.002142 0.002134 0.059009
#
#
# Mechanical properties :
#
#
# Convention : Reuss Voigt Hill
#
# Bulk Modulus (GPa) = 34.03253 52.16054 43.09653
# Shear Modulus (GPa) = 25.79798 33.99453 29.89625
#
# Velocity S-wave (km/s) = 3.50588 4.02447 3.77410
# Velocity P-wave (km/s) = 5.70989 6.81518 6.28687
#
# Compressibility (1/GPa) = 0.02938365
#
# Stress axis : x y z
#
# Youngs Moduli (GPa) = 64.68613 47.03551 99.75747
#
# Poissons Ratio (x) = 0.12630 0.27073
# Poissons Ratio (y) = 0.17370 0.32731
# Poissons Ratio (z) = 0.17555 0.15433
#
# Static dielectric constant tensor:
#      x y z
#    x 1.777810 0.016500 -0.028790 
#    y 0.016500 1.721490 -0.034110 
#    z -0.028790 -0.034110 1.766850 
# 
# From -- ./inp_files/216525.got.cif
#   From: 2010.05.17/outbox.cif.g08.bks.cpg/sg2_109_cif.got.tgz:216525.got - 2010.06.03 11:33:40.
