data_PCOD9054743
_publ_section_title
;
Structure prediction by ZEFSAII (Michael W. Deem and Ramdas Pophale) SiO2 
 PCOD9054743
Probable space group: P -1
;
_chemical_formula_sum "Si O2"
_cell_formula_units_Z 14
_cell_length_a 25.557079
_cell_length_b 13.784155
_cell_length_c 26.046740
_cell_angle_alpha 22.640197
_cell_angle_beta 168.762218
_cell_angle_gamma 159.252104
_cell_volume 631.300198
_symmetry_space_group_name_H-M "P -1"
_symmetry_group_IT_number 2
_symmetry_cell_setting 'triclinic'
loop_
_space_group_symop_operation_xyz
x,y,z
-x,-y,-z
loop_
_atom_site_type_symbol
_atom_site_label
_atom_site_fract_x
_atom_site_fract_y
_atom_site_fract_z
Si Si1 0.286776 0.369944 0.989439
Si Si2 0.755566 0.918088 0.452474
Si Si3 0.945190 0.243688 0.914469
Si Si4 0.441533 0.691706 0.572555
Si Si5 0.136560 0.339424 0.542799
Si Si6 0.919757 0.415004 0.023296
Si Si7 0.227741 0.531271 0.748294
O O1 0.160342 0.323165 0.832776
O O2 0.082325 0.506082 0.750998
O O3 0.630686 0.558774 0.235269
O O4 0.241133 0.080720 0.110047
O O5 0.426610 0.690858 0.247070
O O6 0.717704 0.180833 0.312551
O O7 0.921574 0.031894 0.502497
O O8 0.960667 0.816536 0.733592
O O9 0.268197 0.289669 0.185713
O O10 0.930283 0.346109 0.907403
O O11 0.811868 0.383381 0.676828
O O12 0.348050 0.453095 0.642212
O O13 0.500000 0.000000 0.500000
O O14 0.000000 0.500000 0.000000
O O15 0.000000 0.500000 0.500000
O O16 0.500000 0.500000 0.000000
#
# Coordination Sequence:
#
# PCOD9054743 Si02
#       7
#     2   2   2   2   2   2   2
#     4  11  21  38  62 101 136 171 212 283 346 405
#     4  11  25  47  65  96 135 181 231 277 341 406
#     4  12  25  41  69 101 139 176 240 268 336 419
#     4  12  22  42  69 108 140 172 217 287 358 407
#     4  11  22  41  70  98 139 171 209 286 354 399
#     4  12  28  50  69  92 138 195 233 280 323 405
#     4  11  23  38  65  98 129 167 228 288 347 394
#
# _framework density 22.176455000000001
#
# number of rings (size 3 to 8) (size 9 to 14) (size 15 to 20)
#    0.000    0.571    2.857    6.857    4.000    0.000 
#    0.000    4.286    0.000    0.000    0.000    0.000 
#    0.000    0.000    0.000    0.000    0.000    0.000 
#
# Total GULP energy -78198.259696 kJ/mol
# GULP energy per Si atom -5585.589978 kJ/mol
# Density = 2.212598 g / cm^3
# Si number density = 22.176455 Si / 1000 Ang^3
#
#
#
# Elastic Constant Matrix: (Units=GPa)
#
#
# Indices 1 2 3 4 5 6 
#
# 1 97.4619 31.0067 35.9470 -8.5863 -11.3142 13.0480
# 2 31.0067 57.4970 12.0449 -12.6246 -0.6839 14.2922
# 3 35.9470 12.0449 126.4466 -2.0876 -6.0278 -2.4050
# 4 -8.5863 -12.6246 -2.0876 25.6653 5.8867 -9.9960
# 5 -11.3142 -0.6839 -6.0278 5.8867 45.1087 -1.7620
# 6 13.0480 14.2922 -2.4050 -9.9960 -1.7620 29.1991
#
#
#
# Elastic Compliance Matrix: (Units=1/GPa)
#
#
# Indices 1 2 3 4 5 6 
#
# 1 0.014259 -0.006171 -0.003405 -0.000655 0.002970 -0.003677
# 2 -0.006171 0.024185 -0.000668 0.007781 -0.002545 -0.006625
# 3 -0.003405 -0.000668 0.009015 0.000218 0.000417 0.002691
# 4 -0.000655 0.007781 0.000218 0.048972 -0.005904 0.012911
# 5 0.002970 -0.002545 0.000417 -0.005904 0.023676 -0.000640
# 6 -0.003677 -0.006625 0.002691 0.012911 -0.000640 0.043737
#
#
# Mechanical properties :
#
#
# Convention : Reuss Voigt Hill
#
# Bulk Modulus (GPa) = 37.07755 48.82250 42.95002
# Shear Modulus (GPa) = 25.86374 33.48843 29.67608
#
# Velocity S-wave (km/s) = 3.41878 3.89020 3.66208
# Velocity P-wave (km/s) = 5.68680 6.49935 6.10660
#
# Compressibility (1/GPa) = 0.02697050
#
# Stress axis : x y z
#
# Youngs Moduli (GPa) = 70.13275 41.34800 110.92885
#
# Poissons Ratio (x) = 0.25514 0.37771
# Poissons Ratio (y) = 0.43276 0.07415
# Poissons Ratio (z) = 0.23880 0.02764
#
# Static dielectric constant tensor:
#      x y z
#    x 1.988920 0.047450 0.018780 
#    y 0.047450 1.892520 0.037230 
#    z 0.018780 0.037230 1.761010 
# 
# From -- ./inp_files/454702.got.cif
#   From: 2010.05.17/outbox.cif.g08.bks.cpg/sg2_228_cif.got.tgz:454702.got - 2010.06.03 11:33:40.
