data_PCOD9054509
_publ_section_title
;
Structure prediction by ZEFSAII (Michael W. Deem and Ramdas Pophale) SiO2 
 PCOD9054509
Probable space group: P -1
;
_chemical_formula_sum "Si O2"
_cell_formula_units_Z 12
_cell_length_a 10.746800
_cell_length_b 12.298911
_cell_length_c 4.767847
_cell_angle_alpha 74.416321
_cell_angle_beta 102.765781
_cell_angle_gamma 80.424002
_cell_volume 574.671861
_symmetry_space_group_name_H-M "P -1"
_symmetry_group_IT_number 2
_symmetry_cell_setting 'triclinic'
loop_
_space_group_symop_operation_xyz
x,y,z
-x,-y,-z
loop_
_atom_site_type_symbol
_atom_site_label
_atom_site_fract_x
_atom_site_fract_y
_atom_site_fract_z
Si Si1 0.196957 0.304254 0.538876
Si Si2 0.345480 0.469899 0.152325
Si Si3 0.567016 0.246994 0.279356
Si Si4 0.978991 0.625174 0.059612
Si Si5 0.744596 0.373774 0.529423
Si Si6 0.530632 0.866098 0.185763
O O1 0.120378 0.359528 0.738565
O O2 0.316288 0.196162 0.746542
O O3 0.266716 0.392130 0.344971
O O4 0.088968 0.284035 0.276562
O O5 0.270732 0.537581 0.801569
O O6 0.472920 0.377083 0.170379
O O7 0.357029 0.567556 0.316577
O O8 0.704698 0.262000 0.457361
O O9 0.504706 0.161635 0.497449
O O10 0.557103 0.200090 0.998506
O O11 0.114603 0.642937 0.241250
O O12 0.000000 0.500000 0.000000
O O13 0.500000 0.000000 0.000000
#
# Coordination Sequence:
#
# PCOD9054509 Si02
#       6
#     2   2   2   2   2   2
#     4  11  23  39  57  90 120 158 212 243 286 352
#     4  11  21  35  57  87 127 164 197 237 289 364
#     4  11  23  39  60  90 121 152 206 251 305 358
#     4  12  24  35  58  86 132 170 196 227 282 372
#     4  12  23  35  56  88 131 170 189 230 298 367
#     4  11  24  44  69  86 110 154 209 274 308 333
#
# _framework density 20.88148
#
# number of rings (size 3 to 8) (size 9 to 14) (size 15 to 20)
#    0.000    0.667    1.667    9.000    0.000    0.000 
#    0.000    0.000    0.000    6.000    0.000    0.000 
#    0.000    0.000    0.000    0.000    0.000    0.000 
#
# Total GULP energy -67099.085391 kJ/mol
# GULP energy per Si atom -5591.590449 kJ/mol
# Density = 2.083395 g / cm^3
# Si number density = 20.881480 Si / 1000 Ang^3
#
#
#
# Elastic Constant Matrix: (Units=GPa)
#
#
# Indices 1 2 3 4 5 6 
#
# 1 81.7375 39.9588 34.2187 -5.2393 10.3088 -11.7514
# 2 39.9588 80.4647 49.3093 -10.5953 14.1002 5.1166
# 3 34.2187 49.3093 138.3906 8.9536 11.3296 -4.4656
# 4 -5.2393 -10.5953 8.9536 32.2890 -2.5518 -5.7147
# 5 10.3088 14.1002 11.3296 -2.5518 50.5841 6.8171
# 6 -11.7514 5.1166 -4.4656 -5.7147 6.8171 20.0952
#
#
#
# Elastic Compliance Matrix: (Units=1/GPa)
#
#
# Indices 1 2 3 4 5 6 
#
# 1 0.020171 -0.009419 -0.001048 0.003035 -0.003243 0.015924
# 2 -0.009419 0.022637 -0.006345 0.005677 -0.001248 -0.010644
# 3 -0.001048 -0.006345 0.010193 -0.004756 -0.000837 0.002199
# 4 0.003035 0.005677 -0.004756 0.036332 -0.000626 0.009817
# 5 -0.003243 -0.001248 -0.000837 -0.000626 0.022211 -0.009478
# 6 0.015924 -0.010644 0.002199 0.009817 -0.009478 0.068282
#
#
# Mechanical properties :
#
#
# Convention : Reuss Voigt Hill
#
# Bulk Modulus (GPa) = 51.61140 60.84069 56.22604
# Shear Modulus (GPa) = 22.73662 32.40072 27.56867
#
# Velocity S-wave (km/s) = 3.30334 3.94337 3.63746
# Velocity P-wave (km/s) = 6.27052 7.06633 6.68029
#
# Compressibility (1/GPa) = 0.01937556
#
# Stress axis : x y z
#
# Youngs Moduli (GPa) = 49.57637 44.17598 98.10526
#
# Poissons Ratio (x) = 0.41609 0.10286
# Poissons Ratio (y) = 0.46696 0.62249
# Poissons Ratio (z) = 0.05198 0.28030
#
# Static dielectric constant tensor:
#      x y z
#    x 1.849130 -0.010470 0.045960 
#    y -0.010470 1.730140 0.006750 
#    z 0.045960 0.006750 1.804910 
# 
# From -- ./inp_files/92736.got.cif
#   From: 2010.05.17/outbox.cif.g08.bks.cpg/sg2_47_cif.got.tgz:92736.got - 2010.06.03 11:33:40.
