data_PCOD9054281
_publ_section_title
;
Structure prediction by ZEFSAII (Michael W. Deem and Ramdas Pophale) SiO2 
 PCOD9054281
Probable space group: P -1
;
_chemical_formula_sum "Si O2"
_cell_formula_units_Z 14
_cell_length_a 11.448211
_cell_length_b 26.336024
_cell_length_c 9.315209
_cell_angle_alpha 150.765814
_cell_angle_beta 142.406286
_cell_angle_gamma 27.567740
_cell_volume 632.588863
_symmetry_space_group_name_H-M "P -1"
_symmetry_group_IT_number 2
_symmetry_cell_setting 'triclinic'
loop_
_space_group_symop_operation_xyz
x,y,z
-x,-y,-z
loop_
_atom_site_type_symbol
_atom_site_label
_atom_site_fract_x
_atom_site_fract_y
_atom_site_fract_z
Si Si1 0.443580 0.130606 0.336736
Si Si2 0.389856 0.106167 0.526860
Si Si3 0.786894 0.422529 0.029908
Si Si4 0.408894 0.314115 0.190085
Si Si5 0.852988 0.274782 0.436918
Si Si6 0.708117 0.685516 0.600306
Si Si7 0.920618 0.422429 0.648355
O O1 0.550780 0.075518 0.466712
O O2 0.488578 0.194417 0.406833
O O3 0.161993 0.274747 0.457620
O O4 0.500000 0.000000 0.000000
O O5 0.128758 0.140928 0.323797
O O6 0.500000 0.000000 0.500000
O O7 0.299841 0.248800 0.853514
O O8 0.785275 0.543019 0.270416
O O9 0.036606 0.337730 0.169040
O O10 0.500000 0.500000 0.000000
O O11 0.839063 0.326373 0.711955
O O12 0.669830 0.242515 0.186860
O O13 0.419392 0.290322 0.309875
O O14 0.252541 0.472673 0.389202
O O15 0.784255 0.391701 0.548345
O O16 0.000000 0.500000 0.000000
#
# Coordination Sequence:
#
# PCOD9054281 Si02
#       7
#     2   2   2   2   2   2   2
#     4  11  24  41  68  97 127 177 221 270 336 396
#     4  11  25  47  68  90 134 176 222 276 334 401
#     4  11  21  37  63 101 134 170 212 275 332 393
#     4  12  22  41  69 100 128 176 217 282 331 398
#     4  11  23  38  66 101 129 170 230 271 334 397
#     4  11  22  39  63  93 139 168 215 268 338 389
#     4  11  20  42  67  98 134 171 220 278 329 392
#
# _framework density 22.131277999999998
#
# number of rings (size 3 to 8) (size 9 to 14) (size 15 to 20)
#    0.000    0.857    5.714    3.857    0.000    0.571 
#    0.000    0.000    0.000    5.143    0.000    0.000 
#    0.000    0.000    0.000    0.000    0.000    0.000 
#
# Total GULP energy -77955.175044 kJ/mol
# GULP energy per Si atom -5568.226789 kJ/mol
# Density = 2.208091 g / cm^3
# Si number density = 22.131278 Si / 1000 Ang^3
#
#
#
# Elastic Constant Matrix: (Units=GPa)
#
#
# Indices 1 2 3 4 5 6 
#
# 1 138.6012 43.9204 3.7479 -19.7985 -0.4653 24.0044
# 2 43.9204 68.2166 3.2005 6.8353 14.4769 31.0147
# 3 3.7479 3.2005 57.1688 10.1226 -13.5901 -0.0915
# 4 -19.7985 6.8353 10.1226 22.4167 -6.3584 4.0942
# 5 -0.4653 14.4769 -13.5901 -6.3584 30.4636 -11.3945
# 6 24.0044 31.0147 -0.0915 4.0942 -11.3945 54.5514
#
#
#
# Elastic Compliance Matrix: (Units=1/GPa)
#
#
# Indices 1 2 3 4 5 6 
#
# 1 0.014914 -0.016599 -0.000567 0.021685 0.013945 0.004158
# 2 -0.016599 0.052739 -0.006770 -0.035543 -0.046909 -0.029822
# 3 -0.000567 -0.006770 0.022485 -0.005764 0.014910 0.007683
# 4 0.021685 -0.035543 -0.005764 0.085505 0.036971 0.011961
# 5 0.013945 -0.046909 0.014910 0.036971 0.082822 0.035084
# 6 0.004158 -0.029822 0.007683 0.011961 0.035084 0.039900
#
#
# Mechanical properties :
#
#
# Convention : Reuss Voigt Hill
#
# Bulk Modulus (GPa) = 23.65837 40.63604 32.14721
# Shear Modulus (GPa) = 13.87633 35.69421 24.78527
#
# Velocity S-wave (km/s) = 2.50671 4.02037 3.35015
# Velocity P-wave (km/s) = 4.36937 6.32079 5.43341
#
# Compressibility (1/GPa) = 0.04226833
#
# Stress axis : x y z
#
# Youngs Moduli (GPa) = 67.04936 18.96131 44.47312
#
# Poissons Ratio (x) = 0.31473 0.02520
# Poissons Ratio (y) = 1.11293 0.30108
# Poissons Ratio (z) = 0.03799 0.12837
#
# Static dielectric constant tensor:
#      x y z
#    x 1.899460 0.016440 -0.037090 
#    y 0.016440 1.928610 -0.040030 
#    z -0.037090 -0.040030 1.823150 
# 
# From -- ./inp_files/257068.got.cif
#   From: 2010.05.17/outbox.cif.g08.bks.cpg/sg2_129_cif.got.tgz:257068.got - 2010.06.03 11:33:40.
