data_PCOD9054537
_publ_section_title
;
Structure prediction by ZEFSAII (Michael W. Deem and Ramdas Pophale) SiO2 
 PCOD9054537
Probable space group: P -1
;
_chemical_formula_sum "Si O2"
_cell_formula_units_Z 16
_cell_length_a 20.798142
_cell_length_b 9.489065
_cell_length_c 11.895481
_cell_angle_alpha 52.034718
_cell_angle_beta 28.315553
_cell_angle_gamma 42.242522
_cell_volume 743.671432
_symmetry_space_group_name_H-M "P -1"
_symmetry_group_IT_number 2
_symmetry_cell_setting 'triclinic'
loop_
_space_group_symop_operation_xyz
x,y,z
-x,-y,-z
loop_
_atom_site_type_symbol
_atom_site_label
_atom_site_fract_x
_atom_site_fract_y
_atom_site_fract_z
Si Si1 0.318997 0.592437 0.083301
Si Si2 0.820654 0.080443 0.064959
Si Si3 0.730064 0.768971 0.068130
Si Si4 0.297566 0.233690 0.642530
Si Si5 0.946547 0.236056 0.440284
Si Si6 0.319861 0.603490 0.684555
Si Si7 0.838521 0.307100 0.336680
Si Si8 0.521290 0.214179 0.107066
O O1 0.153619 0.625357 0.368317
O O2 0.450133 0.352518 0.035666
O O3 0.273894 0.718390 0.973082
O O4 0.372040 0.720547 0.018316
O O5 0.791035 0.181905 0.182962
O O6 0.752640 0.928618 0.234372
O O7 0.005285 0.913521 0.831825
O O8 0.631962 0.838041 0.304160
O O9 0.739002 0.557553 0.122013
O O10 0.628321 0.964048 0.045516
O O11 0.901869 0.745727 0.830595
O O12 0.161029 0.475721 0.769064
O O13 0.387647 0.254372 0.386806
O O14 0.827144 0.286888 0.495501
O O15 0.000000 0.000000 0.500000
O O16 0.500000 0.500000 0.500000
O O17 0.300968 0.642016 0.560656
#
# Coordination Sequence:
#
# PCOD9054537 Si02
#       8
#     2   2   2   2   2   2   2   2
#     4  11  24  36  64 100 135 166 213 275 338 393
#     4  12  23  44  64  98 133 175 223 273 330 396
#     4  11  23  41  68  97 131 173 227 277 328 386
#     4  11  21  35  70 100 127 163 229 287 322 380
#     4  12  20  43  69 103 132 165 223 287 330 389
#     4  11  28  44  63  95 141 180 219 270 332 400
#     4  11  23  40  70  99 128 173 222 277 335 383
#     4  11  21  36  61 101 131 169 212 277 337 386
#
# _framework density 21.514879000000001
#
# number of rings (size 3 to 8) (size 9 to 14) (size 15 to 20)
#    0.000    0.750    6.250    1.875    5.250    0.000 
#    0.000    1.250    2.750    0.000    0.000    0.000 
#    0.000    0.000    0.000    0.000    0.000    0.000 
#
# Total GULP energy -89158.173526 kJ/mol
# GULP energy per Si atom -5572.385845 kJ/mol
# Density = 2.146591 g / cm^3
# Si number density = 21.514879 Si / 1000 Ang^3
#
#
#
# Elastic Constant Matrix: (Units=GPa)
#
#
# Indices 1 2 3 4 5 6 
#
# 1 99.4223 41.9636 27.6106 -16.2313 -2.5173 -14.3485
# 2 41.9636 100.1945 -12.4129 -11.3808 9.5948 -7.7972
# 3 27.6106 -12.4129 69.6716 -8.1012 1.9109 -1.7819
# 4 -16.2313 -11.3808 -8.1012 22.8961 -3.8150 7.1100
# 5 -2.5173 9.5948 1.9109 -3.8150 19.6422 -0.0169
# 6 -14.3485 -7.7972 -1.7819 7.1100 -0.0169 49.2199
#
#
#
# Elastic Compliance Matrix: (Units=1/GPa)
#
#
# Indices 1 2 3 4 5 6 
#
# 1 0.017119 -0.008008 -0.007670 0.005975 0.008015 0.002584
# 2 -0.008008 0.015264 0.006450 0.002793 -0.008568 -0.000089
# 3 -0.007670 0.006450 0.019123 0.004008 -0.005217 -0.001103
# 4 0.005975 0.002793 0.004008 0.053997 0.009495 -0.005468
# 5 0.008015 -0.008568 -0.005217 0.009495 0.058474 -0.000561
# 6 0.002584 -0.000089 -0.001103 -0.005468 -0.000561 0.021806
#
#
# Mechanical properties :
#
#
# Convention : Reuss Voigt Hill
#
# Bulk Modulus (GPa) = 30.25569 42.62346 36.43957
# Shear Modulus (GPa) = 23.22814 32.49346 27.86080
#
# Velocity S-wave (km/s) = 3.28934 3.89045 3.60245
# Velocity P-wave (km/s) = 5.34037 6.32732 5.85468
#
# Compressibility (1/GPa) = 0.03305163
#
# Stress axis : x y z
#
# Youngs Moduli (GPa) = 58.41343 65.51205 52.29351
#
# Poissons Ratio (x) = 0.52462 0.40109
# Poissons Ratio (y) = 0.46777 -0.33732
# Poissons Ratio (z) = 0.44803 -0.42259
#
# Static dielectric constant tensor:
#      x y z
#    x 1.778520 -0.092310 -0.003750 
#    y -0.092310 1.853190 0.030220 
#    z -0.003750 0.030220 1.835580 
# 
# From -- ./inp_files/398347.got.cif
#   From: 2010.05.17/outbox.cif.g08.bks.cpg/sg2_200_cif.got.tgz:398347.got - 2010.06.03 11:33:40.
