data_PCOD9054930
_publ_section_title
;
Structure prediction by ZEFSAII (Michael W. Deem and Ramdas Pophale) SiO2 
 PCOD9054930
Probable space group: P -1
;
_chemical_formula_sum "Si O2"
_cell_formula_units_Z 16
_cell_length_a 14.331700
_cell_length_b 14.295347
_cell_length_c 9.594417
_cell_angle_alpha 95.932784
_cell_angle_beta 60.280515
_cell_angle_gamma 147.493702
_cell_volume 677.409434
_symmetry_space_group_name_H-M "P -1"
_symmetry_group_IT_number 2
_symmetry_cell_setting 'triclinic'
loop_
_space_group_symop_operation_xyz
x,y,z
-x,-y,-z
loop_
_atom_site_type_symbol
_atom_site_label
_atom_site_fract_x
_atom_site_fract_y
_atom_site_fract_z
Si Si1 0.282127 0.220123 0.249013
Si Si2 0.643296 0.026170 0.321789
Si Si3 0.508390 0.606037 0.161811
Si Si4 0.507194 0.226267 0.242134
Si Si5 0.795494 0.155395 0.911407
Si Si6 0.778195 0.347601 0.841102
Si Si7 0.387103 0.628135 0.502621
Si Si8 0.024026 0.721864 0.622685
O O1 0.446721 0.446605 0.197079
O O2 0.428785 0.246432 0.200955
O O3 0.261208 0.197616 0.093976
O O4 0.000000 0.000000 0.500000
O O5 0.879194 0.179780 0.275321
O O6 0.500000 0.000000 0.500000
O O7 0.430962 0.769168 0.431413
O O8 0.754272 0.138819 0.104440
O O9 0.551894 0.692883 0.288478
O O10 0.241218 0.438739 0.261534
O O11 0.765790 0.382521 0.010800
O O12 0.535930 0.295541 0.382333
O O13 0.274958 0.960856 0.385455
O O14 0.084045 0.343572 0.690407
O O15 0.524979 0.884769 0.028016
O O16 0.814690 0.267743 0.827759
O O17 0.970938 0.567251 0.639851
#
# Coordination Sequence:
#
# PCOD9054930 Si02
#       8
#     2   2   2   2   2   2   2   2
#     4  11  24  44  73  95 127 172 223 275 344 404
#     4  11  24  40  63  99 141 182 222 271 323 390
#     4  11  24  43  69 100 129 170 222 282 330 399
#     4  11  23  42  68  97 131 179 214 273 334 396
#     4  11  24  40  64  97 135 182 222 274 323 391
#     4  11  23  40  65  96 132 178 230 264 324 394
#     4  11  25  42  67 101 138 172 224 272 331 392
#     4  11  21  39  66  91 130 171 218 266 325 389
#
# _framework density 23.619395000000001
#
# number of rings (size 3 to 8) (size 9 to 14) (size 15 to 20)
#    0.000    1.000    2.500    4.500    0.000    3.000 
#    0.000    5.000    0.000    0.000    0.000    0.000 
#    0.000    0.000    0.000    0.000    0.000    0.000 
#
# Total GULP energy -89482.643344 kJ/mol
# GULP energy per Si atom -5592.665209 kJ/mol
# Density = 2.356564 g / cm^3
# Si number density = 23.619395 Si / 1000 Ang^3
#
#
#
# Elastic Constant Matrix: (Units=GPa)
#
#
# Indices 1 2 3 4 5 6 
#
# 1 65.6513 11.9647 3.2223 3.4697 28.0068 -21.7917
# 2 11.9647 95.1206 30.8842 16.1527 15.8313 -6.3524
# 3 3.2223 30.8842 125.1858 15.4386 25.4790 -10.7706
# 4 3.4697 16.1527 15.4386 50.3474 -10.3072 -6.4078
# 5 28.0068 15.8313 25.4790 -10.3072 36.2760 -4.6522
# 6 -21.7917 -6.3524 -10.7706 -6.4078 -4.6522 30.7031
#
#
#
# Elastic Compliance Matrix: (Units=1/GPa)
#
#
# Indices 1 2 3 4 5 6 
#
# 1 0.038696 0.001646 0.009540 -0.010818 -0.037390 0.023229
# 2 0.001646 0.012859 -0.000895 -0.005366 -0.007620 0.001240
# 3 0.009540 -0.000895 0.012908 -0.006929 -0.017102 0.007077
# 4 -0.010818 -0.005366 -0.006929 0.029091 0.023625 -0.001568
# 5 -0.037390 -0.007620 -0.017102 0.023625 0.076221 -0.017633
# 6 0.023229 0.001240 0.007077 -0.001568 -0.017633 0.048797
#
#
# Mechanical properties :
#
#
# Convention : Reuss Voigt Hill
#
# Bulk Modulus (GPa) = 11.75843 42.01113 26.88478
# Shear Modulus (GPa) = 22.09087 39.45774 30.77430
#
# Velocity S-wave (km/s) = 3.06156 4.09169 3.61352
# Velocity P-wave (km/s) = 4.18170 6.33624 5.36817
#
# Compressibility (1/GPa) = 0.08504534
#
# Stress axis : x y z
#
# Youngs Moduli (GPa) = 25.84223 77.76727 77.47421
#
# Poissons Ratio (x) = -0.12803 -0.73914
# Poissons Ratio (y) = -0.04254 0.06937
# Poissons Ratio (z) = -0.24655 0.06964
#
# Static dielectric constant tensor:
#      x y z
#    x 2.197870 -0.015330 -0.003130 
#    y -0.015330 1.951490 0.013910 
#    z -0.003130 0.013910 1.931940 
# 
# From -- ./inp_files/315252.got.cif
#   From: 2010.05.17/outbox.cif.g08.bks.cpg/sg2_158_cif.got.tgz:315252.got - 2010.06.03 11:33:40.
