data_PCOD9054241
_publ_section_title
;
Structure prediction by ZEFSAII (Michael W. Deem and Ramdas Pophale) SiO2 
 PCOD9054241
Probable space group: P -1
;
_chemical_formula_sum "Si O2"
_cell_formula_units_Z 16
_cell_length_a 18.073942
_cell_length_b 15.046907
_cell_length_c 9.336950
_cell_angle_alpha 38.491445
_cell_angle_beta 150.790007
_cell_angle_gamma 138.925911
_cell_volume 750.086291
_symmetry_space_group_name_H-M "P -1"
_symmetry_group_IT_number 2
_symmetry_cell_setting 'triclinic'
loop_
_space_group_symop_operation_xyz
x,y,z
-x,-y,-z
loop_
_atom_site_type_symbol
_atom_site_label
_atom_site_fract_x
_atom_site_fract_y
_atom_site_fract_z
Si Si1 0.113193 0.450328 0.640097
Si Si2 0.296736 0.176219 0.803857
Si Si3 0.663383 0.130886 0.858843
Si Si4 0.572675 0.376076 0.197522
Si Si5 0.885919 0.233637 0.357573
Si Si6 0.178944 0.201307 0.267433
Si Si7 0.336447 0.001071 0.586436
Si Si8 0.110746 0.046714 0.908415
O O1 0.266986 0.554401 0.702430
O O2 0.000000 0.500000 0.500000
O O3 0.993407 0.387986 0.386810
O O4 0.175421 0.328875 0.989522
O O5 0.255467 0.239226 0.503768
O O6 0.159565 0.147375 0.725624
O O7 0.445150 0.283756 0.989587
O O8 0.314220 0.009079 0.017213
O O9 0.612390 0.257710 0.524135
O O10 0.519298 0.057882 0.809934
O O11 0.814119 0.203066 0.117383
O O12 0.500000 0.500000 0.000000
O O13 0.004249 0.128361 0.719531
O O14 0.738347 0.170133 0.291353
O O15 0.271417 0.093816 0.480516
O O16 0.002265 0.110249 0.115154
O O17 0.261297 0.033667 0.267474
#
# Coordination Sequence:
#
# PCOD9054241 Si02
#       8
#     2   2   2   2   2   2   2   2
#     4  12  28  43  68  99 142 198 234 275 339 440
#     4  12  26  42  75 108 133 174 240 303 341 401
#     4  12  26  42  75 108 133 174 240 303 341 401
#     4  12  29  50  66  95 151 199 226 277 360 435
#     4  11  23  42  70 104 135 177 230 288 354 409
#     4  11  23  42  70 104 135 177 230 288 354 409
#     4  11  20  41  72 100 138 175 219 294 362 400
#     4  11  20  41  72 100 138 175 219 294 362 400
#
# _framework density 21.330880000000001
#
# number of rings (size 3 to 8) (size 9 to 14) (size 15 to 20)
#    0.000    0.500    6.250    3.375    3.500    2.000 
#    0.000    0.000    0.000    0.000    0.000    0.000 
#    0.000    0.000    0.000    0.000    0.000    0.000 
#
# Total GULP energy -89364.815551 kJ/mol
# GULP energy per Si atom -5585.300972 kJ/mol
# Density = 2.128233 g / cm^3
# Si number density = 21.330880 Si / 1000 Ang^3
#
#
#
# Elastic Constant Matrix: (Units=GPa)
#
#
# Indices 1 2 3 4 5 6 
#
# 1 90.8027 56.8892 27.1188 16.7421 -0.3257 20.4765
# 2 56.8892 128.6075 54.6685 28.3468 -5.5826 10.5237
# 3 27.1188 54.6685 109.1714 17.2662 -13.2410 -5.8582
# 4 16.7421 28.3468 17.2662 31.2286 -1.1443 -4.6640
# 5 -0.3257 -5.5826 -13.2410 -1.1443 37.4043 6.1459
# 6 20.4765 10.5237 -5.8582 -4.6640 6.1459 46.9330
#
#
#
# Elastic Compliance Matrix: (Units=1/GPa)
#
#
# Indices 1 2 3 4 5 6 
#
# 1 0.017235 -0.005571 -0.001148 -0.004576 -0.000101 -0.006855
# 2 -0.005571 0.014001 -0.004478 -0.007538 0.000569 -0.002091
# 3 -0.001148 -0.004478 0.012493 -0.001739 0.003287 0.002461
# 4 -0.004576 -0.007538 -0.001739 0.043411 -0.001769 0.008015
# 5 -0.000101 0.000569 0.003287 -0.001769 0.028517 -0.003583
# 6 -0.006855 -0.002091 0.002461 0.008015 -0.003583 0.026340
#
#
# Mechanical properties :
#
#
# Convention : Reuss Voigt Hill
#
# Bulk Modulus (GPa) = 46.87137 67.32607 57.09872
# Shear Modulus (GPa) = 29.15405 35.77354 32.46380
#
# Velocity S-wave (km/s) = 3.70097 4.09966 3.90541
# Velocity P-wave (km/s) = 6.34698 7.35125 6.86749
#
# Compressibility (1/GPa) = 0.02133499
#
# Stress axis : x y z
#
# Youngs Moduli (GPa) = 58.02081 71.42551 80.04256
#
# Poissons Ratio (x) = 0.39789 0.09190
# Poissons Ratio (y) = 0.32322 0.35845
# Poissons Ratio (z) = 0.06662 0.31986
#
# Static dielectric constant tensor:
#      x y z
#    x 1.852970 -0.057540 0.021810 
#    y -0.057540 1.831940 -0.023680 
#    z 0.021810 -0.023680 1.807330 
# 
# From -- ./inp_files/226510.got.cif
#   From: 2010.05.17/outbox.cif.g08.bks.cpg/sg2_114_cif.got.tgz:226510.got - 2010.06.03 11:33:40.
