data_PCOD9054998
_publ_section_title
;
Structure prediction by ZEFSAII (Michael W. Deem and Ramdas Pophale) SiO2 
 PCOD9054998
Probable space group: P -1
;
_chemical_formula_sum "Si O2"
_cell_formula_units_Z 14
_cell_length_a 13.034314
_cell_length_b 10.864606
_cell_length_c 14.816091
_cell_angle_alpha 27.747552
_cell_angle_beta 40.532368
_cell_angle_gamma 48.305860
_cell_volume 634.637285
_symmetry_space_group_name_H-M "P -1"
_symmetry_group_IT_number 2
_symmetry_cell_setting 'triclinic'
loop_
_space_group_symop_operation_xyz
x,y,z
-x,-y,-z
loop_
_atom_site_type_symbol
_atom_site_label
_atom_site_fract_x
_atom_site_fract_y
_atom_site_fract_z
Si Si1 0.686724 0.984386 0.896535
Si Si2 0.831197 0.563470 0.419218
Si Si3 0.845827 0.666231 0.653102
Si Si4 0.608318 0.742408 0.599060
Si Si5 0.687556 0.554298 0.325383
Si Si6 0.868627 0.266269 0.244242
Si Si7 0.703722 0.563600 0.010882
O O1 0.714169 0.804561 0.081164
O O2 0.740326 0.826150 0.874531
O O3 0.500000 0.000000 0.000000
O O4 0.761332 0.269952 0.673679
O O5 0.736634 0.751064 0.427271
O O6 0.781357 0.605591 0.321570
O O7 0.017884 0.541172 0.325188
O O8 0.705369 0.688666 0.660205
O O9 0.920327 0.965618 0.409780
O O10 0.777874 0.592664 0.844325
O O11 0.482687 0.499283 0.828666
O O12 0.500000 0.000000 0.500000
O O13 0.500000 0.500000 0.500000
O O14 0.760186 0.318743 0.370335
O O15 0.772119 0.323865 0.180099
O O16 0.000000 0.500000 0.000000
#
# Coordination Sequence:
#
# PCOD9054998 Si02
#       7
#     2   2   2   2   2   2   2
#     4  11  21  39  70 103 135 169 218 282 334 397
#     4  12  25  45  67 103 137 170 224 282 338 392
#     4  12  26  43  71 100 134 181 226 279 337 393
#     4  12  26  49  70  91 137 188 229 274 326 405
#     4  11  22  37  66 100 131 172 216 269 333 397
#     4  11  23  42  66 101 142 169 213 279 346 398
#     4  11  23  44  70 100 132 177 230 271 333 402
#
# _framework density 22.059846
#
# number of rings (size 3 to 8) (size 9 to 14) (size 15 to 20)
#    0.000    0.571    4.286    5.143    0.000    1.714 
#    2.571    0.714    0.000    0.000    0.000    0.000 
#    0.000    0.000    0.000    0.000    0.000    0.000 
#
# Total GULP energy -78302.660131 kJ/mol
# GULP energy per Si atom -5593.047152 kJ/mol
# Density = 2.200964 g / cm^3
# Si number density = 22.059846 Si / 1000 Ang^3
#
#
#
# Elastic Constant Matrix: (Units=GPa)
#
#
# Indices 1 2 3 4 5 6 
#
# 1 119.5878 70.0741 21.1949 33.9311 12.9233 -3.3762
# 2 70.0741 130.8223 30.3340 24.0738 25.1466 -20.1352
# 3 21.1949 30.3340 49.2899 27.5985 11.1131 9.6457
# 4 33.9311 24.0738 27.5985 28.9284 7.0257 -3.4739
# 5 12.9233 25.1466 11.1131 7.0257 45.9432 6.7534
# 6 -3.3762 -20.1352 9.6457 -3.4739 6.7534 33.6128
#
#
#
# Elastic Compliance Matrix: (Units=1/GPa)
#
#
# Indices 1 2 3 4 5 6 
#
# 1 0.023697 -0.014476 0.026195 -0.044148 0.004506 -0.019277
# 2 -0.014476 0.021471 -0.025416 0.028452 -0.009340 0.023518
# 3 0.026195 -0.025416 0.091994 -0.105463 0.007988 -0.051498
# 4 -0.044148 0.028452 -0.105463 0.174241 -0.013642 0.063622
# 5 0.004506 -0.009340 0.007988 -0.013642 0.027888 -0.014448
# 6 -0.019277 0.023518 -0.051498 0.063622 -0.014448 0.066159
#
#
# Mechanical properties :
#
#
# Convention : Reuss Voigt Hill
#
# Bulk Modulus (GPa) = 9.11027 60.32289 34.71658
# Shear Modulus (GPa) = 10.65114 33.57001 22.11058
#
# Velocity S-wave (km/s) = 2.19972 3.90522 3.16935
# Velocity P-wave (km/s) = 3.25430 6.90933 5.40043
#
# Compressibility (1/GPa) = 0.10976625
#
# Stress axis : x y z
#
# Youngs Moduli (GPa) = 42.19935 46.57536 10.87033
#
# Poissons Ratio (x) = 0.67422 -0.28475
# Poissons Ratio (y) = 0.61088 0.27629
# Poissons Ratio (z) = -1.10541 1.18378
#
# Static dielectric constant tensor:
#      x y z
#    x 1.825160 -0.036440 -0.031290 
#    y -0.036440 1.846050 -0.007790 
#    z -0.031290 -0.007790 1.775670 
# 
# From -- ./inp_files/418743.got.cif
#   From: 2010.05.17/outbox.cif.g08.bks.cpg/sg2_210_cif.got.tgz:418743.got - 2010.06.03 11:33:40.
