data_PCOD9054257
_publ_section_title
;
Structure prediction by ZEFSAII (Michael W. Deem and Ramdas Pophale) SiO2 
 PCOD9054257
Probable space group: P -1
;
_chemical_formula_sum "Si O2"
_cell_formula_units_Z 14
_cell_length_a 13.217469
_cell_length_b 7.815346
_cell_length_c 12.844970
_cell_angle_alpha 74.182360
_cell_angle_beta 39.529579
_cell_angle_gamma 47.478194
_cell_volume 527.737947
_symmetry_space_group_name_H-M "P -1"
_symmetry_group_IT_number 2
_symmetry_cell_setting 'triclinic'
loop_
_space_group_symop_operation_xyz
x,y,z
-x,-y,-z
loop_
_atom_site_type_symbol
_atom_site_label
_atom_site_fract_x
_atom_site_fract_y
_atom_site_fract_z
Si Si1 0.632107 0.578887 0.880943
Si Si2 0.722677 0.949093 0.058151
Si Si3 0.073169 0.185864 0.740898
Si Si4 0.453124 0.824064 0.313717
Si Si5 0.183706 0.486343 0.652699
Si Si6 0.330111 0.747757 0.760431
Si Si7 0.981009 0.803124 0.543876
O O1 0.800244 0.453679 0.870216
O O2 0.828577 0.425221 0.656450
O O3 0.418721 0.892974 0.964173
O O4 0.500000 0.500000 0.000000
O O5 0.625892 0.844082 0.194731
O O6 0.658270 0.157935 0.155439
O O7 0.007687 0.701278 0.847880
O O8 0.178470 0.278018 0.689771
O O9 0.241670 0.989715 0.541575
O O10 0.095864 0.012806 0.836978
O O11 0.600745 0.516069 0.241166
O O12 0.294228 0.998675 0.307327
O O13 0.062701 0.649338 0.612361
O O14 0.445831 0.354542 0.467313
O O15 0.000000 0.000000 0.500000
#
# Coordination Sequence:
#
# PCOD9054257 Si02
#       7
#     2   2   2   2   2   2   2
#     4  11  24  45  77 114 150 193 256 315 372 444
#     4  12  27  47  79 114 150 197 257 311 372 447
#     4  11  26  48  79 110 152 203 251 310 381 449
#     4  11  24  47  78 110 150 200 255 308 378 447
#     4  12  25  46  80 110 153 200 250 309 379 445
#     4  12  26  53  77 108 160 201 246 310 379 454
#     4  11  20  41  73 109 146 195 247 311 370 437
#
# _framework density 26.528317000000001
#
# number of rings (size 3 to 8) (size 9 to 14) (size 15 to 20)
#    0.000    0.571    4.286    2.571    2.000    7.429 
#    0.000    1.429    0.000    0.000    0.000    0.000 
#    0.000    0.000    0.000    0.000    0.000    0.000 
#
# Total GULP energy -78660.164469 kJ/mol
# GULP energy per Si atom -5618.583176 kJ/mol
# Density = 2.646794 g / cm^3
# Si number density = 26.528317 Si / 1000 Ang^3
#
#
#
# Elastic Constant Matrix: (Units=GPa)
#
#
# Indices 1 2 3 4 5 6 
#
# 1 92.7523 45.8928 22.3880 6.9193 -19.9051 -1.2849
# 2 45.8928 147.5410 17.9083 4.6680 -11.4447 6.4706
# 3 22.3880 17.9083 103.2272 13.8219 1.9644 4.3635
# 4 6.9193 4.6680 13.8219 46.4889 5.8232 -6.1911
# 5 -19.9051 -11.4447 1.9644 5.8232 38.3515 3.5873
# 6 -1.2849 6.4706 4.3635 -6.1911 3.5873 61.9265
#
#
#
# Elastic Compliance Matrix: (Units=1/GPa)
#
#
# Indices 1 2 3 4 5 6 
#
# 1 0.014876 -0.003735 -0.002462 -0.001948 0.007003 0.000272
# 2 -0.003735 0.008105 -0.000526 -0.000309 0.000643 -0.000955
# 3 -0.002462 -0.000526 0.010744 -0.002714 -0.001485 -0.000938
# 4 -0.001948 -0.000309 -0.002714 0.023617 -0.004814 0.002823
# 5 0.007003 0.000643 -0.001485 -0.004814 0.030903 -0.002089
# 6 0.000272 -0.000955 -0.000938 0.002823 -0.002089 0.016723
#
#
# Mechanical properties :
#
#
# Convention : Reuss Voigt Hill
#
# Bulk Modulus (GPa) = 49.31711 57.32209 53.31960
# Shear Modulus (GPa) = 39.94380 46.50880 43.22630
#
# Velocity S-wave (km/s) = 3.88455 4.19164 4.04101
# Velocity P-wave (km/s) = 6.22498 6.71425 6.47424
#
# Compressibility (1/GPa) = 0.02027694
#
# Stress axis : x y z
#
# Youngs Moduli (GPa) = 67.22327 123.37824 93.07501
#
# Poissons Ratio (x) = 0.46087 0.22917
# Poissons Ratio (y) = 0.25111 0.04900
# Poissons Ratio (z) = 0.16552 0.06495
#
# Static dielectric constant tensor:
#      x y z
#    x 2.127660 -0.079110 -0.051900 
#    y -0.079110 2.042930 0.034390 
#    z -0.051900 0.034390 2.102180 
# 
# From -- ./inp_files/527406.got.cif
#   From: 2010.05.17/outbox.cif.g08.bks.cpg/sg2_264_cif.got.tgz:527406.got - 2010.06.03 11:33:40.
