data_PCOD9054152
_publ_section_title
;
Structure prediction by ZEFSAII (Michael W. Deem and Ramdas Pophale) SiO2 
 PCOD9054152
Probable space group: P -1
;
_chemical_formula_sum "Si O2"
_cell_formula_units_Z 14
_cell_length_a 24.133510
_cell_length_b 7.662510
_cell_length_c 7.846131
_cell_angle_alpha 123.831411
_cell_angle_beta 147.795612
_cell_angle_gamma 42.731348
_cell_volume 516.217235
_symmetry_space_group_name_H-M "P -1"
_symmetry_group_IT_number 2
_symmetry_cell_setting 'triclinic'
loop_
_space_group_symop_operation_xyz
x,y,z
-x,-y,-z
loop_
_atom_site_type_symbol
_atom_site_label
_atom_site_fract_x
_atom_site_fract_y
_atom_site_fract_z
Si Si1 0.526163 0.277335 0.325288
Si Si2 0.636969 0.152188 0.200356
Si Si3 0.865470 0.061067 0.125926
Si Si4 0.591932 0.811537 0.484282
Si Si5 0.903471 0.930073 0.754588
Si Si6 0.264276 0.414721 0.728491
Si Si7 0.144042 0.398578 0.059225
O O1 0.500000 0.500000 0.500000
O O2 0.577482 0.015770 0.419403
O O3 0.620356 0.233967 0.398499
O O4 0.392144 0.356358 0.943042
O O5 0.693752 0.844742 0.202386
O O6 0.757637 0.116189 0.401579
O O7 0.490780 0.298514 0.832013
O O8 0.773860 0.358955 0.114333
O O9 0.000000 0.000000 0.500000
O O10 0.837826 0.873955 0.047346
O O11 0.881837 0.976198 0.925588
O O12 0.500000 0.000000 0.500000
O O13 0.748855 0.615351 0.791703
O O14 0.991396 0.628102 0.759889
O O15 0.000000 0.000000 0.000000
O O16 0.171293 0.456657 0.354382
#
# Coordination Sequence:
#
# PCOD9054152 Si02
#       7
#     2   2   2   2   2   2   2
#     4  11  21  40  71 102 134 178 234 276 337 413
#     4  11  22  45  69  98 139 185 227 282 337 410
#     4  12  24  41  74 102 128 186 242 270 331 418
#     4  11  24  43  68 102 136 176 222 287 350 397
#     4  12  27  45  66 101 144 178 221 289 352 398
#     4  11  20  40  74 101 128 176 240 279 325 402
#     4  12  23  47  72  99 138 180 232 285 332 412
#
# _framework density 27.120363999999999
#
# number of rings (size 3 to 8) (size 9 to 14) (size 15 to 20)
#    0.000    0.571    5.714    3.857    0.000    4.571 
#    2.571    3.571    0.000    0.000    0.000    0.000 
#    0.000    0.000    0.000    0.000    0.000    0.000 
#
# Total GULP energy -78321.348759 kJ/mol
# GULP energy per Si atom -5594.382054 kJ/mol
# Density = 2.705864 g / cm^3
# Si number density = 27.120364 Si / 1000 Ang^3
#
#
#
# Elastic Constant Matrix: (Units=GPa)
#
#
# Indices 1 2 3 4 5 6 
#
# 1 104.6992 47.6565 40.1051 -9.7717 30.2199 -23.4124
# 2 47.6565 148.9449 13.6895 26.2129 7.3651 -21.7086
# 3 40.1051 13.6895 135.3221 -6.5215 54.7273 -13.6539
# 4 -9.7717 26.2129 -6.5215 60.2465 -11.1273 4.5673
# 5 30.2199 7.3651 54.7273 -11.1273 49.0458 -2.8096
# 6 -23.4124 -21.7086 -13.6539 4.5673 -2.8096 51.3550
#
#
#
# Elastic Compliance Matrix: (Units=1/GPa)
#
#
# Indices 1 2 3 4 5 6 
#
# 1 0.014922 -0.004199 -0.000573 0.002550 -0.007102 0.004261
# 2 -0.004199 0.009263 0.000427 -0.004903 -0.000248 0.002538
# 3 -0.000573 0.000427 0.014054 -0.001872 -0.015648 0.002967
# 4 0.002550 -0.004903 -0.001872 0.020210 0.005674 -0.002895
# 5 -0.007102 -0.000248 -0.015648 0.005674 0.043227 -0.005643
# 6 0.004261 0.002538 0.002967 -0.002895 -0.005643 0.023225
#
#
# Mechanical properties :
#
#
# Convention : Reuss Voigt Hill
#
# Bulk Modulus (GPa) = 33.83964 65.76317 49.80141
# Shear Modulus (GPa) = 34.85789 51.29714 43.07751
#
# Velocity S-wave (km/s) = 3.58900 4.35381 3.98978
# Velocity P-wave (km/s) = 5.44787 7.04099 6.29503
#
# Compressibility (1/GPa) = 0.02955114
#
# Stress axis : x y z
#
# Youngs Moduli (GPa) = 67.01343 107.95601 71.15559
#
# Poissons Ratio (x) = 0.45326 0.04074
# Poissons Ratio (y) = 0.28136 -0.03040
# Poissons Ratio (z) = 0.03837 -0.04612
#
# Static dielectric constant tensor:
#      x y z
#    x 2.112760 0.014950 -0.033330 
#    y 0.014950 2.271760 -0.091670 
#    z -0.033330 -0.091670 2.271720 
# 
# From -- ./inp_files/343305.got.cif
#   From: 2010.05.17/outbox.cif.g08.bks.cpg/sg2_172_cif.got.tgz:343305.got - 2010.06.03 11:33:40.
