data_PCOD9054705
_publ_section_title
;
Structure prediction by ZEFSAII (Michael W. Deem and Ramdas Pophale) SiO2 
 PCOD9054705
Probable space group: P -1
;
_chemical_formula_sum "Si O2"
_cell_formula_units_Z 14
_cell_length_a 12.115300
_cell_length_b 21.809968
_cell_length_c 15.152691
_cell_angle_alpha 159.388166
_cell_angle_beta 38.695172
_cell_angle_gamma 151.987006
_cell_volume 636.045623
_symmetry_space_group_name_H-M "P -1"
_symmetry_group_IT_number 2
_symmetry_cell_setting 'triclinic'
loop_
_space_group_symop_operation_xyz
x,y,z
-x,-y,-z
loop_
_atom_site_type_symbol
_atom_site_label
_atom_site_fract_x
_atom_site_fract_y
_atom_site_fract_z
Si Si1 0.580128 0.724789 0.196354
Si Si2 0.052262 0.470512 0.177869
Si Si3 0.857129 0.283521 0.229515
Si Si4 0.514598 0.684859 0.519328
Si Si5 0.125778 0.257310 0.309345
Si Si6 0.908923 0.947606 0.768244
Si Si7 0.222143 0.019488 0.406690
O O1 0.327464 0.627192 0.183676
O O2 0.691445 0.927326 0.475279
O O3 0.500000 0.500000 0.000000
O O4 0.799517 0.853509 0.162273
O O5 0.023111 0.362253 0.146605
O O6 0.003992 0.641989 0.459340
O O7 0.861569 0.227310 0.910246
O O8 0.623796 0.225960 0.260832
O O9 0.000000 0.500000 0.500000
O O10 0.814847 0.075236 0.024823
O O11 0.336946 0.435411 0.345746
O O12 0.772008 0.830734 0.603131
O O13 0.564725 0.739108 0.457810
O O14 0.181060 0.241775 0.354840
O O15 0.000000 0.000000 0.000000
O O16 0.000000 0.000000 0.500000
#
# Coordination Sequence:
#
# PCOD9054705 Si02
#       7
#     2   2   2   2   2   2   2
#     4  12  23  41  73 103 137 174 228 287 337 403
#     4  11  24  45  66 104 135 180 231 282 338 406
#     4  11  21  37  67  98 129 172 232 281 335 390
#     4  11  23  42  68  95 136 171 228 286 332 402
#     4  11  28  46  65  96 140 185 224 274 352 411
#     4  12  23  43  63 100 133 180 223 276 345 401
#     4  12  22  41  72 106 132 174 229 285 343 393
#
# _framework density 22.010999999999999
#
# number of rings (size 3 to 8) (size 9 to 14) (size 15 to 20)
#    0.000    0.571    5.714    3.429    4.000    0.571 
#    2.571    0.714    0.000    0.000    0.000    0.000 
#    0.000    0.000    0.000    0.000    0.000    0.000 
#
# Total GULP energy -78047.529449 kJ/mol
# GULP energy per Si atom -5574.823532 kJ/mol
# Density = 2.196090 g / cm^3
# Si number density = 22.011000 Si / 1000 Ang^3
#
#
#
# Elastic Constant Matrix: (Units=GPa)
#
#
# Indices 1 2 3 4 5 6 
#
# 1 70.7150 20.4502 24.0372 7.3602 -5.9495 -8.2469
# 2 20.4502 120.8976 15.1083 17.1445 -14.2130 4.7750
# 3 24.0372 15.1083 116.0762 8.3137 -0.9923 -4.1509
# 4 7.3602 17.1445 8.3137 23.9207 -6.9803 0.8595
# 5 -5.9495 -14.2130 -0.9923 -6.9803 42.6199 -5.2120
# 6 -8.2469 4.7750 -4.1509 0.8595 -5.2120 27.1140
#
#
#
# Elastic Compliance Matrix: (Units=1/GPa)
#
#
# Indices 1 2 3 4 5 6 
#
# 1 0.016753 -0.002157 -0.002813 -0.002289 0.001848 0.005473
# 2 -0.002157 0.009775 -0.000480 -0.005582 0.001798 -0.001928
# 3 -0.002813 -0.000480 0.009440 -0.002278 -0.000629 0.000625
# 4 -0.002289 -0.005582 -0.002278 0.048991 0.005727 -0.000514
# 5 0.001848 0.001798 -0.000629 0.005727 0.025848 0.004936
# 6 0.005473 -0.001928 0.000625 -0.000514 0.004936 0.039946
#
#
# Mechanical properties :
#
#
# Convention : Reuss Voigt Hill
#
# Bulk Modulus (GPa) = 39.88835 47.43113 43.65974
# Shear Modulus (GPa) = 29.41027 35.27046 32.34036
#
# Velocity S-wave (km/s) = 3.65932 4.00734 3.83728
# Velocity P-wave (km/s) = 6.00129 6.55800 6.28581
#
# Compressibility (1/GPa) = 0.02506998
#
# Stress axis : x y z
#
# Youngs Moduli (GPa) = 59.69047 102.29900 105.93093
#
# Poissons Ratio (x) = 0.22062 0.29800
# Poissons Ratio (y) = 0.12873 0.05080
# Poissons Ratio (z) = 0.16792 0.04906
#
# Static dielectric constant tensor:
#      x y z
#    x 1.820200 0.004410 0.048400 
#    y 0.004410 1.943880 -0.041050 
#    z 0.048400 -0.041050 1.899230 
# 
# From -- ./inp_files/186873.got.cif
#   From: 2010.05.17/outbox.cif.g08.bks.cpg/sg2_94_cif.got.tgz:186873.got - 2010.06.03 11:33:40.
