data_PCOD9054612
_publ_section_title
;
Structure prediction by ZEFSAII (Michael W. Deem and Ramdas Pophale) SiO2 
 PCOD9054612
Probable space group: P -1
;
_chemical_formula_sum "Si O2"
_cell_formula_units_Z 12
_cell_length_a 16.698534
_cell_length_b 8.645099
_cell_length_c 10.053101
_cell_angle_alpha 137.187220
_cell_angle_beta 135.612138
_cell_angle_gamma 27.535925
_cell_volume 446.363712
_symmetry_space_group_name_H-M "P -1"
_symmetry_group_IT_number 2
_symmetry_cell_setting 'triclinic'
loop_
_space_group_symop_operation_xyz
x,y,z
-x,-y,-z
loop_
_atom_site_type_symbol
_atom_site_label
_atom_site_fract_x
_atom_site_fract_y
_atom_site_fract_z
Si Si1 0.943152 0.321458 0.929410
Si Si2 0.413818 0.866423 0.972792
Si Si3 0.067917 0.563477 0.325573
Si Si4 0.448748 0.695102 0.401871
Si Si5 0.621752 0.593694 0.299471
Si Si6 0.810547 0.068282 0.573107
O O1 0.957217 0.320821 0.784953
O O2 0.933388 0.070018 0.788692
O O3 0.086402 0.262579 0.135229
O O4 0.752540 0.722122 0.990679
O O5 0.523356 0.604673 0.812161
O O6 0.342193 0.735332 0.868434
O O7 0.542170 0.778359 0.179770
O O8 0.210669 0.520946 0.526680
O O9 0.907249 0.832789 0.408896
O O10 0.472880 0.815350 0.378188
O O11 0.626250 0.460955 0.551224
O O12 0.268426 0.993243 0.456365
#
# Coordination Sequence:
#
# PCOD9054612 Si02
#       6
#     2   2   2   2   2   2
#     4  11  22  33  62  88 113 148 190 239 279 335
#     4   9  19  37  61  87 108 153 197 224 282 339
#     4  11  22  36  58  89 115 147 190 240 283 325
#     4   9  19  38  58  86 112 156 180 237 287 328
#     4   9  19  39  61  83 114 148 195 235 272 339
#     4  11  21  37  58  87 122 141 188 239 288 336
#
# _framework density 26.883907000000001
#
# number of rings (size 3 to 8) (size 9 to 14) (size 15 to 20)
#    1.000    1.000    3.333    0.500    4.667    1.333 
#    0.000    0.833    0.000    2.000    0.000    0.000 
#    0.000    0.000    0.000    0.000    0.000    0.000 
#
# Total GULP energy -67125.590332 kJ/mol
# GULP energy per Si atom -5593.799194 kJ/mol
# Density = 2.682272 g / cm^3
# Si number density = 26.883907 Si / 1000 Ang^3
#
#
#
# Elastic Constant Matrix: (Units=GPa)
#
#
# Indices 1 2 3 4 5 6 
#
# 1 100.5267 20.9228 54.7892 13.0667 2.5737 -43.8822
# 2 20.9228 51.9284 37.7932 10.9217 -3.7563 -26.4241
# 3 54.7892 37.7932 205.2290 -29.7013 22.6744 -29.0014
# 4 13.0667 10.9217 -29.7013 49.2999 -9.9945 -4.0585
# 5 2.5737 -3.7563 22.6744 -9.9945 40.6797 2.0096
# 6 -43.8822 -26.4241 -29.0014 -4.0585 2.0096 46.6198
#
#
#
# Elastic Compliance Matrix: (Units=1/GPa)
#
#
# Indices 1 2 3 4 5 6 
#
# 1 0.021418 0.007522 -0.005468 -0.009144 -0.000860 0.020263
# 2 0.007522 0.035266 -0.007582 -0.012021 0.003007 0.021176
# 3 -0.005468 -0.007582 0.008704 0.007454 -0.003214 -0.003242
# 4 -0.009144 -0.012021 0.007454 0.029794 0.003044 -0.008320
# 5 -0.000860 0.003007 -0.003214 0.003044 0.027554 -0.002028
# 6 0.020263 0.021176 -0.003242 -0.008320 -0.002028 0.049873
#
#
# Mechanical properties :
#
#
# Convention : Reuss Voigt Hill
#
# Bulk Modulus (GPa) = 18.40507 64.96606 41.68557
# Shear Modulus (GPa) = 24.77992 43.59847 34.18919
#
# Velocity S-wave (km/s) = 3.03931 4.03144 3.57001
# Velocity P-wave (km/s) = 4.37921 6.77406 5.70374
#
# Compressibility (1/GPa) = 0.05433284
#
# Stress axis : x y z
#
# Youngs Moduli (GPa) = 46.68942 28.35572 114.88450
#
# Poissons Ratio (x) = -0.21328 0.62817
# Poissons Ratio (y) = -0.35119 0.87104
# Poissons Ratio (z) = 0.25529 0.21499
#
# Static dielectric constant tensor:
#      x y z
#    x 2.148080 0.053250 0.048850 
#    y 0.053250 2.167190 0.039510 
#    z 0.048850 0.039510 2.105280 
# 
# From -- ./inp_files/470901.got.cif
#   From: 2010.05.17/outbox.cif.g08.bks.cpg/sg2_236_cif.got.tgz:470901.got - 2010.06.03 11:33:40.
