data_PCOD9054924
_publ_section_title
;
Structure prediction by ZEFSAII (Michael W. Deem and Ramdas Pophale) SiO2 
 PCOD9054924
Probable space group: P -1
;
_chemical_formula_sum "Si O2"
_cell_formula_units_Z 16
_cell_length_a 14.668353
_cell_length_b 12.575928
_cell_length_c 8.945115
_cell_angle_alpha 127.675809
_cell_angle_beta 47.601288
_cell_angle_gamma 151.215920
_cell_volume 585.790771
_symmetry_space_group_name_H-M "P -1"
_symmetry_group_IT_number 2
_symmetry_cell_setting 'triclinic'
loop_
_space_group_symop_operation_xyz
x,y,z
-x,-y,-z
loop_
_atom_site_type_symbol
_atom_site_label
_atom_site_fract_x
_atom_site_fract_y
_atom_site_fract_z
Si Si1 0.568197 0.308394 0.910145
Si Si2 0.896166 0.758042 0.036417
Si Si3 0.723006 0.187320 0.112041
Si Si4 0.266159 0.285317 0.518093
Si Si5 0.378601 0.067634 0.455822
Si Si6 0.073506 0.840867 0.340950
Si Si7 0.207298 0.690748 0.525303
Si Si8 0.692458 0.796917 0.107524
O O1 0.746453 0.503305 0.991909
O O2 0.676520 0.345463 0.673619
O O3 0.438787 0.320302 0.997655
O O4 0.431394 0.071896 0.920651
O O5 0.864932 0.812298 0.268490
O O6 0.812322 0.768110 0.995871
O O7 0.131111 0.942291 0.905750
O O8 0.815862 0.305614 0.271391
O O9 0.568863 0.178996 0.242095
O O10 0.887789 0.261504 0.884733
O O11 0.500000 0.500000 0.500000
O O12 0.154634 0.298648 0.546575
O O13 0.215117 0.091631 0.350062
O O14 0.172107 0.896719 0.440967
O O15 0.342083 0.922067 0.495765
O O16 0.405275 0.229178 0.655162
O O17 0.000000 0.500000 0.500000
#
# Coordination Sequence:
#
# PCOD9054924 Si02
#       8
#     2   2   2   2   2   2   2   2
#     4  11  21  39  65  98 131 173 223 274 338 398
#     4  11  24  39  69  98 134 178 228 280 338 400
#     4  11  22  43  73  95 140 184 222 278 343 410
#     4  11  25  47  68  96 136 187 230 279 335 408
#     4  11  21  45  66 101 138 179 220 281 344 401
#     4  11  25  45  70  97 139 181 227 281 339 402
#     4  11  23  40  68  98 132 176 221 277 337 404
#     4  11  21  41  64 101 140 169 224 286 339 399
#
# _framework density 27.313507000000001
#
# number of rings (size 3 to 8) (size 9 to 14) (size 15 to 20)
#    0.000    1.000    3.750    3.750    1.750    1.000 
#    6.750    0.625    0.000    0.000    0.000    0.000 
#    0.000    0.000    0.000    0.000    0.000    0.000 
#
# Total GULP energy -89541.593997 kJ/mol
# GULP energy per Si atom -5596.349625 kJ/mol
# Density = 2.725134 g / cm^3
# Si number density = 27.313507 Si / 1000 Ang^3
#
#
#
# Elastic Constant Matrix: (Units=GPa)
#
#
# Indices 1 2 3 4 5 6 
#
# 1 103.6203 22.7213 6.8697 -13.2446 3.4276 31.2765
# 2 22.7213 111.4483 12.1785 9.3684 2.7636 29.2234
# 3 6.8697 12.1785 130.9511 -1.1303 -6.8757 5.9670
# 4 -13.2446 9.3684 -1.1303 34.6869 9.5992 2.5953
# 5 3.4276 2.7636 -6.8757 9.5992 38.4708 1.1329
# 6 31.2765 29.2234 5.9670 2.5953 1.1329 43.2122
#
#
#
# Elastic Compliance Matrix: (Units=1/GPa)
#
#
# Indices 1 2 3 4 5 6 
#
# 1 0.013746 -0.000725 -0.000289 0.006901 -0.002659 -0.009764
# 2 -0.000725 0.011217 -0.000718 -0.002832 0.000037 -0.006793
# 3 -0.000289 -0.000718 0.007816 -0.000045 0.001498 -0.000421
# 4 0.006901 -0.002832 -0.000045 0.035097 -0.009031 -0.004945
# 5 -0.002659 0.000037 0.001498 -0.009031 0.028705 0.001482
# 6 -0.009764 -0.006793 -0.000421 -0.004945 0.001482 0.035119
#
#
# Mechanical properties :
#
#
# Convention : Reuss Voigt Hill
#
# Bulk Modulus (GPa) = 34.11167 47.72873 40.92020
# Shear Modulus (GPa) = 34.49799 43.55732 39.02766
#
# Velocity S-wave (km/s) = 3.55778 3.99772 3.78415
# Velocity P-wave (km/s) = 5.42154 6.23068 5.84014
#
# Compressibility (1/GPa) = 0.02931548
#
# Stress axis : x y z
#
# Youngs Moduli (GPa) = 72.74927 89.14708 127.94555
#
# Poissons Ratio (x) = 0.06462 0.03695
# Poissons Ratio (y) = 0.05273 0.09189
# Poissons Ratio (z) = 0.02101 0.06402
#
# Static dielectric constant tensor:
#      x y z
#    x 2.186960 -0.031280 -0.063140 
#    y -0.031280 2.193170 0.002150 
#    z -0.063140 0.002150 2.117510 
# 
# From -- ./inp_files/315817.got.cif
#   From: 2010.05.17/outbox.cif.g08.bks.cpg/sg2_158_cif.got.tgz:315817.got - 2010.06.03 11:33:40.
