data_PCOD9054666
_publ_section_title
;
Structure prediction by ZEFSAII (Michael W. Deem and Ramdas Pophale) SiO2 
 PCOD9054666
Probable space group: P -1
;
_chemical_formula_sum "Si O2"
_cell_formula_units_Z 16
_cell_length_a 26.917713
_cell_length_b 17.060398
_cell_length_c 15.327449
_cell_angle_alpha 150.084985
_cell_angle_beta 20.555815
_cell_angle_gamma 163.200327
_cell_volume 683.248401
_symmetry_space_group_name_H-M "P -1"
_symmetry_group_IT_number 2
_symmetry_cell_setting 'triclinic'
loop_
_space_group_symop_operation_xyz
x,y,z
-x,-y,-z
loop_
_atom_site_type_symbol
_atom_site_label
_atom_site_fract_x
_atom_site_fract_y
_atom_site_fract_z
Si Si1 0.414696 0.448987 0.990533
Si Si2 0.553052 0.882195 0.409404
Si Si3 0.632417 0.489373 0.332581
Si Si4 0.084596 0.652901 0.888145
Si Si5 0.867576 0.995192 0.506322
Si Si6 0.866313 0.044271 0.752409
Si Si7 0.483901 0.072833 0.289931
Si Si8 0.607249 0.240716 0.998971
O O1 0.500000 0.500000 0.000000
O O2 0.455683 0.314109 0.753708
O O3 0.576505 0.733096 0.952510
O O4 0.125513 0.238010 0.262613
O O5 0.289634 0.711171 0.638403
O O6 0.592580 0.986901 0.541618
O O7 0.771384 0.129865 0.219823
O O8 0.500000 0.500000 0.500000
O O9 0.793817 0.741774 0.379369
O O10 0.458919 0.211356 0.407951
O O11 0.771901 0.504676 0.046678
O O12 0.795316 0.337783 0.034515
O O13 0.057125 0.750548 0.107977
O O14 0.905754 0.103206 0.642557
O O15 0.636218 0.877395 0.734506
O O16 0.000000 0.000000 0.500000
O O17 0.329937 0.789344 0.222940
O O18 0.500000 0.000000 0.000000
#
# Coordination Sequence:
#
# PCOD9054666 Si02
#       8
#     2   2   2   2   2   2   2   2
#     4  12  23  36  58  89 129 164 201 241 293 367
#     4  11  23  38  54  87 130 161 200 236 295 371
#     4   9  19  39  63  88 112 150 206 261 308 350
#     4  11  24  36  56  87 128 166 193 244 291 366
#     4  11  22  38  66  89 122 165 198 252 311 358
#     4  12  22  37  59  92 130 166 205 238 297 374
#     4  11  21  37  64  85 115 162 200 246 308 357
#     4   9  21  40  67  91 112 156 215 261 310 358
#
# _framework density 23.417545
#
# number of rings (size 3 to 8) (size 9 to 14) (size 15 to 20)
#    0.000    1.250    2.500    4.125    1.750    0.000 
#    0.000    0.000    0.000   60.000    0.000    0.000 
#    0.000    0.000    0.000    0.000    0.000    0.000 
#
# Total GULP energy -89349.970875 kJ/mol
# GULP energy per Si atom -5584.373180 kJ/mol
# Density = 2.336425 g / cm^3
# Si number density = 23.417545 Si / 1000 Ang^3
#
#
#
# Elastic Constant Matrix: (Units=GPa)
#
#
# Indices 1 2 3 4 5 6 
#
# 1 94.4468 14.3166 39.1120 20.5347 8.0048 13.1738
# 2 14.3166 79.6998 41.3537 29.6772 24.6817 2.7688
# 3 39.1120 41.3537 81.0733 13.2873 13.0418 4.3604
# 4 20.5347 29.6772 13.2873 38.7852 12.0912 10.5721
# 5 8.0048 24.6817 13.0418 12.0912 40.1307 11.9650
# 6 13.1738 2.7688 4.3604 10.5721 11.9650 29.4933
#
#
#
# Elastic Compliance Matrix: (Units=1/GPa)
#
#
# Indices 1 2 3 4 5 6 
#
# 1 0.015563 0.004604 -0.008392 -0.008041 0.000212 -0.003347
# 2 0.004604 0.028101 -0.012169 -0.018557 -0.011120 0.008268
# 3 -0.008392 -0.012169 0.021500 0.006461 0.000460 -0.000790
# 4 -0.008041 -0.018557 0.006461 0.045038 0.000974 -0.012160
# 5 0.000212 -0.011120 0.000460 0.000974 0.035395 -0.013827
# 6 -0.003347 0.008268 -0.000790 -0.012160 -0.013827 0.044710
#
#
# Mechanical properties :
#
#
# Convention : Reuss Voigt Hill
#
# Bulk Modulus (GPa) = 30.07686 49.42048 39.74867
# Shear Modulus (GPa) = 21.43125 32.37769 26.90447
#
# Velocity S-wave (km/s) = 3.02847 3.72240 3.39322
# Velocity P-wave (km/s) = 5.01004 6.29483 5.68882
#
# Compressibility (1/GPa) = 0.03324815
#
# Stress axis : x y z
#
# Youngs Moduli (GPa) = 64.25642 35.58614 46.51175
#
# Poissons Ratio (x) = -0.16383 0.39035
# Poissons Ratio (y) = -0.29582 0.56600
# Poissons Ratio (z) = 0.53927 0.43305
#
# Static dielectric constant tensor:
#      x y z
#    x 1.903500 0.034420 0.005050 
#    y 0.034420 2.021080 -0.024580 
#    z 0.005050 -0.024580 1.952920 
# 
# From -- ./inp_files/437299.got.cif
#   From: 2010.05.17/outbox.cif.g08.bks.cpg/sg2_219_cif.got.tgz:437299.got - 2010.06.03 11:33:40.
