data_PCOD9054321
_publ_section_title
;
Structure prediction by ZEFSAII (Michael W. Deem and Ramdas Pophale) SiO2 
 PCOD9054321
Probable space group: P -1
;
_chemical_formula_sum "Si O2"
_cell_formula_units_Z 16
_cell_length_a 9.573815
_cell_length_b 8.037738
_cell_length_c 11.655992
_cell_angle_alpha 80.881006
_cell_angle_beta 62.690526
_cell_angle_gamma 114.861683
_cell_volume 650.821316
_symmetry_space_group_name_H-M "P -1"
_symmetry_group_IT_number 2
_symmetry_cell_setting 'triclinic'
loop_
_space_group_symop_operation_xyz
x,y,z
-x,-y,-z
loop_
_atom_site_type_symbol
_atom_site_label
_atom_site_fract_x
_atom_site_fract_y
_atom_site_fract_z
Si Si1 0.588974 0.633158 0.837797
Si Si2 0.212525 0.700336 0.395060
Si Si3 0.255943 0.563083 0.815650
Si Si4 0.141801 0.081579 0.720440
Si Si5 0.219916 0.927382 0.165521
Si Si6 0.458123 0.781629 0.496117
Si Si7 0.842669 0.152710 0.057117
Si Si8 0.012265 0.175281 0.400377
O O1 0.423555 0.567220 0.816928
O O2 0.764960 0.640946 0.709208
O O3 0.675286 0.860790 0.828934
O O4 0.500000 0.500000 0.000000
O O5 0.254953 0.781864 0.241475
O O6 0.379276 0.720094 0.403106
O O7 0.000000 0.500000 0.500000
O O8 0.161837 0.830108 0.479250
O O9 0.305500 0.613913 0.658775
O O10 0.250428 0.748949 0.849421
O O11 0.056996 0.349259 0.933651
O O12 0.349343 0.210960 0.574384
O O13 0.004181 0.155562 0.742322
O O14 0.154003 0.015393 0.850851
O O15 0.035840 0.873079 0.709811
O O16 0.262715 0.936768 0.014321
O O17 0.500000 0.000000 0.500000
O O18 0.000000 0.000000 0.500000
#
# Coordination Sequence:
#
# PCOD9054321 Si02
#       8
#     2   2   2   2   2   2   2   2
#     4  11  24  41  68 102 130 173 233 275 334 403
#     4  12  25  43  66 104 137 176 221 282 341 391
#     4  11  23  42  67  97 129 176 225 277 329 402
#     4  11  22  41  71  94 123 178 230 266 329 397
#     4  11  25  44  67  95 141 180 216 279 344 397
#     4  12  22  41  70  97 126 171 231 272 322 399
#     4  11  24  43  66  92 138 178 216 271 343 405
#     4  11  20  42  71  92 132 180 221 273 331 398
#
# _framework density 24.584320999999999
#
# number of rings (size 3 to 8) (size 9 to 14) (size 15 to 20)
#    0.000    0.750    5.000    4.125    0.000    3.500 
#    4.500    1.250    0.000    0.000    0.000    0.000 
#    0.000    0.000    0.000    0.000    0.000    0.000 
#
# Total GULP energy -89483.572330 kJ/mol
# GULP energy per Si atom -5592.723271 kJ/mol
# Density = 2.452837 g / cm^3
# Si number density = 24.584321 Si / 1000 Ang^3
#
#
#
# Elastic Constant Matrix: (Units=GPa)
#
#
# Indices 1 2 3 4 5 6 
#
# 1 107.4874 -3.0295 27.2563 -0.7680 7.8016 15.9521
# 2 -3.0295 41.5768 -4.5420 2.2912 10.2862 16.1982
# 3 27.2563 -4.5420 123.1252 -6.0514 14.6266 7.7249
# 4 -0.7680 2.2912 -6.0514 33.7722 9.1953 1.0636
# 5 7.8016 10.2862 14.6266 9.1953 54.5249 12.4834
# 6 15.9521 16.1982 7.7249 1.0636 12.4834 25.1223
#
#
#
# Elastic Compliance Matrix: (Units=1/GPa)
#
#
# Indices 1 2 3 4 5 6 
#
# 1 0.011261 0.004261 -0.001777 -0.000121 0.000250 -0.009470
# 2 0.004261 0.034755 0.002098 -0.000571 -0.001964 -0.024759
# 3 -0.001777 0.002098 0.009118 0.002199 -0.002532 -0.001863
# 4 -0.000121 -0.000571 0.002199 0.031667 -0.006144 0.001481
# 5 0.000250 -0.001964 -0.002532 -0.006144 0.022453 -0.009011
# 6 -0.009470 -0.024759 -0.001863 0.001481 -0.009011 0.066771
#
#
# Mechanical properties :
#
#
# Convention : Reuss Voigt Hill
#
# Bulk Modulus (GPa) = 15.55304 34.61769 25.08536
# Shear Modulus (GPa) = 26.55416 39.51752 33.03584
#
# Velocity S-wave (km/s) = 3.29009 4.01362 3.66973
# Velocity P-wave (km/s) = 4.55775 5.96579 5.30866
#
# Compressibility (1/GPa) = 0.06429613
#
# Stress axis : x y z
#
# Youngs Moduli (GPa) = 88.80550 28.77281 109.66931
#
# Poissons Ratio (x) = -0.12259 0.19490
# Poissons Ratio (y) = -0.37837 -0.23004
# Poissons Ratio (z) = 0.15782 -0.06035
#
# Static dielectric constant tensor:
#      x y z
#    x 1.950780 0.052220 0.021180 
#    y 0.052220 2.078300 0.067570 
#    z 0.021180 0.067570 1.989260 
# 
# From -- ./inp_files/381664.got.cif
#   From: 2010.05.17/outbox.cif.g08.bks.cpg/sg2_191_cif.got.tgz:381664.got - 2010.06.03 11:33:40.
