data_PCOD9054659
_publ_section_title
;
Structure prediction by ZEFSAII (Michael W. Deem and Ramdas Pophale) SiO2 
 PCOD9054659
Probable space group: P -1
;
_chemical_formula_sum "Si O2"
_cell_formula_units_Z 16
_cell_length_a 10.164916
_cell_length_b 9.111762
_cell_length_c 15.950925
_cell_angle_alpha 36.863477
_cell_angle_beta 112.111452
_cell_angle_gamma 106.301525
_cell_volume 820.554604
_symmetry_space_group_name_H-M "P -1"
_symmetry_group_IT_number 2
_symmetry_cell_setting 'triclinic'
loop_
_space_group_symop_operation_xyz
x,y,z
-x,-y,-z
loop_
_atom_site_type_symbol
_atom_site_label
_atom_site_fract_x
_atom_site_fract_y
_atom_site_fract_z
Si Si1 0.647827 0.755040 0.793609
Si Si2 0.701311 0.506728 0.441813
Si Si3 0.415818 0.407734 0.334700
Si Si4 0.345629 0.980563 0.089051
Si Si5 0.147112 0.936902 0.222728
Si Si6 0.183202 0.094832 0.833581
Si Si7 0.359614 0.768640 0.904362
Si Si8 0.388546 0.105035 0.619874
O O1 0.612253 0.681089 0.724620
O O2 0.805145 0.848569 0.801641
O O3 0.541092 0.976855 0.694919
O O4 0.624759 0.521005 0.953481
O O5 0.582030 0.390451 0.408096
O O6 0.796194 0.313133 0.605096
O O7 0.792647 0.677807 0.326340
O O8 0.617385 0.679999 0.410437
O O9 0.374453 0.694604 0.203780
O O10 0.338820 0.236275 0.462435
O O11 0.234062 0.982147 0.137714
O O12 0.492418 0.106755 0.090949
O O13 0.277842 0.112687 0.931324
O O14 0.980278 0.931200 0.171585
O O15 0.245231 0.861815 0.902920
O O16 0.313632 0.883767 0.750874
#
# Coordination Sequence:
#
# PCOD9054659 Si02
#       8
#     2   2   2   2   2   2   2   2
#     4  12  24  37  61  94 128 159 200 251 309 365
#     4  11  21  41  66  88 122 158 208 256 298 354
#     4  12  20  38  66  94 119 155 209 258 300 345
#     4  12  21  43  67  90 118 159 213 258 293 350
#     4  12  25  41  62  90 129 164 200 241 315 370
#     4  11  24  40  64  92 121 163 204 252 299 363
#     4  11  22  40  64  92 124 156 206 254 306 347
#     4  11  21  37  63  94 120 154 203 262 301 345
#
# _framework density 19.499006999999999
#
# number of rings (size 3 to 8) (size 9 to 14) (size 15 to 20)
#    0.000    0.500    7.500    3.000    0.000    0.500 
#    0.000    0.000    0.000    3.000    0.000    0.000 
#    0.000    0.000    0.000    0.000    0.000    0.000 
#
# Total GULP energy -89352.638861 kJ/mol
# GULP energy per Si atom -5584.539929 kJ/mol
# Density = 1.945463 g / cm^3
# Si number density = 19.499007 Si / 1000 Ang^3
#
#
#
# Elastic Constant Matrix: (Units=GPa)
#
#
# Indices 1 2 3 4 5 6 
#
# 1 80.0639 20.3735 16.3471 -8.8017 2.8196 -2.8146
# 2 20.3735 53.8448 18.1814 -3.7539 0.7856 1.3889
# 3 16.3471 18.1814 117.7064 -14.6782 -12.2783 1.8987
# 4 -8.8017 -3.7539 -14.6782 26.5992 -1.7955 -7.4256
# 5 2.8196 0.7856 -12.2783 -1.7955 21.9808 5.9251
# 6 -2.8146 1.3889 1.8987 -7.4256 5.9251 8.9858
#
#
#
# Elastic Compliance Matrix: (Units=1/GPa)
#
#
# Indices 1 2 3 4 5 6 
#
# 1 0.015830 -0.005324 -0.001323 0.008068 -0.006508 0.017020
# 2 -0.005324 0.021537 -0.002749 -0.001883 -0.000202 -0.005838
# 3 -0.001323 -0.002749 0.010495 0.004532 0.007402 -0.003343
# 4 0.008068 -0.001883 0.004532 0.057212 -0.008523 0.054758
# 5 -0.006508 -0.000202 0.007402 -0.008523 0.064014 -0.052824
# 6 0.017020 -0.005838 -0.003343 0.054758 -0.052824 0.198308
#
#
# Mechanical properties :
#
#
# Convention : Reuss Voigt Hill
#
# Bulk Modulus (GPa) = 34.40113 40.15768 37.27940
# Shear Modulus (GPa) = 12.63013 24.62736 18.62875
#
# Velocity S-wave (km/s) = 2.54782 3.55773 3.09426
# Velocity P-wave (km/s) = 5.13186 6.12504 5.65031
#
# Compressibility (1/GPa) = 0.02906882
#
# Stress axis : x y z
#
# Youngs Moduli (GPa) = 63.17299 46.43174 95.28054
#
# Poissons Ratio (x) = 0.24721 0.12608
# Poissons Ratio (y) = 0.33635 0.26192
# Poissons Ratio (z) = 0.08360 0.12764
#
# Static dielectric constant tensor:
#      x y z
#    x 1.676550 -0.020620 -0.021140 
#    y -0.020620 1.672840 -0.005220 
#    z -0.021140 -0.005220 1.721290 
# 
# From -- ./inp_files/207024.got.cif
#   From: 2010.05.17/outbox.cif.g08.bks.cpg/sg2_104_cif.got.tgz:207024.got - 2010.06.03 11:33:40.
