data_PCOD9054422
_publ_section_title
;
Structure prediction by ZEFSAII (Michael W. Deem and Ramdas Pophale) SiO2 
 PCOD9054422
Probable space group: P -1
;
_chemical_formula_sum "Si O2"
_cell_formula_units_Z 16
_cell_length_a 9.215650
_cell_length_b 17.898994
_cell_length_c 15.106871
_cell_angle_alpha 30.889391
_cell_angle_beta 142.049924
_cell_angle_gamma 143.903873
_cell_volume 715.436086
_symmetry_space_group_name_H-M "P -1"
_symmetry_group_IT_number 2
_symmetry_cell_setting 'triclinic'
loop_
_space_group_symop_operation_xyz
x,y,z
-x,-y,-z
loop_
_atom_site_type_symbol
_atom_site_label
_atom_site_fract_x
_atom_site_fract_y
_atom_site_fract_z
Si Si1 0.358596 0.804844 0.309459
Si Si2 0.770984 0.602269 0.199619
Si Si3 0.814052 0.304705 0.297723
Si Si4 0.710103 0.358329 0.007874
Si Si5 0.862935 0.667615 0.980939
Si Si6 0.431178 0.850993 0.023085
Si Si7 0.621455 0.672971 0.429429
Si Si8 0.451681 0.745802 0.601314
O O1 0.460886 0.692044 0.417080
O O2 0.483977 0.844978 0.426925
O O3 0.046420 0.720825 0.249300
O O4 0.446353 0.967302 0.131513
O O5 0.761877 0.427578 0.357077
O O6 0.520348 0.583846 0.152812
O O7 0.741059 0.657690 0.029238
O O8 0.692344 0.256583 0.191362
O O9 0.654951 0.213471 0.400430
O O10 0.089449 0.296333 0.437097
O O11 0.855491 0.491729 0.138087
O O12 0.651577 0.255401 0.996698
O O13 0.000000 0.500000 0.000000
O O14 0.701459 0.715693 0.782047
O O15 0.156333 0.796170 0.995832
O O16 0.611902 0.797803 0.224841
O O17 0.500000 0.500000 0.500000
#
# Coordination Sequence:
#
# PCOD9054422 Si02
#       8
#     2   2   2   2   2   2   2   2
#     4  12  29  46  67 105 145 191 226 284 360 419
#     4  11  22  43  72  98 140 184 231 285 344 416
#     4  11  22  42  69 107 131 176 239 299 335 400
#     4  12  23  43  74 104 133 179 236 293 346 405
#     4  11  20  44  73 100 139 182 230 290 350 400
#     4  12  27  46  69 103 148 182 231 289 357 414
#     4  12  24  44  73 102 137 181 238 291 339 417
#     4  11  23  43  71 104 140 182 238 288 346 415
#
# _framework density 22.363983000000001
#
# number of rings (size 3 to 8) (size 9 to 14) (size 15 to 20)
#    0.000    0.500    6.250    2.250    7.000    1.000 
#    0.000    0.625    0.000    0.000    0.000    0.000 
#    0.000    0.000    0.000    0.000    0.000    0.000 
#
# Total GULP energy -89512.916886 kJ/mol
# GULP energy per Si atom -5594.557305 kJ/mol
# Density = 2.231308 g / cm^3
# Si number density = 22.363983 Si / 1000 Ang^3
#
#
#
# Elastic Constant Matrix: (Units=GPa)
#
#
# Indices 1 2 3 4 5 6 
#
# 1 129.8452 30.9442 34.3027 6.9085 5.5019 -3.9946
# 2 30.9442 47.0135 30.2554 18.3249 6.4967 -5.4981
# 3 34.3027 30.2554 124.2470 25.1388 -15.2050 6.1119
# 4 6.9085 18.3249 25.1388 28.8643 4.2141 -1.8879
# 5 5.5019 6.4967 -15.2050 4.2141 35.3362 14.0580
# 6 -3.9946 -5.4981 6.1119 -1.8879 14.0580 35.7481
#
#
#
# Elastic Compliance Matrix: (Units=1/GPa)
#
#
# Indices 1 2 3 4 5 6 
#
# 1 0.009700 -0.005704 -0.002555 0.004067 -0.002831 0.001972
# 2 -0.005704 0.037494 -0.006406 -0.014632 -0.010890 0.009734
# 3 -0.002555 -0.006406 0.014417 -0.010338 0.012703 -0.009277
# 4 0.004067 -0.014632 -0.010338 0.054182 -0.011831 0.007486
# 5 -0.002831 -0.010890 0.012703 -0.011831 0.046854 -0.023213
# 6 0.001972 0.009734 -0.009277 0.007486 -0.023213 0.040801
#
#
# Mechanical properties :
#
#
# Convention : Reuss Voigt Hill
#
# Bulk Modulus (GPa) = 30.97912 54.67892 42.82902
# Shear Modulus (GPa) = 20.53060 33.69660 27.11360
#
# Velocity S-wave (km/s) = 3.03317 3.88588 3.48570
# Velocity P-wave (km/s) = 5.11362 6.68102 5.94917
#
# Compressibility (1/GPa) = 0.03227981
#
# Stress axis : x y z
#
# Youngs Moduli (GPa) = 103.09238 26.67101 69.36403
#
# Poissons Ratio (x) = 0.15212 0.17726
# Poissons Ratio (y) = 0.58799 0.44437
# Poissons Ratio (z) = 0.26345 0.17086
#
# Static dielectric constant tensor:
#      x y z
#    x 1.872940 -0.019540 -0.033550 
#    y -0.019540 1.816560 0.001260 
#    z -0.033550 0.001260 1.844070 
# 
# From -- ./inp_files/262781.got.cif
#   From: 2010.05.17/outbox.cif.g08.bks.cpg/sg2_132_cif.got.tgz:262781.got - 2010.06.03 11:33:40.
