data_PCOD9054379
_publ_section_title
;
Structure prediction by ZEFSAII (Michael W. Deem and Ramdas Pophale) SiO2 
 PCOD9054379
Probable space group: P -1
;
_chemical_formula_sum "Si O2"
_cell_formula_units_Z 16
_cell_length_a 9.493911
_cell_length_b 19.580737
_cell_length_c 13.262349
_cell_angle_alpha 28.526674
_cell_angle_beta 46.720140
_cell_angle_gamma 58.898617
_cell_volume 830.677224
_symmetry_space_group_name_H-M "P -1"
_symmetry_group_IT_number 2
_symmetry_cell_setting 'triclinic'
loop_
_space_group_symop_operation_xyz
x,y,z
-x,-y,-z
loop_
_atom_site_type_symbol
_atom_site_label
_atom_site_fract_x
_atom_site_fract_y
_atom_site_fract_z
Si Si1 0.887669 0.840856 0.513023
Si Si2 0.486816 0.871594 0.412038
Si Si3 0.452617 0.659247 0.294447
Si Si4 0.691328 0.629275 0.721463
Si Si5 0.048409 0.611739 0.423667
Si Si6 0.226315 0.076987 0.322190
Si Si7 0.146419 0.945094 0.925142
Si Si8 0.649315 0.158944 0.703367
O O1 0.793347 0.689266 0.698723
O O2 0.789960 0.852529 0.652779
O O3 0.124357 0.857122 0.382847
O O4 0.841199 0.965228 0.300456
O O5 0.599910 0.757952 0.551948
O O6 0.404437 0.807928 0.427572
O O7 0.317490 0.932754 0.470907
O O8 0.659201 0.023875 0.139099
O O9 0.500000 0.500000 0.500000
O O10 0.257247 0.620613 0.367426
O O11 0.390925 0.728295 0.339215
O O12 0.637603 0.789586 0.987178
O O13 0.860991 0.588196 0.622631
O O14 0.500000 0.500000 0.000000
O O15 0.000000 0.500000 0.500000
O O16 0.071362 0.775506 0.157759
O O17 0.000000 0.000000 0.500000
O O18 0.000000 0.000000 0.000000
O O19 0.500000 0.000000 0.000000
#
# Coordination Sequence:
#
# PCOD9054379 Si02
#       8
#     2   2   2   2   2   2   2   2
#     4  11  24  42  73  96 139 178 221 286 341 403
#     4  11  23  40  74  97 130 178 231 278 335 407
#     4  12  28  46  70 104 142 184 234 284 345 410
#     4  11  27  45  66 100 136 182 228 275 350 412
#     4  12  26  44  67 100 139 176 227 289 337 407
#     4  12  25  45  67 109 139 175 234 291 340 408
#     4  11  20  43  72 100 126 174 237 275 333 413
#     4  12  21  43  73  99 131 182 231 279 339 416
#
# _framework density 19.261391
#
# number of rings (size 3 to 8) (size 9 to 14) (size 15 to 20)
#    0.000    0.500    7.500    0.750    3.500    5.000 
#    0.000    1.250    0.000    0.000    0.000    0.000 
#    0.000    0.000    0.000    0.000    0.000    0.000 
#
# Total GULP energy -89192.561168 kJ/mol
# GULP energy per Si atom -5574.535073 kJ/mol
# Density = 1.921755 g / cm^3
# Si number density = 19.261391 Si / 1000 Ang^3
#
#
#
# Elastic Constant Matrix: (Units=GPa)
#
#
# Indices 1 2 3 4 5 6 
#
# 1 136.4998 66.1049 40.1031 5.4828 -23.4677 8.1721
# 2 66.1049 173.9844 44.8783 1.1291 -4.4564 21.9676
# 3 40.1031 44.8783 93.7453 -2.2493 -15.9967 4.2501
# 4 5.4828 1.1291 -2.2493 34.5980 0.5000 -3.2492
# 5 -23.4677 -4.4564 -15.9967 0.5000 32.9696 -1.2986
# 6 8.1721 21.9676 4.2501 -3.2492 -1.2986 45.6172
#
#
#
# Elastic Compliance Matrix: (Units=1/GPa)
#
#
# Indices 1 2 3 4 5 6 
#
# 1 0.010677 -0.003382 -0.001926 -0.001802 0.006233 -0.000056
# 2 -0.003382 0.008065 -0.002750 -0.000158 -0.002771 -0.003112
# 3 -0.001926 -0.002750 0.013643 0.001270 0.004882 0.000628
# 4 -0.001802 -0.000158 0.001270 0.029513 -0.001043 0.002353
# 5 0.006233 -0.002771 0.004882 -0.001043 0.036807 0.000736
# 6 -0.000056 -0.003112 0.000628 0.002353 0.000736 0.023560
#
#
# Mechanical properties :
#
#
# Convention : Reuss Voigt Hill
#
# Bulk Modulus (GPa) = 61.46231 78.48913 69.97572
# Shear Modulus (GPa) = 34.77017 39.51317 37.14167
#
# Velocity S-wave (km/s) = 4.25334 4.53417 4.39600
# Velocity P-wave (km/s) = 7.49000 8.26133 7.88510
#
# Compressibility (1/GPa) = 0.01627013
#
# Stress axis : x y z
#
# Youngs Moduli (GPa) = 93.66108 123.99730 73.30025
#
# Poissons Ratio (x) = 0.41930 0.14115
# Poissons Ratio (y) = 0.31672 0.20156
# Poissons Ratio (z) = 0.18035 0.34097
#
# Static dielectric constant tensor:
#      x y z
#    x 1.659550 -0.029240 -0.019520 
#    y -0.029240 1.683550 -0.011700 
#    z -0.019520 -0.011700 1.724530 
# 
# From -- ./inp_files/187617.got.cif
#   From: 2010.05.17/outbox.cif.g08.bks.cpg/sg2_94_cif.got.tgz:187617.got - 2010.06.03 11:33:40.
