data_PCOD9054408
_publ_section_title
;
Structure prediction by ZEFSAII (Michael W. Deem and Ramdas Pophale) SiO2 
 PCOD9054408
Probable space group: P -1
;
_chemical_formula_sum "Si O2"
_cell_formula_units_Z 14
_cell_length_a 13.766372
_cell_length_b 6.731552
_cell_length_c 9.264397
_cell_angle_alpha 115.381683
_cell_angle_beta 78.302392
_cell_angle_gamma 56.862285
_cell_volume 530.141148
_symmetry_space_group_name_H-M "P -1"
_symmetry_group_IT_number 2
_symmetry_cell_setting 'triclinic'
loop_
_space_group_symop_operation_xyz
x,y,z
-x,-y,-z
loop_
_atom_site_type_symbol
_atom_site_label
_atom_site_fract_x
_atom_site_fract_y
_atom_site_fract_z
Si Si1 0.614984 0.086600 0.428765
Si Si2 0.805286 0.954432 0.888530
Si Si3 0.369784 0.684639 0.204886
Si Si4 0.080542 0.419201 0.797471
Si Si5 0.929061 0.063077 0.349495
Si Si6 0.210066 0.514607 0.209512
Si Si7 0.313880 0.603352 0.689729
O O1 0.603169 0.225659 0.630267
O O2 0.457295 0.240207 0.498374
O O3 0.647283 0.223258 0.343269
O O4 0.879269 0.313795 0.562125
O O5 0.756864 0.791883 0.913581
O O6 0.969221 0.707031 0.812505
O O7 0.765390 0.013810 0.751861
O O8 0.720763 0.277525 0.099438
O O9 0.339499 0.475217 0.174456
O O10 0.500000 0.500000 0.000000
O O11 0.107366 0.127441 0.642893
O O12 0.235521 0.281401 0.727567
O O13 0.000000 0.500000 0.000000
O O14 0.099206 0.777503 0.202945
O O15 0.829438 0.244343 0.298329
#
# Coordination Sequence:
#
# PCOD9054408 Si02
#       7
#     2   2   2   2   2   2   2
#     4  10  20  36  65  91 132 174 213 265 327 389
#     4  11  23  38  73  97 124 175 227 261 326 391
#     4  12  24  43  63 100 140 170 212 274 331 392
#     4  10  17  35  64  96 119 167 227 257 312 390
#     4   9  18  38  67  93 131 169 220 266 325 386
#     4  10  22  41  64 101 132 171 215 275 323 389
#     4  10  18  38  68  95 122 186 213 256 341 386
#
# _framework density 26.408062000000001
#
# number of rings (size 3 to 8) (size 9 to 14) (size 15 to 20)
#    0.000    1.714    7.143    0.000    0.000    1.143 
#    0.000    0.714    3.143    1.714    0.000    0.000 
#    0.000    0.000    0.000    0.000    0.000    0.000 
#
# Total GULP energy -78312.980055 kJ/mol
# GULP energy per Si atom -5593.784290 kJ/mol
# Density = 2.634796 g / cm^3
# Si number density = 26.408062 Si / 1000 Ang^3
#
#
#
# Elastic Constant Matrix: (Units=GPa)
#
#
# Indices 1 2 3 4 5 6 
#
# 1 102.4484 6.8789 31.9018 7.9434 -5.4069 -15.0208
# 2 6.8789 97.4784 6.9482 -3.0265 6.5378 -9.9484
# 3 31.9018 6.9482 112.3918 -13.0013 0.9841 -4.9511
# 4 7.9434 -3.0265 -13.0013 42.6277 -6.3514 4.3374
# 5 -5.4069 6.5378 0.9841 -6.3514 33.1921 1.5472
# 6 -15.0208 -9.9484 -4.9511 4.3374 1.5472 40.9556
#
#
#
# Elastic Compliance Matrix: (Units=1/GPa)
#
#
# Indices 1 2 3 4 5 6 
#
# 1 0.011851 -0.000350 -0.003582 -0.003566 0.001229 0.004160
# 2 -0.000350 0.010723 -0.000421 0.000108 -0.002252 0.002499
# 3 -0.003582 -0.000421 0.010361 0.003849 -0.000045 -0.000570
# 4 -0.003566 0.000108 0.003849 0.026361 0.004504 -0.003778
# 5 0.001229 -0.002252 -0.000045 0.004504 0.031718 -0.001777
# 6 0.004160 0.002499 -0.000570 -0.003778 -0.001777 0.026948
#
#
# Mechanical properties :
#
#
# Convention : Reuss Voigt Hill
#
# Bulk Modulus (GPa) = 41.27387 44.86405 43.06896
# Shear Modulus (GPa) = 37.10753 41.12772 39.11762
#
# Velocity S-wave (km/s) = 3.75261 3.95066 3.85291
# Velocity P-wave (km/s) = 5.86850 6.15109 6.01146
#
# Compressibility (1/GPa) = 0.02422841
#
# Stress axis : x y z
#
# Youngs Moduli (GPa) = 84.37916 93.25874 96.51707
#
# Poissons Ratio (x) = 0.03260 0.34576
# Poissons Ratio (y) = 0.02950 0.04067
# Poissons Ratio (z) = 0.30227 0.03929
#
# Static dielectric constant tensor:
#      x y z
#    x 2.171210 0.011350 -0.062530 
#    y 0.011350 2.118220 0.046450 
#    z -0.062530 0.046450 2.019070 
# 
# From -- ./inp_files/445030.got.cif
#   From: 2010.05.17/outbox.cif.g08.bks.cpg/sg2_223_cif.got.tgz:445030.got - 2010.06.03 11:33:40.
