data_PCOD9054617
_publ_section_title
;
Structure prediction by ZEFSAII (Michael W. Deem and Ramdas Pophale) SiO2 
 PCOD9054617
Probable space group: P -1
;
_chemical_formula_sum "Si O2"
_cell_formula_units_Z 16
_cell_length_a 19.829662
_cell_length_b 10.640976
_cell_length_c 16.526067
_cell_angle_alpha 35.345338
_cell_angle_beta 20.911112
_cell_angle_gamma 38.383898
_cell_volume 715.949668
_symmetry_space_group_name_H-M "P -1"
_symmetry_group_IT_number 2
_symmetry_cell_setting 'triclinic'
loop_
_space_group_symop_operation_xyz
x,y,z
-x,-y,-z
loop_
_atom_site_type_symbol
_atom_site_label
_atom_site_fract_x
_atom_site_fract_y
_atom_site_fract_z
Si Si1 0.556679 0.462928 0.606931
Si Si2 0.478546 0.025290 0.608051
Si Si3 0.961179 0.238753 0.514146
Si Si4 0.097144 0.989231 0.809701
Si Si5 0.126960 0.845643 0.171035
Si Si6 0.692492 0.104240 0.753155
Si Si7 0.062535 0.708425 0.777478
Si Si8 0.890667 0.511009 0.924554
O O1 0.586685 0.717476 0.437220
O O2 0.624994 0.355492 0.671629
O O3 0.708403 0.317121 0.457505
O O4 0.337506 0.437024 0.850458
O O5 0.684314 0.980757 0.440179
O O6 0.500000 0.000000 0.500000
O O7 0.335616 0.870832 0.889320
O O8 0.787432 0.132427 0.719739
O O9 0.020678 0.441352 0.287258
O O10 0.905286 0.299146 0.637813
O O11 0.146628 0.057006 0.391114
O O12 0.999359 0.156945 0.766486
O O13 0.076620 0.733638 0.948399
O O14 0.000000 0.000000 0.000000
O O15 0.047197 0.078240 0.176165
O O16 0.500000 0.000000 0.000000
O O17 0.989533 0.670328 0.788668
O O18 0.000000 0.500000 0.000000
#
# Coordination Sequence:
#
# PCOD9054617 Si02
#       8
#     2   2   2   2   2   2   2   2
#     4  11  22  37  66  93 123 171 211 255 314 383
#     4  11  24  42  66  91 120 165 223 268 311 371
#     4  11  23  38  61  93 132 170 205 252 322 385
#     4  11  24  43  68  87 119 171 218 266 316 366
#     4  12  24  40  63  97 129 162 210 265 317 380
#     4  11  21  37  59  91 134 174 200 246 314 396
#     4  12  21  37  61  95 132 159 201 256 321 373
#     4  11  23  40  63  97 129 170 208 257 318 392
#
# _framework density 22.347940999999999
#
# number of rings (size 3 to 8) (size 9 to 14) (size 15 to 20)
#    0.000    0.750    7.500    0.750    0.000    2.500 
#    0.000    0.625    0.000    1.500    0.000    0.000 
#    0.000    0.000    0.000    0.000    0.000    0.000 
#
# Total GULP energy -89220.536267 kJ/mol
# GULP energy per Si atom -5576.283517 kJ/mol
# Density = 2.229708 g / cm^3
# Si number density = 22.347941 Si / 1000 Ang^3
#
#
#
# Elastic Constant Matrix: (Units=GPa)
#
#
# Indices 1 2 3 4 5 6 
#
# 1 115.3098 2.5126 61.0312 3.9054 7.0572 -12.2457
# 2 2.5126 20.2283 7.6425 2.7168 -9.4055 -5.4107
# 3 61.0312 7.6425 137.7800 8.3071 -6.5922 -14.8919
# 4 3.9054 2.7168 8.3071 24.7381 -4.6689 7.3074
# 5 7.0572 -9.4055 -6.5922 -4.6689 45.9949 0.1596
# 6 -12.2457 -5.4107 -14.8919 7.3074 0.1596 32.8184
#
#
#
# Elastic Compliance Matrix: (Units=1/GPa)
#
#
# Indices 1 2 3 4 5 6 
#
# 1 0.011792 0.000032 -0.005001 -0.001418 -0.002672 0.002465
# 2 0.000032 0.058862 -0.001157 -0.007156 0.011103 0.010731
# 3 -0.005001 -0.001157 0.010156 -0.003139 0.001657 0.003243
# 4 -0.001418 -0.007156 -0.003139 0.047107 0.003134 -0.013638
# 5 -0.002672 0.011103 0.001657 0.003134 0.024975 0.000766
# 6 0.002465 0.010731 0.003243 -0.013638 0.000766 0.037664
#
#
# Mechanical properties :
#
#
# Convention : Reuss Voigt Hill
#
# Bulk Modulus (GPa) = 14.58593 46.18786 30.38690
# Shear Modulus (GPa) = 22.15711 34.18574 28.17143
#
# Velocity S-wave (km/s) = 3.15216 3.91539 3.55432
# Velocity P-wave (km/s) = 4.44849 6.41505 5.52005
#
# Compressibility (1/GPa) = 0.06855923
#
# Stress axis : x y z
#
# Youngs Moduli (GPa) = 84.80426 16.98875 98.45996
#
# Poissons Ratio (x) = -0.00054 0.49240
# Poissons Ratio (y) = -0.00272 0.11389
# Poissons Ratio (z) = 0.42411 0.01965
#
# Static dielectric constant tensor:
#      x y z
#    x 1.938140 -0.032940 0.103810 
#    y -0.032940 1.714090 -0.021960 
#    z 0.103810 -0.021960 1.936880 
# 
# From -- ./inp_files/577864.got.cif
#   From: 2010.05.17/outbox.cif.g08.bks.cpg/sg2_289_cif.got.tgz:577864.got - 2010.06.03 11:33:40.
