data_PCOD9054873
_publ_section_title
;
Structure prediction by ZEFSAII (Michael W. Deem and Ramdas Pophale) SiO2 
 PCOD9054873
Probable space group: P -1
;
_chemical_formula_sum "Si O2"
_cell_formula_units_Z 14
_cell_length_a 9.933450
_cell_length_b 19.834074
_cell_length_c 9.207606
_cell_angle_alpha 134.913299
_cell_angle_beta 140.924204
_cell_angle_gamma 37.970535
_cell_volume 682.550254
_symmetry_space_group_name_H-M "P -1"
_symmetry_group_IT_number 2
_symmetry_cell_setting 'triclinic'
loop_
_space_group_symop_operation_xyz
x,y,z
-x,-y,-z
loop_
_atom_site_type_symbol
_atom_site_label
_atom_site_fract_x
_atom_site_fract_y
_atom_site_fract_z
Si Si1 0.779416 0.274312 0.875505
Si Si2 0.784172 0.487983 0.874022
Si Si3 0.834821 0.150870 0.458891
Si Si4 0.725435 0.310498 0.368996
Si Si5 0.322039 0.912514 0.493748
Si Si6 0.210241 0.444392 0.715254
Si Si7 0.132055 0.246194 0.379921
O O1 0.876102 0.227360 0.724088
O O2 0.755761 0.171893 0.764798
O O3 0.494795 0.383103 0.798553
O O4 0.963864 0.285459 0.152482
O O5 0.766235 0.392093 0.631338
O O6 0.516526 0.605642 0.803393
O O7 0.830034 0.472782 0.061484
O O8 0.000000 0.500000 0.000000
O O9 0.693138 0.226950 0.317716
O O10 0.684737 0.110585 0.373036
O O11 0.103300 0.040370 0.476168
O O12 0.967577 0.241772 0.363898
O O13 0.601573 0.867679 0.604852
O O14 0.184464 0.344286 0.607637
O O15 0.000000 0.500000 0.500000
#
# Coordination Sequence:
#
# PCOD9054873 Si02
#       7
#     2   2   2   2   2   2   2
#     4   9  20  39  60  85 122 154 201 252 294 359
#     4  11  24  41  58  87 130 161 197 250 301 361
#     4   9  20  42  62  88 122 155 206 254 298 362
#     4  11  24  40  62  91 124 162 200 249 306 357
#     4   8  20  41  63  86 123 154 205 256 296 359
#     4  11  24  37  61  89 120 161 203 246 302 357
#     4  11  21  39  61  88 122 159 199 254 302 359
#
# _framework density 20.511310999999999
#
# number of rings (size 3 to 8) (size 9 to 14) (size 15 to 20)
#    0.857    1.143    2.857    0.000    4.000    1.714 
#    0.000    0.714    0.000    0.000    0.000    0.000 
#    0.000    0.000    0.000    0.000    0.000    0.000 
#
# Total GULP energy -78092.870088 kJ/mol
# GULP energy per Si atom -5578.062149 kJ/mol
# Density = 2.046463 g / cm^3
# Si number density = 20.511311 Si / 1000 Ang^3
#
#
#
# Elastic Constant Matrix: (Units=GPa)
#
#
# Indices 1 2 3 4 5 6 
#
# 1 60.0302 38.4791 12.6584 -6.7200 -7.4239 -14.9518
# 2 38.4791 87.4133 22.9071 -7.6300 -6.5789 -25.8476
# 3 12.6584 22.9071 77.8039 -8.3503 -12.5761 -13.9688
# 4 -6.7200 -7.6300 -8.3503 13.9820 1.1258 0.2979
# 5 -7.4239 -6.5789 -12.5761 1.1258 30.1240 -4.6981
# 6 -14.9518 -25.8476 -13.9688 0.2979 -4.6981 39.3602
#
#
#
# Elastic Compliance Matrix: (Units=1/GPa)
#
#
# Indices 1 2 3 4 5 6 
#
# 1 0.024598 -0.008760 0.000947 0.007111 0.004975 0.004467
# 2 -0.008760 0.018924 -0.001665 0.004737 0.002470 0.008768
# 3 0.000947 -0.001665 0.016343 0.008595 0.007287 0.005871
# 4 0.007111 0.004737 0.008595 0.082092 0.004680 0.008800
# 5 0.004975 0.002470 0.007287 0.004680 0.039510 0.010778
# 6 0.004467 0.008768 0.005871 0.008800 0.010778 0.036165
#
#
# Mechanical properties :
#
#
# Convention : Reuss Voigt Hill
#
# Bulk Modulus (GPa) = 24.44428 41.48184 32.96306
# Shear Modulus (GPa) = 19.98206 26.77342 23.37774
#
# Velocity S-wave (km/s) = 3.12460 3.61681 3.37968
# Velocity P-wave (km/s) = 4.99608 6.14081 5.59779
#
# Compressibility (1/GPa) = 0.04090937
#
# Stress axis : x y z
#
# Youngs Moduli (GPa) = 40.65428 52.84266 61.18658
#
# Poissons Ratio (x) = 0.46289 -0.05792
# Poissons Ratio (y) = 0.35612 0.10186
# Poissons Ratio (z) = -0.03848 0.08797
#
# Static dielectric constant tensor:
#      x y z
#    x 1.754970 0.021160 0.005020 
#    y 0.021160 1.729800 0.027360 
#    z 0.005020 0.027360 1.715070 
# 
# From -- ./inp_files/222507.got.cif
#   From: 2010.05.17/outbox.cif.g08.bks.cpg/sg2_112_cif.got.tgz:222507.got - 2010.06.03 11:33:40.
