data_PCOD9054007
_publ_section_title
;
Structure prediction by ZEFSAII (Michael W. Deem and Ramdas Pophale) SiO2 
 PCOD9054007
Probable space group: P -1
;
_chemical_formula_sum "Si O2"
_cell_formula_units_Z 14
_cell_length_a 11.993725
_cell_length_b 8.026440
_cell_length_c 8.332585
_cell_angle_alpha 56.643985
_cell_angle_beta 84.112342
_cell_angle_gamma 61.656591
_cell_volume 575.828818
_symmetry_space_group_name_H-M "P -1"
_symmetry_group_IT_number 2
_symmetry_cell_setting 'triclinic'
loop_
_space_group_symop_operation_xyz
x,y,z
-x,-y,-z
loop_
_atom_site_type_symbol
_atom_site_label
_atom_site_fract_x
_atom_site_fract_y
_atom_site_fract_z
Si Si1 0.291453 0.077151 0.385230
Si Si2 0.444065 0.345094 0.524107
Si Si3 0.978466 0.732178 0.307386
Si Si4 0.899817 0.998075 0.716238
Si Si5 0.299546 0.743256 0.095416
Si Si6 0.314085 0.096873 0.752330
Si Si7 0.138411 0.595357 0.028655
O O1 0.314613 0.092329 0.561424
O O2 0.220734 0.319797 0.171203
O O3 0.432299 0.906099 0.386002
O O4 0.194092 0.977997 0.426700
O O5 0.500000 0.500000 0.500000
O O6 0.375080 0.486661 0.298360
O O7 0.349202 0.295321 0.674607
O O8 0.830272 0.847163 0.216085
O O9 0.000000 0.500000 0.500000
O O10 0.025421 0.859246 0.356107
O O11 0.064923 0.678294 0.166332
O O12 0.797765 0.103621 0.825524
O O13 0.018853 0.732994 0.852243
O O14 0.232021 0.702879 0.970587
O O15 0.386450 0.853887 0.965376
#
# Coordination Sequence:
#
# PCOD9054007 Si02
#       7
#     2   2   2   2   2   2   2
#     4  12  26  43  66 103 142 184 218 290 348 393
#     4  12  27  50  71  94 142 185 233 286 337 404
#     4  11  20  39  70  99 133 181 224 272 345 414
#     4  11  22  43  68 105 142 175 223 284 350 400
#     4  11  22  46  74  98 132 187 233 270 342 415
#     4  12  24  44  75 102 131 185 233 275 343 410
#     4  11  21  42  70 100 142 178 218 289 344 403
#
# _framework density 24.312783
#
# number of rings (size 3 to 8) (size 9 to 14) (size 15 to 20)
#    0.000    0.571    7.143    2.571    0.000    1.714 
#    0.000    0.000    0.000    0.000    0.000    0.000 
#    0.000    0.000    0.000    0.000    0.000    0.000 
#
# Total GULP energy -78133.621651 kJ/mol
# GULP energy per Si atom -5580.972975 kJ/mol
# Density = 2.425745 g / cm^3
# Si number density = 24.312783 Si / 1000 Ang^3
#
#
#
# Elastic Constant Matrix: (Units=GPa)
#
#
# Indices 1 2 3 4 5 6 
#
# 1 124.3339 14.7844 37.0758 -16.7269 -9.9725 27.9568
# 2 14.7844 58.2130 10.6881 -28.8108 2.6631 -5.0370
# 3 37.0758 10.6881 87.5790 -32.5787 -20.9304 6.1989
# 4 -16.7269 -28.8108 -32.5787 35.3295 5.0134 4.6465
# 5 -9.9725 2.6631 -20.9304 5.0134 43.8238 -18.9637
# 6 27.9568 -5.0370 6.1989 4.6465 -18.9637 27.2216
#
#
#
# Elastic Compliance Matrix: (Units=1/GPa)
#
#
# Indices 1 2 3 4 5 6 
#
# 1 0.014198 -0.001608 -0.004384 0.005236 -0.008242 -0.020516
# 2 -0.001608 0.033726 0.009497 0.036309 -0.003201 -0.002699
# 3 -0.004384 0.009497 0.023439 0.026036 0.007326 0.001582
# 4 0.005236 0.036309 0.026036 0.089492 -0.010613 -0.027256
# 5 -0.008242 -0.003201 0.007326 -0.010613 0.041972 0.037255
# 6 -0.020516 -0.002699 0.001582 -0.027256 0.037255 0.087551
#
#
# Mechanical properties :
#
#
# Convention : Reuss Voigt Hill
#
# Bulk Modulus (GPa) = 12.75942 43.91360 28.33651
# Shear Modulus (GPa) = 16.15555 35.11350 25.63453
#
# Velocity S-wave (km/s) = 2.58056 3.80444 3.25062
# Velocity P-wave (km/s) = 3.76012 6.11551 5.07632
#
# Compressibility (1/GPa) = 0.07837345
#
# Stress axis : x y z
#
# Youngs Moduli (GPa) = 70.43395 29.65098 42.66378
#
# Poissons Ratio (x) = 0.04767 0.18705
# Poissons Ratio (y) = 0.11323 -0.40519
# Poissons Ratio (z) = 0.30880 -0.28160
#
# Static dielectric constant tensor:
#      x y z
#    x 2.082090 -0.007500 0.169480 
#    y -0.007500 1.990700 -0.142160 
#    z 0.169480 -0.142160 2.317330 
# 
# From -- ./inp_files/181311.got.cif
#   From: 2010.05.17/outbox.cif.g08.bks.cpg/sg2_91_cif.got.tgz:181311.got - 2010.06.03 11:33:40.
