data_PCOD9054921
_publ_section_title
;
Structure prediction by ZEFSAII (Michael W. Deem and Ramdas Pophale) SiO2 
 PCOD9054921
Probable space group: P -1
;
_chemical_formula_sum "Si O2"
_cell_formula_units_Z 16
_cell_length_a 11.871142
_cell_length_b 11.426475
_cell_length_c 9.696286
_cell_angle_alpha 99.162695
_cell_angle_beta 54.658964
_cell_angle_gamma 131.351891
_cell_volume 750.109359
_symmetry_space_group_name_H-M "P -1"
_symmetry_group_IT_number 2
_symmetry_cell_setting 'triclinic'
loop_
_space_group_symop_operation_xyz
x,y,z
-x,-y,-z
loop_
_atom_site_type_symbol
_atom_site_label
_atom_site_fract_x
_atom_site_fract_y
_atom_site_fract_z
Si Si1 0.074294 0.981878 0.261853
Si Si2 0.329196 0.370328 0.489404
Si Si3 0.410230 0.486218 0.915855
Si Si4 0.135735 0.482536 0.275884
Si Si5 0.204620 0.555114 0.538870
Si Si6 0.889567 0.110714 0.493483
Si Si7 0.225082 0.123867 0.904086
Si Si8 0.548043 0.894214 0.482084
O O1 0.849273 0.811104 0.356226
O O2 0.136293 0.937099 0.336797
O O3 0.045987 0.103769 0.338871
O O4 0.219869 0.062827 0.047627
O O5 0.500000 0.500000 0.500000
O O6 0.430087 0.375942 0.283271
O O7 0.229859 0.432911 0.527700
O O8 0.316884 0.310613 0.883506
O O9 0.500000 0.500000 0.000000
O O10 0.256805 0.492998 0.071703
O O11 0.259886 0.599281 0.344161
O O12 0.006790 0.513121 0.319082
O O13 0.986448 0.292959 0.410071
O O14 0.342382 0.702601 0.579835
O O15 0.684016 0.972910 0.534939
O O16 0.329239 0.100293 0.720250
O O17 0.000000 0.000000 0.000000
O O18 0.500000 0.000000 0.500000
#
# Coordination Sequence:
#
# PCOD9054921 Si02
#       8
#     2   2   2   2   2   2   2   2
#     4  11  23  39  67  97 134 167 218 270 335 380
#     4  12  24  41  65  99 139 165 213 275 335 383
#     4  12  22  41  67  99 124 167 227 269 310 386
#     4  11  21  42  70  93 127 175 225 264 319 398
#     4  11  23  41  66  94 131 173 217 262 333 387
#     4  11  21  39  65  95 127 173 212 270 325 382
#     4  12  23  41  67  98 127 168 227 268 313 393
#     4  12  23  41  66  96 128 169 222 270 320 385
#
# _framework density 21.330223
#
# number of rings (size 3 to 8) (size 9 to 14) (size 15 to 20)
#    0.000    0.500    7.500    1.500    1.750    0.000 
#    0.000    1.250    2.750    0.000    0.000    0.000 
#    0.000    0.000    0.000    0.000    0.000    0.000 
#
# Total GULP energy -89427.180509 kJ/mol
# GULP energy per Si atom -5589.198782 kJ/mol
# Density = 2.128167 g / cm^3
# Si number density = 21.330223 Si / 1000 Ang^3
#
#
#
# Elastic Constant Matrix: (Units=GPa)
#
#
# Indices 1 2 3 4 5 6 
#
# 1 130.9814 18.5199 36.6957 11.4651 -9.8459 3.5406
# 2 18.5199 66.7433 10.3347 6.2032 -8.6508 16.2711
# 3 36.6957 10.3347 76.6442 10.4050 -9.5846 -9.6225
# 4 11.4651 6.2032 10.4050 27.0281 -5.6186 -1.0429
# 5 -9.8459 -8.6508 -9.5846 -5.6186 35.7266 16.3602
# 6 3.5406 16.2711 -9.6225 -1.0429 16.3602 42.4349
#
#
#
# Elastic Compliance Matrix: (Units=1/GPa)
#
#
# Indices 1 2 3 4 5 6 
#
# 1 0.009280 -0.001024 -0.004084 -0.001819 0.001879 -0.002077
# 2 -0.001024 0.019720 -0.002251 -0.001829 0.008840 -0.011439
# 3 -0.004084 -0.002251 0.016436 -0.003913 -0.000110 0.004877
# 4 -0.001819 -0.001829 -0.003913 0.040661 0.004808 -0.000889
# 5 0.001879 0.008840 -0.000110 0.004808 0.040022 -0.018883
# 6 -0.002077 -0.011439 0.004877 -0.000889 -0.018883 0.036489
#
#
# Mechanical properties :
#
#
# Convention : Reuss Voigt Hill
#
# Bulk Modulus (GPa) = 32.55432 45.05218 38.80325
# Shear Modulus (GPa) = 26.65721 34.95916 30.80819
#
# Velocity S-wave (km/s) = 3.53900 4.05279 3.80458
# Velocity P-wave (km/s) = 5.65637 6.56256 6.12625
#
# Compressibility (1/GPa) = 0.03071789
#
# Stress axis : x y z
#
# Youngs Moduli (GPa) = 107.75632 50.71020 60.84210
#
# Poissons Ratio (x) = 0.05192 0.24848
# Poissons Ratio (y) = 0.11032 0.13698
# Poissons Ratio (z) = 0.44007 0.11417
#
# Static dielectric constant tensor:
#      x y z
#    x 1.774630 0.036770 0.031370 
#    y 0.036770 1.868260 0.011950 
#    z 0.031370 0.011950 1.785960 
# 
# From -- ./inp_files/258924.got.cif
#   From: 2010.05.17/outbox.cif.g08.bks.cpg/sg2_130_cif.got.tgz:258924.got - 2010.06.03 11:33:40.
