data_PCOD9054515
_publ_section_title
;
Structure prediction by ZEFSAII (Michael W. Deem and Ramdas Pophale) SiO2 
 PCOD9054515
Probable space group: P -1
;
_chemical_formula_sum "Si O2"
_cell_formula_units_Z 16
_cell_length_a 9.623365
_cell_length_b 12.107025
_cell_length_c 12.313166
_cell_angle_alpha 62.091265
_cell_angle_beta 127.168660
_cell_angle_gamma 138.219447
_cell_volume 761.264784
_symmetry_space_group_name_H-M "P -1"
_symmetry_group_IT_number 2
_symmetry_cell_setting 'triclinic'
loop_
_space_group_symop_operation_xyz
x,y,z
-x,-y,-z
loop_
_atom_site_type_symbol
_atom_site_label
_atom_site_fract_x
_atom_site_fract_y
_atom_site_fract_z
Si Si1 0.205850 0.322393 0.125579
Si Si2 0.090803 0.761747 0.169932
Si Si3 0.019725 0.870755 0.435523
Si Si4 0.230595 0.718812 0.607644
Si Si5 0.226154 0.240824 0.402934
Si Si6 0.280861 0.625188 0.441988
Si Si7 0.705296 0.682221 0.165914
Si Si8 0.331374 0.144234 0.124956
O O1 0.160350 0.294550 0.244558
O O2 0.452253 0.505551 0.141292
O O3 0.233645 0.196231 0.144260
O O4 0.009252 0.294446 0.972721
O O5 0.259225 0.731143 0.300517
O O6 0.868340 0.657847 0.193006
O O7 0.200788 0.950716 0.151086
O O8 0.895184 0.783810 0.530796
O O9 0.833024 0.774851 0.295183
O O10 0.215765 0.859372 0.514306
O O11 0.135028 0.059782 0.412178
O O12 0.311628 0.690596 0.548645
O O13 0.406192 0.762871 0.763430
O O14 0.969317 0.557143 0.587643
O O15 0.503242 0.360704 0.489312
O O16 0.690564 0.793821 0.027552
#
# Coordination Sequence:
#
# PCOD9054515 Si02
#       8
#     2   2   2   2   2   2   2   2
#     4  11  21  36  58  86 120 155 195 241 293 350
#     4  11  21  35  59  88 119 153 194 245 295 343
#     4  11  24  41  61  87 120 158 198 241 293 353
#     4  11  22  37  60  90 120 153 196 246 293 345
#     4  11  24  41  61  87 120 158 198 241 293 353
#     4  11  22  37  60  90 120 153 196 246 293 345
#     4  11  21  36  58  86 120 155 195 241 293 350
#     4  11  21  35  59  88 119 153 194 245 295 343
#
# _framework density 21.017655000000001
#
# number of rings (size 3 to 8) (size 9 to 14) (size 15 to 20)
#    0.000    1.000    2.500    7.500    0.000    3.000 
#    0.000    1.250    0.000    7.500    0.000    0.000 
#    0.000    0.000    0.000    0.000    0.000    0.000 
#
# Total GULP energy -89557.845478 kJ/mol
# GULP energy per Si atom -5597.365342 kJ/mol
# Density = 2.096982 g / cm^3
# Si number density = 21.017655 Si / 1000 Ang^3
#
#
#
# Elastic Constant Matrix: (Units=GPa)
#
#
# Indices 1 2 3 4 5 6 
#
# 1 22.6027 9.4464 13.7711 2.0521 -3.0457 5.0119
# 2 9.4464 55.4536 23.3993 0.4840 -5.4379 4.7100
# 3 13.7711 23.3993 145.8669 5.2535 -16.2967 -0.7576
# 4 2.0521 0.4840 5.2535 29.7944 7.5564 2.2042
# 5 -3.0457 -5.4379 -16.2967 7.5564 17.1487 -11.8440
# 6 5.0119 4.7100 -0.7576 2.2042 -11.8440 27.2334
#
#
#
# Elastic Compliance Matrix: (Units=1/GPa)
#
#
# Indices 1 2 3 4 5 6 
#
# 1 0.051315 -0.006454 -0.004151 -0.001221 -0.003006 -0.009651
# 2 -0.006454 0.020500 -0.002512 0.000262 0.001659 -0.001727
# 3 -0.004151 -0.002512 0.009863 -0.006496 0.017269 0.009509
# 4 -0.001221 0.000262 -0.006496 0.047228 -0.042535 -0.022322
# 5 -0.003006 0.001659 0.017269 -0.042535 0.137721 0.064085
# 6 -0.009651 -0.001727 0.009509 -0.022322 0.064085 0.068737
#
#
# Mechanical properties :
#
#
# Convention : Reuss Voigt Hill
#
# Bulk Modulus (GPa) = 18.03662 35.23965 26.63813
# Shear Modulus (GPa) = 13.15514 26.65573 19.90543
#
# Velocity S-wave (km/s) = 2.50453 3.56512 3.08081
# Velocity P-wave (km/s) = 4.11872 5.80946 5.03556
#
# Compressibility (1/GPa) = 0.05544277
#
# Stress axis : x y z
#
# Youngs Moduli (GPa) = 19.48747 48.78128 101.38724
#
# Poissons Ratio (x) = 0.31484 0.42088
# Poissons Ratio (y) = 0.12577 0.25471
# Poissons Ratio (z) = 0.08090 0.12255
#
# Static dielectric constant tensor:
#      x y z
#    x 1.719840 -0.013440 0.004590 
#    y -0.013440 1.788840 -0.011780 
#    z 0.004590 -0.011780 1.750260 
# 
# From -- ./inp_files/298313.got.cif
#   From: 2010.05.17/outbox.cif.g08.bks.cpg/sg2_150_cif.got.tgz:298313.got - 2010.06.03 11:33:40.
