data_PCOD9054586
_publ_section_title
;
Structure prediction by ZEFSAII (Michael W. Deem and Ramdas Pophale) SiO2 
 PCOD9054586
Probable space group: P -1
;
_chemical_formula_sum "Si O2"
_cell_formula_units_Z 16
_cell_length_a 10.078348
_cell_length_b 7.888159
_cell_length_c 10.079907
_cell_angle_alpha 63.709529
_cell_angle_beta 66.598323
_cell_angle_gamma 67.065031
_cell_volume 636.717889
_symmetry_space_group_name_H-M "P -1"
_symmetry_group_IT_number 2
_symmetry_cell_setting 'triclinic'
loop_
_space_group_symop_operation_xyz
x,y,z
-x,-y,-z
loop_
_atom_site_type_symbol
_atom_site_label
_atom_site_fract_x
_atom_site_fract_y
_atom_site_fract_z
Si Si1 0.456974 0.885356 0.257100
Si Si2 0.065661 0.223385 0.675651
Si Si3 0.674531 0.555949 0.447451
Si Si4 0.932287 0.807509 0.016551
Si Si5 0.634266 0.138251 0.988079
Si Si6 0.109486 0.631332 0.775131
Si Si7 0.270397 0.525671 0.263559
Si Si8 0.167107 0.152622 0.375621
O O1 0.547819 0.054581 0.165116
O O2 0.283232 0.967619 0.332398
O O3 0.541088 0.718340 0.380449
O O4 0.464550 0.832307 0.116960
O O5 0.191604 0.340628 0.607428
O O6 0.051574 0.134955 0.856845
O O7 0.110990 0.110561 0.558718
O O8 0.901261 0.363468 0.671681
O O9 0.743118 0.397504 0.362214
O O10 0.641287 0.484213 0.629892
O O11 0.894277 0.593616 0.113454
O O12 0.788642 0.968536 0.962380
O O13 0.076384 0.752801 0.882151
O O14 0.674911 0.344618 0.913125
O O15 0.971450 0.741079 0.697961
O O16 0.261928 0.313928 0.295701
#
# Coordination Sequence:
#
# PCOD9054586 Si02
#       8
#     2   2   2   2   2   2   2   2
#     4  11  24  42  64  87 129 172 222 244 310 389
#     4  10  19  37  62  95 120 162 205 259 314 372
#     4  10  19  40  65  92 120 172 211 259 308 383
#     4  10  19  34  60  93 123 157 210 253 311 365
#     4  11  24  40  59  95 133 168 200 272 317 367
#     4  10  17  35  66  92 114 165 221 245 299 378
#     4  11  22  38  65  93 133 159 207 270 326 360
#     4  11  20  39  70  90 122 172 213 257 308 387
#
# _framework density 25.128867
#
# number of rings (size 3 to 8) (size 9 to 14) (size 15 to 20)
#    0.000    1.500    7.500    0.750    0.000    3.500 
#    0.000    2.500    0.000    0.000    0.000    0.000 
#    0.000    0.000    0.000    0.000    0.000    0.000 
#
# Total GULP energy -89474.713871 kJ/mol
# GULP energy per Si atom -5592.169617 kJ/mol
# Density = 2.507167 g / cm^3
# Si number density = 25.128867 Si / 1000 Ang^3
#
#
#
# Elastic Constant Matrix: (Units=GPa)
#
#
# Indices 1 2 3 4 5 6 
#
# 1 95.8037 20.1808 31.7840 -20.6239 18.1201 -21.5286
# 2 20.1808 90.1422 44.4900 -2.6973 8.5704 -11.0679
# 3 31.7840 44.4900 106.4952 -20.1522 17.4365 -8.5747
# 4 -20.6239 -2.6973 -20.1522 35.9893 -2.6058 2.5494
# 5 18.1201 8.5704 17.4365 -2.6058 42.1539 -3.9242
# 6 -21.5286 -11.0679 -8.5747 2.5494 -3.9242 41.3058
#
#
#
# Elastic Compliance Matrix: (Units=1/GPa)
#
#
# Indices 1 2 3 4 5 6 
#
# 1 0.014926 -0.001252 -0.001365 0.006917 -0.004583 0.006298
# 2 -0.001252 0.014580 -0.006174 -0.003227 0.000131 0.002184
# 3 -0.001365 -0.006174 0.014178 0.006442 -0.003640 -0.000166
# 4 0.006917 -0.003227 0.006442 0.034803 -0.002675 0.001676
# 5 -0.004583 0.000131 -0.003640 -0.002675 0.026971 -0.000382
# 6 0.006298 0.002184 -0.000166 0.001676 -0.000382 0.027903
#
#
# Mechanical properties :
#
#
# Convention : Reuss Voigt Hill
#
# Bulk Modulus (GPa) = 38.31015 53.92784 46.11900
# Shear Modulus (GPa) = 31.31978 36.95558 34.13768
#
# Velocity S-wave (km/s) = 3.53422 3.83906 3.68979
# Velocity P-wave (km/s) = 5.65092 6.41547 6.04529
#
# Compressibility (1/GPa) = 0.02610274
#
# Stress axis : x y z
#
# Youngs Moduli (GPa) = 66.99829 68.58712 70.52977
#
# Poissons Ratio (x) = 0.08585 0.09630
# Poissons Ratio (y) = 0.08386 0.43543
# Poissons Ratio (z) = 0.09148 0.42343
#
# Static dielectric constant tensor:
#      x y z
#    x 1.969940 0.089310 -0.044860 
#    y 0.089310 2.003070 -0.049020 
#    z -0.044860 -0.049020 2.062010 
# 
# From -- ./inp_files/414218.got.cif
#   From: 2010.05.17/outbox.cif.g08.bks.cpg/sg2_208_cif.got.tgz:414218.got - 2010.06.03 11:33:40.
