data_PCOD9054295
_publ_section_title
;
Structure prediction by ZEFSAII (Michael W. Deem and Ramdas Pophale) SiO2 
 PCOD9054295
Probable space group: P -1
;
_chemical_formula_sum "Si O2"
_cell_formula_units_Z 14
_cell_length_a 6.475502
_cell_length_b 16.628636
_cell_length_c 15.791541
_cell_angle_alpha 153.560797
_cell_angle_beta 110.930629
_cell_angle_gamma 83.924881
_cell_volume 606.293422
_symmetry_space_group_name_H-M "P -1"
_symmetry_group_IT_number 2
_symmetry_cell_setting 'triclinic'
loop_
_space_group_symop_operation_xyz
x,y,z
-x,-y,-z
loop_
_atom_site_type_symbol
_atom_site_label
_atom_site_fract_x
_atom_site_fract_y
_atom_site_fract_z
Si Si1 0.109506 0.343736 0.383912
Si Si2 0.796413 0.677590 0.236444
Si Si3 0.941908 0.806605 0.955138
Si Si4 0.330601 0.965008 0.858947
Si Si5 0.041822 0.467139 0.165972
Si Si6 0.446939 0.228030 0.419501
Si Si7 0.807079 0.104836 0.653585
O O1 0.378942 0.366220 0.475969
O O2 0.000000 0.500000 0.500000
O O3 0.942703 0.215266 0.318399
O O4 0.943827 0.782593 0.831337
O O5 0.886464 0.583325 0.235504
O O6 0.008614 0.748662 0.258482
O O7 0.830601 0.900353 0.475343
O O8 0.500000 0.500000 0.000000
O O9 0.703363 0.835911 0.974199
O O10 0.956360 0.616597 0.819375
O O11 0.195009 0.023033 0.223976
O O12 0.425596 0.880745 0.718533
O O13 0.500000 0.000000 0.000000
O O14 0.345400 0.625170 0.342333
O O15 0.913209 0.262821 0.896224
O O16 0.500000 0.000000 0.500000
#
# Coordination Sequence:
#
# PCOD9054295 Si02
#       7
#     2   2   2   2   2   2   2
#     4  11  23  42  65  94 137 195 242 286 357 428
#     4  11  26  51  79 108 141 190 240 290 373 454
#     4  11  25  43  65 104 138 186 243 298 351 420
#     4  11  20  42  69  86 132 196 240 285 347 414
#     4  12  28  44  73 110 143 183 236 302 364 427
#     4  11  25  44  66 100 144 183 245 299 352 418
#     4  11  26  51  79 105 144 191 237 294 368 455
#
# _framework density 23.09113
#
# number of rings (size 3 to 8) (size 9 to 14) (size 15 to 20)
#    0.000    0.857    4.286    2.143    6.000    1.143 
#    5.143    0.000    0.000    0.000    0.000    0.000 
#    0.000    0.000    0.000    0.000    0.000    0.000 
#
# Total GULP energy -78126.045211 kJ/mol
# GULP energy per Si atom -5580.431801 kJ/mol
# Density = 2.303857 g / cm^3
# Si number density = 23.091130 Si / 1000 Ang^3
#
#
#
# Elastic Constant Matrix: (Units=GPa)
#
#
# Indices 1 2 3 4 5 6 
#
# 1 101.6139 42.0449 29.1510 4.9197 -1.9427 -22.1945
# 2 42.0449 127.4622 34.3663 20.8726 4.9637 -41.3459
# 3 29.1510 34.3663 117.1862 -5.7659 9.4689 -25.9541
# 4 4.9197 20.8726 -5.7659 51.1549 -10.5980 -0.7005
# 5 -1.9427 4.9637 9.4689 -10.5980 38.0051 -0.0786
# 6 -22.1945 -41.3459 -25.9541 -0.7005 -0.0786 35.7219
#
#
#
# Elastic Compliance Matrix: (Units=1/GPa)
#
#
# Indices 1 2 3 4 5 6 
#
# 1 0.012121 -0.002483 -0.001627 -0.000008 0.001354 0.003478
# 2 -0.002483 0.014954 -0.000382 -0.006475 -0.003759 0.015353
# 3 -0.001627 -0.000382 0.010701 0.001113 -0.002376 0.006338
# 4 -0.000008 -0.006475 0.001113 0.023717 0.007169 -0.006209
# 5 0.001354 -0.003759 -0.002376 0.007169 0.029453 -0.005030
# 6 0.003478 0.015353 0.006338 -0.006209 -0.005030 0.052397
#
#
# Mechanical properties :
#
#
# Convention : Reuss Voigt Hill
#
# Bulk Modulus (GPa) = 34.73152 61.93187 48.33170
# Shear Modulus (GPa) = 30.87863 41.02305 35.95084
#
# Velocity S-wave (km/s) = 3.66081 4.21951 3.95005
# Velocity P-wave (km/s) = 5.73955 7.11463 6.46376
#
# Compressibility (1/GPa) = 0.02879229
#
# Stress axis : x y z
#
# Youngs Moduli (GPa) = 82.50042 66.87009 93.45211
#
# Poissons Ratio (x) = 0.16604 0.15200
# Poissons Ratio (y) = 0.20485 0.03574
# Poissons Ratio (z) = 0.13419 0.02557
#
# Static dielectric constant tensor:
#      x y z
#    x 2.018250 -0.070090 0.148780 
#    y -0.070090 1.895030 0.019070 
#    z 0.148780 0.019070 2.021790 
# 
# From -- ./inp_files/114488.got.cif
#   From: 2010.05.17/outbox.cif.g08.bks.cpg/sg2_58_cif.got.tgz:114488.got - 2010.06.03 11:33:40.
