data_PCOD9054145
_publ_section_title
;
Structure prediction by ZEFSAII (Michael W. Deem and Ramdas Pophale) SiO2 
 PCOD9054145
Probable space group: P -1
;
_chemical_formula_sum "Si O2"
_cell_formula_units_Z 13
_cell_length_a 8.392926
_cell_length_b 8.520573
_cell_length_c 11.895120
_cell_angle_alpha 111.108024
_cell_angle_beta 69.823712
_cell_angle_gamma 135.918070
_cell_volume 547.185965
_symmetry_space_group_name_H-M "P -1"
_symmetry_group_IT_number 2
_symmetry_cell_setting 'triclinic'
loop_
_space_group_symop_operation_xyz
x,y,z
-x,-y,-z
loop_
_atom_site_type_symbol
_atom_site_label
_atom_site_fract_x
_atom_site_fract_y
_atom_site_fract_z
Si Si1 0.331598 0.704774 0.271662
Si Si2 0.000000 0.500000 0.000000
Si Si3 0.489891 0.682646 0.003810
Si Si4 0.147597 0.959929 0.169339
Si Si5 0.610860 0.868289 0.612215
Si Si6 0.879199 0.344326 0.377916
Si Si7 0.725611 0.862231 0.348778
O O1 0.462539 0.676460 0.322362
O O2 0.069648 0.466096 0.264053
O O3 0.319779 0.889219 0.360774
O O4 0.480999 0.791875 0.145864
O O5 0.119210 0.744396 0.095186
O O6 0.747983 0.434440 0.032833
O O7 0.716864 0.870921 0.924754
O O8 0.500000 0.500000 0.000000
O O9 0.899421 0.866410 0.238485
O O10 0.303237 0.109959 0.279057
O O11 0.335322 0.686967 0.616964
O O12 0.724378 0.837654 0.476732
O O13 0.000000 0.500000 0.500000
O O14 0.794571 0.101119 0.365073
#
# Coordination Sequence:
#
# PCOD9054145 Si02
#       7
#     2   1   2   2   2   2   2
#     4  11  22  42  71 105 140 194 251 301 377 446
#     4  12  28  50  78 106 154 204 264 310 376 450
#     4  12  28  50  76 111 151 203 262 314 376 460
#     4  12  28  49  72 112 153 203 252 316 385 445
#     4  11  23  42  71 106 152 188 242 314 376 461
#     4  11  20  40  72 105 146 196 246 300 384 459
#     4  11  23  43  71 109 149 190 246 315 380 461
#
# _framework density 23.757918
#
# number of rings (size 3 to 8) (size 9 to 14) (size 15 to 20)
#    0.000    0.615    4.615    3.692    2.154    3.692 
#    0.000    0.769    0.000    0.000    0.000    0.000 
#    0.000    0.000    0.000    0.000    0.000    0.000 
#
# Total GULP energy -72498.641723 kJ/mol
# GULP energy per Si atom -5576.818594 kJ/mol
# Density = 2.370384 g / cm^3
# Si number density = 23.757918 Si / 1000 Ang^3
#
#
#
# Elastic Constant Matrix: (Units=GPa)
#
#
# Indices 1 2 3 4 5 6 
#
# 1 70.2896 16.3359 4.6441 -7.9339 -27.9273 8.8420
# 2 16.3359 55.3977 35.9355 -16.1521 -13.8287 12.0035
# 3 4.6441 35.9355 124.0575 -31.4030 -21.0048 -4.8342
# 4 -7.9339 -16.1521 -31.4030 37.6854 8.7741 -3.6756
# 5 -27.9273 -13.8287 -21.0048 8.7741 37.2367 3.6846
# 6 8.8420 12.0035 -4.8342 -3.6756 3.6846 30.4009
#
#
#
# Elastic Compliance Matrix: (Units=1/GPa)
#
#
# Indices 1 2 3 4 5 6 
#
# 1 0.022967 -0.002012 0.002912 0.001350 0.018546 -0.007507
# 2 -0.002012 0.027881 -0.006628 0.003601 0.005415 -0.011698
# 3 0.002912 -0.006628 0.012790 0.007742 0.004700 0.004170
# 4 0.001350 0.003601 0.007742 0.035689 -0.002087 0.003985
# 5 0.018546 0.005415 0.004700 -0.002087 0.047181 -0.012755
# 6 -0.007507 -0.011698 0.004170 0.003985 -0.012755 0.042387
#
#
# Mechanical properties :
#
#
# Convention : Reuss Voigt Hill
#
# Bulk Modulus (GPa) = 19.16394 40.39731 29.78062
# Shear Modulus (GPa) = 22.96264 33.91988 28.44126
#
# Velocity S-wave (km/s) = 3.11227 3.78263 3.46371
# Velocity P-wave (km/s) = 4.58245 6.00986 5.34402
#
# Compressibility (1/GPa) = 0.05218133
#
# Stress axis : x y z
#
# Youngs Moduli (GPa) = 43.54023 35.86699 78.18648
#
# Poissons Ratio (x) = 0.07218 -0.22770
# Poissons Ratio (y) = 0.08762 0.51824
# Poissons Ratio (z) = -0.12680 0.23774
#
# Static dielectric constant tensor:
#      x y z
#    x 1.908390 0.015170 0.037520 
#    y 0.015170 1.894460 -0.015350 
#    z 0.037520 -0.015350 1.940910 
# 
# From -- ./inp_files/59033.got.cif
#   From: 2010.05.17/outbox.cif.g08.bks.cpg/sg2_30_cif.got.tgz:59033.got - 2010.06.03 11:33:40.
