data_PCOD9054250
_publ_section_title
;
Structure prediction by ZEFSAII (Michael W. Deem and Ramdas Pophale) SiO2 
 PCOD9054250
Probable space group: P -1
;
_chemical_formula_sum "Si O2"
_cell_formula_units_Z 16
_cell_length_a 8.220919
_cell_length_b 10.792907
_cell_length_c 14.330177
_cell_angle_alpha 49.688456
_cell_angle_beta 91.783461
_cell_angle_gamma 120.785439
_cell_volume 740.458916
_symmetry_space_group_name_H-M "P -1"
_symmetry_group_IT_number 2
_symmetry_cell_setting 'triclinic'
loop_
_space_group_symop_operation_xyz
x,y,z
-x,-y,-z
loop_
_atom_site_type_symbol
_atom_site_label
_atom_site_fract_x
_atom_site_fract_y
_atom_site_fract_z
Si Si1 0.241427 0.442702 0.257567
Si Si2 0.209676 0.937540 0.590810
Si Si3 0.617877 0.594820 0.052494
Si Si4 0.856360 0.339341 0.988054
Si Si5 0.489919 0.633698 0.357295
Si Si6 0.055871 0.976080 0.908345
Si Si7 0.473969 0.013687 0.723982
Si Si8 0.454344 0.782340 0.675790
O O1 0.448975 0.545842 0.148799
O O2 0.323178 0.498250 0.337172
O O3 0.037105 0.194439 0.363777
O O4 0.150203 0.545800 0.155471
O O5 0.273689 0.967206 0.686100
O O6 0.285507 0.804883 0.623169
O O7 0.378011 0.156126 0.431022
O O8 0.662963 0.442619 0.168329
O O9 0.500000 0.500000 0.000000
O O10 0.824575 0.839127 0.922286
O O11 0.622026 0.166865 0.112815
O O12 0.901773 0.188436 0.024637
O O13 0.000000 0.500000 0.000000
O O14 0.500000 0.500000 0.500000
O O15 0.420652 0.761747 0.339360
O O16 0.729658 0.804217 0.234685
O O17 0.000000 0.000000 0.000000
O O18 0.573802 0.963265 0.671153
#
# Coordination Sequence:
#
# PCOD9054250 Si02
#       8
#     2   2   2   2   2   2   2   2
#     4  12  24  40  64 105 128 175 227 273 329 402
#     4   9  20  38  67  91 126 167 226 266 336 387
#     4  12  25  38  67 100 131 164 230 282 333 392
#     4  11  20  41  72  94 131 169 222 280 335 393
#     4  11  27  45  64  94 144 181 217 269 346 404
#     4  11  24  47  66  98 135 185 217 277 348 399
#     4   9  19  39  68  87 124 174 217 257 339 396
#     4   9  20  41  65  95 126 173 215 276 335 393
#
# _framework density 21.608222999999999
#
# number of rings (size 3 to 8) (size 9 to 14) (size 15 to 20)
#    0.750    0.750    2.500    3.000    3.500    3.500 
#    4.500    0.625    0.000    0.000    0.000    0.000 
#    0.000    0.000    0.000    0.000    0.000    0.000 
#
# Total GULP energy -89116.146268 kJ/mol
# GULP energy per Si atom -5569.759142 kJ/mol
# Density = 2.155904 g / cm^3
# Si number density = 21.608223 Si / 1000 Ang^3
#
#
#
# Elastic Constant Matrix: (Units=GPa)
#
#
# Indices 1 2 3 4 5 6 
#
# 1 48.1625 3.7544 5.2179 3.0206 -3.1070 -1.4536
# 2 3.7544 94.3016 9.8950 18.9523 9.9325 9.5183
# 3 5.2179 9.8950 116.0357 9.1980 12.0575 5.6599
# 4 3.0206 18.9523 9.1980 27.0569 0.6438 -1.4132
# 5 -3.1070 9.9325 12.0575 0.6438 24.3092 2.3791
# 6 -1.4536 9.5183 5.6599 -1.4132 2.3791 37.7131
#
#
#
# Elastic Compliance Matrix: (Units=1/GPa)
#
#
# Indices 1 2 3 4 5 6 
#
# 1 0.021314 -0.000930 -0.001196 -0.001358 0.003640 0.000955
# 2 -0.000930 0.013405 0.000358 -0.009468 -0.005181 -0.003501
# 3 -0.001196 0.000358 0.009466 -0.003294 -0.004772 -0.001379
# 4 -0.001358 -0.009468 -0.003294 0.044997 0.003718 0.004283
# 5 0.003640 -0.005181 -0.004772 0.003718 0.046046 -0.000602
# 6 0.000955 -0.003501 -0.001379 0.004283 -0.000602 0.027842
#
#
# Mechanical properties :
#
#
# Convention : Reuss Voigt Hill
#
# Bulk Modulus (GPa) = 24.60088 32.91496 28.75792
# Shear Modulus (GPa) = 27.75375 33.79134 30.77254
#
# Velocity S-wave (km/s) = 3.58775 3.95880 3.77784
# Velocity P-wave (km/s) = 5.34530 6.01347 5.68921
#
# Compressibility (1/GPa) = 0.04064895
#
# Stress axis : x y z
#
# Youngs Moduli (GPa) = 46.91762 74.59639 105.64658
#
# Poissons Ratio (x) = 0.06937 0.12639
# Poissons Ratio (y) = 0.04363 -0.03784
# Poissons Ratio (z) = 0.05613 -0.02672
#
# Static dielectric constant tensor:
#      x y z
#    x 1.866590 -0.003480 0.035060 
#    y -0.003480 1.777570 -0.017330 
#    z 0.035060 -0.017330 1.838650 
# 
# From -- ./inp_files/500041.got.cif
#   From: 2010.05.17/outbox.cif.g08.bks.cpg/sg2_251_cif.got.tgz:500041.got - 2010.06.03 11:33:40.
