data_PCOD9054799
_publ_section_title
;
Structure prediction by ZEFSAII (Michael W. Deem and Ramdas Pophale) SiO2 
 PCOD9054799
Probable space group: P -1
;
_chemical_formula_sum "Si O2"
_cell_formula_units_Z 16
_cell_length_a 8.272699
_cell_length_b 16.092899
_cell_length_c 10.810498
_cell_angle_alpha 131.314616
_cell_angle_beta 99.728323
_cell_angle_gamma 45.116843
_cell_volume 635.664097
_symmetry_space_group_name_H-M "P -1"
_symmetry_group_IT_number 2
_symmetry_cell_setting 'triclinic'
loop_
_space_group_symop_operation_xyz
x,y,z
-x,-y,-z
loop_
_atom_site_type_symbol
_atom_site_label
_atom_site_fract_x
_atom_site_fract_y
_atom_site_fract_z
Si Si1 0.632982 0.122585 0.435530
Si Si2 0.163252 0.293362 0.930514
Si Si3 0.796246 0.439514 0.393776
Si Si4 0.588829 0.556519 0.985401
Si Si5 0.250417 0.084003 0.967079
Si Si6 0.975164 0.552938 0.353011
Si Si7 0.706651 0.055375 0.645979
Si Si8 0.271678 0.687747 0.438126
O O1 0.789194 0.995493 0.453371
O O2 0.645442 0.248429 0.570027
O O3 0.322058 0.249394 0.537332
O O4 0.700790 0.057621 0.236895
O O5 0.202332 0.181129 0.931541
O O6 0.420612 0.151842 0.735094
O O7 0.873313 0.443342 0.972434
O O8 0.156725 0.409017 0.124126
O O9 0.883439 0.431129 0.531285
O O10 0.475790 0.592106 0.484784
O O11 0.898202 0.488204 0.367365
O O12 0.981376 0.239464 0.169192
O O13 0.647970 0.466543 0.774116
O O14 0.500000 0.500000 0.000000
O O15 0.364849 0.776256 0.173344
O O16 0.500000 0.000000 0.000000
O O17 0.945900 0.879767 0.591613
#
# Coordination Sequence:
#
# PCOD9054799 Si02
#       8
#     2   2   2   2   2   2   2   2
#     4  11  21  38  66 101 134 175 228 281 337 402
#     4  11  25  43  66 103 138 179 228 287 348 403
#     4   9  19  38  62  96 131 171 227 290 323 396
#     4  12  23  43  68  99 137 179 232 280 340 413
#     4  11  22  38  70 104 129 175 242 286 334 404
#     4   9  17  37  63  90 128 171 224 275 336 386
#     4  12  26  44  66 102 147 182 218 284 351 409
#     4  11  25  39  64 101 138 182 231 278 338 412
#
# _framework density 25.170525999999999
#
# number of rings (size 3 to 8) (size 9 to 14) (size 15 to 20)
#    0.000    1.250    3.750    3.000    5.250    2.000 
#    0.000    0.625    0.000    1.500    0.000    0.000 
#    0.000    0.000    0.000    0.000    0.000    0.000 
#
# Total GULP energy -89541.822334 kJ/mol
# GULP energy per Si atom -5596.363896 kJ/mol
# Density = 2.511324 g / cm^3
# Si number density = 25.170526 Si / 1000 Ang^3
#
#
#
# Elastic Constant Matrix: (Units=GPa)
#
#
# Indices 1 2 3 4 5 6 
#
# 1 65.7188 24.0516 30.3148 -10.0757 9.6105 -9.9949
# 2 24.0516 130.6215 50.8424 -4.6655 -3.1268 -23.8711
# 3 30.3148 50.8424 144.8665 -9.6763 17.9380 -21.1407
# 4 -10.0757 -4.6655 -9.6763 41.9762 -4.4476 -4.1764
# 5 9.6105 -3.1268 17.9380 -4.4476 43.1533 0.6519
# 6 -9.9949 -23.8711 -21.1407 -4.1764 0.6519 44.2419
#
#
#
# Elastic Compliance Matrix: (Units=1/GPa)
#
#
# Indices 1 2 3 4 5 6 
#
# 1 0.018309 -0.002039 -0.002157 0.003591 -0.002995 0.002389
# 2 -0.002039 0.009826 -0.002754 0.000566 0.002315 0.003545
# 3 -0.002157 -0.002754 0.009207 0.001189 -0.003463 0.002590
# 4 0.003591 0.000566 0.001189 0.025568 0.001320 0.004079
# 5 -0.002995 0.002315 -0.003463 0.001320 0.025604 -0.001335
# 6 0.002389 0.003545 0.002590 0.004079 -0.001335 0.026698
#
#
# Mechanical properties :
#
#
# Convention : Reuss Voigt Hill
#
# Bulk Modulus (GPa) = 42.65395 61.29159 51.97277
# Shear Modulus (GPa) = 36.51663 41.60750 39.06206
#
# Velocity S-wave (km/s) = 3.81303 4.07015 3.94369
# Velocity P-wave (km/s) = 6.03062 6.81847 6.43661
#
# Compressibility (1/GPa) = 0.02344449
#
# Stress axis : x y z
#
# Youngs Moduli (GPa) = 54.61755 101.76693 108.61592
#
# Poissons Ratio (x) = 0.20748 0.23423
# Poissons Ratio (y) = 0.11135 0.29909
# Poissons Ratio (z) = 0.11778 0.28023
#
# Static dielectric constant tensor:
#      x y z
#    x 2.062720 0.037580 0.051520 
#    y 0.037580 1.948850 0.030750 
#    z 0.051520 0.030750 2.027110 
# 
# From -- ./inp_files/405596.got.cif
#   From: 2010.05.17/outbox.cif.g08.bks.cpg/sg2_203_cif.got.tgz:405596.got - 2010.06.03 11:33:40.
