data_PCOD9054569
_publ_section_title
;
Structure prediction by ZEFSAII (Michael W. Deem and Ramdas Pophale) SiO2 
 PCOD9054569
Probable space group: P -1
;
_chemical_formula_sum "Si O2"
_cell_formula_units_Z 10
_cell_length_a 12.345931
_cell_length_b 10.185140
_cell_length_c 8.818157
_cell_angle_alpha 131.027092
_cell_angle_beta 142.864098
_cell_angle_gamma 50.747027
_cell_volume 490.207203
_symmetry_space_group_name_H-M "P -1"
_symmetry_group_IT_number 2
_symmetry_cell_setting 'triclinic'
loop_
_space_group_symop_operation_xyz
x,y,z
-x,-y,-z
loop_
_atom_site_type_symbol
_atom_site_label
_atom_site_fract_x
_atom_site_fract_y
_atom_site_fract_z
Si Si1 0.029569 0.167979 0.960584
Si Si2 0.983117 0.219828 0.306373
Si Si3 0.434816 0.192457 0.498406
Si Si4 0.295031 0.418939 0.787408
Si Si5 0.650912 0.391901 0.700260
O O1 0.229822 0.212527 0.214993
O O2 0.973763 0.186812 0.090553
O O3 0.856893 0.310832 0.803121
O O4 0.040937 0.960008 0.775436
O O5 0.832644 0.405552 0.304432
O O6 0.176664 0.272830 0.583011
O O7 0.433458 0.326423 0.740557
O O8 0.575060 0.226704 0.555035
O O9 0.500000 0.000000 0.500000
O O10 0.348253 0.481818 0.057037
O O11 0.500000 0.500000 0.500000
#
# Coordination Sequence:
#
# PCOD9054569 Si02
#       5
#     2   2   2   2   2
#     4   9  18  34  53  79 113 141 179 227 272 322
#     4   8  14  30  57  81 104 139 181 234 273 304
#     4  11  21  36  62  85 105 143 190 230 269 321
#     4   9  17  32  57  83 107 141 188 226 266 324
#     4  11  23  37  55  82 117 149 177 222 280 328
#
# _framework density 20.399536999999999
#
# number of rings (size 3 to 8) (size 9 to 14) (size 15 to 20)
#    0.000    2.400    0.000    6.600    0.000    0.800 
#    0.000    4.000    0.000    3.600    0.000    0.000 
#    0.000    0.000    0.000    0.000    0.000    0.000 
#
# Total GULP energy -55737.331013 kJ/mol
# GULP energy per Si atom -5573.733101 kJ/mol
# Density = 2.035311 g / cm^3
# Si number density = 20.399537 Si / 1000 Ang^3
#
#
#
# Elastic Constant Matrix: (Units=GPa)
#
#
# Indices 1 2 3 4 5 6 
#
# 1 22.4061 4.3684 14.1019 -2.5412 13.5646 -7.5759
# 2 4.3684 70.2775 46.0950 2.4005 -3.2793 -6.5477
# 3 14.1019 46.0950 87.9678 -14.5792 18.8802 6.1632
# 4 -2.5412 2.4005 -14.5792 38.8204 -8.4518 0.3608
# 5 13.5646 -3.2793 18.8802 -8.4518 24.7157 0.3665
# 6 -7.5759 -6.5477 6.1632 0.3608 0.3665 23.9232
#
#
#
# Elastic Compliance Matrix: (Units=1/GPa)
#
#
# Indices 1 2 3 4 5 6 
#
# 1 0.085167 0.001275 -0.008403 -0.007326 -0.043108 0.030255
# 2 0.001275 0.031601 -0.022853 -0.006566 0.018486 0.014756
# 3 -0.008403 -0.022853 0.031428 0.008637 -0.019225 -0.016848
# 4 -0.007326 -0.006566 0.008637 0.030539 0.007097 -0.006911
# 5 -0.043108 0.018486 -0.019225 0.007097 0.083759 -0.005029
# 6 0.030255 0.014756 -0.016848 -0.006911 -0.005029 0.059942
#
#
# Mechanical properties :
#
#
# Convention : Reuss Voigt Hill
#
# Bulk Modulus (GPa) = 11.33346 34.42022 22.87684
# Shear Modulus (GPa) = 12.14154 25.23092 18.68623
#
# Velocity S-wave (km/s) = 2.44229 3.52069 3.02985
# Velocity P-wave (km/s) = 3.67707 5.78244 4.84549
#
# Compressibility (1/GPa) = 0.08823433
#
# Stress axis : x y z
#
# Youngs Moduli (GPa) = 11.74163 31.64449 31.81893
#
# Poissons Ratio (x) = -0.04035 0.26737
# Poissons Ratio (y) = -0.01497 0.72716
# Poissons Ratio (z) = 0.09866 0.72317
#
# Static dielectric constant tensor:
#      x y z
#    x 1.725840 -0.026020 0.043060 
#    y -0.026020 1.767240 -0.003680 
#    z 0.043060 -0.003680 1.783650 
# 
# From -- ./inp_files/145398.got.cif
#   From: 2010.05.17/outbox.cif.g08.bks.cpg/sg2_73_cif.got.tgz:145398.got - 2010.06.03 11:33:40.
