data_PCOD9054073
_publ_section_title
;
Structure prediction by ZEFSAII (Michael W. Deem and Ramdas Pophale) SiO2 
 PCOD9054073
Probable space group: P -1
;
_chemical_formula_sum "Si O2"
_cell_formula_units_Z 12
_cell_length_a 12.059349
_cell_length_b 9.409276
_cell_length_c 8.827723
_cell_angle_alpha 133.285497
_cell_angle_beta 95.585726
_cell_angle_gamma 62.029117
_cell_volume 603.549032
_symmetry_space_group_name_H-M "P -1"
_symmetry_group_IT_number 2
_symmetry_cell_setting 'triclinic'
loop_
_space_group_symop_operation_xyz
x,y,z
-x,-y,-z
loop_
_atom_site_type_symbol
_atom_site_label
_atom_site_fract_x
_atom_site_fract_y
_atom_site_fract_z
Si Si1 0.206443 0.339494 0.310166
Si Si2 0.662709 0.393281 0.601116
Si Si3 0.362503 0.804853 0.853744
Si Si4 0.086891 0.453286 0.711531
Si Si5 0.878394 0.150933 0.977880
Si Si6 0.876078 0.997133 0.543800
O O1 0.255380 0.503487 0.381591
O O2 0.175235 0.372106 0.509367
O O3 0.067063 0.418759 0.268007
O O4 0.313542 0.069578 0.081572
O O5 0.514542 0.613114 0.779610
O O6 0.650510 0.239074 0.357063
O O7 0.743027 0.226081 0.629816
O O8 0.259805 0.761426 0.893949
O O9 0.120215 0.235931 0.660925
O O10 0.110281 0.639632 0.926221
O O11 0.889221 0.996047 0.725622
O O12 0.000000 0.000000 0.000000
O O13 0.000000 0.000000 0.500000
#
# Coordination Sequence:
#
# PCOD9054073 Si02
#       6
#     2   2   2   2   2   2
#     4  11  20  40  67  93 122 166 213 256 306 379
#     4  11  25  42  63  96 129 162 216 257 309 368
#     4  11  23  42  68  89 126 175 207 253 312 381
#     4  11  22  37  67  96 122 161 214 257 312 376
#     4  12  22  41  68  92 125 169 208 254 318 374
#     4  12  25  41  63  97 130 159 207 273 310 361
#
# _framework density 19.882394999999999
#
# number of rings (size 3 to 8) (size 9 to 14) (size 15 to 20)
#    0.000    0.667    6.667    2.500    0.000    2.667 
#    0.000    0.833    0.000    0.000    0.000    0.000 
#    0.000    0.000    0.000    0.000    0.000    0.000 
#
# Total GULP energy -67104.385421 kJ/mol
# GULP energy per Si atom -5592.032118 kJ/mol
# Density = 1.983714 g / cm^3
# Si number density = 19.882395 Si / 1000 Ang^3
#
#
#
# Elastic Constant Matrix: (Units=GPa)
#
#
# Indices 1 2 3 4 5 6 
#
# 1 65.9895 25.4073 -4.6019 10.9292 -7.6693 6.6690
# 2 25.4073 81.8771 5.4805 18.5409 -4.7015 -3.3907
# 3 -4.6019 5.4805 52.8251 19.4906 -5.5710 -7.3576
# 4 10.9292 18.5409 19.4906 27.3437 8.0805 7.7687
# 5 -7.6693 -4.7015 -5.5710 8.0805 41.5957 10.9504
# 6 6.6690 -3.3907 -7.3576 7.7687 10.9504 35.7841
#
#
#
# Elastic Compliance Matrix: (Units=1/GPa)
#
#
# Indices 1 2 3 4 5 6 
#
# 1 0.020104 -0.003665 0.007016 -0.012033 0.007157 -0.002229
# 2 -0.003665 0.017253 0.005295 -0.016779 0.003684 0.005922
# 3 0.007016 0.005295 0.036065 -0.038701 0.011190 0.011587
# 4 -0.012033 -0.016779 -0.038701 0.092693 -0.021844 -0.020744
# 5 0.007157 0.003684 0.011190 -0.021844 0.032546 -0.003901
# 6 -0.002229 0.005922 0.011587 -0.020744 -0.003901 0.037002
#
#
# Mechanical properties :
#
#
# Convention : Reuss Voigt Hill
#
# Bulk Modulus (GPa) = 11.02366 28.14040 19.58203
# Shear Modulus (GPa) = 20.11191 32.57176 26.34183
#
# Velocity S-wave (km/s) = 3.18393 4.05189 3.64384
# Velocity P-wave (km/s) = 4.36726 6.00621 5.25107
#
# Compressibility (1/GPa) = 0.09071396
#
# Stress axis : x y z
#
# Youngs Moduli (GPa) = 49.74123 57.96256 27.72735
#
# Poissons Ratio (x) = 0.21241 -0.19452
# Poissons Ratio (y) = 0.18228 -0.14682
# Poissons Ratio (z) = -0.34896 -0.30691
#
# Static dielectric constant tensor:
#      x y z
#    x 1.676610 0.022330 0.007830 
#    y 0.022330 1.693060 0.003090 
#    z 0.007830 0.003090 1.711170 
# 
# From -- ./inp_files/147577.got.cif
#   From: 2010.05.17/outbox.cif.g08.bks.cpg/sg2_74_cif.got.tgz:147577.got - 2010.06.03 11:33:40.
