data_PCOD9054936
_publ_section_title
;
Structure prediction by ZEFSAII (Michael W. Deem and Ramdas Pophale) SiO2 
 PCOD9054936
Probable space group: P -1
;
_chemical_formula_sum "Si O2"
_cell_formula_units_Z 14
_cell_length_a 26.684845
_cell_length_b 14.957961
_cell_length_c 14.753733
_cell_angle_alpha 160.490664
_cell_angle_beta 157.859143
_cell_angle_gamma 20.065912
_cell_volume 630.342727
_symmetry_space_group_name_H-M "P -1"
_symmetry_group_IT_number 2
_symmetry_cell_setting 'triclinic'
loop_
_space_group_symop_operation_xyz
x,y,z
-x,-y,-z
loop_
_atom_site_type_symbol
_atom_site_label
_atom_site_fract_x
_atom_site_fract_y
_atom_site_fract_z
Si Si1 0.631012 0.443404 0.421346
Si Si2 0.800256 0.763833 0.102594
Si Si3 0.110952 0.218403 0.175781
Si Si4 0.928518 0.286970 0.273816
Si Si5 0.642726 0.536027 0.900503
Si Si6 0.542386 0.228428 0.740381
Si Si7 0.726920 0.983819 0.397995
O O1 0.491417 0.451186 0.251479
O O2 0.557099 0.618936 0.371381
O O3 0.760914 0.072205 0.274752
O O4 0.703192 0.618113 0.762024
O O5 0.750489 0.892317 0.245025
O O6 0.980814 0.484022 0.145800
O O7 0.138819 0.411885 0.485173
O O8 0.274790 0.969849 0.168140
O O9 0.042940 0.018295 0.914482
O O10 0.097520 0.210919 0.453144
O O11 0.803654 0.351405 0.049915
O O12 0.663613 0.341163 0.658456
O O13 0.623539 0.865967 0.159125
O O14 0.500000 0.000000 0.500000
O O15 0.500000 0.500000 0.000000
#
# Coordination Sequence:
#
# PCOD9054936 Si02
#       7
#     2   2   2   2   2   2   2
#     4  12  26  45  69  99 139 180 222 283 343 397
#     4  11  25  45  66  98 144 187 223 261 337 406
#     4  11  23  45  73  97 135 182 220 276 343 404
#     4  11  21  39  66  97 139 180 237 273 331 383
#     4  12  23  37  64  98 141 180 238 278 322 375
#     4  12  27  49  77 106 128 163 226 288 348 413
#     4  11  23  38  61 100 139 190 228 277 309 390
#
# _framework density 22.210139000000002
#
# number of rings (size 3 to 8) (size 9 to 14) (size 15 to 20)
#    0.000    0.571    1.429    8.571    2.000    3.429 
#    0.000    4.286    0.000    0.000    0.000    0.000 
#    0.000    0.000    0.000    0.000    0.000    0.000 
#
# Total GULP energy -78446.962730 kJ/mol
# GULP energy per Si atom -5603.354481 kJ/mol
# Density = 2.215959 g / cm^3
# Si number density = 22.210139 Si / 1000 Ang^3
#
#
#
# Elastic Constant Matrix: (Units=GPa)
#
#
# Indices 1 2 3 4 5 6 
#
# 1 62.3258 56.1322 46.5398 -3.1904 -9.3896 2.4404
# 2 56.1322 145.0903 68.1907 -9.9134 -13.2323 16.5974
# 3 46.5398 68.1907 165.4132 11.7032 -18.0201 -1.8473
# 4 -3.1904 -9.9134 11.7032 47.4352 12.1921 -6.6977
# 5 -9.3896 -13.2323 -18.0201 12.1921 31.1665 10.9002
# 6 2.4404 16.5974 -1.8473 -6.6977 10.9002 29.0274
#
#
#
# Elastic Compliance Matrix: (Units=1/GPa)
#
#
# Indices 1 2 3 4 5 6 
#
# 1 0.026892 -0.008662 -0.003947 0.001072 0.000900 0.002350
# 2 -0.008662 0.012749 -0.002515 0.000542 0.003965 -0.008085
# 3 -0.003947 -0.002515 0.009016 -0.004314 0.004803 -0.000455
# 4 0.001072 0.000542 -0.004314 0.028592 -0.017496 0.012493
# 5 0.000900 0.003965 0.004803 -0.017496 0.052708 -0.025867
# 6 0.002350 -0.008085 -0.000455 0.012493 -0.025867 0.051443
#
#
# Mechanical properties :
#
#
# Convention : Reuss Voigt Hill
#
# Bulk Modulus (GPa) = 54.32247 79.39498 66.85873
# Shear Modulus (GPa) = 22.95841 34.99025 28.97433
#
# Velocity S-wave (km/s) = 3.21859 3.97346 3.61578
# Velocity P-wave (km/s) = 6.19064 7.54161 6.89927
#
# Compressibility (1/GPa) = 0.01840859
#
# Stress axis : x y z
#
# Youngs Moduli (GPa) = 37.18592 78.43599 110.91130
#
# Poissons Ratio (x) = 0.67945 0.43773
# Poissons Ratio (y) = 0.32212 0.27897
# Poissons Ratio (z) = 0.14676 0.19729
#
# Static dielectric constant tensor:
#      x y z
#    x 1.784630 0.007300 0.013440 
#    y 0.007300 1.858400 -0.016380 
#    z 0.013440 -0.016380 1.789950 
# 
# From -- ./inp_files/544228.got.cif
#   From: 2010.05.17/outbox.cif.g08.bks.cpg/sg2_273_cif.got.tgz:544228.got - 2010.06.03 11:33:40.
