data_PCOD9054938
_publ_section_title
;
Structure prediction by ZEFSAII (Michael W. Deem and Ramdas Pophale) SiO2 
 PCOD9054938
Probable space group: P -1
;
_chemical_formula_sum "Si O2"
_cell_formula_units_Z 16
_cell_length_a 9.659459
_cell_length_b 11.789289
_cell_length_c 9.639500
_cell_angle_alpha 63.863482
_cell_angle_beta 66.734899
_cell_angle_gamma 106.365255
_cell_volume 754.561322
_symmetry_space_group_name_H-M "P -1"
_symmetry_group_IT_number 2
_symmetry_cell_setting 'triclinic'
loop_
_space_group_symop_operation_xyz
x,y,z
-x,-y,-z
loop_
_atom_site_type_symbol
_atom_site_label
_atom_site_fract_x
_atom_site_fract_y
_atom_site_fract_z
Si Si1 0.788062 0.420418 0.450436
Si Si2 0.402436 0.386422 0.912194
Si Si3 0.503494 0.225471 0.188766
Si Si4 0.630856 0.800056 0.241693
Si Si5 0.342287 0.911933 0.997513
Si Si6 0.282652 0.257551 0.458806
Si Si7 0.998252 0.318845 0.560827
Si Si8 0.818162 0.493603 0.089865
O O1 0.584978 0.278226 0.620555
O O2 0.927604 0.368959 0.433561
O O3 0.795272 0.497551 0.262200
O O4 0.847213 0.534529 0.494358
O O5 0.351843 0.285724 0.848616
O O6 0.563252 0.563355 0.728628
O O7 0.228263 0.391160 0.018984
O O8 0.470515 0.317651 0.035169
O O9 0.566196 0.129064 0.137047
O O10 0.329851 0.161519 0.391976
O O11 0.667115 0.335017 0.167134
O O12 0.697755 0.771258 0.373360
O O13 0.716301 0.976358 0.088328
O O14 0.169851 0.770001 0.218267
O O15 0.500000 0.000000 0.000000
O O16 0.087701 0.229622 0.529252
O O17 0.000000 0.500000 0.000000
#
# Coordination Sequence:
#
# PCOD9054938 Si02
#       8
#     2   2   2   2   2   2   2   2
#     4  11  21  39  66  99 127 169 219 271 316 388
#     4  11  21  39  67  96 130 172 213 270 326 388
#     4  11  24  42  65  97 134 176 211 272 334 388
#     4  12  22  43  71  92 131 178 220 261 326 397
#     4  12  25  45  66  93 134 182 220 258 330 404
#     4  11  23  40  66 103 129 163 222 281 325 377
#     4  11  24  39  68  97 131 170 224 268 320 390
#     4  11  23  36  61 101 137 161 212 276 334 376
#
# _framework density 21.204374000000001
#
# number of rings (size 3 to 8) (size 9 to 14) (size 15 to 20)
#    0.000    0.750    6.250    3.375    5.250    1.000 
#    0.000    0.625    0.000    0.000    0.000    0.000 
#    0.000    0.000    0.000    0.000    0.000    0.000 
#
# Total GULP energy -89347.335195 kJ/mol
# GULP energy per Si atom -5584.208450 kJ/mol
# Density = 2.115611 g / cm^3
# Si number density = 21.204374 Si / 1000 Ang^3
#
#
#
# Elastic Constant Matrix: (Units=GPa)
#
#
# Indices 1 2 3 4 5 6 
#
# 1 99.4768 16.9188 11.7588 12.8807 -10.6889 -7.7677
# 2 16.9188 56.1286 1.1635 21.7279 -6.2943 -17.0188
# 3 11.7588 1.1635 30.3845 6.1121 3.4056 -4.2981
# 4 12.8807 21.7279 6.1121 31.6210 -10.8515 -2.2070
# 5 -10.6889 -6.2943 3.4056 -10.8515 35.3322 13.3331
# 6 -7.7677 -17.0188 -4.2981 -2.2070 13.3331 29.0069
#
#
#
# Elastic Compliance Matrix: (Units=1/GPa)
#
#
# Indices 1 2 3 4 5 6 
#
# 1 0.011522 -0.003195 -0.004863 -0.000359 0.003751 -0.001261
# 2 -0.003195 0.036003 0.010943 -0.028633 -0.014324 0.026295
# 3 -0.004863 0.010943 0.042121 -0.017809 -0.015519 0.017137
# 4 -0.000359 -0.028633 -0.017809 0.061787 0.025505 -0.026557
# 5 0.003751 -0.014324 -0.015519 0.025505 0.047357 -0.029527
# 6 -0.001261 0.026295 0.017137 -0.026557 -0.029527 0.063655
#
#
# Mechanical properties :
#
#
# Convention : Reuss Voigt Hill
#
# Bulk Modulus (GPa) = 10.48059 27.29690 18.88874
# Shear Modulus (GPa) = 17.33215 29.60197 23.46706
#
# Velocity S-wave (km/s) = 2.86210 3.74040 3.33033
# Velocity P-wave (km/s) = 3.98441 5.61741 4.86985
#
# Compressibility (1/GPa) = 0.09541449
#
# Stress axis : x y z
#
# Youngs Moduli (GPa) = 86.79121 27.77523 23.74132
#
# Poissons Ratio (x) = 0.08875 0.11546
# Poissons Ratio (y) = 0.27732 -0.25980
# Poissons Ratio (z) = 0.42210 -0.30394
#
# Static dielectric constant tensor:
#      x y z
#    x 1.821080 -0.060360 -0.011080 
#    y -0.060360 1.762700 0.008370 
#    z -0.011080 0.008370 1.809510 
# 
# From -- ./inp_files/185789.got.cif
#   From: 2010.05.17/outbox.cif.g08.bks.cpg/sg2_93_cif.got.tgz:185789.got - 2010.06.03 11:33:40.
