data_PCOD9054589
_publ_section_title
;
Structure prediction by ZEFSAII (Michael W. Deem and Ramdas Pophale) SiO2 
 PCOD9054589
Probable space group: P -1
;
_chemical_formula_sum "Si O2"
_cell_formula_units_Z 14
_cell_length_a 28.807957
_cell_length_b 22.358531
_cell_length_c 4.919551
_cell_angle_alpha 69.830983
_cell_angle_beta 72.105279
_cell_angle_gamma 12.233935
_cell_volume 623.223454
_symmetry_space_group_name_H-M "P -1"
_symmetry_group_IT_number 2
_symmetry_cell_setting 'triclinic'
loop_
_space_group_symop_operation_xyz
x,y,z
-x,-y,-z
loop_
_atom_site_type_symbol
_atom_site_label
_atom_site_fract_x
_atom_site_fract_y
_atom_site_fract_z
Si Si1 0.638899 0.267521 0.751945
Si Si2 0.372122 0.801283 0.633001
Si Si3 0.808136 0.767165 0.630736
Si Si4 0.880648 0.463074 0.695157
Si Si5 0.143067 0.420678 0.915214
Si Si6 0.158383 0.622888 0.872953
Si Si7 0.604370 0.630404 0.677652
O O1 0.500000 0.500000 0.500000
O O2 0.628963 0.219437 0.642756
O O3 0.562374 0.341430 0.068517
O O4 0.894512 0.961879 0.795123
O O5 0.531459 0.656438 0.642234
O O6 0.121878 0.138907 0.642940
O O7 0.000000 0.500000 0.500000
O O8 0.922436 0.669553 0.792447
O O9 0.619333 0.044915 0.378333
O O10 0.722564 0.812978 0.866308
O O11 0.760175 0.657756 0.372927
O O12 0.904660 0.476238 0.897145
O O13 0.781638 0.522286 0.877747
O O14 0.259451 0.504461 0.581935
O O15 0.255843 0.550663 0.016616
#
# Coordination Sequence:
#
# PCOD9054589 Si02
#       7
#     2   2   2   2   2   2   2
#     4  11  24  47  72  99 129 172 215 257 322 412
#     4  11  22  40  73  98 125 176 225 249 316 404
#     4  11  24  38  64  95 130 172 225 278 318 367
#     4  11  21  41  64  90 127 176 226 261 312 402
#     4  11  21  36  64  89 119 172 234 266 304 367
#     4  11  26  42  65  96 139 166 208 279 341 368
#     4  12  25  42  65 101 134 168 221 276 324 376
#
# _framework density 22.463853
#
# number of rings (size 3 to 8) (size 9 to 14) (size 15 to 20)
#    0.000    0.857    2.857    5.571    6.000    0.000 
#    0.000    8.571    0.000    0.000    0.000    0.000 
#    0.000    0.000    0.000    0.000    0.000    0.000 
#
# Total GULP energy -78382.235403 kJ/mol
# GULP energy per Si atom -5598.731100 kJ/mol
# Density = 2.241272 g / cm^3
# Si number density = 22.463853 Si / 1000 Ang^3
#
#
#
# Elastic Constant Matrix: (Units=GPa)
#
#
# Indices 1 2 3 4 5 6 
#
# 1 61.9380 26.0953 -3.5302 -14.5918 14.8121 0.1329
# 2 26.0953 57.4962 16.8471 -10.5841 -0.9826 -8.7420
# 3 -3.5302 16.8471 90.9172 1.2493 4.8339 8.7364
# 4 -14.5918 -10.5841 1.2493 30.7960 -4.0657 3.5765
# 5 14.8121 -0.9826 4.8339 -4.0657 60.4678 -4.8124
# 6 0.1329 -8.7420 8.7364 3.5765 -4.8124 15.7383
#
#
#
# Elastic Compliance Matrix: (Units=1/GPa)
#
#
# Indices 1 2 3 4 5 6 
#
# 1 0.026461 -0.014680 0.005565 0.008051 -0.007874 -0.015704
# 2 -0.014680 0.030814 -0.008963 0.002136 0.006853 0.023826
# 3 0.005565 -0.008963 0.014443 0.000123 -0.003788 -0.014229
# 4 0.008051 0.002136 0.000123 0.037894 -0.000001 -0.007561
# 5 -0.007874 0.006853 -0.003788 -0.000001 0.019839 0.012042
# 6 -0.015704 0.023826 -0.014229 -0.007561 0.012042 0.090205
#
#
# Mechanical properties :
#
#
# Convention : Reuss Voigt Hill
#
# Bulk Modulus (GPa) = 28.12091 32.13065 30.12578
# Shear Modulus (GPa) = 18.67994 32.79635 25.73815
#
# Velocity S-wave (km/s) = 2.88680 3.82509 3.38858
# Velocity P-wave (km/s) = 4.86384 5.81745 5.36189
#
# Compressibility (1/GPa) = 0.03556073
#
# Stress axis : x y z
#
# Youngs Moduli (GPa) = 37.79204 32.45233 69.23789
#
# Poissons Ratio (x) = 0.47641 -0.38529
# Poissons Ratio (y) = 0.55479 0.62059
# Poissons Ratio (z) = -0.21030 0.29088
#
# Static dielectric constant tensor:
#      x y z
#    x 1.851530 -0.010830 -0.038870 
#    y -0.010830 1.811410 -0.009590 
#    z -0.038870 -0.009590 1.839140 
# 
# From -- ./inp_files/128836.got.cif
#   From: 2010.05.17/outbox.cif.g08.bks.cpg/sg2_65_cif.got.tgz:128836.got - 2010.06.03 11:33:40.
