data_PCOD9054293
_publ_section_title
;
Structure prediction by ZEFSAII (Michael W. Deem and Ramdas Pophale) SiO2 
 PCOD9054293
Probable space group: P -1
;
_chemical_formula_sum "Si O2"
_cell_formula_units_Z 15
_cell_length_a 9.027154
_cell_length_b 24.598563
_cell_length_c 21.269713
_cell_angle_alpha 17.066904
_cell_angle_beta 30.553285
_cell_angle_gamma 32.850814
_cell_volume 700.129264
_symmetry_space_group_name_H-M "P -1"
_symmetry_group_IT_number 2
_symmetry_cell_setting 'triclinic'
loop_
_space_group_symop_operation_xyz
x,y,z
-x,-y,-z
loop_
_atom_site_type_symbol
_atom_site_label
_atom_site_fract_x
_atom_site_fract_y
_atom_site_fract_z
Si Si1 0.290279 0.592800 0.307227
Si Si2 0.903098 0.736584 0.706121
Si Si3 0.527202 0.498823 0.191495
Si Si4 0.300669 0.564588 0.560766
Si Si5 0.797854 0.097450 0.411571
Si Si6 0.154062 0.530662 0.082396
Si Si7 0.000000 0.000000 0.000000
Si Si8 0.820170 0.800870 0.410170
O O1 0.448042 0.600628 0.173565
O O2 0.484224 0.455686 0.435575
O O3 0.000000 0.500000 0.500000
O O4 0.199232 0.792300 0.151228
O O5 0.206985 0.661966 0.712058
O O6 0.835074 0.955969 0.495983
O O7 0.651290 0.637476 0.943507
O O8 0.922966 0.654209 0.720402
O O9 0.267839 0.390767 0.378024
O O10 0.500000 0.500000 0.500000
O O11 0.107203 0.753251 0.400881
O O12 0.044845 0.441739 0.813695
O O13 0.901931 0.293580 0.137374
O O14 0.463713 0.129069 0.522065
O O15 0.000000 0.000000 0.500000
O O16 0.500000 0.500000 0.000000
O O17 0.875879 0.940020 0.180376
#
# Coordination Sequence:
#
# PCOD9054293 Si02
#       8
#     2   2   2   2   2   2   1   2
#     4  12  25  45  74  99 135 189 241 290 356 436
#     4  11  22  39  71 102 137 184 233 295 356 421
#     4  11  20  42  69 101 140 181 234 290 358 422
#     4  12  25  47  72 102 149 195 230 299 373 424
#     4  12  24  40  72 106 140 179 244 302 352 423
#     4  12  25  46  70 102 147 191 235 297 371 427
#     4  12  26  42  74  98 132 184 246 290 356 420
#     4  12  24  45  71 104 144 191 238 300 362 429
#
# _framework density 21.424616
#
# number of rings (size 3 to 8) (size 9 to 14) (size 15 to 20)
#    0.000    0.267    8.000    1.600    1.867    0.533 
#    0.000    0.667    2.933    0.000    0.000    0.000 
#    0.000    0.000    0.000    0.000    0.000    0.000 
#
# Total GULP energy -83579.018076 kJ/mol
# GULP energy per Si atom -5571.934538 kJ/mol
# Density = 2.137585 g / cm^3
# Si number density = 21.424616 Si / 1000 Ang^3
#
#
#
# Elastic Constant Matrix: (Units=GPa)
#
#
# Indices 1 2 3 4 5 6 
#
# 1 96.9133 30.5436 28.9321 2.5040 3.5920 -15.3783
# 2 30.5436 143.7696 32.8152 8.5230 2.4487 11.0910
# 3 28.9321 32.8152 59.6586 12.0836 19.4272 -2.6858
# 4 2.5040 8.5230 12.0836 40.2749 13.9783 -1.9955
# 5 3.5920 2.4487 19.4272 13.9783 28.2015 3.1913
# 6 -15.3783 11.0910 -2.6858 -1.9955 3.1913 44.4995
#
#
#
# Elastic Compliance Matrix: (Units=1/GPa)
#
#
# Indices 1 2 3 4 5 6 
#
# 1 0.013350 -0.001942 -0.005889 0.001072 0.001463 0.004685
# 2 -0.001942 0.008852 -0.005122 -0.001906 0.004357 -0.003585
# 3 -0.005889 -0.005122 0.028694 -0.000618 -0.018523 0.002274
# 4 0.001072 -0.001906 -0.000618 0.030780 -0.015173 0.003277
# 5 0.001463 0.004357 -0.018523 -0.015173 0.055898 -0.006387
# 6 0.004685 -0.003585 0.002274 0.003277 -0.006387 0.025727
#
#
# Mechanical properties :
#
#
# Convention : Reuss Voigt Hill
#
# Bulk Modulus (GPa) = 40.01284 53.88037 46.94660
# Shear Modulus (GPa) = 25.31169 36.46523 30.88846
#
# Velocity S-wave (km/s) = 3.44092 4.13004 3.80113
# Velocity P-wave (km/s) = 5.87395 6.92433 6.42065
#
# Compressibility (1/GPa) = 0.02499198
#
# Stress axis : x y z
#
# Youngs Moduli (GPa) = 74.90576 112.96266 34.84989
#
# Poissons Ratio (x) = 0.21938 0.20522
# Poissons Ratio (y) = 0.14547 0.17849
# Poissons Ratio (z) = 0.44110 0.57857
#
# Static dielectric constant tensor:
#      x y z
#    x 1.828920 0.013460 -0.002040 
#    y 0.013460 1.820580 0.018410 
#    z -0.002040 0.018410 1.769460 
# 
# From -- ./inp_files/204607.got.cif
#   From: 2010.05.17/outbox.cif.g08.bks.cpg/sg2_103_cif.got.tgz:204607.got - 2010.06.03 11:33:40.
