data_PCOD9054442
_publ_section_title
;
Structure prediction by ZEFSAII (Michael W. Deem and Ramdas Pophale) SiO2 
 PCOD9054442
Probable space group: P -1
;
_chemical_formula_sum "Si O2"
_cell_formula_units_Z 16
_cell_length_a 17.730120
_cell_length_b 20.237080
_cell_length_c 11.944973
_cell_angle_alpha 137.519740
_cell_angle_beta 147.591668
_cell_angle_gamma 21.733615
_cell_volume 826.662583
_symmetry_space_group_name_H-M "P -1"
_symmetry_group_IT_number 2
_symmetry_cell_setting 'triclinic'
loop_
_space_group_symop_operation_xyz
x,y,z
-x,-y,-z
loop_
_atom_site_type_symbol
_atom_site_label
_atom_site_fract_x
_atom_site_fract_y
_atom_site_fract_z
Si Si1 0.280941 0.889109 0.229008
Si Si2 0.731315 0.112284 0.526874
Si Si3 0.083243 0.082654 0.856687
Si Si4 0.785367 0.880632 0.714074
Si Si5 0.197343 0.469695 0.175549
Si Si6 0.549337 0.652485 0.887335
Si Si7 0.203419 0.472022 0.713540
Si Si8 0.126269 0.738125 0.425925
O O1 0.325517 0.874598 0.398737
O O2 0.547220 0.686846 0.255480
O O3 0.235656 0.014785 0.261867
O O4 0.000000 0.000000 0.000000
O O5 0.472106 0.276324 0.333332
O O6 0.880683 0.127790 0.719091
O O7 0.918837 0.918455 0.468492
O O8 0.965448 0.192880 0.731478
O O9 0.331792 0.866441 0.870981
O O10 0.158845 0.118902 0.087878
O O11 0.017745 0.673050 0.705857
O O12 0.500000 0.000000 0.500000
O O13 0.234608 0.455254 0.070879
O O14 0.136492 0.617783 0.319123
O O15 0.000000 0.500000 0.000000
O O16 0.400298 0.636978 0.658642
O O17 0.668973 0.587288 0.078639
O O18 0.000000 0.500000 0.500000
#
# Coordination Sequence:
#
# PCOD9054442 Si02
#       8
#     2   2   2   2   2   2   2   2
#     4  12  25  46  67 100 143 176 227 291 339 403
#     4  11  24  44  67  99 135 170 223 284 339 396
#     4  11  20  45  75  96 130 177 232 280 329 409
#     4  12  25  45  71 102 135 186 231 279 349 410
#     4  12  27  41  63 105 138 169 218 281 345 399
#     4  11  21  44  73  97 132 176 232 276 330 412
#     4  12  26  45  72 103 137 186 235 282 342 412
#     4  11  23  44  73  97 127 183 225 273 338 405
#
# _framework density 19.354934
#
# number of rings (size 3 to 8) (size 9 to 14) (size 15 to 20)
#    0.000    0.500    6.250    2.625    3.500    3.000 
#    2.250    0.000    0.000    0.000    0.000    0.000 
#    0.000    0.000    0.000    0.000    0.000    0.000 
#
# Total GULP energy -89439.922884 kJ/mol
# GULP energy per Si atom -5589.995180 kJ/mol
# Density = 1.931088 g / cm^3
# Si number density = 19.354934 Si / 1000 Ang^3
#
#
#
# Elastic Constant Matrix: (Units=GPa)
#
#
# Indices 1 2 3 4 5 6 
#
# 1 139.0131 58.1472 65.8733 6.6115 -3.1228 -19.2048
# 2 58.1472 127.3540 40.0579 -1.3102 20.3645 -14.1020
# 3 65.8733 40.0579 102.3843 2.2237 16.1053 -16.7129
# 4 6.6115 -1.3102 2.2237 27.5583 1.0184 -0.5228
# 5 -3.1228 20.3645 16.1053 1.0184 45.6636 7.0852
# 6 -19.2048 -14.1020 -16.7129 -0.5228 7.0852 30.8963
#
#
#
# Elastic Compliance Matrix: (Units=1/GPa)
#
#
# Indices 1 2 3 4 5 6 
#
# 1 0.012775 -0.004368 -0.007143 -0.002875 0.005277 0.000824
# 2 -0.004368 0.011256 -0.000090 0.001880 -0.005912 0.003761
# 3 -0.007143 -0.000090 0.016522 0.000760 -0.007243 0.006130
# 4 -0.002875 0.001880 0.000760 0.037099 -0.002227 0.000621
# 5 0.005277 -0.005912 -0.007243 -0.002227 0.029059 -0.010038
# 6 0.000824 0.003761 0.006130 0.000621 -0.010038 0.040224
#
#
# Mechanical properties :
#
#
# Convention : Reuss Voigt Hill
#
# Bulk Modulus (GPa) = 57.63960 77.43423 67.53692
# Shear Modulus (GPa) = 28.42186 34.46849 31.44517
#
# Velocity S-wave (km/s) = 3.83620 4.22461 4.03508
# Velocity P-wave (km/s) = 7.03327 7.99317 7.52853
#
# Compressibility (1/GPa) = 0.01734918
#
# Stress axis : x y z
#
# Youngs Moduli (GPa) = 78.27920 88.84018 60.52524
#
# Poissons Ratio (x) = 0.38806 0.43236
# Poissons Ratio (y) = 0.34193 0.00548
# Poissons Ratio (z) = 0.55918 0.00804
#
# Static dielectric constant tensor:
#      x y z
#    x 1.639570 -0.000690 -0.001610 
#    y -0.000690 1.679960 0.019790 
#    z -0.001610 0.019790 1.666090 
# 
# From -- ./inp_files/186366.got.cif
#   From: 2010.05.17/outbox.cif.g08.bks.cpg/sg2_94_cif.got.tgz:186366.got - 2010.06.03 11:33:40.
