data_PCOD9054911
_publ_section_title
;
Structure prediction by ZEFSAII (Michael W. Deem and Ramdas Pophale) SiO2 
 PCOD9054911
Probable space group: P -1
;
_chemical_formula_sum "Si O2"
_cell_formula_units_Z 16
_cell_length_a 10.634176
_cell_length_b 12.971301
_cell_length_c 12.661910
_cell_angle_alpha 149.502586
_cell_angle_beta 101.741599
_cell_angle_gamma 68.578209
_cell_volume 801.966208
_symmetry_space_group_name_H-M "P -1"
_symmetry_group_IT_number 2
_symmetry_cell_setting 'triclinic'
loop_
_space_group_symop_operation_xyz
x,y,z
-x,-y,-z
loop_
_atom_site_type_symbol
_atom_site_label
_atom_site_fract_x
_atom_site_fract_y
_atom_site_fract_z
Si Si1 0.502374 0.357830 0.979096
Si Si2 0.435482 0.321279 0.352857
Si Si3 0.957715 0.806497 0.363462
Si Si4 0.702034 0.886811 0.998691
Si Si5 0.148389 0.974718 0.046525
Si Si6 0.794596 0.660402 0.028342
Si Si7 0.325433 0.481631 0.700838
Si Si8 0.232390 0.106761 0.393050
O O1 0.356068 0.339389 0.964708
O O2 0.627244 0.115933 0.777086
O O3 0.500000 0.500000 0.000000
O O4 0.545098 0.485875 0.193408
O O5 0.500000 0.500000 0.500000
O O6 0.335413 0.307799 0.230693
O O7 0.359828 0.377285 0.499815
O O8 0.557622 0.083932 0.174105
O O9 0.855209 0.755704 0.218892
O O10 0.877854 0.884568 0.528871
O O11 0.000000 0.000000 0.500000
O O12 0.095345 0.583714 0.194648
O O13 0.771386 0.976121 0.996105
O O14 0.782358 0.804428 0.047994
O O15 0.162080 0.116988 0.274692
O O16 0.215954 0.726811 0.882375
O O17 0.000000 0.000000 0.000000
O O18 0.271660 0.317490 0.607914
#
# Coordination Sequence:
#
# PCOD9054911 Si02
#       8
#     2   2   2   2   2   2   2   2
#     4  11  24  44  70  99 129 169 223 277 325 381
#     4  11  21  39  64  95 133 167 208 265 323 378
#     4  11  27  47  67  95 133 173 217 270 330 386
#     4  11  24  40  65  98 133 167 216 266 319 392
#     4  11  26  42  63  96 135 175 214 263 322 390
#     4  11  26  44  68  99 132 170 219 271 324 388
#     4  11  23  42  67  95 131 170 217 271 326 381
#     4  11  25  45  69  97 132 171 221 271 322 392
#
# _framework density 19.950965
#
# number of rings (size 3 to 8) (size 9 to 14) (size 15 to 20)
#    0.000    1.000    2.500    3.000    7.000    9.500 
#    0.000    0.000    0.000    0.000    0.000    0.000 
#    0.000    0.000    0.000    0.000    0.000    0.000 
#
# Total GULP energy -89407.721244 kJ/mol
# GULP energy per Si atom -5587.982578 kJ/mol
# Density = 1.990556 g / cm^3
# Si number density = 19.950965 Si / 1000 Ang^3
#
#
#
# Elastic Constant Matrix: (Units=GPa)
#
#
# Indices 1 2 3 4 5 6 
#
# 1 98.1920 12.3623 36.3635 3.3793 7.1401 -4.0551
# 2 12.3623 82.2074 19.8751 2.7311 -2.0357 -10.0332
# 3 36.3635 19.8751 86.0018 -2.9908 6.3633 -3.3371
# 4 3.3793 2.7311 -2.9908 26.5839 12.1024 7.0002
# 5 7.1401 -2.0357 6.3633 12.1024 30.3193 -1.1293
# 6 -4.0551 -10.0332 -3.3371 7.0002 -1.1293 39.1622
#
#
#
# Elastic Compliance Matrix: (Units=1/GPa)
#
#
# Indices 1 2 3 4 5 6 
#
# 1 0.012293 -0.000473 -0.005032 -0.001852 -0.001093 0.001022
# 2 -0.000473 0.013759 -0.003246 -0.004460 0.003650 0.004102
# 3 -0.005032 -0.003246 0.014937 0.004812 -0.004128 -0.001059
# 4 -0.001852 -0.004460 0.004812 0.051661 -0.021897 -0.010790
# 5 -0.001093 0.003650 -0.004128 -0.021897 0.043301 0.005633
# 6 0.001022 0.004102 -0.001059 -0.010790 0.005633 0.028693
#
#
# Mechanical properties :
#
#
# Convention : Reuss Voigt Hill
#
# Bulk Modulus (GPa) = 42.57563 44.84479 43.71021
# Shear Modulus (GPa) = 26.31920 32.39977 29.35949
#
# Velocity S-wave (km/s) = 3.63601 4.03422 3.84028
# Velocity P-wave (km/s) = 6.24611 6.65028 6.45136
#
# Compressibility (1/GPa) = 0.02348761
#
# Stress axis : x y z
#
# Youngs Moduli (GPa) = 81.34928 72.67762 66.94700
#
# Poissons Ratio (x) = 0.03436 0.33689
# Poissons Ratio (y) = 0.03845 0.21730
# Poissons Ratio (z) = 0.40937 0.23590
#
# Static dielectric constant tensor:
#      x y z
#    x 1.762790 0.073340 0.055650 
#    y 0.073340 1.805080 0.051050 
#    z 0.055650 0.051050 1.731640 
# 
# From -- ./inp_files/429261.got.cif
#   From: 2010.05.17/outbox.cif.g08.bks.cpg/sg2_215_cif.got.tgz:429261.got - 2010.06.03 11:33:40.
