data_PCOD9054602
_publ_section_title
;
Structure prediction by ZEFSAII (Michael W. Deem and Ramdas Pophale) SiO2 
 PCOD9054602
Probable space group: P -1
;
_chemical_formula_sum "Si O2"
_cell_formula_units_Z 14
_cell_length_a 13.999477
_cell_length_b 7.648287
_cell_length_c 12.262434
_cell_angle_alpha 131.446035
_cell_angle_beta 142.047450
_cell_angle_gamma 55.598402
_cell_volume 602.627578
_symmetry_space_group_name_H-M "P -1"
_symmetry_group_IT_number 2
_symmetry_cell_setting 'triclinic'
loop_
_space_group_symop_operation_xyz
x,y,z
-x,-y,-z
loop_
_atom_site_type_symbol
_atom_site_label
_atom_site_fract_x
_atom_site_fract_y
_atom_site_fract_z
Si Si1 0.917032 0.348402 0.490836
Si Si2 0.944696 0.231014 0.155270
Si Si3 0.061565 0.163049 0.762926
Si Si4 0.896892 0.239693 0.865378
Si Si5 0.360638 0.368979 0.168885
Si Si6 0.631345 0.965713 0.758853
Si Si7 0.389860 0.354354 0.603015
O O1 0.943886 0.239548 0.591966
O O2 0.755492 0.508151 0.411487
O O3 0.048633 0.529499 0.674282
O O4 0.926272 0.117503 0.331410
O O5 0.957826 0.293245 0.063611
O O6 0.788042 0.099357 0.969275
O O7 0.090806 0.042729 0.235879
O O8 0.001031 0.276570 0.868842
O O9 0.232242 0.246633 0.931994
O O10 0.730780 0.387569 0.768206
O O11 0.498316 0.551829 0.740513
O O12 0.399895 0.190966 0.229405
O O13 0.492786 0.164714 0.690180
O O14 0.651897 0.789015 0.601989
#
# Coordination Sequence:
#
# PCOD9054602 Si02
#       7
#     2   2   2   2   2   2   2
#     4  11  25  44  64  98 134 179 215 276 332 394
#     4  11  22  40  69  96 134 169 223 280 330 377
#     4  11  24  42  68  96 132 174 229 266 332 393
#     4  11  21  36  70  98 123 168 221 282 319 376
#     4  12  23  42  68 102 130 174 222 275 329 397
#     4  11  23  41  66 102 130 174 220 273 336 387
#     4  11  24  42  64  96 142 171 214 278 330 399
#
# _framework density 23.231596
#
# number of rings (size 3 to 8) (size 9 to 14) (size 15 to 20)
#    0.000    0.857    4.286    3.429    2.000    1.143 
#    0.000    0.714    0.000    0.000    0.000    0.000 
#    0.000    0.000    0.000    0.000    0.000    0.000 
#
# Total GULP energy -78318.564661 kJ/mol
# GULP energy per Si atom -5594.183190 kJ/mol
# Density = 2.317872 g / cm^3
# Si number density = 23.231596 Si / 1000 Ang^3
#
#
#
# Elastic Constant Matrix: (Units=GPa)
#
#
# Indices 1 2 3 4 5 6 
#
# 1 65.7080 31.8297 24.3965 -5.2360 5.9624 10.0272
# 2 31.8297 146.2611 39.0440 6.0268 -2.3220 10.6796
# 3 24.3965 39.0440 88.5988 19.4637 -1.2522 -1.6630
# 4 -5.2360 6.0268 19.4637 51.3536 2.5054 -9.5723
# 5 5.9624 -2.3220 -1.2522 2.5054 30.5490 4.9010
# 6 10.0272 10.6796 -1.6630 -9.5723 4.9010 34.8223
#
#
#
# Elastic Compliance Matrix: (Units=1/GPa)
#
#
# Indices 1 2 3 4 5 6 
#
# 1 0.019718 -0.002899 -0.005120 0.003854 -0.004049 -0.003404
# 2 -0.002899 0.008432 -0.002778 -0.000735 0.001522 -0.002300
# 3 -0.005120 -0.002778 0.015249 -0.005832 0.001697 0.001212
# 4 0.003854 -0.000735 -0.005832 0.023440 -0.003905 0.005830
# 5 -0.004049 0.001522 0.001697 -0.003905 0.034864 -0.005200
# 6 -0.003404 -0.002300 0.001212 0.005830 -0.005200 0.032795
#
#
# Mechanical properties :
#
#
# Convention : Reuss Voigt Hill
#
# Bulk Modulus (GPa) = 45.85942 54.56760 50.21351
# Shear Modulus (GPa) = 30.60736 37.03150 33.81943
#
# Velocity S-wave (km/s) = 3.63366 3.99684 3.81957
# Velocity P-wave (km/s) = 6.11454 6.69621 6.41197
#
# Compressibility (1/GPa) = 0.02180577
#
# Stress axis : x y z
#
# Youngs Moduli (GPa) = 50.71508 118.59777 65.57935
#
# Poissons Ratio (x) = 0.34380 0.33576
# Poissons Ratio (y) = 0.14702 0.18216
# Poissons Ratio (z) = 0.25965 0.32942
#
# Static dielectric constant tensor:
#      x y z
#    x 1.884840 0.067050 0.008070 
#    y 0.067050 1.901840 0.003970 
#    z 0.008070 0.003970 1.904890 
# 
# From -- ./inp_files/540332.got.cif
#   From: 2010.05.17/outbox.cif.g08.bks.cpg/sg2_271_cif.got.tgz:540332.got - 2010.06.03 11:33:40.
