data_PCOD9054462
_publ_section_title
;
Structure prediction by ZEFSAII (Michael W. Deem and Ramdas Pophale) SiO2 
 PCOD9054462
Probable space group: P -1
;
_chemical_formula_sum "Si O2"
_cell_formula_units_Z 14
_cell_length_a 7.938525
_cell_length_b 10.541933
_cell_length_c 9.313014
_cell_angle_alpha 101.551339
_cell_angle_beta 48.045151
_cell_angle_gamma 116.614719
_cell_volume 512.382432
_symmetry_space_group_name_H-M "P -1"
_symmetry_group_IT_number 2
_symmetry_cell_setting 'triclinic'
loop_
_space_group_symop_operation_xyz
x,y,z
-x,-y,-z
loop_
_atom_site_type_symbol
_atom_site_label
_atom_site_fract_x
_atom_site_fract_y
_atom_site_fract_z
Si Si1 0.851277 0.131338 0.257029
Si Si2 0.881591 0.379878 0.657939
Si Si3 0.661289 0.813082 0.207422
Si Si4 0.399669 0.574774 0.954161
Si Si5 0.380921 0.731531 0.765590
Si Si6 0.810375 0.881247 0.726897
Si Si7 0.014125 0.792695 0.216013
O O1 0.726146 0.236112 0.312461
O O2 0.944773 0.137528 0.367866
O O3 0.678008 0.968603 0.272395
O O4 0.104944 0.165763 0.026803
O O5 0.606067 0.283671 0.728993
O O6 0.863260 0.461003 0.832197
O O7 0.002771 0.283903 0.639175
O O8 0.000000 0.500000 0.500000
O O9 0.747540 0.751815 0.283042
O O10 0.500000 0.500000 0.000000
O O11 0.373049 0.580415 0.796617
O O12 0.589528 0.742675 0.894191
O O13 0.670214 0.853359 0.647282
O O14 0.198246 0.763257 0.991973
O O15 0.853926 0.035426 0.795193
#
# Coordination Sequence:
#
# PCOD9054462 Si02
#       7
#     2   2   2   2   2   2   2
#     4   9  13  24  45  75  95 111 151 209 249 255
#     4  11  21  32  49  70 102 132 153 188 239 294
#     4   9  16  25  45  73 100 115 151 205 242 276
#     4   9  19  33  47  68 100 129 157 193 235 279
#     4   8  15  22  44  66  96 114 149 194 243 270
#     4   9  15  25  48  69  96 116 152 212 234 269
#     4   9  16  27  46  75  91 119 158 204 244 260
#
# _framework density 27.323338
#
# number of rings (size 3 to 8) (size 9 to 14) (size 15 to 20)
#    0.857    2.000    1.429    2.143    0.000    0.571 
#    0.000    0.714    0.000    0.857    0.000    2.000 
#    0.000    0.000    0.000    0.000    0.000    0.000 
#
# Total GULP energy -78008.633328 kJ/mol
# GULP energy per Si atom -5572.045238 kJ/mol
# Density = 2.726115 g / cm^3
# Si number density = 27.323338 Si / 1000 Ang^3
#
#
#
# Elastic Constant Matrix: (Units=GPa)
#
#
# Indices 1 2 3 4 5 6 
#
# 1 181.9044 43.4525 34.2568 -25.0643 -1.7651 -44.6733
# 2 43.4525 80.6558 33.1320 -21.5492 1.1102 -31.1691
# 3 34.2568 33.1320 92.4194 -22.5610 6.8514 -6.6541
# 4 -25.0643 -21.5492 -22.5610 46.4981 -8.0990 7.9622
# 5 -1.7651 1.1102 6.8514 -8.0990 48.4697 -11.8649
# 6 -44.6733 -31.1691 -6.6541 7.9622 -11.8649 53.3570
#
#
#
# Elastic Compliance Matrix: (Units=1/GPa)
#
#
# Indices 1 2 3 4 5 6 
#
# 1 0.007867 -0.000384 -0.001901 0.002499 0.002527 0.006314
# 2 -0.000384 0.020471 -0.005355 0.005472 0.003885 0.011016
# 3 -0.001901 -0.005355 0.014226 0.003678 -0.002325 -0.004012
# 4 0.002499 0.005472 0.003678 0.027533 0.004704 0.002685
# 5 0.002527 0.003885 -0.002325 0.004704 0.023880 0.008703
# 6 0.006314 0.011016 -0.004012 0.002685 0.008703 0.031497
#
#
# Mechanical properties :
#
#
# Convention : Reuss Voigt Hill
#
# Bulk Modulus (GPa) = 36.65370 64.07359 50.36365
# Shear Modulus (GPa) = 33.36686 45.94084 39.65385
#
# Velocity S-wave (km/s) = 3.49834 4.10491 3.81370
# Velocity P-wave (km/s) = 5.45543 6.77998 6.15345
#
# Compressibility (1/GPa) = 0.02728237
#
# Stress axis : x y z
#
# Youngs Moduli (GPa) = 127.11950 48.84987 70.29350
#
# Poissons Ratio (x) = 0.01878 0.13361
# Poissons Ratio (y) = 0.04887 0.37645
# Poissons Ratio (z) = 0.24163 0.26161
#
# Static dielectric constant tensor:
#      x y z
#    x 2.316450 -0.063260 0.112540 
#    y -0.063260 2.673380 -0.028740 
#    z 0.112540 -0.028740 2.219040 
# 
# From -- ./inp_files/281415.got.cif
#   From: 2010.05.17/outbox.cif.g08.bks.cpg/sg2_141_cif.got.tgz:281415.got - 2010.06.03 11:33:40.
