data_PCOD9054681
_publ_section_title
;
Structure prediction by ZEFSAII (Michael W. Deem and Ramdas Pophale) SiO2 
 PCOD9054681
Probable space group: P -1
;
_chemical_formula_sum "Si O2"
_cell_formula_units_Z 12
_cell_length_a 8.089476
_cell_length_b 8.332459
_cell_length_c 18.436622
_cell_angle_alpha 139.900858
_cell_angle_beta 35.677785
_cell_angle_gamma 127.589747
_cell_volume 466.632478
_symmetry_space_group_name_H-M "P -1"
_symmetry_group_IT_number 2
_symmetry_cell_setting 'triclinic'
loop_
_space_group_symop_operation_xyz
x,y,z
-x,-y,-z
loop_
_atom_site_type_symbol
_atom_site_label
_atom_site_fract_x
_atom_site_fract_y
_atom_site_fract_z
Si Si1 0.229053 0.427663 0.686174
Si Si2 0.376726 0.205202 0.272200
Si Si3 0.326875 0.048701 0.400101
Si Si4 0.171176 0.988382 0.644882
Si Si5 0.829654 0.745303 0.119097
Si Si6 0.717358 0.722661 0.985308
O O1 0.444116 0.547303 0.708042
O O2 0.381936 0.268402 0.513644
O O3 0.052268 0.229006 0.725892
O O4 0.991805 0.622634 0.808792
O O5 0.395201 0.149083 0.331880
O O6 0.551438 0.963712 0.094863
O O7 0.049724 0.218814 0.370232
O O8 0.487797 0.782199 0.263033
O O9 0.000000 0.000000 0.500000
O O10 0.107796 0.042668 0.770600
O O11 0.500000 0.000000 0.500000
O O12 0.855150 0.780339 0.035803
O O13 0.000000 0.500000 0.000000
O O14 0.500000 0.500000 0.000000
#
# Coordination Sequence:
#
# PCOD9054681 Si02
#       6
#     2   2   2   2   2   2
#     4  12  22  39  67  92 126 163 213 260 313 369
#     4  11  24  40  64  95 124 163 215 261 309 373
#     4  11  21  41  65  93 123 166 213 260 310 370
#     4  12  23  42  63  90 128 166 206 258 320 375
#     4  11  21  37  65  91 123 165 208 253 315 380
#     4  11  21  41  68  91 124 168 208 258 316 373
#
# _framework density 25.716170000000002
#
# number of rings (size 3 to 8) (size 9 to 14) (size 15 to 20)
#    0.000    0.667    6.667    2.000    0.000    0.667 
#    0.000    0.833    3.667    0.000    0.000    0.000 
#    0.000    0.000    0.000    0.000    0.000    0.000 
#
# Total GULP energy -66906.989644 kJ/mol
# GULP energy per Si atom -5575.582470 kJ/mol
# Density = 2.565764 g / cm^3
# Si number density = 25.716170 Si / 1000 Ang^3
#
#
#
# Elastic Constant Matrix: (Units=GPa)
#
#
# Indices 1 2 3 4 5 6 
#
# 1 74.0532 -2.7353 32.3245 2.8552 2.0357 14.3515
# 2 -2.7353 96.6111 30.0353 8.0200 -12.1000 36.9644
# 3 32.3245 30.0353 182.2653 6.4128 -34.3027 18.9196
# 4 2.8552 8.0200 6.4128 31.6950 7.2965 -2.4470
# 5 2.0357 -12.1000 -34.3027 7.2965 49.6958 -4.5266
# 6 14.3515 36.9644 18.9196 -2.4470 -4.5266 43.3901
#
#
#
# Elastic Compliance Matrix: (Units=1/GPa)
#
#
# Indices 1 2 3 4 5 6 
#
# 1 0.016865 0.004616 -0.003218 -0.002174 -0.002240 -0.008464
# 2 0.004616 0.018081 -0.001339 -0.006625 0.002765 -0.016431
# 3 -0.003218 -0.001339 0.007384 -0.002098 0.005156 -0.000595
# 4 -0.002174 -0.006625 -0.002098 0.036237 -0.007515 0.008538
# 5 -0.002240 0.002765 0.005156 -0.007515 0.025401 -0.001637
# 6 -0.008464 -0.016431 -0.000595 0.008538 -0.001637 0.040414
#
#
# Mechanical properties :
#
#
# Convention : Reuss Voigt Hill
#
# Bulk Modulus (GPa) = 23.55854 52.46426 38.01140
# Shear Modulus (GPa) = 31.56313 44.50986 38.03650
#
# Velocity S-wave (km/s) = 3.50718 4.16482 3.85006
# Velocity P-wave (km/s) = 5.05779 6.60100 5.88024
#
# Compressibility (1/GPa) = 0.04244746
#
# Stress axis : x y z
#
# Youngs Moduli (GPa) = 59.29537 55.30702 135.42907
#
# Poissons Ratio (x) = -0.25531 0.43583
# Poissons Ratio (y) = -0.27372 0.18135
# Poissons Ratio (z) = 0.19082 0.07406
#
# Static dielectric constant tensor:
#      x y z
#    x 2.189560 -0.025630 0.013760 
#    y -0.025630 2.179370 -0.033270 
#    z 0.013760 -0.033270 2.173520 
# 
# From -- ./inp_files/155245.got.cif
#   From: 2010.05.17/outbox.cif.g08.bks.cpg/sg2_78_cif.got.tgz:155245.got - 2010.06.03 11:33:40.
