data_PCOD9054964
_publ_section_title
;
Structure prediction by ZEFSAII (Michael W. Deem and Ramdas Pophale) SiO2 
 PCOD9054964
Probable space group: P -1
;
_chemical_formula_sum "Si O2"
_cell_formula_units_Z 14
_cell_length_a 18.268108
_cell_length_b 10.007240
_cell_length_c 12.804104
_cell_angle_alpha 145.061919
_cell_angle_beta 32.302853
_cell_angle_gamma 154.333994
_cell_volume 524.546059
_symmetry_space_group_name_H-M "P -1"
_symmetry_group_IT_number 2
_symmetry_cell_setting 'triclinic'
loop_
_space_group_symop_operation_xyz
x,y,z
-x,-y,-z
loop_
_atom_site_type_symbol
_atom_site_label
_atom_site_fract_x
_atom_site_fract_y
_atom_site_fract_z
Si Si1 0.443561 0.155363 0.739181
Si Si2 0.181981 0.302358 0.269656
Si Si3 0.132747 0.687696 0.286796
Si Si4 0.365239 0.148063 0.488094
Si Si5 0.702096 0.767551 0.715041
Si Si6 0.921798 0.798380 0.102507
Si Si7 0.260836 0.600626 0.720384
O O1 0.600950 0.382717 0.783470
O O2 0.493540 0.436309 0.785106
O O3 0.500000 0.000000 0.500000
O O4 0.256019 0.841074 0.818971
O O5 0.181374 0.109777 0.240215
O O6 0.050346 0.363957 0.504652
O O7 0.108242 0.127307 0.136663
O O8 0.253771 0.855619 0.353751
O O9 0.265928 0.962679 0.214569
O O10 0.075135 0.374751 0.107795
O O11 0.500000 0.500000 0.500000
O O12 0.212255 0.136524 0.718188
O O13 0.517941 0.179977 0.384992
O O14 0.782819 0.658765 0.472805
O O15 0.838382 0.564190 0.155762
#
# Coordination Sequence:
#
# PCOD9054964 Si02
#       7
#     2   2   2   2   2   2   2
#     4   8  18  32  59  75 102 147 172 208 268 314
#     4   9  19  36  54  78 110 136 173 220 256 322
#     4  11  19  33  55  83 106 139 174 217 271 298
#     4   9  18  34  54  78 108 135 178 224 252 310
#     4   9  17  32  54  78 106 132 173 217 254 320
#     4  10  21  32  56  82 106 138 176 220 260 311
#     4  10  17  36  55  79 105 140 178 214 267 305
#
# _framework density 26.689744999999998
#
# number of rings (size 3 to 8) (size 9 to 14) (size 15 to 20)
#    0.857    1.714    4.286    0.429    0.000    2.857 
#    0.000    3.571    6.286    1.714    0.000    0.000 
#    0.000    0.000    0.000    0.000    0.000    0.000 
#
# Total GULP energy -78165.640236 kJ/mol
# GULP energy per Si atom -5583.260017 kJ/mol
# Density = 2.662900 g / cm^3
# Si number density = 26.689745 Si / 1000 Ang^3
#
#
#
# Elastic Constant Matrix: (Units=GPa)
#
#
# Indices 1 2 3 4 5 6 
#
# 1 64.6841 15.0065 42.6789 4.2032 16.1404 7.6408
# 2 15.0065 99.5800 36.2308 8.8080 6.4358 -25.1946
# 3 42.6789 36.2308 198.4038 12.5939 38.9342 19.3550
# 4 4.2032 8.8080 12.5939 32.5258 11.2667 8.6075
# 5 16.1404 6.4358 38.9342 11.2667 30.9325 9.4353
# 6 7.6408 -25.1946 19.3550 8.6075 9.4353 44.2210
#
#
#
# Elastic Compliance Matrix: (Units=1/GPa)
#
#
# Indices 1 2 3 4 5 6 
#
# 1 0.019403 -0.002574 -0.002256 0.002117 -0.006659 -0.002823
# 2 -0.002574 0.014812 -0.003023 -0.005720 0.000746 0.011161
# 3 -0.002256 -0.003023 0.007790 0.001617 -0.007536 -0.003449
# 4 0.002117 -0.005720 0.001617 0.038334 -0.013173 -0.008983
# 5 -0.006659 0.000746 -0.007536 -0.013173 0.050981 -0.003440
# 6 -0.002823 0.011161 -0.003449 -0.008983 -0.003440 0.033452
#
#
# Mechanical properties :
#
#
# Convention : Reuss Voigt Hill
#
# Bulk Modulus (GPa) = 38.02529 61.16671 49.59600
# Shear Modulus (GPa) = 26.42075 39.45265 32.93670
#
# Velocity S-wave (km/s) = 3.14971 3.84890 3.51673
# Velocity P-wave (km/s) = 5.24459 6.53601 5.92559
#
# Compressibility (1/GPa) = 0.02629829
#
# Stress axis : x y z
#
# Youngs Moduli (GPa) = 51.53836 67.51484 128.36558
#
# Poissons Ratio (x) = 0.17381 0.28958
# Poissons Ratio (y) = 0.13268 0.38805
# Poissons Ratio (z) = 0.11626 0.20410
#
# Static dielectric constant tensor:
#      x y z
#    x 2.114590 -0.041560 -0.073870 
#    y -0.041560 2.106430 0.000600 
#    z -0.073870 0.000600 2.146730 
# 
# From -- ./inp_files/431010.got.cif
#   From: 2010.05.17/outbox.cif.g08.bks.cpg/sg2_216_cif.got.tgz:431010.got - 2010.06.03 11:33:40.
