data_PCOD9054970
_publ_section_title
;
Structure prediction by ZEFSAII (Michael W. Deem and Ramdas Pophale) SiO2 
 PCOD9054970
Probable space group: P -1
;
_chemical_formula_sum "Si O2"
_cell_formula_units_Z 16
_cell_length_a 17.671805
_cell_length_b 11.419271
_cell_length_c 19.638959
_cell_angle_alpha 32.383425
_cell_angle_beta 20.958197
_cell_angle_gamma 39.719559
_cell_volume 755.302936
_symmetry_space_group_name_H-M "P -1"
_symmetry_group_IT_number 2
_symmetry_cell_setting 'triclinic'
loop_
_space_group_symop_operation_xyz
x,y,z
-x,-y,-z
loop_
_atom_site_type_symbol
_atom_site_label
_atom_site_fract_x
_atom_site_fract_y
_atom_site_fract_z
Si Si1 0.214450 0.993841 0.279364
Si Si2 0.297422 0.415648 0.785369
Si Si3 0.447708 0.617750 0.216745
Si Si4 0.010883 0.467871 0.587400
Si Si5 0.097775 0.075482 0.535581
Si Si6 0.747828 0.341365 0.434311
Si Si7 0.995268 0.984987 0.822179
Si Si8 0.172104 0.603587 0.935407
O O1 0.323765 0.767495 0.300328
O O2 0.134548 0.008345 0.260301
O O3 0.000000 0.000000 0.500000
O O4 0.388786 0.195691 0.047834
O O5 0.538061 0.416109 0.606265
O O6 0.282962 0.589161 0.652607
O O7 0.167162 0.478758 0.928408
O O8 0.208171 0.183519 0.942618
O O9 0.604608 0.442025 0.196741
O O10 0.255079 0.510878 0.385364
O O11 0.882458 0.665635 0.625752
O O12 0.000000 0.500000 0.500000
O O13 0.937019 0.214632 0.788701
O O14 0.245573 0.919591 0.448575
O O15 0.102601 0.037956 0.631347
O O16 0.967045 0.477540 0.207811
O O17 0.131238 0.850170 0.826592
#
# Coordination Sequence:
#
# PCOD9054970 Si02
#       8
#     2   2   2   2   2   2   2   2
#     4  10  21  36  57  82 114 142 177 230 277 324
#     4  10  19  30  55  85 111 144 172 220 283 322
#     4  10  21  36  56  83 109 144 182 225 279 319
#     4   9  21  37  57  72 108 156 188 221 261 324
#     4  10  17  36  55  79 113 136 184 230 259 322
#     4  10  18  31  52  86 112 136 175 225 273 324
#     4  10  18  36  58  78 114 152 180 221 272 320
#     4  11  19  33  57  86 114 133 178 236 276 327
#
# _framework density 21.183551999999999
#
# number of rings (size 3 to 8) (size 9 to 14) (size 15 to 20)
#    0.000    2.000    3.750    0.750    1.750    0.500 
#    0.000    0.625    8.250    0.000    0.000    7.875 
#    0.000    0.000    0.000    0.000    0.000    0.000 
#
# Total GULP energy -89152.224538 kJ/mol
# GULP energy per Si atom -5572.014034 kJ/mol
# Density = 2.113534 g / cm^3
# Si number density = 21.183552 Si / 1000 Ang^3
#
#
#
# Elastic Constant Matrix: (Units=GPa)
#
#
# Indices 1 2 3 4 5 6 
#
# 1 64.0338 12.7258 5.9838 -5.4824 -8.5756 -30.4125
# 2 12.7258 138.7602 44.4890 -15.9762 4.2220 -28.9591
# 3 5.9838 44.4890 53.9566 -3.0425 -1.0348 -3.4952
# 4 -5.4824 -15.9762 -3.0425 48.6306 -0.0415 -0.7908
# 5 -8.5756 4.2220 -1.0348 -0.0415 21.2556 0.3184
# 6 -30.4125 -28.9591 -3.4952 -0.7908 0.3184 33.8845
#
#
#
# Elastic Compliance Matrix: (Units=1/GPa)
#
#
# Indices 1 2 3 4 5 6 
#
# 1 0.033777 0.006722 -0.006424 0.006200 0.011461 0.035435
# 2 0.006722 0.014428 -0.011251 0.005075 -0.000951 0.017331
# 3 -0.006424 -0.011251 0.027564 -0.002900 0.001168 -0.012617
# 4 0.006200 0.005075 -0.002900 0.022914 0.001246 0.010126
# 5 0.011461 -0.000951 0.001168 0.001246 0.051782 0.009137
# 6 0.035435 0.017331 -0.012617 0.010126 0.009137 0.074977
#
#
# Mechanical properties :
#
#
# Convention : Reuss Voigt Hill
#
# Bulk Modulus (GPa) = 18.56540 42.57199 30.56869
# Shear Modulus (GPa) = 18.84657 33.65761 26.25209
#
# Velocity S-wave (km/s) = 2.98599 3.99037 3.52414
# Velocity P-wave (km/s) = 4.54656 6.43204 5.56966
#
# Compressibility (1/GPa) = 0.05386363
#
# Stress axis : x y z
#
# Youngs Moduli (GPa) = 29.60628 69.31178 36.27895
#
# Poissons Ratio (x) = -0.46594 0.23305
# Poissons Ratio (y) = -0.19903 0.40817
# Poissons Ratio (z) = 0.19019 0.77982
#
# Static dielectric constant tensor:
#      x y z
#    x 1.832200 -0.052750 0.021970 
#    y -0.052750 1.811380 -0.021260 
#    z 0.021970 -0.021260 1.756840 
# 
# From -- ./inp_files/423294.got.cif
#   From: 2010.05.17/outbox.cif.g08.bks.cpg/sg2_212_cif.got.tgz:423294.got - 2010.06.03 11:33:40.
