data_PCOD9054709
_publ_section_title
;
Structure prediction by ZEFSAII (Michael W. Deem and Ramdas Pophale) SiO2 
 PCOD9054709
Probable space group: P -1
;
_chemical_formula_sum "Si O2"
_cell_formula_units_Z 16
_cell_length_a 9.634139
_cell_length_b 12.785537
_cell_length_c 11.832938
_cell_angle_alpha 96.035262
_cell_angle_beta 55.680578
_cell_angle_gamma 132.320838
_cell_volume 795.112394
_symmetry_space_group_name_H-M "P -1"
_symmetry_group_IT_number 2
_symmetry_cell_setting 'triclinic'
loop_
_space_group_symop_operation_xyz
x,y,z
-x,-y,-z
loop_
_atom_site_type_symbol
_atom_site_label
_atom_site_fract_x
_atom_site_fract_y
_atom_site_fract_z
Si Si1 0.555785 0.481768 0.344925
Si Si2 0.664275 0.890558 0.154364
Si Si3 0.390606 0.067229 0.553204
Si Si4 0.832177 0.420904 0.288797
Si Si5 0.090135 0.216732 0.939787
Si Si6 0.959269 0.766713 0.592220
Si Si7 0.788710 0.587790 0.884382
Si Si8 0.898340 0.362830 0.615000
O O1 0.500000 0.500000 0.500000
O O2 0.705560 0.440368 0.260059
O O3 0.735949 0.652671 0.221864
O O4 0.296401 0.341083 0.376414
O O5 0.668705 0.923382 0.290112
O O6 0.787374 0.834378 0.080257
O O7 0.379846 0.740435 0.231129
O O8 0.803935 0.043970 0.032667
O O9 0.609969 0.242184 0.418829
O O10 0.500000 0.000000 0.500000
O O11 0.138550 0.944374 0.575868
O O12 0.087387 0.470876 0.159958
O O13 0.907629 0.540972 0.362528
O O14 0.090551 0.294963 0.053078
O O15 0.890394 0.671209 0.726225
O O16 0.121275 0.760151 0.444959
O O17 0.500000 0.500000 0.000000
O O18 0.000000 0.500000 0.500000
#
# Coordination Sequence:
#
# PCOD9054709 Si02
#       8
#     2   2   2   2   2   2   2   2
#     4  12  26  46  66  95 141 182 222 269 344 421
#     4  11  21  37  68 102 128 175 226 286 338 379
#     4  12  20  39  69 104 130 161 231 294 333 380
#     4  12  25  40  70  98 135 185 220 268 347 405
#     4  11  24  40  63  97 139 174 222 281 335 396
#     4  12  23  39  69 101 129 171 223 289 326 386
#     4  12  22  40  67  98 131 167 233 283 321 384
#     4  12  19  37  68 102 127 169 233 275 325 394
#
# _framework density 20.122941999999998
#
# number of rings (size 3 to 8) (size 9 to 14) (size 15 to 20)
#    0.000    0.250    8.750    2.250    0.000    1.000 
#    0.000    0.625    0.000    0.000    0.000    0.000 
#    0.000    0.000    0.000    0.000    0.000    0.000 
#
# Total GULP energy -89115.224287 kJ/mol
# GULP energy per Si atom -5569.701518 kJ/mol
# Density = 2.007714 g / cm^3
# Si number density = 20.122942 Si / 1000 Ang^3
#
#
#
# Elastic Constant Matrix: (Units=GPa)
#
#
# Indices 1 2 3 4 5 6 
#
# 1 85.0023 26.5382 28.7203 -6.8853 -16.4564 11.3224
# 2 26.5382 105.0959 29.0398 -7.4331 -0.0380 16.2189
# 3 28.7203 29.0398 47.2613 -12.3643 -6.5644 -1.8950
# 4 -6.8853 -7.4331 -12.3643 51.3767 2.8558 -9.0021
# 5 -16.4564 -0.0380 -6.5644 2.8558 27.8070 0.7526
# 6 11.3224 16.2189 -1.8950 -9.0021 0.7526 29.3567
#
#
#
# Elastic Compliance Matrix: (Units=1/GPa)
#
#
# Indices 1 2 3 4 5 6 
#
# 1 0.018001 -0.000611 -0.010218 -0.002038 0.008669 -0.008112
# 2 -0.000611 0.013227 -0.008776 -0.001581 -0.002035 -0.008071
# 3 -0.010218 -0.008776 0.035622 0.008252 0.001135 0.013590
# 4 -0.002038 -0.001581 0.008252 0.022660 -0.001836 0.009188
# 5 0.008669 -0.002035 0.001135 -0.001836 0.041649 -0.003777
# 6 -0.008112 -0.008071 0.013590 0.009188 -0.003777 0.045443
#
#
# Mechanical properties :
#
#
# Convention : Reuss Voigt Hill
#
# Bulk Modulus (GPa) = 36.17923 45.10626 40.64274
# Shear Modulus (GPa) = 22.21949 31.91216 27.06582
#
# Velocity S-wave (km/s) = 3.32654 3.98661 3.67143
# Velocity P-wave (km/s) = 5.72473 6.60717 6.18172
#
# Compressibility (1/GPa) = 0.02764017
#
# Stress axis : x y z
#
# Youngs Moduli (GPa) = 55.55096 75.60008 28.07232
#
# Poissons Ratio (x) = 0.04622 0.28685
# Poissons Ratio (y) = 0.03396 0.24637
# Poissons Ratio (z) = 0.56763 0.66347
#
# Static dielectric constant tensor:
#      x y z
#    x 1.788260 0.016420 -0.069400 
#    y 0.016420 1.714250 -0.022340 
#    z -0.069400 -0.022340 1.759020 
# 
# From -- ./inp_files/392020.got.cif
#   From: 2010.05.17/outbox.cif.g08.bks.cpg/sg2_197_cif.got.tgz:392020.got - 2010.06.03 11:33:40.
