data_PCOD9054333
_publ_section_title
;
Structure prediction by ZEFSAII (Michael W. Deem and Ramdas Pophale) SiO2 
 PCOD9054333
Probable space group: P -1
;
_chemical_formula_sum "Si O2"
_cell_formula_units_Z 15
_cell_length_a 8.218856
_cell_length_b 11.394525
_cell_length_c 7.907402
_cell_angle_alpha 104.237124
_cell_angle_beta 65.593053
_cell_angle_gamma 114.507510
_cell_volume 611.108172
_symmetry_space_group_name_H-M "P -1"
_symmetry_group_IT_number 2
_symmetry_cell_setting 'triclinic'
loop_
_space_group_symop_operation_xyz
x,y,z
-x,-y,-z
loop_
_atom_site_type_symbol
_atom_site_label
_atom_site_fract_x
_atom_site_fract_y
_atom_site_fract_z
Si Si1 0.310247 0.892431 0.972257
Si Si2 0.282226 0.915554 0.594941
Si Si3 0.222123 0.214562 0.020083
Si Si4 0.913101 0.547041 0.808702
Si Si5 0.275089 0.631919 0.487650
Si Si6 0.992589 0.961408 0.244941
Si Si7 0.401280 0.641357 0.903847
Si Si8 0.500000 0.500000 0.500000
O O1 0.255735 0.918886 0.813031
O O2 0.353095 0.761694 0.897311
O O3 0.140525 0.886050 0.173098
O O4 0.500000 0.000000 0.000000
O O5 0.257035 0.768993 0.507393
O O6 0.500000 0.000000 0.500000
O O7 0.143252 0.976019 0.576322
O O8 0.112520 0.315075 0.124871
O O9 0.442961 0.295353 0.992018
O O10 0.166646 0.142768 0.840613
O O11 0.137411 0.095301 0.145273
O O12 0.806062 0.465097 0.664807
O O13 0.132319 0.566366 0.683374
O O14 0.795286 0.463646 0.983307
O O15 0.475453 0.624941 0.453287
O O16 0.499172 0.574721 0.706539
#
# Coordination Sequence:
#
# PCOD9054333 Si02
#       8
#     2   2   2   2   2   2   2   1
#     4  12  23  45  71 101 141 178 229 296 347 415
#     4  12  25  44  70 101 136 184 237 291 345 417
#     4  11  20  42  72  96 130 179 241 275 337 422
#     4  11  25  45  71  98 138 193 233 276 352 429
#     4  11  25  46  68 100 145 180 231 293 341 423
#     4  11  22  43  73  97 131 188 229 282 343 419
#     4  12  26  44  71 105 142 183 231 290 358 420
#     4  12  26  44  66 106 146 176 224 302 354 402
#
# _framework density 24.545570999999999
#
# number of rings (size 3 to 8) (size 9 to 14) (size 15 to 20)
#    0.000    0.533    8.000    0.400    3.733    0.533 
#    2.400    0.667    0.000    0.000    0.000    0.000 
#    0.000    0.000    0.000    0.000    0.000    0.000 
#
# Total GULP energy -83529.457764 kJ/mol
# GULP energy per Si atom -5568.630518 kJ/mol
# Density = 2.448970 g / cm^3
# Si number density = 24.545571 Si / 1000 Ang^3
#
#
#
# Elastic Constant Matrix: (Units=GPa)
#
#
# Indices 1 2 3 4 5 6 
#
# 1 75.6916 13.2318 10.3476 11.8421 -21.6639 0.0062
# 2 13.2318 126.4446 48.9676 34.4109 -9.4346 7.7278
# 3 10.3476 48.9676 85.4172 28.2178 -0.2173 -2.9147
# 4 11.8421 34.4109 28.2178 44.8397 -1.7559 -17.2835
# 5 -21.6639 -9.4346 -0.2173 -1.7559 29.7200 11.7396
# 6 0.0062 7.7278 -2.9147 -17.2835 11.7396 37.0197
#
#
#
# Elastic Compliance Matrix: (Units=1/GPa)
#
#
# Indices 1 2 3 4 5 6 
#
# 1 0.020399 0.003831 -0.001173 -0.011749 0.020467 -0.012871
# 2 0.003831 0.015131 -0.004752 -0.014658 0.012340 -0.014290
# 3 -0.001173 -0.004752 0.016780 -0.006696 -0.002647 0.000027
# 4 -0.011749 -0.014658 -0.006696 0.053455 -0.023970 0.035093
# 5 0.020467 0.012340 -0.002647 -0.023970 0.064671 -0.034487
# 6 -0.012871 -0.014290 0.000027 0.035093 -0.034487 0.057320
#
#
# Mechanical properties :
#
#
# Convention : Reuss Voigt Hill
#
# Bulk Modulus (GPa) = 20.78092 48.07195 34.42643
# Shear Modulus (GPa) = 20.16234 36.64964 28.40599
#
# Velocity S-wave (km/s) = 2.86916 3.86829 3.40557
# Velocity P-wave (km/s) = 4.41143 6.29117 5.43321
#
# Compressibility (1/GPa) = 0.04812107
#
# Stress axis : x y z
#
# Youngs Moduli (GPa) = 49.02103 66.08841 59.59440
#
# Poissons Ratio (x) = -0.25317 0.06992
# Poissons Ratio (y) = -0.18779 0.28321
# Poissons Ratio (z) = 0.05751 0.31408
#
# Static dielectric constant tensor:
#      x y z
#    x 1.968940 0.026180 0.091160 
#    y 0.026180 1.847230 -0.095970 
#    z 0.091160 -0.095970 2.009880 
# 
# From -- ./inp_files/189038.got.cif
#   From: 2010.05.17/outbox.cif.g08.bks.cpg/sg2_95_cif.got.tgz:189038.got - 2010.06.03 11:33:40.
