data_PCOD9054633
_publ_section_title
;
Structure prediction by ZEFSAII (Michael W. Deem and Ramdas Pophale) SiO2 
 PCOD9054633
Probable space group: P -1
;
_chemical_formula_sum "Si O2"
_cell_formula_units_Z 16
_cell_length_a 12.675112
_cell_length_b 5.364876
_cell_length_c 11.566864
_cell_angle_alpha 65.387730
_cell_angle_beta 96.547479
_cell_angle_gamma 72.622873
_cell_volume 656.184817
_symmetry_space_group_name_H-M "P -1"
_symmetry_group_IT_number 2
_symmetry_cell_setting 'triclinic'
loop_
_space_group_symop_operation_xyz
x,y,z
-x,-y,-z
loop_
_atom_site_type_symbol
_atom_site_label
_atom_site_fract_x
_atom_site_fract_y
_atom_site_fract_z
Si Si1 0.614271 0.108477 0.048051
Si Si2 0.561521 0.895971 0.772947
Si Si3 0.252553 0.556755 0.729525
Si Si4 0.846933 0.181504 0.112222
Si Si5 0.089350 0.746004 0.219895
Si Si6 0.928285 0.297590 0.507438
Si Si7 0.172526 0.270690 0.129953
Si Si8 0.507501 0.522353 0.265417
O O1 0.520721 0.176884 0.127468
O O2 0.718843 0.219604 0.051787
O O3 0.684843 0.754290 0.135057
O O4 0.546099 0.253249 0.895165
O O5 0.690628 0.826526 0.839888
O O6 0.558474 0.695776 0.703083
O O7 0.508020 0.246903 0.678762
O O8 0.162665 0.786557 0.758180
O O9 0.184950 0.524508 0.616144
O O10 0.357083 0.655657 0.696113
O O11 0.877630 0.449464 0.015640
O O12 0.952343 0.882697 0.152894
O O13 0.107679 0.748363 0.358961
O O14 0.137520 0.432052 0.220187
O O15 0.140625 0.993536 0.142088
O O16 0.000000 0.500000 0.500000
O O17 0.000000 0.000000 0.500000
#
# Coordination Sequence:
#
# PCOD9054633 Si02
#       8
#     2   2   2   2   2   2   2   2
#     4  11  22  37  66 109 137 174 226 298 352 396
#     4  11  21  39  62  95 137 180 220 272 345 402
#     4  11  24  39  72 105 135 173 227 304 352 389
#     4  12  23  40  69 104 140 178 227 287 354 410
#     4  12  28  46  65  99 140 190 230 270 344 420
#     4  12  26  50  75  97 133 184 243 298 329 392
#     4  12  26  44  66  97 149 187 219 271 347 441
#     4  11  21  37  62 103 138 167 219 287 354 399
#
# _framework density 24.383374
#
# number of rings (size 3 to 8) (size 9 to 14) (size 15 to 20)
#    0.000    0.500    3.750    6.375    3.500    0.000 
#    0.000    0.000    0.000   10.500    0.000    0.000 
#    0.000    0.000    0.000    0.000    0.000    0.000 
#
# Total GULP energy -89451.046558 kJ/mol
# GULP energy per Si atom -5590.690410 kJ/mol
# Density = 2.432788 g / cm^3
# Si number density = 24.383374 Si / 1000 Ang^3
#
#
#
# Elastic Constant Matrix: (Units=GPa)
#
#
# Indices 1 2 3 4 5 6 
#
# 1 122.0569 17.3430 29.7757 4.8607 24.6923 2.7496
# 2 17.3430 115.1290 9.3696 10.7007 -1.2854 -4.1366
# 3 29.7757 9.3696 52.6787 18.2892 21.0130 2.8710
# 4 4.8607 10.7007 18.2892 16.7729 10.3573 -6.9661
# 5 24.6923 -1.2854 21.0130 10.3573 25.1016 12.0463
# 6 2.7496 -4.1366 2.8710 -6.9661 12.0463 46.9700
#
#
#
# Elastic Compliance Matrix: (Units=1/GPa)
#
#
# Indices 1 2 3 4 5 6 
#
# 1 0.013360 -0.003386 -0.006695 0.021171 -0.020106 0.007625
# 2 -0.003386 0.010551 0.001230 -0.015926 0.011450 -0.004246
# 3 -0.006695 0.001230 0.039668 -0.040324 -0.006986 -0.006113
# 4 0.021171 -0.015926 -0.040324 0.180843 -0.085858 0.048664
# 5 -0.020106 0.011450 -0.006986 -0.085858 0.121259 -0.041221
# 6 0.007625 -0.004246 -0.006113 0.048664 -0.041221 0.038633
#
#
# Mechanical properties :
#
#
# Convention : Reuss Voigt Hill
#
# Bulk Modulus (GPa) = 21.79681 44.76013 33.27847
# Shear Modulus (GPa) = 11.43359 33.32730 22.38045
#
# Velocity S-wave (km/s) = 2.16778 3.70104 3.03290
# Velocity P-wave (km/s) = 3.90183 6.05477 5.09336
#
# Compressibility (1/GPa) = 0.04587828
#
# Stress axis : x y z
#
# Youngs Moduli (GPa) = 74.85119 94.77450 25.20922
#
# Poissons Ratio (x) = 0.32090 0.16878
# Poissons Ratio (y) = 0.25344 -0.03102
# Poissons Ratio (z) = 0.50113 -0.11662
#
# Static dielectric constant tensor:
#      x y z
#    x 1.954580 0.017900 -0.052990 
#    y 0.017900 2.044580 0.022940 
#    z -0.052990 0.022940 1.990990 
# 
# From -- ./inp_files/410064.got.cif
#   From: 2010.05.17/outbox.cif.g08.bks.cpg/sg2_206_cif.got.tgz:410064.got - 2010.06.03 11:33:40.
