data_PCOD9054821
_publ_section_title
;
Structure prediction by ZEFSAII (Michael W. Deem and Ramdas Pophale) SiO2 
 PCOD9054821
Probable space group: P -1
;
_chemical_formula_sum "Si O2"
_cell_formula_units_Z 14
_cell_length_a 9.548033
_cell_length_b 17.803902
_cell_length_c 12.326323
_cell_angle_alpha 138.555759
_cell_angle_beta 132.859150
_cell_angle_gamma 25.991416
_cell_volume 607.647064
_symmetry_space_group_name_H-M "P -1"
_symmetry_group_IT_number 2
_symmetry_cell_setting 'triclinic'
loop_
_space_group_symop_operation_xyz
x,y,z
-x,-y,-z
loop_
_atom_site_type_symbol
_atom_site_label
_atom_site_fract_x
_atom_site_fract_y
_atom_site_fract_z
Si Si1 0.205474 0.206012 0.015769
Si Si2 0.602545 0.396764 0.662400
Si Si3 0.263035 0.355994 0.389624
Si Si4 0.365506 0.702531 0.197887
Si Si5 0.321692 0.963507 0.563501
Si Si6 0.651695 0.272464 0.027350
Si Si7 0.366303 0.965976 0.146457
O O1 0.140013 0.342712 0.209070
O O2 0.342844 0.179731 0.943917
O O3 0.934537 0.240016 0.903396
O O4 0.500000 0.000000 0.000000
O O5 0.401100 0.413682 0.493899
O O6 0.474619 0.420393 0.740834
O O7 0.540579 0.559482 0.805607
O O8 0.968375 0.183968 0.619096
O O9 0.553026 0.150099 0.379544
O O10 0.000000 0.500000 0.500000
O O11 0.311988 0.860814 0.367272
O O12 0.487601 0.641722 0.073325
O O13 0.566484 0.950910 0.660859
O O14 0.640133 0.145239 0.908599
O O15 0.023676 0.133768 0.086111
#
# Coordination Sequence:
#
# PCOD9054821 Si02
#       7
#     2   2   2   2   2   2   2
#     4  12  19  38  69  90 119 165 210 248 302 371
#     4  11  22  39  62  94 124 157 207 257 309 357
#     4  11  22  37  64  97 123 155 208 263 299 356
#     4  11  21  38  67  93 117 161 206 257 309 359
#     4  11  22  40  63  93 125 159 201 262 310 360
#     4  11  25  42  63  90 127 165 208 255 297 375
#     4  11  24  42  64  88 128 167 207 247 313 360
#
# _framework density 23.03969
#
# number of rings (size 3 to 8) (size 9 to 14) (size 15 to 20)
#    0.000    0.857    4.286    4.714    0.000    2.286 
#    0.000    0.714    3.143    0.000    0.000    0.000 
#    0.000    0.000    0.000    0.000    0.000    0.000 
#
# Total GULP energy -78196.798650 kJ/mol
# GULP energy per Si atom -5585.485618 kJ/mol
# Density = 2.298725 g / cm^3
# Si number density = 23.039690 Si / 1000 Ang^3
#
#
#
# Elastic Constant Matrix: (Units=GPa)
#
#
# Indices 1 2 3 4 5 6 
#
# 1 52.1892 15.7141 32.9017 -9.1484 26.9152 -13.7653
# 2 15.7141 59.2134 38.3003 -7.3871 15.6288 -6.8465
# 3 32.9017 38.3003 202.1887 -9.4227 41.5701 -16.6120
# 4 -9.1484 -7.3871 -9.4227 42.1681 -8.5952 11.7884
# 5 26.9152 15.6288 41.5701 -8.5952 40.2541 -0.5916
# 6 -13.7653 -6.8465 -16.6120 11.7884 -0.5916 19.8071
#
#
#
# Elastic Compliance Matrix: (Units=1/GPa)
#
#
# Indices 1 2 3 4 5 6 
#
# 1 0.041351 -0.001370 0.002138 -0.006102 -0.030146 0.032789
# 2 -0.001370 0.020470 -0.002462 0.000930 -0.004241 0.003379
# 3 0.002138 -0.002462 0.007336 -0.002244 -0.008413 0.007872
# 4 -0.006102 0.000930 -0.002244 0.031299 0.012365 -0.024059
# 5 -0.030146 -0.004241 -0.008413 0.012365 0.057458 -0.035116
# 6 0.032789 0.003379 0.007872 -0.024059 -0.035116 0.094314
#
#
# Mechanical properties :
#
#
# Convention : Reuss Voigt Hill
#
# Bulk Modulus (GPa) = 15.20454 54.15816 34.68135
# Shear Modulus (GPa) = 18.01548 35.55755 26.78652
#
# Velocity S-wave (km/s) = 2.79934 3.93277 3.41343
# Velocity P-wave (km/s) = 4.13062 6.64678 5.53361
#
# Compressibility (1/GPa) = 0.06576984
#
# Stress axis : x y z
#
# Youngs Moduli (GPa) = 24.18311 48.85201 136.30947
#
# Poissons Ratio (x) = 0.06694 -0.29145
# Poissons Ratio (y) = 0.03314 0.33556
# Poissons Ratio (z) = -0.05171 0.12026
#
# Static dielectric constant tensor:
#      x y z
#    x 1.860350 -0.032430 0.007700 
#    y -0.032430 1.914140 0.017490 
#    z 0.007700 0.017490 1.929880 
# 
# From -- ./inp_files/403415.got.cif
#   From: 2010.05.17/outbox.cif.g08.bks.cpg/sg2_202_cif.got.tgz:403415.got - 2010.06.03 11:33:40.
