data_PCOD9054682
_publ_section_title
;
Structure prediction by ZEFSAII (Michael W. Deem and Ramdas Pophale) SiO2 
 PCOD9054682
Probable space group: P -1
;
_chemical_formula_sum "Si O2"
_cell_formula_units_Z 14
_cell_length_a 13.847863
_cell_length_b 8.990917
_cell_length_c 17.584908
_cell_angle_alpha 143.000274
_cell_angle_beta 146.556727
_cell_angle_gamma 28.523496
_cell_volume 558.052825
_symmetry_space_group_name_H-M "P -1"
_symmetry_group_IT_number 2
_symmetry_cell_setting 'triclinic'
loop_
_space_group_symop_operation_xyz
x,y,z
-x,-y,-z
loop_
_atom_site_type_symbol
_atom_site_label
_atom_site_fract_x
_atom_site_fract_y
_atom_site_fract_z
Si Si1 0.429708 0.226248 0.118344
Si Si2 0.524899 0.264719 0.798004
Si Si3 0.198641 0.795076 0.374910
Si Si4 0.387385 0.934063 0.673571
Si Si5 0.857428 0.028212 0.808205
Si Si6 0.780898 0.755751 0.513300
Si Si7 0.800072 0.028462 0.093086
O O1 0.627580 0.064229 0.244950
O O2 0.316962 0.588707 0.172188
O O3 0.500000 0.000000 0.000000
O O4 0.247034 0.217740 0.038821
O O5 0.787092 0.025367 0.846657
O O6 0.397371 0.289993 0.646145
O O7 0.434864 0.615007 0.902371
O O8 0.425434 0.168628 0.757008
O O9 0.187795 0.952052 0.511007
O O10 0.376622 0.414425 0.338187
O O11 0.316444 0.899006 0.442292
O O12 0.968259 0.937246 0.237353
O O13 0.842401 0.785794 0.650444
O O14 0.089082 0.947211 0.898240
O O15 0.000000 0.500000 0.500000
#
# Coordination Sequence:
#
# PCOD9054682 Si02
#       7
#     2   2   2   2   2   2   2
#     4  12  24  44  70  95 134 185 228 258 337 414
#     4  11  22  39  67 101 133 172 224 276 341 381
#     4   9  19  39  68  93 131 175 218 268 345 378
#     4  10  22  40  66 102 137 168 216 294 329 379
#     4  11  22  40  66  96 129 180 226 267 321 409
#     4  10  17  35  67  94 126 170 222 266 325 388
#     4  11  22  42  72  94 131 184 224 265 325 416
#
# _framework density 25.087230999999999
#
# number of rings (size 3 to 8) (size 9 to 14) (size 15 to 20)
#    0.000    1.429    7.143    0.857    0.000    0.571 
#    0.000    2.857    0.000    0.000    0.000    0.000 
#    0.000    0.000    0.000    0.000    0.000    0.000 
#
# Total GULP energy -78150.588068 kJ/mol
# GULP energy per Si atom -5582.184862 kJ/mol
# Density = 2.503013 g / cm^3
# Si number density = 25.087231 Si / 1000 Ang^3
#
#
#
# Elastic Constant Matrix: (Units=GPa)
#
#
# Indices 1 2 3 4 5 6 
#
# 1 77.7567 11.5233 27.4686 5.2846 -16.1519 -17.9824
# 2 11.5233 61.4429 10.7512 24.5915 -9.4231 0.3473
# 3 27.4686 10.7512 124.4543 2.5770 -24.5906 6.3971
# 4 5.2846 24.5915 2.5770 36.7232 7.8867 0.6676
# 5 -16.1519 -9.4231 -24.5906 7.8867 52.6374 6.7127
# 6 -17.9824 0.3473 6.3971 0.6676 6.7127 33.1975
#
#
#
# Elastic Compliance Matrix: (Units=1/GPa)
#
#
# Indices 1 2 3 4 5 6 
#
# 1 0.017219 -0.001531 -0.003658 -0.001877 0.002357 0.009609
# 2 -0.001531 0.024756 0.000046 -0.017809 0.006925 -0.002139
# 3 -0.003658 0.000046 0.009953 -0.001040 0.004297 -0.004748
# 4 -0.001877 -0.017809 -0.001040 0.041762 -0.010593 0.000672
# 5 0.002357 0.006925 0.004297 -0.010593 0.025128 -0.004492
# 6 0.009609 -0.002139 -0.004748 0.000672 -0.004492 0.037160
#
#
# Mechanical properties :
#
#
# Convention : Reuss Voigt Hill
#
# Bulk Modulus (GPa) = 24.01348 40.34891 32.18120
# Shear Modulus (GPa) = 27.75557 38.77234 33.26396
#
# Velocity S-wave (km/s) = 3.32981 3.93555 3.64529
# Velocity P-wave (km/s) = 4.93724 6.06381 5.52929
#
# Compressibility (1/GPa) = 0.04164328
#
# Stress axis : x y z
#
# Youngs Moduli (GPa) = 58.07540 40.39395 100.47301
#
# Poissons Ratio (x) = 0.06185 0.36749
# Poissons Ratio (y) = 0.08892 -0.00465
# Poissons Ratio (z) = 0.21242 -0.00187
#
# Static dielectric constant tensor:
#      x y z
#    x 2.063070 0.000700 -0.071090 
#    y 0.000700 1.999490 -0.113140 
#    z -0.071090 -0.113140 2.090640 
# 
# From -- ./inp_files/572937.got.cif
#   From: 2010.05.17/outbox.cif.g08.bks.cpg/sg2_287_cif.got.tgz:572937.got - 2010.06.03 11:33:40.
