data_PCOD9054450
_publ_section_title
;
Structure prediction by ZEFSAII (Michael W. Deem and Ramdas Pophale) SiO2 
 PCOD9054450
Probable space group: P -1
;
_chemical_formula_sum "Si O2"
_cell_formula_units_Z 15
_cell_length_a 8.516155
_cell_length_b 14.477110
_cell_length_c 20.643863
_cell_angle_alpha 31.529417
_cell_angle_beta 143.231597
_cell_angle_gamma 148.696506
_cell_volume 666.263238
_symmetry_space_group_name_H-M "P -1"
_symmetry_group_IT_number 2
_symmetry_cell_setting 'triclinic'
loop_
_space_group_symop_operation_xyz
x,y,z
-x,-y,-z
loop_
_atom_site_type_symbol
_atom_site_label
_atom_site_fract_x
_atom_site_fract_y
_atom_site_fract_z
Si Si1 0.649201 0.649709 0.352307
Si Si2 0.678958 0.231230 0.450812
Si Si3 0.422839 0.920242 0.161160
Si Si4 0.320909 0.167888 0.886458
Si Si5 0.711832 0.566124 0.169742
Si Si6 0.500000 0.500000 0.000000
Si Si7 0.641464 0.814261 0.498205
Si Si8 0.418186 0.086139 0.197200
O O1 0.583653 0.789254 0.294614
O O2 0.599118 0.718489 0.223823
O O3 0.434949 0.396611 0.437229
O O4 0.999460 0.710259 0.443987
O O5 0.742343 0.389202 0.319380
O O6 0.469279 0.244713 0.429003
O O7 0.500000 0.000000 0.500000
O O8 0.050529 0.746438 0.145562
O O9 0.493138 0.064544 0.160744
O O10 0.489297 0.055044 0.037117
O O11 0.368702 0.329916 0.861419
O O12 0.945817 0.991344 0.868279
O O13 0.480479 0.492693 0.077076
O O14 0.396314 0.675550 0.859266
O O15 0.457474 0.915891 0.348824
O O16 0.000000 0.000000 0.500000
#
# Coordination Sequence:
#
# PCOD9054450 Si02
#       8
#     2   2   2   2   2   1   2   2
#     4  12  26  46  75 102 153 192 237 302 367 423
#     4  12  27  47  72 107 145 193 241 298 365 433
#     4  11  24  42  69 108 140 190 244 293 354 437
#     4  11  20  47  69 101 139 195 239 294 356 433
#     4  11  23  42  74 100 141 191 240 291 362 428
#     4  12  22  42  72 106 138 190 236 302 356 420
#     4  12  28  47  73 106 146 189 245 303 357 435
#     4  11  23  42  72  98 141 188 241 289 361 428
#
# _framework density 22.513622000000002
#
# number of rings (size 3 to 8) (size 9 to 14) (size 15 to 20)
#    0.000    0.533    5.333    4.000    5.600    1.067 
#    0.000    0.000    0.000    4.000    0.000    0.000 
#    0.000    0.000    0.000    0.000    0.000    0.000 
#
# Total GULP energy -83645.308716 kJ/mol
# GULP energy per Si atom -5576.353914 kJ/mol
# Density = 2.246238 g / cm^3
# Si number density = 22.513622 Si / 1000 Ang^3
#
#
#
# Elastic Constant Matrix: (Units=GPa)
#
#
# Indices 1 2 3 4 5 6 
#
# 1 31.9952 8.6399 19.8156 -14.2255 10.0447 -7.1326
# 2 8.6399 58.7253 17.3459 -12.6826 5.0626 -2.2099
# 3 19.8156 17.3459 116.0223 -3.0723 -21.0791 2.7823
# 4 -14.2255 -12.6826 -3.0723 20.3325 -8.6631 -0.0624
# 5 10.0447 5.0626 -21.0791 -8.6631 40.8728 6.7760
# 6 -7.1326 -2.2099 2.7823 -0.0624 6.7760 18.5477
#
#
#
# Elastic Compliance Matrix: (Units=1/GPa)
#
#
# Indices 1 2 3 4 5 6 
#
# 1 0.082679 0.008533 -0.020668 0.047516 -0.029745 0.046939
# 2 0.008533 0.021744 -0.005510 0.016328 -0.005632 0.008811
# 3 -0.020668 -0.005510 0.015776 -0.009330 0.014630 -0.016347
# 4 0.047516 0.016328 -0.009330 0.089868 -0.003298 0.023125
# 5 -0.029745 -0.005632 0.014630 -0.003298 0.044381 -0.030529
# 6 0.046939 0.008811 -0.016347 0.023125 -0.030529 0.086698
#
#
# Mechanical properties :
#
#
# Convention : Reuss Voigt Hill
#
# Bulk Modulus (GPa) = 11.77739 33.14952 22.46345
# Shear Modulus (GPa) = 12.35361 26.68004 19.51682
#
# Velocity S-wave (km/s) = 2.34501 3.44621 2.94749
# Velocity P-wave (km/s) = 3.54608 5.53094 4.64575
#
# Compressibility (1/GPa) = 0.08490847
#
# Stress axis : x y z
#
# Youngs Moduli (GPa) = 12.09490 45.98967 63.38815
#
# Poissons Ratio (x) = -0.39244 1.31012
# Poissons Ratio (y) = -0.10321 0.34930
# Poissons Ratio (z) = 0.24998 0.25342
#
# Static dielectric constant tensor:
#      x y z
#    x 1.838520 -0.014650 0.034190 
#    y -0.014650 1.861400 -0.013010 
#    z 0.034190 -0.013010 1.908090 
# 
# From -- ./inp_files/205454.got.cif
#   From: 2010.05.17/outbox.cif.g08.bks.cpg/sg2_103_cif.got.tgz:205454.got - 2010.06.03 11:33:40.
