data_PCOD9054398
_publ_section_title
;
Structure prediction by ZEFSAII (Michael W. Deem and Ramdas Pophale) SiO2 
 PCOD9054398
Probable space group: P -1
;
_chemical_formula_sum "Si O2"
_cell_formula_units_Z 16
_cell_length_a 9.303013
_cell_length_b 18.572141
_cell_length_c 9.320331
_cell_angle_alpha 46.390182
_cell_angle_beta 81.990270
_cell_angle_gamma 118.183855
_cell_volume 703.742305
_symmetry_space_group_name_H-M "P -1"
_symmetry_group_IT_number 2
_symmetry_cell_setting 'triclinic'
loop_
_space_group_symop_operation_xyz
x,y,z
-x,-y,-z
loop_
_atom_site_type_symbol
_atom_site_label
_atom_site_fract_x
_atom_site_fract_y
_atom_site_fract_z
Si Si1 0.058203 0.000103 0.649986
Si Si2 0.530796 0.742924 0.122506
Si Si3 0.748314 0.088076 0.157889
Si Si4 0.377554 0.981703 0.183336
Si Si5 0.258763 0.572212 0.099420
Si Si6 0.418910 0.344883 0.273400
Si Si7 0.958824 0.557153 0.296907
Si Si8 0.062928 0.250122 0.617008
O O1 0.214185 0.985101 0.646928
O O2 0.205009 0.168185 0.470733
O O3 0.000000 0.000000 0.500000
O O4 0.794079 0.842411 0.969428
O O5 0.453245 0.700499 0.022377
O O6 0.321548 0.575318 0.471244
O O7 0.535733 0.859359 0.017331
O O8 0.480220 0.971937 0.313012
O O9 0.886933 0.260639 0.954776
O O10 0.887189 0.129680 0.936320
O O11 0.100007 0.836320 0.385344
O O12 0.500000 0.000000 0.000000
O O13 0.147052 0.409079 0.398774
O O14 0.062910 0.552140 0.156215
O O15 0.364477 0.605551 0.881913
O O16 0.290405 0.301894 0.499939
O O17 0.500000 0.500000 0.000000
O O18 0.000000 0.500000 0.500000
#
# Coordination Sequence:
#
# PCOD9054398 Si02
#       8
#     2   2   2   2   2   2   2   2
#     4  12  26  43  63  95 130 173 223 269 324 385
#     4  11  19  37  65  90 134 173 212 268 321 377
#     4  11  22  38  66 101 129 168 219 272 320 381
#     4  10  19  35  62  95 128 166 208 263 325 381
#     4  10  18  36  67  91 129 173 214 258 328 382
#     4  10  22  40  66  86 130 182 208 261 334 381
#     4  10  17  35  64  93 129 163 209 268 324 368
#     4  10  19  37  65  95 129 171 216 258 327 395
#
# _framework density 22.735596000000001
#
# number of rings (size 3 to 8) (size 9 to 14) (size 15 to 20)
#    0.000    1.500    7.500    0.750    0.000    1.000 
#    0.000    2.500    2.750    1.500    0.000    0.000 
#    0.000    0.000    0.000    0.000    0.000    0.000 
#
# Total GULP energy -89181.598265 kJ/mol
# GULP energy per Si atom -5573.849892 kJ/mol
# Density = 2.268385 g / cm^3
# Si number density = 22.735596 Si / 1000 Ang^3
#
#
#
# Elastic Constant Matrix: (Units=GPa)
#
#
# Indices 1 2 3 4 5 6 
#
# 1 98.1294 30.4827 24.8368 -1.4943 1.0535 -3.2084
# 2 30.4827 56.0747 24.1512 -19.6337 12.0229 -21.1055
# 3 24.8368 24.1512 72.5834 -16.2719 -11.5222 5.0337
# 4 -1.4943 -19.6337 -16.2719 44.3008 -13.8178 -9.8885
# 5 1.0535 12.0229 -11.5222 -13.8178 34.3346 4.3980
# 6 -3.2084 -21.1055 5.0337 -9.8885 4.3980 33.1955
#
#
#
# Elastic Compliance Matrix: (Units=1/GPa)
#
#
# Indices 1 2 3 4 5 6 
#
# 1 0.014539 -0.015290 -0.000445 -0.007987 0.002956 -0.011019
# 2 -0.015290 0.077217 -0.022982 0.030095 -0.030381 0.064091
# 3 -0.000445 -0.022982 0.026464 0.001093 0.020072 -0.021002
# 4 -0.007987 0.030095 0.001093 0.044137 0.003887 0.030829
# 5 0.002956 -0.030381 0.020072 0.003887 0.051527 -0.027743
# 6 -0.011019 0.064091 -0.021002 0.030829 -0.027743 0.085852
#
#
# Mechanical properties :
#
#
# Convention : Reuss Voigt Hill
#
# Bulk Modulus (GPa) = 24.51720 42.85878 33.68799
# Shear Modulus (GPa) = 12.79542 32.18730 22.49136
#
# Velocity S-wave (km/s) = 2.37490 3.76669 3.14866
# Velocity P-wave (km/s) = 4.28103 6.14892 5.29794
#
# Compressibility (1/GPa) = 0.04078770
#
# Stress axis : x y z
#
# Youngs Moduli (GPa) = 68.77991 12.95047 37.78686
#
# Poissons Ratio (x) = 0.19801 0.01680
# Poissons Ratio (y) = 1.05164 0.86842
# Poissons Ratio (z) = 0.03058 0.29763
#
# Static dielectric constant tensor:
#      x y z
#    x 1.866050 0.022850 -0.058600 
#    y 0.022850 1.902000 0.075440 
#    z -0.058600 0.075440 1.914540 
# 
# From -- ./inp_files/401795.got.cif
#   From: 2010.05.17/outbox.cif.g08.bks.cpg/sg2_201_cif.got.tgz:401795.got - 2010.06.03 11:33:40.
