data_PCOD9054761
_publ_section_title
;
Structure prediction by ZEFSAII (Michael W. Deem and Ramdas Pophale) SiO2 
 PCOD9054761
Probable space group: P -1
;
_chemical_formula_sum "Si O2"
_cell_formula_units_Z 14
_cell_length_a 16.285688
_cell_length_b 38.957401
_cell_length_c 11.815009
_cell_angle_alpha 157.086448
_cell_angle_beta 152.219157
_cell_angle_gamma 13.429675
_cell_volume 672.637698
_symmetry_space_group_name_H-M "P -1"
_symmetry_group_IT_number 2
_symmetry_cell_setting 'triclinic'
loop_
_space_group_symop_operation_xyz
x,y,z
-x,-y,-z
loop_
_atom_site_type_symbol
_atom_site_label
_atom_site_fract_x
_atom_site_fract_y
_atom_site_fract_z
Si Si1 0.842890 0.806262 0.660412
Si Si2 0.798297 0.175273 0.746388
Si Si3 0.915792 0.138353 0.312879
Si Si4 0.706595 0.564423 0.891493
Si Si5 0.423837 0.497262 0.772720
Si Si6 0.059121 0.772175 0.588725
Si Si7 0.052132 0.143029 0.745085
O O1 0.120568 0.606888 0.407025
O O2 0.819469 0.835768 0.586943
O O3 0.989682 0.830731 0.970030
O O4 0.536064 0.051182 0.315668
O O5 0.809545 0.186110 0.658697
O O6 0.426256 0.342191 0.865875
O O7 0.000000 0.000000 0.500000
O O8 0.513299 0.353368 0.452011
O O9 0.122688 0.089611 0.309518
O O10 0.011912 0.135006 0.541156
O O11 0.000000 0.000000 0.000000
O O12 0.355438 0.702784 0.805708
O O13 0.000000 0.500000 0.000000
O O14 0.716480 0.394642 0.721281
O O15 0.500000 0.500000 0.000000
O O16 0.068134 0.701850 0.921048
#
# Coordination Sequence:
#
# PCOD9054761 Si02
#       7
#     2   2   2   2   2   2   2
#     4  11  23  37  63  93 121 162 200 249 301 368
#     4  11  24  39  60  92 125 159 199 255 306 354
#     4   9  21  36  65  84 115 166 200 247 298 356
#     4  11  23  40  64  89 121 162 203 246 304 365
#     4   8  17  35  56  82 109 155 189 239 293 339
#     4   9  20  39  62  82 125 153 206 240 303 353
#     4  11  21  38  63  89 123 154 203 247 306 356
#
# _framework density 20.813583000000001
#
# number of rings (size 3 to 8) (size 9 to 14) (size 15 to 20)
#    0.857    1.143    0.000    4.714    6.000    1.714 
#    0.000    0.000    0.000    1.714    0.000    0.000 
#    0.000    0.000    0.000    0.000    0.000    0.000 
#
# Total GULP energy -77936.996046 kJ/mol
# GULP energy per Si atom -5566.928289 kJ/mol
# Density = 2.076621 g / cm^3
# Si number density = 20.813583 Si / 1000 Ang^3
#
#
#
# Elastic Constant Matrix: (Units=GPa)
#
#
# Indices 1 2 3 4 5 6 
#
# 1 143.3856 24.6964 18.8262 -5.0855 -5.9399 1.7980
# 2 24.6964 32.1780 13.3839 11.9439 2.6304 -5.0904
# 3 18.8262 13.3839 132.7055 26.3476 16.7469 -1.8974
# 4 -5.0855 11.9439 26.3476 21.1705 3.3498 -1.9441
# 5 -5.9399 2.6304 16.7469 3.3498 32.4431 6.4481
# 6 1.7980 -5.0904 -1.8974 -1.9441 6.4481 33.5601
#
#
#
# Elastic Compliance Matrix: (Units=1/GPa)
#
#
# Indices 1 2 3 4 5 6 
#
# 1 0.009964 -0.011469 -0.003121 0.011951 0.003619 -0.002453
# 2 -0.011469 0.053460 0.004463 -0.036687 -0.006562 0.008111
# 3 -0.003121 0.004463 0.011544 -0.016619 -0.005492 0.001589
# 4 0.011951 -0.036687 -0.016619 0.090438 0.004972 -0.002861
# 5 0.003619 -0.006562 -0.005492 0.004972 0.035953 -0.008120
# 6 -0.002453 0.008111 0.001589 -0.002861 -0.008120 0.032643
#
#
# Mechanical properties :
#
#
# Convention : Reuss Voigt Hill
#
# Bulk Modulus (GPa) = 18.27669 46.89800 32.58735
# Shear Modulus (GPa) = 18.34907 34.19226 26.27067
#
# Velocity S-wave (km/s) = 2.97238 4.05753 3.55658
# Velocity P-wave (km/s) = 4.53655 6.67328 5.70583
#
# Compressibility (1/GPa) = 0.05471450
#
# Stress axis : x y z
#
# Youngs Moduli (GPa) = 100.36253 18.70555 86.62839
#
# Poissons Ratio (x) = 0.21453 0.27039
# Poissons Ratio (y) = 1.15102 -0.38666
# Poissons Ratio (z) = 0.31326 -0.08349
#
# Static dielectric constant tensor:
#      x y z
#    x 1.833900 0.028090 -0.028360 
#    y 0.028090 1.772570 0.015100 
#    z -0.028360 0.015100 1.771560 
# 
# From -- ./inp_files/439695.got.cif
#   From: 2010.05.17/outbox.cif.g08.bks.cpg/sg2_220_cif.got.tgz:439695.got - 2010.06.03 11:33:40.
