data_PCOD9054774
_publ_section_title
;
Structure prediction by ZEFSAII (Michael W. Deem and Ramdas Pophale) SiO2 
 PCOD9054774
Probable space group: P -1
;
_chemical_formula_sum "Si O2"
_cell_formula_units_Z 12
_cell_length_a 12.720452
_cell_length_b 6.654966
_cell_length_c 9.427763
_cell_angle_alpha 56.885113
_cell_angle_beta 105.175603
_cell_angle_gamma 122.463586
_cell_volume 563.450346
_symmetry_space_group_name_H-M "P -1"
_symmetry_group_IT_number 2
_symmetry_cell_setting 'triclinic'
loop_
_space_group_symop_operation_xyz
x,y,z
-x,-y,-z
loop_
_atom_site_type_symbol
_atom_site_label
_atom_site_fract_x
_atom_site_fract_y
_atom_site_fract_z
Si Si1 0.278926 0.295254 0.966358
Si Si2 0.294907 0.240490 0.522140
Si Si3 0.137442 0.349654 0.637796
Si Si4 0.843200 0.088312 0.673483
Si Si5 0.507472 0.782032 0.989433
Si Si6 0.489410 0.883504 0.384330
O O1 0.199377 0.378127 0.803233
O O2 0.372082 0.525115 0.020360
O O3 0.381246 0.275051 0.908777
O O4 0.195508 0.031588 0.135333
O O5 0.187446 0.189442 0.616438
O O6 0.389444 0.566330 0.446184
O O7 0.379742 0.094122 0.627899
O O8 0.234984 0.141246 0.384067
O O9 0.174124 0.646804 0.468299
O O10 0.988895 0.188595 0.662875
O O11 0.544776 0.924792 0.794795
O O12 0.500000 0.000000 0.000000
O O13 0.500000 0.000000 0.500000
#
# Coordination Sequence:
#
# PCOD9054774 Si02
#       6
#     2   2   2   2   2   2
#     4  11  23  40  62  90 121 157 202 246 302 363
#     4  11  21  38  64  92 123 159 202 248 302 363
#     4  11  24  42  63  88 122 163 206 251 297 353
#     4  11  24  42  63  88 122 163 206 251 297 353
#     4  11  22  37  59  89 122 154 194 250 304 358
#     4  11  22  37  62  93 124 157 195 248 307 361
#
# _framework density 21.297350999999999
#
# number of rings (size 3 to 8) (size 9 to 14) (size 15 to 20)
#    0.000    1.000    0.000    8.000    0.000    5.333 
#    0.000    2.500    0.000   10.000    0.000    0.000 
#    0.000    0.000    0.000    0.000    0.000    0.000 
#
# Total GULP energy -67065.609747 kJ/mol
# GULP energy per Si atom -5588.800812 kJ/mol
# Density = 2.124888 g / cm^3
# Si number density = 21.297351 Si / 1000 Ang^3
#
#
#
# Elastic Constant Matrix: (Units=GPa)
#
#
# Indices 1 2 3 4 5 6 
#
# 1 132.7379 31.5666 20.5182 9.3177 14.8209 -7.3534
# 2 31.5666 90.5058 8.1974 9.9165 3.2162 -12.2528
# 3 20.5182 8.1974 89.1148 -2.7884 10.9703 1.1812
# 4 9.3177 9.9165 -2.7884 30.8696 -1.9649 -3.4190
# 5 14.8209 3.2162 10.9703 -1.9649 32.3681 6.4719
# 6 -7.3534 -12.2528 1.1812 -3.4190 6.4719 27.3913
#
#
#
# Elastic Compliance Matrix: (Units=1/GPa)
#
#
# Indices 1 2 3 4 5 6 
#
# 1 0.009028 -0.002359 -0.001470 -0.002119 -0.003950 0.002101
# 2 -0.002359 0.012999 -0.000669 -0.003034 -0.001192 0.005113
# 3 -0.001470 -0.000669 0.012067 0.001515 -0.003205 -0.000268
# 4 -0.002119 -0.003034 0.001515 0.034496 0.002508 0.001722
# 5 -0.003950 -0.001192 -0.003205 0.002508 0.035989 -0.009645
# 6 0.002101 0.005113 -0.000268 0.001722 -0.009645 0.041865
#
#
# Mechanical properties :
#
#
# Convention : Reuss Voigt Hill
#
# Bulk Modulus (GPa) = 39.84064 48.10256 43.97160
# Shear Modulus (GPa) = 30.52441 34.93091 32.72766
#
# Velocity S-wave (km/s) = 3.78993 4.05427 3.92433
# Velocity P-wave (km/s) = 6.15621 6.67468 6.42068
#
# Compressibility (1/GPa) = 0.02510000
#
# Stress axis : x y z
#
# Youngs Moduli (GPa) = 110.76816 76.92742 82.87188
#
# Poissons Ratio (x) = 0.18145 0.12178
# Poissons Ratio (y) = 0.26127 0.05542
# Poissons Ratio (z) = 0.16278 0.05144
#
# Static dielectric constant tensor:
#      x y z
#    x 1.792950 0.001110 -0.018730 
#    y 0.001110 1.716940 -0.070890 
#    z -0.018730 -0.070890 1.691730 
# 
# From -- ./inp_files/61246.got.cif
#   From: 2010.05.17/outbox.cif.g08.bks.cpg/sg2_31_cif.got.tgz:61246.got - 2010.06.03 11:33:40.
