data_PCOD9054907
_publ_section_title
;
Structure prediction by ZEFSAII (Michael W. Deem and Ramdas Pophale) SiO2 
 PCOD9054907
Probable space group: P -1
;
_chemical_formula_sum "Si O2"
_cell_formula_units_Z 16
_cell_length_a 9.086339
_cell_length_b 9.004999
_cell_length_c 22.862283
_cell_angle_alpha 32.691368
_cell_angle_beta 129.423103
_cell_angle_gamma 129.664156
_cell_volume 755.923638
_symmetry_space_group_name_H-M "P -1"
_symmetry_group_IT_number 2
_symmetry_cell_setting 'triclinic'
loop_
_space_group_symop_operation_xyz
x,y,z
-x,-y,-z
loop_
_atom_site_type_symbol
_atom_site_label
_atom_site_fract_x
_atom_site_fract_y
_atom_site_fract_z
Si Si1 0.896362 0.319871 0.239468
Si Si2 0.940541 0.222618 0.957214
Si Si3 0.128935 0.991573 0.478470
Si Si4 0.043521 0.660055 0.380247
Si Si5 0.893535 0.769544 0.190082
Si Si6 0.491382 0.150049 0.885638
Si Si7 0.456158 0.761383 0.517487
Si Si8 0.319922 0.138988 0.729874
O O1 0.874064 0.539783 0.210541
O O2 0.931627 0.480262 0.132996
O O3 0.710101 0.057878 0.269144
O O4 0.075026 0.196625 0.347850
O O5 0.718393 0.263278 0.887687
O O6 0.950722 0.076623 0.071086
O O7 0.000000 0.000000 0.000000
O O8 0.066770 0.674440 0.541455
O O9 0.352052 0.116750 0.513295
O O10 0.000000 0.000000 0.500000
O O11 0.251647 0.722178 0.444437
O O12 0.054097 0.757254 0.283317
O O13 0.894891 0.815118 0.323397
O O14 0.680913 0.692936 0.194710
O O15 0.402104 0.001438 0.851800
O O16 0.500000 0.000000 0.000000
O O17 0.450328 0.453510 0.645309
O O18 0.500000 0.000000 0.500000
#
# Coordination Sequence:
#
# PCOD9054907 Si02
#       8
#     2   2   2   2   2   2   2   2
#     4  11  21  39  64  94 128 167 209 276 316 372
#     4   9  19  39  66  92 122 165 213 261 321 375
#     4  12  24  41  64  95 137 167 214 274 323 383
#     4  11  22  43  65  97 132 171 219 267 322 389
#     4   9  20  40  66  88 132 167 208 269 319 384
#     4   9  19  39  63  88 122 169 212 260 319 381
#     4  12  24  40  66  91 126 177 216 263 328 378
#     4  11  22  40  65  95 130 166 224 268 318 391
#
# _framework density 21.166159
#
# number of rings (size 3 to 8) (size 9 to 14) (size 15 to 20)
#    0.000    1.500    3.750    1.875    0.000    0.500 
#    0.000   12.500    0.000    0.000    0.000    0.000 
#    0.000    0.000    0.000    0.000    0.000    0.000 
#
# Total GULP energy -89108.593408 kJ/mol
# GULP energy per Si atom -5569.287088 kJ/mol
# Density = 2.111798 g / cm^3
# Si number density = 21.166159 Si / 1000 Ang^3
#
#
#
# Elastic Constant Matrix: (Units=GPa)
#
#
# Indices 1 2 3 4 5 6 
#
# 1 79.1266 25.6673 8.9891 5.3566 -13.6403 10.7738
# 2 25.6673 122.5877 47.9324 15.9267 -12.1972 6.4553
# 3 8.9891 47.9324 97.5418 10.8415 -14.4826 0.8955
# 4 5.3566 15.9267 10.8415 33.6182 -1.5543 -1.4919
# 5 -13.6403 -12.1972 -14.4826 -1.5543 19.5214 2.0448
# 6 10.7738 6.4553 0.8955 -1.4919 2.0448 29.2202
#
#
#
# Elastic Compliance Matrix: (Units=1/GPa)
#
#
# Indices 1 2 3 4 5 6 
#
# 1 0.016195 -0.002302 0.001617 -0.001759 0.011609 -0.006414
# 2 -0.002302 0.011163 -0.004598 -0.003432 0.001869 -0.001783
# 3 0.001617 -0.004598 0.013866 -0.002192 0.008444 -0.000708
# 4 -0.001759 -0.003432 -0.002192 0.032378 -0.002769 0.003321
# 5 0.011609 0.001869 0.008444 -0.002769 0.067577 -0.009822
# 6 -0.006414 -0.001783 -0.000708 0.003321 -0.009822 0.037860
#
#
# Mechanical properties :
#
#
# Convention : Reuss Voigt Hill
#
# Bulk Modulus (GPa) = 32.61824 51.60375 42.11100
# Shear Modulus (GPa) = 25.02192 30.91644 27.96918
#
# Velocity S-wave (km/s) = 3.44199 3.82600 3.63906
# Velocity P-wave (km/s) = 5.58932 6.62955 6.13153
#
# Compressibility (1/GPa) = 0.03065769
#
# Stress axis : x y z
#
# Youngs Moduli (GPa) = 61.74913 89.58302 72.11689
#
# Poissons Ratio (x) = 0.20618 -0.11658
# Poissons Ratio (y) = 0.14212 0.33160
# Poissons Ratio (z) = -0.09982 0.41191
#
# Static dielectric constant tensor:
#      x y z
#    x 1.838980 0.003970 0.008900 
#    y 0.003970 1.755720 0.006700 
#    z 0.008900 0.006700 1.834400 
# 
# From -- ./inp_files/606578.got.cif
#   From: 2010.05.17/outbox.cif.g08.bks.cpg/sg2_304_cif.got.tgz:606578.got - 2010.06.03 11:33:40.
