data_PCOD9054722
_publ_section_title
;
Structure prediction by ZEFSAII (Michael W. Deem and Ramdas Pophale) SiO2 
 PCOD9054722
Probable space group: P -1
;
_chemical_formula_sum "Si O2"
_cell_formula_units_Z 14
_cell_length_a 9.139884
_cell_length_b 9.653390
_cell_length_c 12.086738
_cell_angle_alpha 56.722504
_cell_angle_beta 113.175654
_cell_angle_gamma 71.082560
_cell_volume 583.056787
_symmetry_space_group_name_H-M "P -1"
_symmetry_group_IT_number 2
_symmetry_cell_setting 'triclinic'
loop_
_space_group_symop_operation_xyz
x,y,z
-x,-y,-z
loop_
_atom_site_type_symbol
_atom_site_label
_atom_site_fract_x
_atom_site_fract_y
_atom_site_fract_z
Si Si1 0.407494 0.846994 0.312114
Si Si2 0.309718 0.000146 0.970708
Si Si3 0.558701 0.581375 0.080203
Si Si4 0.734881 0.721251 0.798024
Si Si5 0.909680 0.526254 0.579401
Si Si6 0.048344 0.248345 0.340384
Si Si7 0.346377 0.762229 0.574246
O O1 0.322030 0.896485 0.138316
O O2 0.668490 0.626539 0.473074
O O3 0.341720 0.788747 0.427888
O O4 0.356781 0.075169 0.232827
O O5 0.356640 0.841878 0.950776
O O6 0.500000 0.000000 0.000000
O O7 0.083231 0.269686 0.793675
O O8 0.636910 0.429173 0.281733
O O9 0.789854 0.489796 0.141319
O O10 0.500000 0.500000 0.000000
O O11 0.770652 0.789274 0.663577
O O12 0.560485 0.702405 0.722632
O O13 0.000000 0.500000 0.000000
O O14 0.896712 0.719895 0.539735
O O15 0.000000 0.500000 0.500000
O O16 0.115163 0.013418 0.437726
#
# Coordination Sequence:
#
# PCOD9054722 Si02
#       7
#     2   2   2   2   2   2   2
#     4  11  23  44  70 102 144 181 241 291 340 432
#     4  12  26  44  70 105 137 192 239 285 353 422
#     4  12  28  46  69 104 148 181 234 299 357 422
#     4  11  21  37  75 104 138 182 236 289 342 418
#     4  12  22  39  73 101 137 180 239 290 340 408
#     4  11  21  43  67 102 134 188 233 276 351 426
#     4  11  24  43  70 105 144 188 225 295 370 402
#
# _framework density 24.011386000000002
#
# number of rings (size 3 to 8) (size 9 to 14) (size 15 to 20)
#    0.000    0.571    5.714    3.000    4.000    0.571 
#    2.571    0.714    0.000    0.000    0.000    0.000 
#    0.000    0.000    0.000    0.000    0.000    0.000 
#
# Total GULP energy -78060.891697 kJ/mol
# GULP energy per Si atom -5575.777978 kJ/mol
# Density = 2.395673 g / cm^3
# Si number density = 24.011386 Si / 1000 Ang^3
#
#
#
# Elastic Constant Matrix: (Units=GPa)
#
#
# Indices 1 2 3 4 5 6 
#
# 1 71.7318 24.4292 15.7837 -1.0325 -5.0257 -28.2275
# 2 24.4292 128.9585 19.6691 9.6739 -5.4499 -36.5909
# 3 15.7837 19.6691 104.6739 -12.2816 1.9994 -20.5722
# 4 -1.0325 9.6739 -12.2816 40.4990 -12.6618 0.0894
# 5 -5.0257 -5.4499 1.9994 -12.6618 35.5170 -1.5444
# 6 -28.2275 -36.5909 -20.5722 0.0894 -1.5444 35.4168
#
#
#
# Elastic Compliance Matrix: (Units=1/GPa)
#
#
# Indices 1 2 3 4 5 6 
#
# 1 0.021052 0.001268 0.000334 0.001724 0.004573 0.018477
# 2 0.001268 0.011404 -0.000110 -0.002222 0.001700 0.012808
# 3 0.000334 -0.000110 0.011269 0.003759 0.001029 0.006733
# 4 0.001724 -0.002222 0.003759 0.029631 0.010326 0.001638
# 5 0.004573 0.001700 0.001029 0.010326 0.033009 0.007412
# 6 0.018477 0.012808 0.006733 0.001638 0.007412 0.060425
#
#
# Mechanical properties :
#
#
# Convention : Reuss Voigt Hill
#
# Bulk Modulus (GPa) = 21.40984 47.23648 34.32316
# Shear Modulus (GPa) = 27.87454 38.65204 33.26329
#
# Velocity S-wave (km/s) = 3.41088 4.01651 3.72602
# Velocity P-wave (km/s) = 4.94449 6.42067 5.73031
#
# Compressibility (1/GPa) = 0.04670750
#
# Stress axis : x y z
#
# Youngs Moduli (GPa) = 47.50176 87.69040 88.74281
#
# Poissons Ratio (x) = -0.11118 -0.02962
# Poissons Ratio (y) = -0.06022 0.00975
# Poissons Ratio (z) = -0.01585 0.00964
#
# Static dielectric constant tensor:
#      x y z
#    x 2.058100 0.311040 -0.242970 
#    y 0.311040 2.468370 -0.407720 
#    z -0.242970 -0.407720 2.419580 
# 
# From -- ./inp_files/189484.got.cif
#   From: 2010.05.17/outbox.cif.g08.bks.cpg/sg2_95_cif.got.tgz:189484.got - 2010.06.03 11:33:40.
