data_PCOD9054817
_publ_section_title
;
Structure prediction by ZEFSAII (Michael W. Deem and Ramdas Pophale) SiO2 
 PCOD9054817
Probable space group: P -1
;
_chemical_formula_sum "Si O2"
_cell_formula_units_Z 16
_cell_length_a 14.554827
_cell_length_b 10.582491
_cell_length_c 12.845861
_cell_angle_alpha 92.523361
_cell_angle_beta 152.858548
_cell_angle_gamma 70.600242
_cell_volume 690.722851
_symmetry_space_group_name_H-M "P -1"
_symmetry_group_IT_number 2
_symmetry_cell_setting 'triclinic'
loop_
_space_group_symop_operation_xyz
x,y,z
-x,-y,-z
loop_
_atom_site_type_symbol
_atom_site_label
_atom_site_fract_x
_atom_site_fract_y
_atom_site_fract_z
Si Si1 0.384465 0.321238 0.499342
Si Si2 0.848583 0.824950 0.127401
Si Si3 0.057353 0.841994 0.959390
Si Si4 0.499091 0.885831 0.075574
Si Si5 0.470623 0.187131 0.371191
Si Si6 0.707763 0.345242 0.592517
Si Si7 0.234063 0.379333 0.811949
Si Si8 0.021785 0.339696 0.295876
O O1 0.323491 0.256896 0.336219
O O2 0.369072 0.477287 0.466119
O O3 0.186583 0.373944 0.394522
O O4 0.694524 0.170588 0.823775
O O5 0.660362 0.850969 0.845544
O O6 0.739236 0.992537 0.081957
O O7 0.840112 0.713954 0.197990
O O8 0.121966 0.735008 0.342912
O O9 0.050869 0.739168 0.860276
O O10 0.772779 0.021439 0.681871
O O11 0.130617 0.759660 0.144610
O O12 0.519318 0.753697 0.018168
O O13 0.763169 0.790664 0.407228
O O14 0.500000 0.000000 0.000000
O O15 0.481734 0.330389 0.354988
O O16 0.000000 0.500000 0.500000
O O17 0.222885 0.500604 0.884190
#
# Coordination Sequence:
#
# PCOD9054817 Si02
#       8
#     2   2   2   2   2   2   2   2
#     4  11  24  38  59  91 127 159 194 242 290 352
#     4  11  21  38  67  88 115 163 200 235 303 360
#     4  11  24  38  59  91 127 158 196 241 288 356
#     4   9  20  38  62  90 114 151 201 255 300 343
#     4  11  24  38  59  91 127 159 194 242 290 352
#     4  11  24  38  59  91 127 158 196 241 288 356
#     4   9  20  38  62  90 114 151 201 255 300 343
#     4  11  21  38  67  88 115 163 200 235 303 360
#
# _framework density 23.164138999999999
#
# number of rings (size 3 to 8) (size 9 to 14) (size 15 to 20)
#    0.000    1.500    2.500    3.750    7.000    2.000 
#    0.000    0.000    0.000   30.000    0.000    0.000 
#    0.000    0.000    0.000    0.000    0.000    0.000 
#
# Total GULP energy -89416.703379 kJ/mol
# GULP energy per Si atom -5588.543961 kJ/mol
# Density = 2.311142 g / cm^3
# Si number density = 23.164139 Si / 1000 Ang^3
#
#
#
# Elastic Constant Matrix: (Units=GPa)
#
#
# Indices 1 2 3 4 5 6 
#
# 1 83.3619 39.2265 21.9343 -0.4846 -11.6218 -27.2253
# 2 39.2265 143.3895 4.9632 -13.2554 0.6343 -49.0312
# 3 21.9343 4.9632 39.9122 -5.7685 -11.5728 1.8832
# 4 -0.4846 -13.2554 -5.7685 27.6326 -0.8794 11.2205
# 5 -11.6218 0.6343 -11.5728 -0.8794 35.5230 -5.6509
# 6 -27.2253 -49.0312 1.8832 11.2205 -5.6509 46.7951
#
#
#
# Elastic Compliance Matrix: (Units=1/GPa)
#
#
# Indices 1 2 3 4 5 6 
#
# 1 0.020839 -0.001389 -0.011644 -0.008132 0.005026 0.013694
# 2 -0.001389 0.011149 -0.000776 0.000797 0.000834 0.010814
# 3 -0.011644 -0.000776 0.035570 0.011524 0.006325 -0.011019
# 4 -0.008132 0.000797 0.011524 0.044989 -0.000220 -0.015174
# 5 0.005026 0.000834 0.006325 -0.000220 0.033042 0.007586
# 6 0.013694 0.010814 -0.011019 -0.015174 0.007586 0.045666
#
#
# Mechanical properties :
#
#
# Convention : Reuss Voigt Hill
#
# Bulk Modulus (GPa) = 25.03797 44.32352 34.68074
# Shear Modulus (GPa) = 21.53440 35.35944 28.44692
#
# Velocity S-wave (km/s) = 3.05231 3.91125 3.50817
# Velocity P-wave (km/s) = 4.82230 6.29073 5.60481
#
# Compressibility (1/GPa) = 0.03993934
#
# Stress axis : x y z
#
# Youngs Moduli (GPa) = 47.98658 89.69658 28.11361
#
# Poissons Ratio (x) = 0.12461 0.32735
# Poissons Ratio (y) = 0.06667 0.02182
# Poissons Ratio (z) = 0.55874 0.06963
#
# Static dielectric constant tensor:
#      x y z
#    x 1.865160 -0.011600 -0.015650 
#    y -0.011600 1.910310 -0.050460 
#    z -0.015650 -0.050460 1.876540 
# 
# From -- ./inp_files/273021.got.cif
#   From: 2010.05.17/outbox.cif.g08.bks.cpg/sg2_137_cif.got.tgz:273021.got - 2010.06.03 11:33:40.
