data_PCOD9054394
_publ_section_title
;
Structure prediction by ZEFSAII (Michael W. Deem and Ramdas Pophale) SiO2 
 PCOD9054394
Probable space group: P -1
;
_chemical_formula_sum "Si O2"
_cell_formula_units_Z 16
_cell_length_a 11.878350
_cell_length_b 9.513390
_cell_length_c 14.737682
_cell_angle_alpha 106.877858
_cell_angle_beta 27.034533
_cell_angle_gamma 109.791864
_cell_volume 712.010766
_symmetry_space_group_name_H-M "P -1"
_symmetry_group_IT_number 2
_symmetry_cell_setting 'triclinic'
loop_
_space_group_symop_operation_xyz
x,y,z
-x,-y,-z
loop_
_atom_site_type_symbol
_atom_site_label
_atom_site_fract_x
_atom_site_fract_y
_atom_site_fract_z
Si Si1 0.295472 0.416751 0.860208
Si Si2 0.947176 0.638417 0.170175
Si Si3 0.102534 0.184700 0.599306
Si Si4 0.960686 0.852796 0.720704
Si Si5 0.550476 0.110530 0.170968
Si Si6 0.413396 0.803437 0.117340
Si Si7 0.236178 0.615323 0.389791
Si Si8 0.178810 0.089440 0.961669
O O1 0.577830 0.471289 0.703578
O O2 0.227390 0.408275 0.800777
O O3 0.088584 0.503056 0.067668
O O4 0.257335 0.249766 0.892581
O O5 0.800493 0.703843 0.367475
O O6 0.187748 0.773376 0.004681
O O7 0.317121 0.189465 0.371549
O O8 0.843289 0.228662 0.759818
O O9 0.039263 0.011939 0.644685
O O10 0.939728 0.890370 0.850045
O O11 0.138602 0.737055 0.546765
O O12 0.674962 0.776690 0.882632
O O13 0.474026 0.982914 0.126412
O O14 0.602839 0.006369 0.197717
O O15 0.366402 0.707722 0.225951
O O16 0.000000 0.500000 0.500000
O O17 0.000000 0.000000 0.000000
#
# Coordination Sequence:
#
# PCOD9054394 Si02
#       8
#     2   2   2   2   2   2   2   2
#     4  11  24  49  65  96 145 170 225 284 332 405
#     4  11  26  44  69  98 135 184 214 281 348 391
#     4  12  23  39  70 102 131 175 232 270 338 405
#     4  11  23  42  69  99 130 182 226 274 343 393
#     4  11  22  41  67 101 129 173 225 273 335 390
#     4  11  24  41  67 100 138 172 223 287 326 401
#     4  12  28  44  67 100 138 182 228 281 341 400
#     4  11  20  43  74  95 133 177 222 277 331 398
#
# _framework density 22.471572999999999
#
# number of rings (size 3 to 8) (size 9 to 14) (size 15 to 20)
#    0.000    0.750    7.500    0.750    3.500    2.500 
#    0.000    3.750    0.000    0.000    0.000    0.000 
#    0.000    0.000    0.000    0.000    0.000    0.000 
#
# Total GULP energy -89397.962135 kJ/mol
# GULP energy per Si atom -5587.372633 kJ/mol
# Density = 2.242043 g / cm^3
# Si number density = 22.471573 Si / 1000 Ang^3
#
#
#
# Elastic Constant Matrix: (Units=GPa)
#
#
# Indices 1 2 3 4 5 6 
#
# 1 111.1076 11.0139 23.5688 4.4157 -25.5169 2.6191
# 2 11.0139 58.6656 9.7560 4.1781 -13.7512 1.0551
# 3 23.5688 9.7560 73.3809 6.6815 -1.4325 -8.7082
# 4 4.4157 4.1781 6.6815 24.4758 3.9232 -9.3892
# 5 -25.5169 -13.7512 -1.4325 3.9232 20.9739 8.1450
# 6 2.6191 1.0551 -8.7082 -9.3892 8.1450 32.0700
#
#
#
# Elastic Compliance Matrix: (Units=1/GPa)
#
#
# Indices 1 2 3 4 5 6 
#
# 1 0.019975 0.008310 -0.007475 -0.016574 0.039663 -0.018860
# 2 0.008310 0.026795 -0.006038 -0.017217 0.037371 -0.017732
# 3 -0.007475 -0.006038 0.017406 0.004688 -0.017111 0.011254
# 4 -0.016574 -0.017217 0.004688 0.069835 -0.059215 0.038678
# 5 0.039663 0.037371 -0.017111 -0.059215 0.156000 -0.066072
# 6 -0.018860 -0.017732 0.011254 0.038678 -0.066072 0.064466
#
#
# Mechanical properties :
#
#
# Convention : Reuss Voigt Hill
#
# Bulk Modulus (GPa) = 18.59850 36.87015 27.73432
# Shear Modulus (GPa) = 13.06144 28.75831 20.90987
#
# Velocity S-wave (km/s) = 2.41351 3.58126 3.05372
# Velocity P-wave (km/s) = 4.00764 5.79169 4.98020
#
# Compressibility (1/GPa) = 0.05376777
#
# Stress axis : x y z
#
# Youngs Moduli (GPa) = 50.06375 37.32064 57.45198
#
# Poissons Ratio (x) = -0.31012 0.42946
# Poissons Ratio (y) = -0.41602 0.34692
# Poissons Ratio (z) = 0.37423 0.22536
#
# Static dielectric constant tensor:
#      x y z
#    x 1.884160 0.033010 -0.053170 
#    y 0.033010 1.843820 -0.078660 
#    z -0.053170 -0.078660 1.918910 
# 
# From -- ./inp_files/515842.got.cif
#   From: 2010.05.17/outbox.cif.g08.bks.cpg/sg2_258_cif.got.tgz:515842.got - 2010.06.03 11:33:40.
