data_PCOD9054703
_publ_section_title
;
Structure prediction by ZEFSAII (Michael W. Deem and Ramdas Pophale) SiO2 
 PCOD9054703
Probable space group: P -1
;
_chemical_formula_sum "Si O2"
_cell_formula_units_Z 16
_cell_length_a 8.843768
_cell_length_b 16.078650
_cell_length_c 12.194076
_cell_angle_alpha 46.148874
_cell_angle_beta 48.263283
_cell_angle_gamma 30.301205
_cell_volume 619.921933
_symmetry_space_group_name_H-M "P -1"
_symmetry_group_IT_number 2
_symmetry_cell_setting 'triclinic'
loop_
_space_group_symop_operation_xyz
x,y,z
-x,-y,-z
loop_
_atom_site_type_symbol
_atom_site_label
_atom_site_fract_x
_atom_site_fract_y
_atom_site_fract_z
Si Si1 0.076826 0.995864 0.341807
Si Si2 0.208049 0.189221 0.423833
Si Si3 0.180296 0.222135 0.057567
Si Si4 0.117553 0.604140 0.400045
Si Si5 0.145119 0.100487 0.879874
Si Si6 0.773598 0.427062 0.256811
Si Si7 0.289361 0.872501 0.815939
Si Si8 0.737852 0.632183 0.284516
O O1 0.399077 0.804710 0.329075
O O2 0.087271 0.129127 0.195088
O O3 0.000000 0.000000 0.500000
O O4 0.843574 0.053977 0.308110
O O5 0.353508 0.251443 0.258924
O O6 0.975342 0.286729 0.545640
O O7 0.013384 0.235605 0.371649
O O8 0.500000 0.000000 0.500000
O O9 0.965487 0.382660 0.099299
O O10 0.542077 0.064489 0.057427
O O11 0.139250 0.303317 0.888188
O O12 0.464407 0.494388 0.310193
O O13 0.098615 0.487769 0.575290
O O14 0.898096 0.751503 0.279419
O O15 0.171579 0.012596 0.836576
O O16 0.849629 0.185744 0.013601
O O17 0.715646 0.547908 0.269949
#
# Coordination Sequence:
#
# PCOD9054703 Si02
#       8
#     2   2   2   2   2   2   2   2
#     4  12  28  46  76 107 152 200 249 294 374 452
#     4  11  21  37  67 106 140 188 244 303 350 429
#     4  12  25  47  78 111 143 200 252 302 366 450
#     4  11  24  39  68 107 149 183 235 309 372 417
#     4  11  24  44  77 111 146 189 257 310 359 434
#     4  11  24  42  73 110 149 190 246 309 372 430
#     4  11  24  42  72 109 145 189 254 307 356 428
#     4  11  24  44  70 109 147 193 242 311 360 440
#
# _framework density 25.809699999999999
#
# number of rings (size 3 to 8) (size 9 to 14) (size 15 to 20)
#    0.000    0.750    3.750    3.750    7.000    2.000 
#    0.000    0.625    5.500    4.500    0.000    0.000 
#    0.000    0.000    0.000    0.000    0.000    0.000 
#
# Total GULP energy -89419.081065 kJ/mol
# GULP energy per Si atom -5588.692567 kJ/mol
# Density = 2.575096 g / cm^3
# Si number density = 25.809700 Si / 1000 Ang^3
#
#
#
# Elastic Constant Matrix: (Units=GPa)
#
#
# Indices 1 2 3 4 5 6 
#
# 1 80.5296 17.3170 45.6039 -7.6591 11.6806 16.3001
# 2 17.3170 95.9827 49.6084 10.0023 4.2915 0.5018
# 3 45.6039 49.6084 204.2112 -9.4130 14.5882 1.1698
# 4 -7.6591 10.0023 -9.4130 51.0607 3.8356 -5.6435
# 5 11.6806 4.2915 14.5882 3.8356 48.7424 -1.9872
# 6 16.3001 0.5018 1.1698 -5.6435 -1.9872 30.8340
#
#
#
# Elastic Compliance Matrix: (Units=1/GPa)
#
#
# Indices 1 2 3 4 5 6 
#
# 1 0.016869 -0.001426 -0.003051 0.001545 -0.003481 -0.008720
# 2 -0.001426 0.012487 -0.002889 -0.003209 0.000364 0.000097
# 3 -0.003051 -0.002889 0.006413 0.001546 -0.000989 0.001636
# 4 0.001545 -0.003209 0.001546 0.021211 -0.002100 0.002924
# 5 -0.003481 0.000364 -0.000989 -0.002100 0.021898 0.002899
# 6 -0.008720 0.000097 0.001636 0.002924 0.002899 0.037700
#
#
# Mechanical properties :
#
#
# Convention : Reuss Voigt Hill
#
# Bulk Modulus (GPa) = 47.53882 67.30915 57.42399
# Shear Modulus (GPa) = 36.14756 44.00702 40.07729
#
# Velocity S-wave (km/s) = 3.74644 4.13371 3.94483
# Velocity P-wave (km/s) = 6.09700 6.99422 6.56096
#
# Compressibility (1/GPa) = 0.02103544
#
# Stress axis : x y z
#
# Youngs Moduli (GPa) = 59.27985 80.08377 155.94337
#
# Poissons Ratio (x) = 0.11424 0.47575
# Poissons Ratio (y) = 0.08456 0.45057
# Poissons Ratio (z) = 0.18085 0.23139
#
# Static dielectric constant tensor:
#      x y z
#    x 2.080420 0.062050 -0.088800 
#    y 0.062050 2.033520 -0.067520 
#    z -0.088800 -0.067520 2.080110 
# 
# From -- ./inp_files/402954.got.cif
#   From: 2010.05.17/outbox.cif.g08.bks.cpg/sg2_202_cif.got.tgz:402954.got - 2010.06.03 11:33:40.
