data_PCOD9054594
_publ_section_title
;
Structure prediction by ZEFSAII (Michael W. Deem and Ramdas Pophale) SiO2 
 PCOD9054594
Probable space group: P -1
;
_chemical_formula_sum "Si O2"
_cell_formula_units_Z 16
_cell_length_a 8.452812
_cell_length_b 8.403032
_cell_length_c 15.091719
_cell_angle_alpha 38.463237
_cell_angle_beta 74.922167
_cell_angle_gamma 81.733512
_cell_volume 640.602992
_symmetry_space_group_name_H-M "P -1"
_symmetry_group_IT_number 2
_symmetry_cell_setting 'triclinic'
loop_
_space_group_symop_operation_xyz
x,y,z
-x,-y,-z
loop_
_atom_site_type_symbol
_atom_site_label
_atom_site_fract_x
_atom_site_fract_y
_atom_site_fract_z
Si Si1 0.719313 0.024858 0.720517
Si Si2 0.601443 0.753997 0.561377
Si Si3 0.870498 0.339361 0.151202
Si Si4 0.813588 0.027305 0.045843
Si Si5 0.314266 0.211588 0.997738
Si Si6 0.362813 0.496717 0.151655
Si Si7 0.368008 0.122006 0.694564
Si Si8 0.981457 0.912697 0.441220
O O1 0.678298 0.777132 0.769760
O O2 0.543805 0.127278 0.713322
O O3 0.781728 0.958438 0.837833
O O4 0.860174 0.205471 0.569634
O O5 0.580577 0.551836 0.733419
O O6 0.577785 0.724531 0.471596
O O7 0.800454 0.776831 0.521406
O O8 0.500000 0.000000 0.500000
O O9 0.783519 0.553729 0.121594
O O10 0.721878 0.150806 0.211460
O O11 0.968356 0.162781 0.274805
O O12 0.000000 0.500000 0.000000
O O13 0.682253 0.951530 0.019612
O O14 0.760721 0.855095 0.215321
O O15 0.783414 0.328754 0.926537
O O16 0.000000 0.000000 0.000000
O O17 0.471272 0.335388 0.975840
O O18 0.000000 0.000000 0.500000
#
# Coordination Sequence:
#
# PCOD9054594 Si02
#       8
#     2   2   2   2   2   2   2   2
#     4  12  22  39  72 101 129 165 227 279 341 382
#     4  11  22  43  68 105 135 170 215 285 344 394
#     4  11  21  36  65  95 125 165 223 280 328 385
#     4  12  29  44  64  95 140 184 228 269 327 397
#     4  12  24  41  65  97 129 177 225 272 327 396
#     4  12  23  44  70  99 133 172 223 279 336 395
#     4  11  23  44  66  98 136 170 220 285 338 388
#     4  11  22  35  63 102 134 161 209 280 343 394
#
# _framework density 24.976468000000001
#
# number of rings (size 3 to 8) (size 9 to 14) (size 15 to 20)
#    0.000    0.500    6.250    3.000    3.500    0.000 
#    0.000    1.250    2.750    0.000    0.000    0.000 
#    0.000    0.000    0.000    0.000    0.000    0.000 
#
# Total GULP energy -89197.446980 kJ/mol
# GULP energy per Si atom -5574.840436 kJ/mol
# Density = 2.491962 g / cm^3
# Si number density = 24.976468 Si / 1000 Ang^3
#
#
#
# Elastic Constant Matrix: (Units=GPa)
#
#
# Indices 1 2 3 4 5 6 
#
# 1 91.2479 2.6284 8.4680 8.4429 -14.6547 -17.6574
# 2 2.6284 57.5024 11.6217 18.1777 -2.7369 1.9447
# 3 8.4680 11.6217 110.1453 36.4514 7.9730 -8.3030
# 4 8.4429 18.1777 36.4514 47.1047 3.8120 -0.4787
# 5 -14.6547 -2.7369 7.9730 3.8120 45.7007 12.1316
# 6 -17.6574 1.9447 -8.3030 -0.4787 12.1316 38.7557
#
#
#
# Elastic Compliance Matrix: (Units=1/GPa)
#
#
# Indices 1 2 3 4 5 6 
#
# 1 0.012589 0.000206 -0.000015 -0.002519 0.003001 0.004752
# 2 0.000206 0.020091 0.000287 -0.008219 0.002354 -0.001691
# 3 -0.000015 0.000287 0.012669 -0.009696 -0.002260 0.003281
# 4 -0.002519 -0.008219 -0.009696 0.032485 -0.001830 -0.001838
# 5 0.003001 0.002354 -0.002260 -0.001830 0.025449 -0.007224
# 6 0.004752 -0.001691 0.003281 -0.001838 -0.007224 0.030994
#
#
# Mechanical properties :
#
#
# Convention : Reuss Voigt Hill
#
# Bulk Modulus (GPa) = 21.59616 33.81463 27.70540
# Shear Modulus (GPa) = 33.61177 42.05739 37.83458
#
# Velocity S-wave (km/s) = 3.67241 4.10796 3.89628
# Velocity P-wave (km/s) = 5.16212 6.00570 5.59982
#
# Compressibility (1/GPa) = 0.04630452
#
# Stress axis : x y z
#
# Youngs Moduli (GPa) = 79.43384 49.77400 78.93002
#
# Poissons Ratio (x) = -0.01025 0.00118
# Poissons Ratio (y) = -0.01636 -0.02262
# Poissons Ratio (z) = 0.00119 -0.01427
#
# Static dielectric constant tensor:
#      x y z
#    x 1.999560 -0.066080 -0.108300 
#    y -0.066080 2.054990 0.057210 
#    z -0.108300 0.057210 2.136590 
# 
# From -- ./inp_files/345613.got.cif
#   From: 2010.05.17/outbox.cif.g08.bks.cpg/sg2_173_cif.got.tgz:345613.got - 2010.06.03 11:33:40.
