data_PCOD9054184
_publ_section_title
;
Structure prediction by ZEFSAII (Michael W. Deem and Ramdas Pophale) SiO2 
 PCOD9054184
Probable space group: P -1
;
_chemical_formula_sum "Si O2"
_cell_formula_units_Z 16
_cell_length_a 6.511607
_cell_length_b 7.787617
_cell_length_c 17.812244
_cell_angle_alpha 96.592433
_cell_angle_beta 48.664393
_cell_angle_gamma 86.614431
_cell_volume 662.622568
_symmetry_space_group_name_H-M "P -1"
_symmetry_group_IT_number 2
_symmetry_cell_setting 'triclinic'
loop_
_space_group_symop_operation_xyz
x,y,z
-x,-y,-z
loop_
_atom_site_type_symbol
_atom_site_label
_atom_site_fract_x
_atom_site_fract_y
_atom_site_fract_z
Si Si1 0.614129 0.079855 0.802174
Si Si2 0.925668 0.632503 0.093583
Si Si3 0.743121 0.341868 0.205594
Si Si4 0.825180 0.424710 0.423797
Si Si5 0.761124 0.399966 0.607786
Si Si6 0.305220 0.975972 0.387235
Si Si7 0.268182 0.857748 0.951942
Si Si8 0.154763 0.904492 0.703155
O O1 0.370616 0.245344 0.851955
O O2 0.657412 0.975632 0.706479
O O3 0.510515 0.969841 0.890246
O O4 0.933333 0.079311 0.746746
O O5 0.909864 0.501664 0.160325
O O6 0.000000 0.500000 0.000000
O O7 0.162803 0.754624 0.041919
O O8 0.471674 0.426893 0.322015
O O9 0.666907 0.282134 0.138753
O O10 0.881552 0.169940 0.208533
O O11 0.500000 0.500000 0.500000
O O12 0.885574 0.368453 0.492940
O O13 0.889516 0.259829 0.345738
O O14 0.012866 0.575862 0.382287
O O15 0.616157 0.234461 0.646517
O O16 0.533802 0.058653 0.380690
O O17 0.000000 0.000000 0.500000
O O18 0.000000 0.000000 0.000000
#
# Coordination Sequence:
#
# PCOD9054184 Si02
#       8
#     2   2   2   2   2   2   2   2
#     4  11  22  44  68 100 139 185 231 292 355 418
#     4   9  20  41  72 100 131 184 232 285 362 426
#     4  11  20  41  66  98 136 181 226 290 349 419
#     4  11  23  41  65 100 136 185 239 293 341 412
#     4  11  24  41  67  93 138 187 236 281 352 414
#     4  12  26  44  68 100 147 194 236 289 350 421
#     4   9  19  39  72  95 132 183 226 282 363 422
#     4  12  26  42  71 105 144 185 244 291 349 416
#
# _framework density 24.146477000000001
#
# number of rings (size 3 to 8) (size 9 to 14) (size 15 to 20)
#    0.000    1.250    3.750    2.250    1.750    3.000 
#    0.000    6.250    0.000    0.000    0.000    0.000 
#    0.000    0.000    0.000    0.000    0.000    0.000 
#
# Total GULP energy -89199.623885 kJ/mol
# GULP energy per Si atom -5574.976493 kJ/mol
# Density = 2.409152 g / cm^3
# Si number density = 24.146477 Si / 1000 Ang^3
#
#
#
# Elastic Constant Matrix: (Units=GPa)
#
#
# Indices 1 2 3 4 5 6 
#
# 1 72.7395 19.4973 21.6568 -4.1031 -9.8914 3.6043
# 2 19.4973 85.5052 17.0190 -11.0115 -2.2579 4.2288
# 3 21.6568 17.0190 106.5820 -0.5048 -10.4204 -7.3699
# 4 -4.1031 -11.0115 -0.5048 43.6776 4.0930 -6.9149
# 5 -9.8914 -2.2579 -10.4204 4.0930 22.6905 10.2601
# 6 3.6043 4.2288 -7.3699 -6.9149 10.2601 23.1536
#
#
#
# Elastic Compliance Matrix: (Units=1/GPa)
#
#
# Indices 1 2 3 4 5 6 
#
# 1 0.016877 -0.002876 -0.002565 -0.001249 0.009513 -0.007507
# 2 -0.002876 0.013097 -0.001646 0.002858 -0.000615 -0.001342
# 3 -0.002565 -0.001646 0.010595 -0.000277 0.002288 0.002976
# 4 -0.001249 0.002858 -0.000277 0.026428 -0.010674 0.012207
# 5 0.009513 -0.000615 0.002288 -0.010674 0.066111 -0.033124
# 6 -0.007507 -0.001342 0.002976 0.012207 -0.033124 0.063875
#
#
# Mechanical properties :
#
#
# Convention : Reuss Voigt Hill
#
# Bulk Modulus (GPa) = 37.88780 42.35256 40.12018
# Shear Modulus (GPa) = 22.73180 31.68123 27.20652
#
# Velocity S-wave (km/s) = 3.07157 3.62614 3.36032
# Velocity P-wave (km/s) = 5.32018 5.92535 5.63090
#
# Compressibility (1/GPa) = 0.02639372
#
# Stress axis : x y z
#
# Youngs Moduli (GPa) = 59.25051 76.35388 94.38702
#
# Poissons Ratio (x) = 0.21962 0.24211
# Poissons Ratio (y) = 0.17042 0.15539
# Poissons Ratio (z) = 0.15198 0.12570
#
# Static dielectric constant tensor:
#      x y z
#    x 1.993610 0.019910 -0.031510 
#    y 0.019910 2.054210 -0.095560 
#    z -0.031510 -0.095560 1.985380 
# 
# From -- ./inp_files/525786.got.cif
#   From: 2010.05.17/outbox.cif.g08.bks.cpg/sg2_263_cif.got.tgz:525786.got - 2010.06.03 11:33:40.
