data_PCOD9054179
_publ_section_title
;
Structure prediction by ZEFSAII (Michael W. Deem and Ramdas Pophale) SiO2 
 PCOD9054179
Probable space group: P -1
;
_chemical_formula_sum "Si O2"
_cell_formula_units_Z 16
_cell_length_a 7.102198
_cell_length_b 16.040970
_cell_length_c 18.295075
_cell_angle_alpha 158.429028
_cell_angle_beta 119.917586
_cell_angle_gamma 69.904390
_cell_volume 615.089524
_symmetry_space_group_name_H-M "P -1"
_symmetry_group_IT_number 2
_symmetry_cell_setting 'triclinic'
loop_
_space_group_symop_operation_xyz
x,y,z
-x,-y,-z
loop_
_atom_site_type_symbol
_atom_site_label
_atom_site_fract_x
_atom_site_fract_y
_atom_site_fract_z
Si Si1 0.082754 0.216272 0.494177
Si Si2 0.621187 0.520373 0.645205
Si Si3 0.119817 0.275232 0.279019
Si Si4 0.394277 0.651381 0.334654
Si Si5 0.133690 0.977697 0.851349
Si Si6 0.280225 0.191157 0.824916
Si Si7 0.210712 0.739986 0.018173
Si Si8 0.052597 0.410230 0.859062
O O1 0.330439 0.205364 0.508574
O O2 0.147696 0.494574 0.757166
O O3 0.889981 0.124563 0.317865
O O4 0.962026 0.027658 0.380934
O O5 0.369178 0.346963 0.425901
O O6 0.800412 0.563195 0.646979
O O7 0.658396 0.420711 0.649645
O O8 0.637240 0.796142 0.894197
O O9 0.940172 0.243777 0.285943
O O10 0.000000 0.000000 0.000000
O O11 0.206130 0.759451 0.357904
O O12 0.330949 0.402399 0.070134
O O13 0.939310 0.106725 0.914334
O O14 0.243010 0.298476 0.827106
O O15 0.509506 0.124616 0.819612
O O16 0.144074 0.625975 0.993366
O O17 0.000000 0.500000 0.000000
#
# Coordination Sequence:
#
# PCOD9054179 Si02
#       8
#     2   2   2   2   2   2   2   2
#     4  11  23  38  61  92 124 168 215 262 312 368
#     4  10  17  35  63  95 125 161 211 257 310 378
#     4   9  20  32  61 100 126 158 205 259 314 378
#     4  10  19  36  64  92 121 169 215 257 313 380
#     4  11  20  39  64  92 124 169 210 253 319 371
#     4  10  22  39  58  88 130 166 208 266 315 362
#     4  11  24  39  63  94 126 166 215 261 309 381
#     4  10  20  40  64  89 127 167 211 266 317 365
#
# _framework density 26.012475999999999
#
# number of rings (size 3 to 8) (size 9 to 14) (size 15 to 20)
#    0.000    1.750    3.750    1.125    0.000    3.000 
#    0.000    1.250    0.000    9.750    0.000    0.000 
#    0.000    0.000    0.000    0.000    0.000    0.000 
#
# Total GULP energy -89431.827189 kJ/mol
# GULP energy per Si atom -5589.489199 kJ/mol
# Density = 2.595327 g / cm^3
# Si number density = 26.012476 Si / 1000 Ang^3
#
#
#
# Elastic Constant Matrix: (Units=GPa)
#
#
# Indices 1 2 3 4 5 6 
#
# 1 84.4490 36.7806 22.1342 5.1456 11.7590 2.2987
# 2 36.7806 147.3917 49.8040 -19.6750 3.7572 11.7616
# 3 22.1342 49.8040 144.3024 -1.1331 21.0506 -10.2525
# 4 5.1456 -19.6750 -1.1331 46.3818 2.6375 -2.1633
# 5 11.7590 3.7572 21.0506 2.6375 48.4734 3.1713
# 6 2.2987 11.7616 -10.2525 -2.1633 3.1713 44.0835
#
#
#
# Elastic Compliance Matrix: (Units=1/GPa)
#
#
# Indices 1 2 3 4 5 6 
#
# 1 0.014150 -0.003706 -0.000496 -0.002987 -0.002780 0.000189
# 2 -0.003706 0.009513 -0.003109 0.004148 0.001481 -0.002971
# 3 -0.000496 -0.003109 0.008827 -0.000695 -0.003640 0.003136
# 4 -0.002987 0.004148 -0.000695 0.023672 -0.000589 0.000091
# 5 -0.002780 0.001481 -0.003640 -0.000589 0.022984 -0.002779
# 6 0.000189 -0.002971 0.003136 0.000091 -0.002779 0.024401
#
#
# Mechanical properties :
#
#
# Convention : Reuss Voigt Hill
#
# Bulk Modulus (GPa) = 55.96814 65.95341 60.96078
# Shear Modulus (GPa) = 40.28178 45.61601 42.94890
#
# Velocity S-wave (km/s) = 3.93944 4.19217 4.06777
# Velocity P-wave (km/s) = 6.50037 6.98870 6.74895
#
# Compressibility (1/GPa) = 0.01786731
#
# Stress axis : x y z
#
# Youngs Moduli (GPa) = 70.67326 105.11626 113.28400
#
# Poissons Ratio (x) = 0.38961 0.05615
# Poissons Ratio (y) = 0.26195 0.35224
# Poissons Ratio (z) = 0.03503 0.32685
#
# Static dielectric constant tensor:
#      x y z
#    x 2.121290 -0.020800 -0.084070 
#    y -0.020800 2.022820 -0.011410 
#    z -0.084070 -0.011410 2.112150 
# 
# From -- ./inp_files/561431.got.cif
#   From: 2010.05.17/outbox.cif.g08.bks.cpg/sg2_281_cif.got.tgz:561431.got - 2010.06.03 11:33:40.
