data_PCOD9054248
_publ_section_title
;
Structure prediction by ZEFSAII (Michael W. Deem and Ramdas Pophale) SiO2 
 PCOD9054248
Probable space group: P -1
;
_chemical_formula_sum "Si O2"
_cell_formula_units_Z 16
_cell_length_a 8.266015
_cell_length_b 11.596846
_cell_length_c 14.344643
_cell_angle_alpha 149.680507
_cell_angle_beta 116.048010
_cell_angle_gamma 64.659736
_cell_volume 620.017283
_symmetry_space_group_name_H-M "P -1"
_symmetry_group_IT_number 2
_symmetry_cell_setting 'triclinic'
loop_
_space_group_symop_operation_xyz
x,y,z
-x,-y,-z
loop_
_atom_site_type_symbol
_atom_site_label
_atom_site_fract_x
_atom_site_fract_y
_atom_site_fract_z
Si Si1 0.532861 0.731627 0.074141
Si Si2 0.988993 0.875454 0.072935
Si Si3 0.226116 0.490245 0.787456
Si Si4 0.784060 0.476133 0.819805
Si Si5 0.331274 0.017541 0.544972
Si Si6 0.690440 0.514991 0.609991
Si Si7 0.054352 0.324320 0.473363
Si Si8 0.342427 0.981357 0.022115
O O1 0.385961 0.558397 0.940132
O O2 0.701306 0.576567 0.965476
O O3 0.581113 0.923441 0.291905
O O4 0.435292 0.833875 0.025711
O O5 0.101808 0.055121 0.277100
O O6 0.929602 0.661105 0.967964
O O7 0.827522 0.047001 0.107242
O O8 0.093102 0.722915 0.913963
O O9 0.190413 0.245112 0.649867
O O10 0.231130 0.415258 0.629211
O O11 0.678113 0.504984 0.712617
O O12 0.779576 0.202802 0.639730
O O13 0.500000 0.000000 0.500000
O O14 0.500000 0.500000 0.500000
O O15 0.870018 0.352721 0.510830
O O16 0.724403 0.775013 0.778133
O O17 0.000000 0.500000 0.500000
O O18 0.500000 0.000000 0.000000
#
# Coordination Sequence:
#
# PCOD9054248 Si02
#       8
#     2   2   2   2   2   2   2   2
#     4  12  26  45  81 106 146 201 248 317 377 441
#     4  11  26  47  71 114 153 194 243 307 382 445
#     4  12  28  49  72 109 154 192 256 308 373 451
#     4  11  25  48  75 109 144 194 261 305 373 441
#     4  12  29  51  78 109 145 198 267 315 371 445
#     4  11  23  41  70 108 150 193 247 302 364 449
#     4  12  28  46  73 111 160 198 238 306 385 445
#     4  11  20  41  72 107 147 183 239 297 366 452
#
# _framework density 25.805731000000002
#
# number of rings (size 3 to 8) (size 9 to 14) (size 15 to 20)
#    0.000    0.500    6.250    2.625    7.000    1.500 
#    0.000    1.250    0.000    0.000    0.000    0.000 
#    0.000    0.000    0.000    0.000    0.000    0.000 
#
# Total GULP energy -89159.013680 kJ/mol
# GULP energy per Si atom -5572.438355 kJ/mol
# Density = 2.574700 g / cm^3
# Si number density = 25.805731 Si / 1000 Ang^3
#
#
#
# Elastic Constant Matrix: (Units=GPa)
#
#
# Indices 1 2 3 4 5 6 
#
# 1 51.6697 16.3419 31.5729 -12.9160 -2.5320 6.2273
# 2 16.3419 91.5873 39.2028 -0.0717 3.0125 -3.7418
# 3 31.5729 39.2028 195.8482 14.9094 2.1341 8.0014
# 4 -12.9160 -0.0717 14.9094 46.9272 1.7877 4.8990
# 5 -2.5320 3.0125 2.1341 1.7877 31.4875 -4.2298
# 6 6.2273 -3.7418 8.0014 4.8990 -4.2298 30.4131
#
#
#
# Elastic Compliance Matrix: (Units=1/GPa)
#
#
# Indices 1 2 3 4 5 6 
#
# 1 0.025792 -0.003178 -0.003976 0.008919 0.001352 -0.005875
# 2 -0.003178 0.012505 -0.002056 -0.000446 -0.000928 0.002673
# 3 -0.003976 -0.002056 0.006424 -0.003047 -0.000480 -0.000705
# 4 0.008919 -0.000446 -0.003047 0.025333 -0.001187 -0.005325
# 5 0.001352 -0.000928 -0.000480 -0.001187 0.032656 0.004468
# 6 -0.005875 0.002673 -0.000705 -0.005325 0.004468 0.036077
#
#
# Mechanical properties :
#
#
# Convention : Reuss Voigt Hill
#
# Bulk Modulus (GPa) = 38.01907 57.03780 47.52843
# Shear Modulus (GPa) = 30.12528 38.56472 34.34500
#
# Velocity S-wave (km/s) = 3.42041 3.86997 3.65212
# Velocity P-wave (km/s) = 5.51033 6.48997 6.02011
#
# Compressibility (1/GPa) = 0.02630259
#
# Stress axis : x y z
#
# Youngs Moduli (GPa) = 38.77202 79.96828 155.65672
#
# Poissons Ratio (x) = 0.25413 0.61881
# Poissons Ratio (y) = 0.12321 0.32002
# Poissons Ratio (z) = 0.15414 0.16441
#
# Static dielectric constant tensor:
#      x y z
#    x 2.478020 -0.000820 0.193150 
#    y -0.000820 2.227900 -0.074760 
#    z 0.193150 -0.074760 2.127300 
# 
# From -- ./inp_files/501263.got.cif
#   From: 2010.05.17/outbox.cif.g08.bks.cpg/sg2_251_cif.got.tgz:501263.got - 2010.06.03 11:33:40.
