data_PCOD9054745
_publ_section_title
;
Structure prediction by ZEFSAII (Michael W. Deem and Ramdas Pophale) SiO2 
 PCOD9054745
Probable space group: P -1
;
_chemical_formula_sum "Si O2"
_cell_formula_units_Z 14
_cell_length_a 11.019773
_cell_length_b 8.038177
_cell_length_c 9.186719
_cell_angle_alpha 130.656915
_cell_angle_beta 72.205575
_cell_angle_gamma 115.067762
_cell_volume 558.664690
_symmetry_space_group_name_H-M "P -1"
_symmetry_group_IT_number 2
_symmetry_cell_setting 'triclinic'
loop_
_space_group_symop_operation_xyz
x,y,z
-x,-y,-z
loop_
_atom_site_type_symbol
_atom_site_label
_atom_site_fract_x
_atom_site_fract_y
_atom_site_fract_z
Si Si1 0.022301 0.248510 0.055695
Si Si2 0.442484 0.173286 0.715698
Si Si3 0.876938 0.285449 0.378930
Si Si4 0.462534 0.865681 0.783539
Si Si5 0.308281 0.321689 0.474309
Si Si6 0.710159 0.513982 0.732430
Si Si7 0.155499 0.172476 0.708727
O O1 0.166233 0.394356 0.152734
O O2 0.893475 0.292301 0.201896
O O3 0.053747 0.278216 0.890750
O O4 0.000000 0.000000 0.000000
O O5 0.568885 0.406175 0.798808
O O6 0.311634 0.234890 0.742085
O O7 0.500000 0.000000 0.500000
O O8 0.410155 0.043184 0.808220
O O9 0.745228 0.318464 0.512423
O O10 0.000000 0.500000 0.500000
O O11 0.897751 0.081109 0.349540
O O12 0.375631 0.589045 0.658377
O O13 0.593409 0.834346 0.635216
O O14 0.500000 0.000000 0.000000
O O15 0.288655 0.314953 0.303335
O O16 0.174241 0.212652 0.554181
#
# Coordination Sequence:
#
# PCOD9054745 Si02
#       7
#     2   2   2   2   2   2   2
#     4   9  22  39  60  87 113 160 213 252 298 370
#     4  12  20  38  62  93 121 166 200 243 318 382
#     4   9  18  39  62  81 113 162 211 245 298 367
#     4  11  24  38  57  88 138 168 199 245 307 381
#     4  11  22  40  56  94 129 161 203 261 309 362
#     4  11  21  38  66  88 121 164 204 255 313 369
#     4  11  21  38  62  89 129 155 204 259 306 370
#
# _framework density 25.059753000000001
#
# number of rings (size 3 to 8) (size 9 to 14) (size 15 to 20)
#    0.000    1.429    4.286    0.857    4.000    0.571 
#    0.000    7.143    0.000    0.000    0.000    0.000 
#    0.000    0.000    0.000    0.000    0.000    0.000 
#
# Total GULP energy -77989.537076 kJ/mol
# GULP energy per Si atom -5570.681220 kJ/mol
# Density = 2.500272 g / cm^3
# Si number density = 25.059753 Si / 1000 Ang^3
#
#
#
# Elastic Constant Matrix: (Units=GPa)
#
#
# Indices 1 2 3 4 5 6 
#
# 1 45.0187 12.7544 4.5280 -0.4736 -12.9799 1.2754
# 2 12.7544 113.0111 33.9530 -26.3412 -8.5785 27.4593
# 3 4.5280 33.9530 92.8351 -29.2091 -25.5065 17.3436
# 4 -0.4736 -26.3412 -29.2091 35.9716 7.6319 -4.7136
# 5 -12.9799 -8.5785 -25.5065 7.6319 34.2544 -6.3473
# 6 1.2754 27.4593 17.3436 -4.7136 -6.3473 51.8228
#
#
#
# Elastic Compliance Matrix: (Units=1/GPa)
#
#
# Indices 1 2 3 4 5 6 
#
# 1 0.026344 -0.003864 0.001975 -0.003077 0.011518 0.001869
# 2 -0.003864 0.012789 -0.001600 0.007740 -0.002236 -0.005716
# 3 0.001975 -0.001600 0.018286 0.010986 0.010964 -0.002978
# 4 -0.003077 0.007740 0.010986 0.042068 -0.001165 -0.004019
# 5 0.011518 -0.002236 0.010964 -0.001165 0.041838 0.002251
# 6 0.001869 -0.005716 -0.002978 -0.004019 0.002251 0.023186
#
#
# Mechanical properties :
#
#
# Convention : Reuss Voigt Hill
#
# Bulk Modulus (GPa) = 19.82465 39.25953 29.54209
# Shear Modulus (GPa) = 26.55292 37.71839 32.13566
#
# Velocity S-wave (km/s) = 3.25866 3.88382 3.58489
# Velocity P-wave (km/s) = 4.69964 5.98435 5.38048
#
# Compressibility (1/GPa) = 0.05044226
#
# Stress axis : x y z
#
# Youngs Moduli (GPa) = 37.95869 78.19470 54.68596
#
# Poissons Ratio (x) = 0.30212 -0.10802
# Poissons Ratio (y) = 0.14666 0.08750
# Poissons Ratio (z) = -0.07498 0.12512
#
# Static dielectric constant tensor:
#      x y z
#    x 1.955200 -0.459770 0.035870 
#    y -0.459770 1.681490 0.214880 
#    z 0.035870 0.214880 2.142130 
# 
# From -- ./inp_files/207971.got.cif
#   From: 2010.05.17/outbox.cif.g08.bks.cpg/sg2_104_cif.got.tgz:207971.got - 2010.06.03 11:33:40.
