data_PCOD9054216
_publ_section_title
;
Structure prediction by ZEFSAII (Michael W. Deem and Ramdas Pophale) SiO2 
 PCOD9054216
Probable space group: P -1
;
_chemical_formula_sum "Si O2"
_cell_formula_units_Z 16
_cell_length_a 20.001014
_cell_length_b 23.249871
_cell_length_c 9.973167
_cell_angle_alpha 148.682016
_cell_angle_beta 32.118809
_cell_angle_gamma 162.858931
_cell_volume 696.159355
_symmetry_space_group_name_H-M "P -1"
_symmetry_group_IT_number 2
_symmetry_cell_setting 'triclinic'
loop_
_space_group_symop_operation_xyz
x,y,z
-x,-y,-z
loop_
_atom_site_type_symbol
_atom_site_label
_atom_site_fract_x
_atom_site_fract_y
_atom_site_fract_z
Si Si1 0.560792 0.359492 0.431329
Si Si2 0.771115 0.085955 0.287008
Si Si3 0.971670 0.032054 0.464902
Si Si4 0.607897 0.748195 0.985353
Si Si5 0.796985 0.571915 0.184183
Si Si6 0.510244 0.088624 0.848561
Si Si7 0.130308 0.632141 0.679110
Si Si8 0.724756 0.498967 0.721875
O O1 0.663948 0.496260 0.398077
O O2 0.696553 0.488842 0.591873
O O3 0.570959 0.235196 0.132692
O O4 0.290435 0.184589 0.562946
O O5 0.721915 0.172146 0.597949
O O6 0.040945 0.268226 0.165558
O O7 0.674736 0.926333 0.236996
O O8 0.624420 0.963218 0.156092
O O9 0.024107 0.201810 0.714182
O O10 0.166409 0.134848 0.235119
O O11 0.000000 0.000000 0.500000
O O12 0.501859 0.629387 0.068357
O O13 0.396074 0.580078 0.905609
O O14 0.938660 0.563237 0.943913
O O15 0.336683 0.870010 0.770339
O O16 0.229243 0.595772 0.507417
O O17 0.000000 0.500000 0.500000
#
# Coordination Sequence:
#
# PCOD9054216 Si02
#       8
#     2   2   2   2   2   2   2   2
#     4  12  28  47  68 109 147 184 235 298 358 418
#     4  11  22  41  72 102 138 187 234 287 348 419
#     4  12  27  47  78 104 136 185 248 300 342 414
#     4  12  25  44  74 102 135 187 244 286 345 424
#     4  12  24  45  77 107 137 185 240 291 353 423
#     4  11  20  41  70 101 142 183 234 287 344 422
#     4  12  21  40  73 106 142 184 232 281 351 431
#     4  12  28  44  70 109 150 184 229 295 365 418
#
# _framework density 22.983245
#
# number of rings (size 3 to 8) (size 9 to 14) (size 15 to 20)
#    0.000    0.250    7.500    1.125    1.750    4.000 
#    0.000    1.250    0.000    0.000    0.000    0.000 
#    0.000    0.000    0.000    0.000    0.000    0.000 
#
# Total GULP energy -89599.198761 kJ/mol
# GULP energy per Si atom -5599.949923 kJ/mol
# Density = 2.293093 g / cm^3
# Si number density = 22.983245 Si / 1000 Ang^3
#
#
#
# Elastic Constant Matrix: (Units=GPa)
#
#
# Indices 1 2 3 4 5 6 
#
# 1 37.5072 12.3121 12.6852 8.6264 8.8071 -7.9539
# 2 12.3121 104.9065 17.1677 -21.8452 1.5009 -20.4447
# 3 12.6852 17.1677 82.2910 -25.9113 5.6679 5.0260
# 4 8.6264 -21.8452 -25.9113 39.2406 -4.4556 -7.9013
# 5 8.8071 1.5009 5.6679 -4.4556 28.5207 -6.7156
# 6 -7.9539 -20.4447 5.0260 -7.9013 -6.7156 27.9026
#
#
#
# Elastic Compliance Matrix: (Units=1/GPa)
#
#
# Indices 1 2 3 4 5 6 
#
# 1 0.040878 -0.007898 -0.010613 -0.022377 -0.014051 -0.001941
# 2 -0.007898 0.016558 0.001261 0.015858 0.007553 0.015962
# 3 -0.010613 0.001261 0.018205 0.015127 0.001800 -0.000663
# 4 -0.022377 0.015858 0.015127 0.055660 0.017034 0.022377
# 5 -0.014051 0.007553 0.001800 0.017034 0.045293 0.016929
# 6 -0.001941 0.015962 -0.000663 0.022377 0.016929 0.057512
#
#
# Mechanical properties :
#
#
# Convention : Reuss Voigt Hill
#
# Bulk Modulus (GPa) = 24.30676 34.33719 29.32198
# Shear Modulus (GPa) = 17.71053 31.30210 24.50631
#
# Velocity S-wave (km/s) = 2.77895 3.69447 3.26892
# Velocity P-wave (km/s) = 4.57117 5.75946 5.19937
#
# Compressibility (1/GPa) = 0.04114081
#
# Stress axis : x y z
#
# Youngs Moduli (GPa) = 24.46307 60.39490 54.93139
#
# Poissons Ratio (x) = 0.47697 0.58301
# Poissons Ratio (y) = 0.19320 -0.06929
# Poissons Ratio (z) = 0.25964 -0.07618
#
# Static dielectric constant tensor:
#      x y z
#    x 1.811190 -0.025430 -0.062380 
#    y -0.025430 1.855120 -0.023410 
#    z -0.062380 -0.023410 1.933780 
# 
# From -- ./inp_files/297454.got.cif
#   From: 2010.05.17/outbox.cif.g08.bks.cpg/sg2_149_cif.got.tgz:297454.got - 2010.06.03 11:33:40.
