data_PCOD9054871
_publ_section_title
;
Structure prediction by ZEFSAII (Michael W. Deem and Ramdas Pophale) SiO2 
 PCOD9054871
Probable space group: P -1
;
_chemical_formula_sum "Si O2"
_cell_formula_units_Z 14
_cell_length_a 12.394200
_cell_length_b 7.973176
_cell_length_c 8.090266
_cell_angle_alpha 128.110824
_cell_angle_beta 63.223811
_cell_angle_gamma 90.287685
_cell_volume 517.445651
_symmetry_space_group_name_H-M "P -1"
_symmetry_group_IT_number 2
_symmetry_cell_setting 'triclinic'
loop_
_space_group_symop_operation_xyz
x,y,z
-x,-y,-z
loop_
_atom_site_type_symbol
_atom_site_label
_atom_site_fract_x
_atom_site_fract_y
_atom_site_fract_z
Si Si1 0.777458 0.755959 0.830663
Si Si2 0.426357 0.444905 0.173062
Si Si3 0.896712 0.354224 0.905119
Si Si4 0.840999 0.067688 0.502947
Si Si5 0.637521 0.947367 0.715846
Si Si6 0.042013 0.234855 0.029620
Si Si7 0.546527 0.142767 0.418582
O O1 0.919144 0.731978 0.789255
O O2 0.676060 0.958197 0.134990
O O3 0.718792 0.554634 0.758336
O O4 0.744143 0.842354 0.719850
O O5 0.184558 0.738052 0.218563
O O6 0.500000 0.500000 0.000000
O O7 0.517449 0.181078 0.996390
O O8 0.041541 0.161666 0.647041
O O9 0.900851 0.333666 0.090646
O O10 0.890028 0.601720 0.003335
O O11 0.708655 0.026770 0.569294
O O12 0.572587 0.364212 0.585583
O O13 0.892850 0.026533 0.250028
O O14 0.575094 0.781398 0.579385
O O15 0.500000 0.000000 0.500000
#
# Coordination Sequence:
#
# PCOD9054871 Si02
#       7
#     2   2   2   2   2   2   2
#     4  11  24  37  55  88 122 145 181 237 290 332
#     4  11  23  37  60  85 106 151 197 228 265 343
#     4   8  18  34  60  84 102 140 202 236 254 330
#     4   9  18  35  59  80 107 147 187 233 276 323
#     4  11  24  37  55  88 122 145 181 237 290 332
#     4   9  18  35  59  80 107 147 187 233 276 323
#     4  11  21  39  60  83 110 153 191 234 269 331
#
# _framework density 27.055979000000001
#
# number of rings (size 3 to 8) (size 9 to 14) (size 15 to 20)
#    0.857    1.143    2.857    2.571    2.000    2.286 
#    0.000    1.429    0.000    0.000    0.000    0.000 
#    0.000    0.000    0.000    0.000    0.000    0.000 
#
# Total GULP energy -78024.622894 kJ/mol
# GULP energy per Si atom -5573.187350 kJ/mol
# Density = 2.699440 g / cm^3
# Si number density = 27.055979 Si / 1000 Ang^3
#
#
#
# Elastic Constant Matrix: (Units=GPa)
#
#
# Indices 1 2 3 4 5 6 
#
# 1 123.7525 33.2398 37.0490 12.2804 57.3528 -3.4773
# 2 33.2398 90.3252 10.2266 2.7741 27.3594 -13.6870
# 3 37.0490 10.2266 106.0355 27.8897 48.6694 7.3433
# 4 12.2804 2.7741 27.8897 35.9077 14.2494 18.9968
# 5 57.3528 27.3594 48.6694 14.2494 60.6042 1.9114
# 6 -3.4773 -13.6870 7.3433 18.9968 1.9114 49.1467
#
#
#
# Elastic Compliance Matrix: (Units=1/GPa)
#
#
# Indices 1 2 3 4 5 6 
#
# 1 0.014855 -0.000843 0.002089 -0.001566 -0.015040 0.001694
# 2 -0.000843 0.014046 0.002534 -0.002398 -0.007162 0.004679
# 3 0.002089 0.002534 0.017945 -0.010257 -0.015206 0.002728
# 4 -0.001566 -0.002398 -0.010257 0.045083 0.000728 -0.016700
# 5 -0.015040 -0.007162 -0.015206 0.000728 0.046098 -0.002861
# 6 0.001694 0.004679 0.002728 -0.016700 -0.002861 0.027929
#
#
# Mechanical properties :
#
#
# Convention : Reuss Voigt Hill
#
# Bulk Modulus (GPa) = 18.38008 53.46044 35.92026
# Shear Modulus (GPa) = 28.32345 45.10490 36.71417
#
# Velocity S-wave (km/s) = 3.23901 4.08744 3.68770
# Velocity P-wave (km/s) = 4.56030 6.48678 5.60690
#
# Compressibility (1/GPa) = 0.05440674
#
# Stress axis : x y z
#
# Youngs Moduli (GPa) = 67.31703 71.19221 55.72590
#
# Poissons Ratio (x) = 0.05999 -0.11640
# Poissons Ratio (y) = 0.05672 -0.14121
# Poissons Ratio (z) = -0.14061 -0.18040
#
# Static dielectric constant tensor:
#      x y z
#    x 2.125830 -0.043220 0.102610 
#    y -0.043220 2.238550 -0.053500 
#    z 0.102610 -0.053500 2.167920 
# 
# From -- ./inp_files/170893.got.cif
#   From: 2010.05.17/outbox.cif.g08.bks.cpg/sg2_86_cif.got.tgz:170893.got - 2010.06.03 11:33:40.
