data_PCOD9054882
_publ_section_title
;
Structure prediction by ZEFSAII (Michael W. Deem and Ramdas Pophale) SiO2 
 PCOD9054882
Probable space group: P -1
;
_chemical_formula_sum "Si O2"
_cell_formula_units_Z 16
_cell_length_a 9.319334
_cell_length_b 11.296065
_cell_length_c 14.506272
_cell_angle_alpha 63.902339
_cell_angle_beta 126.094578
_cell_angle_gamma 82.872018
_cell_volume 941.010531
_symmetry_space_group_name_H-M "P -1"
_symmetry_group_IT_number 2
_symmetry_cell_setting 'triclinic'
loop_
_space_group_symop_operation_xyz
x,y,z
-x,-y,-z
loop_
_atom_site_type_symbol
_atom_site_label
_atom_site_fract_x
_atom_site_fract_y
_atom_site_fract_z
Si Si1 0.818718 0.916066 0.214284
Si Si2 0.678096 0.346553 0.799069
Si Si3 0.496347 0.312359 0.371952
Si Si4 0.083750 0.985408 0.433581
Si Si5 0.567240 0.099759 0.875590
Si Si6 0.730797 0.855743 0.657863
Si Si7 0.139820 0.077463 0.121591
Si Si8 0.218416 0.749656 0.325688
O O1 0.656782 0.881961 0.213029
O O2 0.018455 0.766056 0.294930
O O3 0.924866 0.976705 0.304807
O O4 0.684027 0.034377 0.040182
O O5 0.578523 0.514937 0.747802
O O6 0.551029 0.261612 0.794662
O O7 0.699939 0.360430 0.693062
O O8 0.911286 0.221330 0.963663
O O9 0.301460 0.288171 0.312064
O O10 0.603029 0.287625 0.520815
O O11 0.688377 0.174813 0.433540
O O12 0.120467 0.120451 0.363568
O O13 0.000000 0.000000 0.500000
O O14 0.708900 0.977781 0.890892
O O15 0.781719 0.878032 0.773634
O O16 0.500000 0.000000 0.500000
O O17 0.135309 0.924017 0.197500
#
# Coordination Sequence:
#
# PCOD9054882 Si02
#       8
#     2   2   2   2   2   2   2   2
#     4  10  18  34  53  85 104 141 188 219 265 314
#     4  11  20  34  54  85 113 138 175 233 275 316
#     4  10  22  35  55  82 112 141 180 224 279 313
#     4  10  21  36  58  78 108 147 187 220 258 329
#     4  10  20  31  58  82 110 141 184 221 271 323
#     4  10  19  36  57  78 105 142 191 225 257 322
#     4  11  18  34  60  80 105 144 189 225 260 319
#     4  10  17  36  54  80 108 146 177 221 267 327
#
# _framework density 17.002998000000002
#
# number of rings (size 3 to 8) (size 9 to 14) (size 15 to 20)
#    0.000    1.750    6.250    1.125    3.500    0.500 
#    0.000    3.750    0.000    1.500    0.000    0.000 
#    0.000    0.000    0.000    0.000    0.000    0.000 
#
# Total GULP energy -89144.668562 kJ/mol
# GULP energy per Si atom -5571.541785 kJ/mol
# Density = 1.696430 g / cm^3
# Si number density = 17.002998 Si / 1000 Ang^3
#
#
#
# Elastic Constant Matrix: (Units=GPa)
#
#
# Indices 1 2 3 4 5 6 
#
# 1 133.5784 44.5336 45.6941 7.6335 15.6979 7.2487
# 2 44.5336 61.0924 37.8016 -9.5443 6.3407 3.6450
# 3 45.6941 37.8016 53.3675 11.2681 1.0435 1.3893
# 4 7.6335 -9.5443 11.2681 28.0078 3.1597 -3.6315
# 5 15.6979 6.3407 1.0435 3.1597 23.0440 11.3983
# 6 7.2487 3.6450 1.3893 -3.6315 11.3983 23.3585
#
#
#
# Elastic Compliance Matrix: (Units=1/GPa)
#
#
# Indices 1 2 3 4 5 6 
#
# 1 0.012105 -0.003373 -0.007765 -0.000414 -0.007261 0.000711
# 2 -0.003373 0.054083 -0.044014 0.041227 -0.022477 0.012603
# 3 -0.007765 -0.044014 0.065807 -0.044501 0.028065 -0.015250
# 4 -0.000414 0.041227 -0.044501 0.074154 -0.030460 0.022734
# 5 -0.007261 -0.022477 0.028065 -0.030460 0.076124 -0.037790
# 6 0.000711 0.012603 -0.015250 0.022734 -0.037790 0.063506
#
#
# Mechanical properties :
#
#
# Convention : Reuss Voigt Hill
#
# Bulk Modulus (GPa) = 46.09987 56.01077 51.05532
# Shear Modulus (GPa) = 10.79183 22.88265 16.83724
#
# Velocity S-wave (km/s) = 2.52206 3.67250 3.15024
# Velocity P-wave (km/s) = 5.97099 7.14116 6.58213
#
# Compressibility (1/GPa) = 0.02169203
#
# Stress axis : x y z
#
# Youngs Moduli (GPa) = 82.60824 18.48999 15.19602
#
# Poissons Ratio (x) = 0.06237 0.11799
# Poissons Ratio (y) = 0.27865 0.66884
# Poissons Ratio (z) = 0.64143 0.81382
#
# Static dielectric constant tensor:
#      x y z
#    x 1.610270 0.005400 -0.001310 
#    y 0.005400 1.586090 0.006260 
#    z -0.001310 0.006260 1.586390 
# 
# From -- ./inp_files/497896.got.cif
#   From: 2010.05.17/outbox.cif.g08.bks.cpg/sg2_249_cif.got.tgz:497896.got - 2010.06.03 11:33:40.
