data_PCOD9054066
_publ_section_title
;
Structure prediction by ZEFSAII (Michael W. Deem and Ramdas Pophale) SiO2 
 PCOD9054066
Probable space group: P -1
;
_chemical_formula_sum "Si O2"
_cell_formula_units_Z 16
_cell_length_a 22.006382
_cell_length_b 18.751153
_cell_length_c 11.612797
_cell_angle_alpha 31.370771
_cell_angle_beta 151.792631
_cell_angle_gamma 160.256961
_cell_volume 756.149708
_symmetry_space_group_name_H-M "P -1"
_symmetry_group_IT_number 2
_symmetry_cell_setting 'triclinic'
loop_
_space_group_symop_operation_xyz
x,y,z
-x,-y,-z
loop_
_atom_site_type_symbol
_atom_site_label
_atom_site_fract_x
_atom_site_fract_y
_atom_site_fract_z
Si Si1 0.330704 0.253322 0.029444
Si Si2 0.207029 0.897106 0.434273
Si Si3 0.088619 0.980131 0.335156
Si Si4 0.354781 0.247556 0.807993
Si Si5 0.253443 0.461686 0.241791
Si Si6 0.494070 0.921672 0.975057
Si Si7 0.883653 0.155462 0.194177
Si Si8 0.192634 0.372685 0.000160
O O1 0.301663 0.215363 0.897279
O O2 0.130155 0.151386 0.890247
O O3 0.500000 0.500000 0.000000
O O4 0.352674 0.120155 0.301367
O O5 0.175357 0.944050 0.439710
O O6 0.315363 0.842589 0.711629
O O7 0.994519 0.721295 0.254998
O O8 0.065678 0.889712 0.544855
O O9 0.202922 0.217247 0.210265
O O10 0.323891 0.370674 0.528239
O O11 0.587061 0.392760 0.986408
O O12 0.213340 0.026522 0.810035
O O13 0.161395 0.370443 0.086665
O O14 0.084606 0.377339 0.165249
O O15 0.438002 0.717393 0.185529
O O16 0.500000 0.000000 0.000000
O O17 0.704389 0.106912 0.004142
#
# Coordination Sequence:
#
# PCOD9054066 Si02
#       8
#     2   2   2   2   2   2   2   2
#     4  11  23  39  66 104 133 169 220 283 343 394
#     4  11  25  44  63  95 143 179 221 272 337 406
#     4  11  20  40  66  97 135 168 218 289 335 392
#     4  12  22  42  73 106 132 165 227 291 339 394
#     4  12  25  44  72 101 135 173 227 284 333 399
#     4  12  28  47  67  94 138 191 225 268 331 411
#     4  12  23  44  71 104 130 172 233 279 335 392
#     4  11  22  41  69 100 133 173 217 283 351 386
#
# _framework density 21.159832000000002
#
# number of rings (size 3 to 8) (size 9 to 14) (size 15 to 20)
#    0.000    0.500    5.000    6.000    1.750    1.000 
#    4.500    1.250    0.000    0.000    0.000    0.000 
#    0.000    0.000    0.000    0.000    0.000    0.000 
#
# Total GULP energy -89509.483354 kJ/mol
# GULP energy per Si atom -5594.342710 kJ/mol
# Density = 2.111167 g / cm^3
# Si number density = 21.159832 Si / 1000 Ang^3
#
#
#
# Elastic Constant Matrix: (Units=GPa)
#
#
# Indices 1 2 3 4 5 6 
#
# 1 101.9652 3.5246 14.2859 12.9854 -13.5999 -2.3118
# 2 3.5246 57.7928 -6.9700 6.9165 -5.6178 7.3741
# 3 14.2859 -6.9700 65.2811 12.9745 -2.5030 6.8863
# 4 12.9854 6.9165 12.9745 24.5175 3.6469 5.7977
# 5 -13.5999 -5.6178 -2.5030 3.6469 28.4362 5.9146
# 6 -2.3118 7.3741 6.8863 5.7977 5.9146 36.3818
#
#
#
# Elastic Compliance Matrix: (Units=1/GPa)
#
#
# Indices 1 2 3 4 5 6 
#
# 1 0.011674 0.000500 -0.000972 -0.006962 0.006300 0.000910
# 2 0.000500 0.020001 0.004378 -0.008108 0.006579 -0.004628
# 3 -0.000972 0.004378 0.018577 -0.010335 0.004085 -0.003482
# 4 -0.006962 -0.008108 -0.010335 0.054891 -0.012128 -0.003618
# 5 0.006300 0.006579 0.004085 -0.012128 0.042794 -0.006731
# 6 0.000910 -0.004628 -0.003482 -0.003618 -0.006731 0.030812
#
#
# Mechanical properties :
#
#
# Convention : Reuss Voigt Hill
#
# Bulk Modulus (GPa) = 17.22239 27.41334 22.31786
# Shear Modulus (GPa) = 26.27570 32.14701 29.21136
#
# Velocity S-wave (km/s) = 3.52770 3.90198 3.71955
# Velocity P-wave (km/s) = 4.97491 5.76924 5.38674
#
# Compressibility (1/GPa) = 0.05806397
#
# Stress axis : x y z
#
# Youngs Moduli (GPa) = 85.66307 49.99735 53.83140
#
# Poissons Ratio (x) = -0.02502 0.05232
# Poissons Ratio (y) = -0.04286 -0.23567
# Poissons Ratio (z) = 0.08326 -0.21889
#
# Static dielectric constant tensor:
#      x y z
#    x 1.767720 0.015670 0.012860 
#    y 0.015670 1.767640 0.013210 
#    z 0.012860 0.013210 1.767690 
# 
# From -- ./inp_files/424553.got.cif
#   From: 2010.05.17/outbox.cif.g08.bks.cpg/sg2_213_cif.got.tgz:424553.got - 2010.06.03 11:33:40.
