data_PCOD9054427
_publ_section_title
;
Structure prediction by ZEFSAII (Michael W. Deem and Ramdas Pophale) SiO2 
 PCOD9054427
Probable space group: P -1
;
_chemical_formula_sum "Si O2"
_cell_formula_units_Z 16
_cell_length_a 10.882188
_cell_length_b 17.067324
_cell_length_c 9.137282
_cell_angle_alpha 61.072180
_cell_angle_beta 70.092514
_cell_angle_gamma 121.967858
_cell_volume 750.119392
_symmetry_space_group_name_H-M "P -1"
_symmetry_group_IT_number 2
_symmetry_cell_setting 'triclinic'
loop_
_space_group_symop_operation_xyz
x,y,z
-x,-y,-z
loop_
_atom_site_type_symbol
_atom_site_label
_atom_site_fract_x
_atom_site_fract_y
_atom_site_fract_z
Si Si1 0.086091 0.336652 0.681791
Si Si2 0.033095 0.383679 0.208787
Si Si3 0.764292 0.667550 0.665271
Si Si4 0.758749 0.193822 0.191285
Si Si5 0.513318 0.715448 0.142607
Si Si6 0.179393 0.668724 0.369099
Si Si7 0.050510 0.026134 0.628805
Si Si8 0.552949 0.265504 0.176372
O O1 0.208064 0.340473 0.511364
O O2 0.308955 0.532091 0.454591
O O3 0.878874 0.269506 0.732892
O O4 0.936709 0.235644 0.982152
O O5 0.073233 0.309563 0.330877
O O6 0.894182 0.293826 0.196489
O O7 0.895133 0.364420 0.402389
O O8 0.291186 0.583838 0.912862
O O9 0.858972 0.822757 0.503128
O O10 0.500000 0.500000 0.000000
O O11 0.688655 0.251078 0.101982
O O12 0.500000 0.000000 0.500000
O O13 0.442606 0.776313 0.156669
O O14 0.472394 0.692396 0.002950
O O15 0.785591 0.849853 0.957880
O O16 0.000000 0.500000 0.500000
O O17 0.279530 0.093884 0.499565
O O18 0.000000 0.000000 0.500000
#
# Coordination Sequence:
#
# PCOD9054427 Si02
#       8
#     2   2   2   2   2   2   2   2
#     4  10  20  40  66  89 129 169 212 272 315 378
#     4  11  22  38  67  94 122 177 211 259 328 386
#     4  11  20  40  69  98 128 156 219 270 322 380
#     4  12  28  42  61  94 138 174 213 264 325 389
#     4  10  17  35  64  97 121 160 218 267 322 363
#     4   9  15  32  63  90 119 155 217 270 304 363
#     4  10  22  33  63 100 123 161 204 275 318 372
#     4  11  19  41  63  91 130 169 216 258 321 385
#
# _framework density 21.329939
#
# number of rings (size 3 to 8) (size 9 to 14) (size 15 to 20)
#    0.000    1.500    6.250    1.875    3.500    1.000 
#    0.000    3.125    0.000    2.250    0.000    0.000 
#    0.000    0.000    0.000    0.000    0.000    0.000 
#
# Total GULP energy -89193.976963 kJ/mol
# GULP energy per Si atom -5574.623560 kJ/mol
# Density = 2.128139 g / cm^3
# Si number density = 21.329939 Si / 1000 Ang^3
#
#
#
# Elastic Constant Matrix: (Units=GPa)
#
#
# Indices 1 2 3 4 5 6 
#
# 1 31.5015 18.0856 15.6804 3.8760 -16.0010 -5.1037
# 2 18.0856 115.0727 58.0305 15.4619 -14.8807 -0.0670
# 3 15.6804 58.0305 132.2225 0.4467 -24.6852 6.5160
# 4 3.8760 15.4619 0.4467 30.7306 -5.1322 -7.4912
# 5 -16.0010 -14.8807 -24.6852 -5.1322 35.9769 -3.0078
# 6 -5.1037 -0.0670 6.5160 -7.4912 -3.0078 27.9979
#
#
#
# Elastic Compliance Matrix: (Units=1/GPa)
#
#
# Indices 1 2 3 4 5 6 
#
# 1 0.046192 -0.004982 -0.000181 0.002725 0.019693 0.011295
# 2 -0.004982 0.012743 -0.005193 -0.006338 -0.001540 -0.001530
# 3 -0.000181 -0.005193 0.010964 0.003138 0.005646 -0.001151
# 4 0.002725 -0.006338 0.003138 0.039243 0.007264 0.011032
# 5 0.019693 -0.001540 0.005646 0.007264 0.041553 0.008680
# 6 0.011295 -0.001530 -0.001151 0.011032 0.008680 0.041924
#
#
# Mechanical properties :
#
#
# Convention : Reuss Voigt Hill
#
# Bulk Modulus (GPa) = 20.32988 51.37663 35.85326
# Shear Modulus (GPa) = 21.76503 31.40776 26.58640
#
# Velocity S-wave (km/s) = 3.19783 3.84144 3.53432
# Velocity P-wave (km/s) = 4.81526 6.61925 5.78797
#
# Compressibility (1/GPa) = 0.04918868
#
# Stress axis : x y z
#
# Youngs Moduli (GPa) = 21.64864 78.47187 91.21066
#
# Poissons Ratio (x) = 0.39092 0.01650
# Poissons Ratio (y) = 0.10785 0.47363
# Poissons Ratio (z) = 0.00392 0.40749
#
# Static dielectric constant tensor:
#      x y z
#    x 1.828970 -0.019050 -0.020550 
#    y -0.019050 1.766580 0.035850 
#    z -0.020550 0.035850 1.873170 
# 
# From -- ./inp_files/279287.got.cif
#   From: 2010.05.17/outbox.cif.g08.bks.cpg/sg2_140_cif.got.tgz:279287.got - 2010.06.03 11:33:40.
