data_PCOD9054329
_publ_section_title
;
Structure prediction by ZEFSAII (Michael W. Deem and Ramdas Pophale) SiO2 
 PCOD9054329
Probable space group: P -1
;
_chemical_formula_sum "Si O2"
_cell_formula_units_Z 14
_cell_length_a 18.956500
_cell_length_b 5.480015
_cell_length_c 19.878573
_cell_angle_alpha 66.311922
_cell_angle_beta 21.213125
_cell_angle_gamma 56.854861
_cell_volume 584.558166
_symmetry_space_group_name_H-M "P -1"
_symmetry_group_IT_number 2
_symmetry_cell_setting 'triclinic'
loop_
_space_group_symop_operation_xyz
x,y,z
-x,-y,-z
loop_
_atom_site_type_symbol
_atom_site_label
_atom_site_fract_x
_atom_site_fract_y
_atom_site_fract_z
Si Si1 0.854775 0.583809 0.916164
Si Si2 0.681186 0.676304 0.408878
Si Si3 0.381900 0.817685 0.155023
Si Si4 0.082580 0.728854 0.876140
Si Si5 0.948109 0.829393 0.479526
Si Si6 0.835264 0.229583 0.841005
Si Si7 0.660493 0.349884 0.205312
O O1 0.845460 0.423816 0.873577
O O2 0.088724 0.339180 0.773776
O O3 0.860842 0.897117 0.867963
O O4 0.659102 0.627100 0.136871
O O5 0.758742 0.406629 0.314691
O O6 0.578080 0.619006 0.573510
O O7 0.500000 0.000000 0.500000
O O8 0.150688 0.889061 0.315497
O O9 0.290151 0.921558 0.301498
O O10 0.578440 0.457609 0.016203
O O11 0.500000 0.000000 0.000000
O O12 0.229900 0.721002 0.809489
O O13 0.000000 0.500000 0.000000
O O14 0.844381 0.040401 0.037234
O O15 0.000000 0.500000 0.500000
O O16 0.977541 0.810008 0.375578
#
# Coordination Sequence:
#
# PCOD9054329 Si02
#       7
#     2   2   2   2   2   2   2
#     4  12  29  49  69 110 158 201 248 309 382 460
#     4  12  24  46  76 104 137 198 261 317 371 435
#     4  11  24  48  79 114 150 196 247 310 373 442
#     4  11  20  42  72 101 132 172 256 319 362 443
#     4  11  25  46  83 118 144 193 265 303 358 462
#     4  12  28  51  74 109 164 197 241 312 381 445
#     4  11  24  44  68 100 140 191 238 310 383 437
#
# _framework density 23.949711000000001
#
# number of rings (size 3 to 8) (size 9 to 14) (size 15 to 20)
#    0.000    0.571    4.286    3.429    4.000    2.286 
#    0.000    2.857    0.000    0.000    0.000    0.000 
#    0.000    0.000    0.000    0.000    0.000    0.000 
#
# Total GULP energy -78342.388829 kJ/mol
# GULP energy per Si atom -5595.884916 kJ/mol
# Density = 2.389520 g / cm^3
# Si number density = 23.949711 Si / 1000 Ang^3
#
#
#
# Elastic Constant Matrix: (Units=GPa)
#
#
# Indices 1 2 3 4 5 6 
#
# 1 86.9653 14.1071 25.1725 -2.4071 17.0425 4.8673
# 2 14.1071 129.3844 50.7284 -20.5007 15.4221 -0.2116
# 3 25.1725 50.7284 155.1215 -12.3846 35.1913 -3.0865
# 4 -2.4071 -20.5007 -12.3846 52.3024 1.2126 3.2511
# 5 17.0425 15.4221 35.1913 1.2126 47.3258 -2.3102
# 6 4.8673 -0.2116 -3.0865 3.2511 -2.3102 29.1420
#
#
#
# Elastic Compliance Matrix: (Units=1/GPa)
#
#
# Indices 1 2 3 4 5 6 
#
# 1 0.012786 -0.000458 -0.001086 0.000401 -0.003784 -0.002599
# 2 -0.000458 0.009390 -0.002498 0.003129 -0.001145 -0.000560
# 3 -0.001086 -0.002498 0.008743 0.001130 -0.005298 0.000543
# 4 0.000401 0.003129 0.001130 0.020847 -0.002659 -0.002461
# 5 -0.003784 -0.001145 -0.005298 -0.002659 0.026996 0.002499
# 6 -0.002599 -0.000560 0.000543 -0.002461 0.002499 0.035275
#
#
# Mechanical properties :
#
#
# Convention : Reuss Voigt Hill
#
# Bulk Modulus (GPa) = 43.79393 61.27635 52.53514
# Shear Modulus (GPa) = 38.54132 44.51825 41.52979
#
# Velocity S-wave (km/s) = 4.01591 4.31608 4.16870
# Velocity P-wave (km/s) = 6.31101 7.10486 6.71967
#
# Compressibility (1/GPa) = 0.02283422
#
# Stress axis : x y z
#
# Youngs Moduli (GPa) = 78.21245 106.50139 114.38068
#
# Poissons Ratio (x) = 0.04875 0.12424
# Poissons Ratio (y) = 0.03580 0.28571
# Poissons Ratio (z) = 0.08496 0.26603
#
# Static dielectric constant tensor:
#      x y z
#    x 2.008840 0.002690 -0.000330 
#    y 0.002690 1.944990 0.018210 
#    z -0.000330 0.018210 1.921880 
# 
# From -- ./inp_files/600742.got.cif
#   From: 2010.05.17/outbox.cif.g08.bks.cpg/sg2_301_cif.got.tgz:600742.got - 2010.06.03 11:33:40.
