data_PCOD9054674
_publ_section_title
;
Structure prediction by ZEFSAII (Michael W. Deem and Ramdas Pophale) SiO2 
 PCOD9054674
Probable space group: P -1
;
_chemical_formula_sum "Si O2"
_cell_formula_units_Z 14
_cell_length_a 13.189441
_cell_length_b 22.577110
_cell_length_c 15.674353
_cell_angle_alpha 18.376312
_cell_angle_beta 26.109231
_cell_angle_gamma 23.595223
_cell_volume 573.992430
_symmetry_space_group_name_H-M "P -1"
_symmetry_group_IT_number 2
_symmetry_cell_setting 'triclinic'
loop_
_space_group_symop_operation_xyz
x,y,z
-x,-y,-z
loop_
_atom_site_type_symbol
_atom_site_label
_atom_site_fract_x
_atom_site_fract_y
_atom_site_fract_z
Si Si1 0.906054 0.834173 0.261689
Si Si2 0.622170 0.270740 0.403942
Si Si3 0.805693 0.848431 0.132490
Si Si4 0.881580 0.558839 0.795636
Si Si5 0.962119 0.037396 0.616037
Si Si6 0.393476 0.333245 0.824374
Si Si7 0.321382 0.156386 0.285789
O O1 0.974173 0.794515 0.164785
O O2 0.991647 0.627874 0.536786
O O3 0.591051 0.946175 0.355124
O O4 0.000000 0.000000 0.000000
O O5 0.341199 0.292947 0.568787
O O6 0.811878 0.071297 0.475363
O O7 0.711692 0.200806 0.529669
O O8 0.689001 0.456104 0.071977
O O9 0.928559 0.854639 0.940881
O O10 0.597103 0.097664 0.962699
O O11 0.728087 0.765467 0.687859
O O12 0.126598 0.401784 0.881855
O O13 0.073593 0.136096 0.467251
O O14 0.500000 0.500000 0.500000
O O15 0.347522 0.321787 0.975541
#
# Coordination Sequence:
#
# PCOD9054674 Si02
#       7
#     2   2   2   2   2   2   2
#     4  11  24  46  65  95 134 175 221 271 329 394
#     4  11  23  42  65 103 135 166 222 273 326 394
#     4  11  24  44  68  94 138 182 210 267 338 389
#     4  12  24  39  68  99 134 169 221 277 322 389
#     4  11  21  44  71  94 133 176 217 266 338 384
#     4  11  21  37  65 100 131 164 224 280 313 378
#     4  11  22  43  67  95 130 173 220 271 336 381
#
# _framework density 24.390567000000001
#
# number of rings (size 3 to 8) (size 9 to 14) (size 15 to 20)
#    0.000    0.857    4.286    5.571    2.000    0.571 
#    2.571    0.714    0.000    0.000    0.000    0.000 
#    0.000    0.000    0.000    0.000    0.000    0.000 
#
# Total GULP energy -78407.674814 kJ/mol
# GULP energy per Si atom -5600.548201 kJ/mol
# Density = 2.433505 g / cm^3
# Si number density = 24.390567 Si / 1000 Ang^3
#
#
#
# Elastic Constant Matrix: (Units=GPa)
#
#
# Indices 1 2 3 4 5 6 
#
# 1 95.3109 -2.3741 49.1428 7.3661 4.0321 0.1546
# 2 -2.3741 45.0374 -11.9219 -6.7222 3.0890 3.3051
# 3 49.1428 -11.9219 149.5595 14.6925 -13.2982 7.6941
# 4 7.3661 -6.7222 14.6925 35.0134 0.7084 1.7552
# 5 4.0321 3.0890 -13.2982 0.7084 55.1079 5.5087
# 6 0.1546 3.3051 7.6941 1.7552 5.5087 14.2100
#
#
#
# Elastic Compliance Matrix: (Units=1/GPa)
#
#
# Indices 1 2 3 4 5 6 
#
# 1 0.013043 -0.000805 -0.004641 -0.001084 -0.002376 0.003613
# 2 -0.000805 0.023886 0.002112 0.004230 -0.000108 -0.007171
# 3 -0.004641 0.002112 0.009201 -0.002224 0.003105 -0.006352
# 4 -0.001084 0.004230 -0.002224 0.030713 -0.000763 -0.003266
# 5 -0.002376 -0.000108 0.003105 -0.000763 0.020014 -0.009295
# 6 0.003613 -0.007171 -0.006352 -0.003266 -0.009295 0.079448
#
#
# Mechanical properties :
#
#
# Convention : Reuss Voigt Hill
#
# Bulk Modulus (GPa) = 25.34019 39.95570 32.64795
# Shear Modulus (GPa) = 25.49395 37.87033 31.68214
#
# Velocity S-wave (km/s) = 3.23652 3.94466 3.60801
# Velocity P-wave (km/s) = 4.93747 6.09625 5.54720
#
# Compressibility (1/GPa) = 0.03946300
#
# Stress axis : x y z
#
# Youngs Moduli (GPa) = 76.66890 41.86632 108.68668
#
# Poissons Ratio (x) = 0.03370 0.50437
# Poissons Ratio (y) = 0.06171 -0.22957
# Poissons Ratio (z) = 0.35579 -0.08843
#
# Static dielectric constant tensor:
#      x y z
#    x 1.942890 0.001840 0.027300 
#    y 0.001840 1.954600 -0.003170 
#    z 0.027300 -0.003170 1.940160 
# 
# From -- ./inp_files/188601.got.cif
#   From: 2010.05.17/outbox.cif.g08.bks.cpg/sg2_95_cif.got.tgz:188601.got - 2010.06.03 11:33:40.
