data_PCOD9054740
_publ_section_title
;
Structure prediction by ZEFSAII (Michael W. Deem and Ramdas Pophale) SiO2 
 PCOD9054740
Probable space group: P -1
;
_chemical_formula_sum "Si O2"
_cell_formula_units_Z 16
_cell_length_a 15.775947
_cell_length_b 14.997597
_cell_length_c 10.494266
_cell_angle_alpha 52.987492
_cell_angle_beta 111.375279
_cell_angle_gamma 152.872633
_cell_volume 797.733834
_symmetry_space_group_name_H-M "P -1"
_symmetry_group_IT_number 2
_symmetry_cell_setting 'triclinic'
loop_
_space_group_symop_operation_xyz
x,y,z
-x,-y,-z
loop_
_atom_site_type_symbol
_atom_site_label
_atom_site_fract_x
_atom_site_fract_y
_atom_site_fract_z
Si Si1 0.744379 0.708745 0.603205
Si Si2 0.435490 0.254366 0.623401
Si Si3 0.488626 0.594067 0.001829
Si Si4 0.682352 0.367870 0.480471
Si Si5 0.960841 0.088981 0.915959
Si Si6 0.055674 0.758454 0.013167
Si Si7 0.403802 0.743519 0.756848
Si Si8 0.199932 0.733965 0.316515
O O1 0.627722 0.496334 0.619972
O O2 0.647611 0.721664 0.501394
O O3 0.659881 0.584214 0.803974
O O4 0.000000 0.000000 0.500000
O O5 0.518946 0.265746 0.549617
O O6 0.233954 0.974635 0.820652
O O7 0.500000 0.500000 0.000000
O O8 0.421286 0.628694 0.859756
O O9 0.727166 0.866374 0.943496
O O10 0.606979 0.235305 0.416106
O O11 0.743516 0.330577 0.634129
O O12 0.879579 0.664131 0.296080
O O13 0.971566 0.151147 0.010102
O O14 0.000000 0.000000 0.000000
O O15 0.141077 0.757144 0.155789
O O16 0.810448 0.457602 0.114487
O O17 0.603836 0.002871 0.722538
O O18 0.000000 0.500000 0.500000
#
# Coordination Sequence:
#
# PCOD9054740 Si02
#       8
#     2   2   2   2   2   2   2   2
#     4  11  24  41  63  90 134 182 205 257 327 390
#     4  11  24  44  60  93 137 165 218 258 324 391
#     4  12  22  37  62  96 128 165 219 264 315 382
#     4  11  25  40  66  98 125 172 212 273 316 379
#     4  11  21  38  61  94 125 162 213 261 318 368
#     4  11  23  42  67  90 125 176 206 265 325 376
#     4  11  22  41  67  93 125 163 220 265 322 375
#     4  12  22  45  69  96 126 164 224 267 323 372
#
# _framework density 20.056816000000001
#
# number of rings (size 3 to 8) (size 9 to 14) (size 15 to 20)
#    0.000    0.750    5.000    4.125    3.500    0.500 
#    2.250    0.625    0.000    0.000    0.000    0.000 
#    0.000    0.000    0.000    0.000    0.000    0.000 
#
# Total GULP energy -89324.611518 kJ/mol
# GULP energy per Si atom -5582.788220 kJ/mol
# Density = 2.001117 g / cm^3
# Si number density = 20.056816 Si / 1000 Ang^3
#
#
#
# Elastic Constant Matrix: (Units=GPa)
#
#
# Indices 1 2 3 4 5 6 
#
# 1 89.0197 16.9666 39.7263 -11.0382 0.1489 18.9099
# 2 16.9666 91.5487 12.8796 -31.3582 -6.6229 21.4640
# 3 39.7263 12.8796 79.7606 -8.3716 -12.3392 5.2304
# 4 -11.0382 -31.3582 -8.3716 34.0494 16.9101 -0.1647
# 5 0.1489 -6.6229 -12.3392 16.9101 45.8926 0.1039
# 6 18.9099 21.4640 5.2304 -0.1647 0.1039 27.1829
#
#
#
# Elastic Compliance Matrix: (Units=1/GPa)
#
#
# Indices 1 2 3 4 5 6 
#
# 1 0.018885 0.004607 -0.008914 0.010985 -0.005807 -0.014971
# 2 0.004607 0.023971 -0.003098 0.026174 -0.006985 -0.021351
# 3 -0.008914 -0.003098 0.017594 -0.004318 0.005892 0.005213
# 4 0.010985 0.026174 -0.004318 0.066745 -0.021952 -0.026989
# 5 -0.005807 -0.006985 0.005892 -0.021952 0.030455 0.008172
# 6 -0.014971 -0.021351 0.005213 -0.026989 0.008172 0.062864
#
#
# Mechanical properties :
#
#
# Convention : Reuss Voigt Hill
#
# Bulk Modulus (GPa) = 21.91097 44.38600 33.14849
# Shear Modulus (GPa) = 19.95700 34.14208 27.04954
#
# Velocity S-wave (km/s) = 3.15782 4.13033 3.67638
# Velocity P-wave (km/s) = 4.92381 6.70256 5.88083
#
# Compressibility (1/GPa) = 0.04563924
#
# Stress axis : x y z
#
# Youngs Moduli (GPa) = 52.95095 41.71683 56.83815
#
# Poissons Ratio (x) = -0.19217 0.50664
# Poissons Ratio (y) = -0.24392 0.17611
# Poissons Ratio (z) = 0.47199 0.12926
#
# Static dielectric constant tensor:
#      x y z
#    x 1.712320 -0.011660 0.033460 
#    y -0.011660 1.774690 -0.057330 
#    z 0.033460 -0.057330 1.736660 
# 
# From -- ./inp_files/315876.got.cif
#   From: 2010.05.17/outbox.cif.g08.bks.cpg/sg2_158_cif.got.tgz:315876.got - 2010.06.03 11:33:40.
