data_PCOD9054955
_publ_section_title
;
Structure prediction by ZEFSAII (Michael W. Deem and Ramdas Pophale) SiO2 
 PCOD9054955
Probable space group: P -1
;
_chemical_formula_sum "Si O2"
_cell_formula_units_Z 16
_cell_length_a 17.933962
_cell_length_b 11.902589
_cell_length_c 7.614920
_cell_angle_alpha 71.362125
_cell_angle_beta 137.681694
_cell_angle_gamma 137.314151
_cell_volume 646.512231
_symmetry_space_group_name_H-M "P -1"
_symmetry_group_IT_number 2
_symmetry_cell_setting 'triclinic'
loop_
_space_group_symop_operation_xyz
x,y,z
-x,-y,-z
loop_
_atom_site_type_symbol
_atom_site_label
_atom_site_fract_x
_atom_site_fract_y
_atom_site_fract_z
Si Si1 0.131402 0.839807 0.739121
Si Si2 0.742596 0.290033 0.844744
Si Si3 0.256512 0.454461 0.702470
Si Si4 0.524274 0.767456 0.762189
Si Si5 0.978051 0.682662 0.161595
Si Si6 0.430308 0.810286 0.028227
Si Si7 0.273923 0.088678 0.324977
Si Si8 0.298917 0.361624 0.176279
O O1 0.955283 0.738222 0.580568
O O2 0.065155 0.741001 0.479534
O O3 0.209054 0.805336 0.020794
O O4 0.302535 0.066803 0.898145
O O5 0.599158 0.219296 0.493756
O O6 0.664832 0.246589 0.925155
O O7 0.921133 0.516596 0.046498
O O8 0.385598 0.558107 0.707877
O O9 0.300104 0.624723 0.768801
O O10 0.300728 0.395221 0.957319
O O11 0.616931 0.819106 0.712844
O O12 0.799120 0.609346 0.920075
O O13 0.111206 0.865555 0.181043
O O14 0.584995 0.845104 0.323261
O O15 0.500000 0.000000 0.000000
O O16 0.202267 0.162218 0.172294
O O17 0.500000 0.500000 0.500000
#
# Coordination Sequence:
#
# PCOD9054955 Si02
#       8
#     2   2   2   2   2   2   2   2
#     4  11  24  42  68  99 138 176 224 277 333 396
#     4  11  22  42  66  99 136 179 220 274 338 402
#     4  11  24  43  68  98 136 178 222 277 335 397
#     4  11  26  44  62  99 144 178 219 267 348 403
#     4  11  23  42  70 101 128 169 239 281 324 395
#     4  11  21  39  67  99 130 173 225 275 331 389
#     4  11  24  41  68  97 132 179 223 273 331 398
#     4  11  21  44  70  97 129 173 231 282 332 387
#
# _framework density 24.748179
#
# number of rings (size 3 to 8) (size 9 to 14) (size 15 to 20)
#    0.000    1.000    3.750    4.125    3.500    2.000 
#    0.000    2.500    0.000    0.000    0.000    0.000 
#    0.000    0.000    0.000    0.000    0.000    0.000 
#
# Total GULP energy -89427.482628 kJ/mol
# GULP energy per Si atom -5589.217664 kJ/mol
# Density = 2.469185 g / cm^3
# Si number density = 24.748179 Si / 1000 Ang^3
#
#
#
# Elastic Constant Matrix: (Units=GPa)
#
#
# Indices 1 2 3 4 5 6 
#
# 1 52.4101 17.6099 20.8443 -2.9206 -0.9832 24.8615
# 2 17.6099 157.5759 28.2785 0.8617 2.7828 25.5886
# 3 20.8443 28.2785 122.8972 10.1008 11.0104 13.5344
# 4 -2.9206 0.8617 10.1008 39.1023 -7.7002 9.6641
# 5 -0.9832 2.7828 11.0104 -7.7002 25.8847 2.4942
# 6 24.8615 25.5886 13.5344 9.6641 2.4942 45.2082
#
#
#
# Elastic Compliance Matrix: (Units=1/GPa)
#
#
# Indices 1 2 3 4 5 6 
#
# 1 0.029801 0.000149 -0.004592 0.009204 0.007491 -0.017479
# 2 0.000149 0.007225 -0.001405 0.001343 0.000619 -0.004072
# 3 -0.004592 -0.001405 0.009936 -0.004399 -0.005713 0.001601
# 4 0.009204 0.001343 -0.004399 0.032976 0.013069 -0.012275
# 5 0.007491 0.000619 -0.005713 0.013069 0.045948 -0.008088
# 6 -0.017479 -0.004072 0.001601 -0.012275 -0.008088 0.036628
#
#
# Mechanical properties :
#
#
# Convention : Reuss Voigt Hill
#
# Bulk Modulus (GPa) = 28.35481 51.81652 40.08567
# Shear Modulus (GPa) = 26.88697 39.78241 33.33469
#
# Velocity S-wave (km/s) = 3.29967 4.01370 3.67407
# Velocity P-wave (km/s) = 5.09895 6.51634 5.85072
#
# Compressibility (1/GPa) = 0.03526738
#
# Stress axis : x y z
#
# Youngs Moduli (GPa) = 33.55563 138.41638 100.64427
#
# Poissons Ratio (x) = -0.02068 0.46211
# Poissons Ratio (y) = -0.00501 0.14141
# Poissons Ratio (z) = 0.15407 0.19448
#
# Static dielectric constant tensor:
#      x y z
#    x 2.025260 -0.081980 -0.049140 
#    y -0.081980 2.111390 0.031360 
#    z -0.049140 0.031360 2.005400 
# 
# From -- ./inp_files/354529.got.cif
#   From: 2010.05.17/outbox.cif.g08.bks.cpg/sg2_178_cif.got.tgz:354529.got - 2010.06.03 11:33:40.
