data_PCOD9054001
_publ_section_title
;
Structure prediction by ZEFSAII (Michael W. Deem and Ramdas Pophale) SiO2 
 PCOD9054001
Probable space group: P -1
;
_chemical_formula_sum "Si O2"
_cell_formula_units_Z 15
_cell_length_a 8.679576
_cell_length_b 13.326361
_cell_length_c 7.531697
_cell_angle_alpha 96.324125
_cell_angle_beta 129.266002
_cell_angle_gamma 110.383951
_cell_volume 562.825848
_symmetry_space_group_name_H-M "P -1"
_symmetry_group_IT_number 2
_symmetry_cell_setting 'triclinic'
loop_
_space_group_symop_operation_xyz
x,y,z
-x,-y,-z
loop_
_atom_site_type_symbol
_atom_site_label
_atom_site_fract_x
_atom_site_fract_y
_atom_site_fract_z
Si Si1 0.540215 0.863527 0.135830
Si Si2 0.357919 0.458845 0.570967
Si Si3 0.024168 0.644119 0.318831
Si Si4 0.500000 0.500000 0.000000
Si Si5 0.464255 0.287855 0.191672
Si Si6 0.126619 0.874233 0.624036
Si Si7 0.886191 0.293442 0.996829
Si Si8 0.078220 0.130741 0.154941
O O1 0.383873 0.769671 0.155282
O O2 0.742882 0.998608 0.356508
O O3 0.636033 0.810562 0.052322
O O4 0.336609 0.871548 0.882417
O O5 0.500000 0.500000 0.500000
O O6 0.523884 0.590022 0.827597
O O7 0.411057 0.394539 0.747726
O O8 0.083658 0.383301 0.302581
O O9 0.783893 0.537195 0.200787
O O10 0.259720 0.658756 0.570563
O O11 0.034802 0.765624 0.399897
O O12 0.043843 0.636438 0.121490
O O13 0.328895 0.227690 0.264224
O O14 0.960795 0.870783 0.661535
O O15 0.923008 0.182566 0.980561
O O16 0.000000 0.000000 0.000000
#
# Coordination Sequence:
#
# PCOD9054001 Si02
#       8
#     2   2   2   1   2   2   2   2
#     4   9  19  38  61  92 129 171 223 278 329 397
#     4  12  24  46  70  97 138 180 224 283 350 408
#     4  11  25  42  67 101 134 183 230 278 348 412
#     4  12  24  46  72  92 134 184 224 278 352 402
#     4  11  23  42  69 104 131 174 234 282 335 414
#     4   9  19  37  63  90 130 178 217 270 348 395
#     4  11  24  44  65  96 138 184 222 285 351 405
#     4  11  20  39  69  93 133 181 228 282 339 403
#
# _framework density 26.651226999999999
#
# number of rings (size 3 to 8) (size 9 to 14) (size 15 to 20)
#    0.000    1.333    4.000    2.400    1.867    3.200 
#    2.400    2.000    0.000    0.000    0.000    0.000 
#    0.000    0.000    0.000    0.000    0.000    0.000 
#
# Total GULP energy -83772.477225 kJ/mol
# GULP energy per Si atom -5584.831815 kJ/mol
# Density = 2.659057 g / cm^3
# Si number density = 26.651227 Si / 1000 Ang^3
#
#
#
# Elastic Constant Matrix: (Units=GPa)
#
#
# Indices 1 2 3 4 5 6 
#
# 1 138.6799 41.5745 37.8393 12.0206 4.9307 30.8180
# 2 41.5745 100.0003 38.0150 21.3218 -0.9078 5.8468
# 3 37.8393 38.0150 98.2149 13.5421 -16.3818 9.1980
# 4 12.0206 21.3218 13.5421 50.1624 -0.6399 6.8087
# 5 4.9307 -0.9078 -16.3818 -0.6399 58.1579 3.0743
# 6 30.8180 5.8468 9.1980 6.8087 3.0743 62.6592
#
#
#
# Elastic Compliance Matrix: (Units=1/GPa)
#
#
# Indices 1 2 3 4 5 6 
#
# 1 0.009698 -0.002887 -0.002476 0.000109 -0.001348 -0.004082
# 2 -0.002887 0.013438 -0.003744 -0.004182 -0.000710 0.001205
# 3 -0.002476 -0.003744 0.013472 -0.001340 0.003956 -0.000459
# 4 0.000109 -0.004182 -0.001340 0.022303 -0.000107 -0.001885
# 5 -0.001348 -0.000710 0.003956 -0.000107 0.018450 -0.000745
# 6 -0.004082 0.001205 -0.000459 -0.001885 -0.000745 0.018164
#
#
# Mechanical properties :
#
#
# Convention : Reuss Voigt Hill
#
# Bulk Modulus (GPa) = 54.36477 63.52808 58.94643
# Shear Modulus (GPa) = 41.71169 48.82699 45.26934
#
# Velocity S-wave (km/s) = 3.96042 4.28492 4.12586
# Velocity P-wave (km/s) = 6.43087 6.95480 6.69796
#
# Compressibility (1/GPa) = 0.01839426
#
# Stress axis : x y z
#
# Youngs Moduli (GPa) = 103.11665 74.41452 74.22647
#
# Poissons Ratio (x) = 0.21485 0.18380
# Poissons Ratio (y) = 0.29772 0.27788
# Poissons Ratio (z) = 0.25534 0.27858
#
# Static dielectric constant tensor:
#      x y z
#    x 2.338390 -0.077450 -0.099740 
#    y -0.077450 2.234520 -0.043370 
#    z -0.099740 -0.043370 2.097490 
# 
# From -- ./inp_files/202776.got.cif
#   From: 2010.05.17/outbox.cif.g08.bks.cpg/sg2_102_cif.got.tgz:202776.got - 2010.06.03 11:33:40.
