data_PCOD9054174
_publ_section_title
;
Structure prediction by ZEFSAII (Michael W. Deem and Ramdas Pophale) SiO2 
 PCOD9054174
Probable space group: P -1
;
_chemical_formula_sum "Si O2"
_cell_formula_units_Z 14
_cell_length_a 7.827687
_cell_length_b 17.040619
_cell_length_c 12.903037
_cell_angle_alpha 142.028828
_cell_angle_beta 30.220173
_cell_angle_gamma 137.399843
_cell_volume 524.546681
_symmetry_space_group_name_H-M "P -1"
_symmetry_group_IT_number 2
_symmetry_cell_setting 'triclinic'
loop_
_space_group_symop_operation_xyz
x,y,z
-x,-y,-z
loop_
_atom_site_type_symbol
_atom_site_label
_atom_site_fract_x
_atom_site_fract_y
_atom_site_fract_z
Si Si1 0.465499 0.719733 0.164279
Si Si2 0.311519 0.609546 0.916213
Si Si3 0.657696 0.971850 0.002445
Si Si4 0.547244 0.223332 0.359431
Si Si5 0.755087 0.056052 0.592077
Si Si6 0.269939 0.308887 0.396552
Si Si7 0.239973 0.245765 0.742393
O O1 0.438886 0.869566 0.311167
O O2 0.686319 0.698124 0.124410
O O3 0.075460 0.660010 0.341317
O O4 0.517809 0.659512 0.963349
O O5 0.576198 0.593064 0.671012
O O6 0.000000 0.500000 0.000000
O O7 0.447183 0.945206 0.194148
O O8 0.811844 0.123235 0.106312
O O9 0.807556 0.840388 0.766008
O O10 0.500000 0.000000 0.000000
O O11 0.536375 0.303976 0.345823
O O12 0.539144 0.288034 0.543089
O O13 0.146515 0.138130 0.478471
O O14 0.777452 0.909247 0.398677
O O15 0.899973 0.288752 0.921077
#
# Coordination Sequence:
#
# PCOD9054174 Si02
#       7
#     2   2   2   2   2   2   2
#     4  11  24  41  66  98 131 163 208 265 322 379
#     4  12  26  46  69  89 121 173 222 266 316 371
#     4   9  15  25  55  90 120 162 199 238 302 377
#     4   9  17  32  62  91 125 172 203 245 319 377
#     4  10  17  35  63  94 134 168 199 251 319 385
#     4  10  19  40  63  90 128 160 209 266 309 376
#     4  11  21  41  65  97 132 168 208 258 320 380
#
# _framework density 26.689713999999999
#
# number of rings (size 3 to 8) (size 9 to 14) (size 15 to 20)
#    0.000    1.714    4.286    3.000    0.000    2.286 
#    2.571    3.571    0.000    0.000    0.000    0.000 
#    0.000    0.000    0.000    0.000    0.000    0.000 
#
# Total GULP energy -78168.126578 kJ/mol
# GULP energy per Si atom -5583.437613 kJ/mol
# Density = 2.662897 g / cm^3
# Si number density = 26.689714 Si / 1000 Ang^3
#
#
#
# Elastic Constant Matrix: (Units=GPa)
#
#
# Indices 1 2 3 4 5 6 
#
# 1 101.7181 24.7233 42.7164 -7.5498 41.2572 0.9534
# 2 24.7233 54.8714 39.5266 -12.7203 19.3581 -10.0402
# 3 42.7164 39.5266 111.6372 -30.1675 31.6672 -14.5072
# 4 -7.5498 -12.7203 -30.1675 45.2096 -8.5715 9.6073
# 5 41.2572 19.3581 31.6672 -8.5715 53.2920 -12.9268
# 6 0.9534 -10.0402 -14.5072 9.6073 -12.9268 10.7518
#
#
#
# Elastic Compliance Matrix: (Units=1/GPa)
#
#
# Indices 1 2 3 4 5 6 
#
# 1 0.024244 -0.006420 -0.005173 0.004459 -0.024396 -0.048440
# 2 -0.006420 0.028119 -0.005810 -0.001658 0.004104 0.025404
# 3 -0.005173 -0.005810 0.015963 0.005679 0.000469 0.012061
# 4 0.004459 -0.001658 0.005679 0.031583 -0.009321 -0.033708
# 5 -0.024396 0.004104 0.000469 -0.009321 0.053660 0.079472
# 6 -0.048440 0.025404 0.012061 -0.033708 0.079472 0.262968
#
#
# Mechanical properties :
#
#
# Convention : Reuss Voigt Hill
#
# Bulk Modulus (GPa) = 29.83444 53.57325 41.70384
# Shear Modulus (GPa) = 10.81043 32.60136 21.70590
#
# Velocity S-wave (km/s) = 2.01475 3.49878 2.85488
# Velocity P-wave (km/s) = 4.07612 6.03640 5.15039
#
# Compressibility (1/GPa) = 0.03351831
#
# Stress axis : x y z
#
# Youngs Moduli (GPa) = 41.24726 35.56374 62.64423
#
# Poissons Ratio (x) = 0.22833 0.32407
# Poissons Ratio (y) = 0.26482 0.36397
# Poissons Ratio (z) = 0.21338 0.20663
#
# Static dielectric constant tensor:
#      x y z
#    x 2.142050 0.068870 -0.050270 
#    y 0.068870 2.295510 -0.059720 
#    z -0.050270 -0.059720 2.212260 
# 
# From -- ./inp_files/404889.got.cif
#   From: 2010.05.17/outbox.cif.g08.bks.cpg/sg2_203_cif.got.tgz:404889.got - 2010.06.03 11:33:40.
