data_PCOD9054587
_publ_section_title
;
Structure prediction by ZEFSAII (Michael W. Deem and Ramdas Pophale) SiO2 
 PCOD9054587
Probable space group: P -1
;
_chemical_formula_sum "Si O2"
_cell_formula_units_Z 16
_cell_length_a 5.370912
_cell_length_b 11.332740
_cell_length_c 17.624859
_cell_angle_alpha 53.003525
_cell_angle_beta 126.400588
_cell_angle_gamma 112.392136
_cell_volume 689.150099
_symmetry_space_group_name_H-M "P -1"
_symmetry_group_IT_number 2
_symmetry_cell_setting 'triclinic'
loop_
_space_group_symop_operation_xyz
x,y,z
-x,-y,-z
loop_
_atom_site_type_symbol
_atom_site_label
_atom_site_fract_x
_atom_site_fract_y
_atom_site_fract_z
Si Si1 0.411276 0.696203 0.047273
Si Si2 0.831514 0.203873 0.197219
Si Si3 0.899182 0.926397 0.088334
Si Si4 0.720916 0.974769 0.748162
Si Si5 0.686563 0.302489 0.808959
Si Si6 0.953217 0.737371 0.349716
Si Si7 0.843173 0.578517 0.537893
Si Si8 0.069305 0.558396 0.745734
O O1 0.193303 0.682956 0.087814
O O2 0.652151 0.560566 0.151819
O O3 0.570718 0.853879 0.037841
O O4 0.296836 0.714859 0.933554
O O5 0.585202 0.085406 0.238714
O O6 0.888361 0.325809 0.224554
O O7 0.144784 0.128675 0.253708
O O8 0.113492 0.783997 0.181745
O O9 0.013391 0.025808 0.139103
O O10 0.000000 0.000000 0.000000
O O11 0.767470 0.143660 0.659974
O O12 0.351089 0.223573 0.768696
O O13 0.738002 0.469686 0.727962
O O14 0.871867 0.713955 0.431996
O O15 0.981133 0.568861 0.394926
O O16 0.500000 0.500000 0.500000
O O17 0.015167 0.628973 0.626741
#
# Coordination Sequence:
#
# PCOD9054587 Si02
#       8
#     2   2   2   2   2   2   2   2
#     4  11  23  40  68 101 136 185 229 285 335 396
#     4  12  29  44  68  98 148 199 220 266 342 424
#     4  11  21  36  63  99 139 175 227 277 339 403
#     4  12  26  45  67 102 144 184 229 277 341 417
#     4  11  21  38  70  99 138 174 224 301 340 393
#     4  11  23  41  72 107 127 169 229 302 353 400
#     4  11  23  43  75 101 126 169 229 303 361 386
#     4  11  25  45  65  99 140 180 239 279 336 416
#
# _framework density 23.217003999999999
#
# number of rings (size 3 to 8) (size 9 to 14) (size 15 to 20)
#    0.000    0.750    5.000    2.625    5.250    1.500 
#    0.000    1.250    0.000    0.000    0.000    0.000 
#    0.000    0.000    0.000    0.000    0.000    0.000 
#
# Total GULP energy -89095.330208 kJ/mol
# GULP energy per Si atom -5568.458138 kJ/mol
# Density = 2.316416 g / cm^3
# Si number density = 23.217004 Si / 1000 Ang^3
#
#
#
# Elastic Constant Matrix: (Units=GPa)
#
#
# Indices 1 2 3 4 5 6 
#
# 1 66.4786 -3.4735 9.7814 1.9828 -10.9611 -8.4542
# 2 -3.4735 72.6389 22.3983 11.5547 -10.5903 -29.7937
# 3 9.7814 22.3983 100.0798 14.2948 -39.0921 -8.6491
# 4 1.9828 11.5547 14.2948 27.8720 0.3526 -13.1917
# 5 -10.9611 -10.5903 -39.0921 0.3526 35.6726 5.1088
# 6 -8.4542 -29.7937 -8.6491 -13.1917 5.1088 36.4043
#
#
#
# Elastic Compliance Matrix: (Units=1/GPa)
#
#
# Indices 1 2 3 4 5 6 
#
# 1 0.017059 0.004379 0.000199 0.000006 0.005788 0.006783
# 2 0.004379 0.022951 -0.003375 0.000918 0.001718 0.019091
# 3 0.000199 -0.003375 0.020956 -0.012195 0.022914 -0.005372
# 4 0.000006 0.000918 -0.012195 0.050720 -0.016242 0.018514
# 5 0.005788 0.001718 0.022914 -0.016242 0.056395 -0.005606
# 6 0.006783 0.019091 -0.005372 0.018514 -0.005606 0.050888
#
#
# Mechanical properties :
#
#
# Convention : Reuss Voigt Hill
#
# Bulk Modulus (GPa) = 15.77967 32.95662 24.36814
# Shear Modulus (GPa) = 21.03616 34.02251 27.52933
#
# Velocity S-wave (km/s) = 3.01336 3.83222 3.44719
# Velocity P-wave (km/s) = 4.34954 5.81439 5.13447
#
# Compressibility (1/GPa) = 0.06337269
#
# Stress axis : x y z
#
# Youngs Moduli (GPa) = 58.62083 43.57020 47.71944
#
# Poissons Ratio (x) = -0.19081 -0.00949
# Poissons Ratio (y) = -0.25673 0.16105
# Poissons Ratio (z) = -0.01166 0.14705
#
# Static dielectric constant tensor:
#      x y z
#    x 2.100100 0.041590 -0.036200 
#    y 0.041590 1.832490 -0.056590 
#    z -0.036200 -0.056590 2.030480 
# 
# From -- ./inp_files/83544.got.cif
#   From: 2010.05.17/outbox.cif.g08.bks.cpg/sg2_42_cif.got.tgz:83544.got - 2010.06.03 11:33:40.
