data_PCOD9054206
_publ_section_title
;
Structure prediction by ZEFSAII (Michael W. Deem and Ramdas Pophale) SiO2 
 PCOD9054206
Probable space group: P -1
;
_chemical_formula_sum "Si O2"
_cell_formula_units_Z 16
_cell_length_a 19.898294
_cell_length_b 11.458617
_cell_length_c 9.068535
_cell_angle_alpha 112.747434
_cell_angle_beta 68.557370
_cell_angle_gamma 158.821094
_cell_volume 688.834930
_symmetry_space_group_name_H-M "P -1"
_symmetry_group_IT_number 2
_symmetry_cell_setting 'triclinic'
loop_
_space_group_symop_operation_xyz
x,y,z
-x,-y,-z
loop_
_atom_site_type_symbol
_atom_site_label
_atom_site_fract_x
_atom_site_fract_y
_atom_site_fract_z
Si Si1 0.936550 0.215635 0.748404
Si Si2 0.993291 0.158281 0.157318
Si Si3 0.522203 0.875552 0.581973
Si Si4 0.714437 0.849779 0.047699
Si Si5 0.345379 0.958556 0.768436
Si Si6 0.397952 0.763224 0.100087
Si Si7 0.873333 0.878328 0.435444
Si Si8 0.871949 0.338350 0.658446
O O1 0.885622 0.270309 0.753250
O O2 0.160860 0.574963 0.749141
O O3 0.856702 0.985138 0.584958
O O4 0.845557 0.050345 0.897988
O O5 0.178597 0.386974 0.056860
O O6 0.069230 0.424768 0.236414
O O7 0.796355 0.870955 0.096000
O O8 0.960029 0.045755 0.289045
O O9 0.318021 0.505542 0.610489
O O10 0.552708 0.916254 0.402726
O O11 0.581297 0.105454 0.714630
O O12 0.663322 0.004098 0.603672
O O13 0.724374 0.009612 0.179071
O O14 0.500000 0.500000 0.000000
O O15 0.481254 0.158981 0.897309
O O16 0.500000 0.000000 0.000000
O O17 0.000000 0.000000 0.500000
O O18 0.000000 0.500000 0.500000
#
# Coordination Sequence:
#
# PCOD9054206 Si02
#       8
#     2   2   2   2   2   2   2   2
#     4  12  24  42  72  98 142 176 234 278 343 399
#     4  11  24  46  67  97 138 179 228 281 342 412
#     4  11  24  41  68  99 136 173 230 274 345 398
#     4  12  28  44  67 105 141 180 226 289 351 402
#     4  12  23  45  70  98 135 181 232 282 333 412
#     4  11  25  43  71  99 132 180 233 277 336 407
#     4  12  26  44  69 102 140 184 225 281 348 409
#     4  11  20  41  69 102 125 177 229 284 329 402
#
# _framework density 23.227626000000001
#
# number of rings (size 3 to 8) (size 9 to 14) (size 15 to 20)
#    0.000    0.500    3.750    4.500    5.250    0.500 
#    0.000    1.875    0.000    0.000    0.000    0.000 
#    0.000    0.000    0.000    0.000    0.000    0.000 
#
# Total GULP energy -89530.585410 kJ/mol
# GULP energy per Si atom -5595.661588 kJ/mol
# Density = 2.317476 g / cm^3
# Si number density = 23.227626 Si / 1000 Ang^3
#
#
#
# Elastic Constant Matrix: (Units=GPa)
#
#
# Indices 1 2 3 4 5 6 
#
# 1 131.1444 34.6690 23.3686 -1.7425 37.6186 21.8519
# 2 34.6690 87.3876 1.6349 5.7334 16.5481 15.5256
# 3 23.3686 1.6349 78.3524 -20.0560 21.3050 -6.7479
# 4 -1.7425 5.7334 -20.0560 42.8284 -4.5970 5.0860
# 5 37.6186 16.5481 21.3050 -4.5970 49.5649 12.4113
# 6 21.8519 15.5256 -6.7479 5.0860 12.4113 34.2968
#
#
#
# Elastic Compliance Matrix: (Units=1/GPa)
#
#
# Indices 1 2 3 4 5 6 
#
# 1 0.010953 -0.002486 -0.002160 -0.000324 -0.005525 -0.004231
# 2 -0.002486 0.013536 0.000306 -0.001570 -0.002029 -0.003516
# 3 -0.002160 0.000306 0.017507 0.006587 -0.006934 0.006214
# 4 -0.000324 -0.001570 0.006587 0.026990 0.000978 -0.002144
# 5 -0.005525 -0.002029 -0.006934 0.000978 0.030113 -0.007967
# 6 -0.004231 -0.003516 0.006214 -0.002144 -0.007967 0.037868
#
#
# Mechanical properties :
#
#
# Convention : Reuss Voigt Hill
#
# Bulk Modulus (GPa) = 30.01469 46.24772 38.13120
# Shear Modulus (GPa) = 31.89772 41.15216 36.52494
#
# Velocity S-wave (km/s) = 3.70978 4.21371 3.96975
# Velocity P-wave (km/s) = 5.59464 6.60513 6.12077
#
# Compressibility (1/GPa) = 0.03331701
#
# Stress axis : x y z
#
# Youngs Moduli (GPa) = 91.30221 73.87889 57.11930
#
# Poissons Ratio (x) = 0.18364 0.12335
# Poissons Ratio (y) = 0.22695 -0.01748
# Poissons Ratio (z) = 0.19717 -0.02260
#
# Static dielectric constant tensor:
#      x y z
#    x 1.914730 0.026130 -0.007870 
#    y 0.026130 1.880790 0.082270 
#    z -0.007870 0.082270 1.850800 
# 
# From -- ./inp_files/225965.got.cif
#   From: 2010.05.17/outbox.cif.g08.bks.cpg/sg2_113_cif.got.tgz:225965.got - 2010.06.03 11:33:40.
