data_PCOD9054374
_publ_section_title
;
Structure prediction by ZEFSAII (Michael W. Deem and Ramdas Pophale) SiO2 
 PCOD9054374
Probable space group: P -1
;
_chemical_formula_sum "Si O2"
_cell_formula_units_Z 16
_cell_length_a 12.594744
_cell_length_b 9.401457
_cell_length_c 9.373197
_cell_angle_alpha 102.387897
_cell_angle_beta 48.492404
_cell_angle_gamma 130.968470
_cell_volume 578.135780
_symmetry_space_group_name_H-M "P -1"
_symmetry_group_IT_number 2
_symmetry_cell_setting 'triclinic'
loop_
_space_group_symop_operation_xyz
x,y,z
-x,-y,-z
loop_
_atom_site_type_symbol
_atom_site_label
_atom_site_fract_x
_atom_site_fract_y
_atom_site_fract_z
Si Si1 0.453494 0.569983 0.917627
Si Si2 0.176056 0.158704 0.200403
Si Si3 0.617863 0.334536 0.552280
Si Si4 0.192946 0.940176 0.934112
Si Si5 0.029197 0.320799 0.498304
Si Si6 0.682469 0.187634 0.972043
Si Si7 0.811744 0.166723 0.379273
Si Si8 0.484560 0.697136 0.668205
O O1 0.652561 0.806660 0.855609
O O2 0.535145 0.589945 0.687771
O O3 0.500000 0.500000 0.000000
O O4 0.232397 0.330981 0.073700
O O5 0.041101 0.156974 0.426638
O O6 0.076000 0.959773 0.150564
O O7 0.387788 0.172302 0.764977
O O8 0.752777 0.485565 0.595248
O O9 0.677759 0.207405 0.464110
O O10 0.642854 0.406645 0.382230
O O11 0.095562 0.819344 0.848831
O O12 0.283680 0.865687 0.919294
O O13 0.877552 0.283345 0.735204
O O14 0.951009 0.320750 0.415895
O O15 0.632878 0.323799 0.083417
O O16 0.500000 0.000000 0.000000
O O17 0.663530 0.935401 0.525534
#
# Coordination Sequence:
#
# PCOD9054374 Si02
#       8
#     2   2   2   2   2   2   2   2
#     4   8  20  41  69  94 136 181 221 272 337 409
#     4   9  22  42  65  94 136 182 229 268 336 404
#     4  11  22  43  71 104 138 174 228 292 337 401
#     4  11  21  45  72  92 138 184 227 276 337 413
#     4  12  26  41  65 103 142 181 225 286 336 400
#     4  12  23  40  70 104 130 180 225 282 349 403
#     4  11  23  42  68 104 137 176 227 287 344 401
#     4  11  20  43  71 103 132 175 234 278 343 406
#
# _framework density 27.675159000000001
#
# number of rings (size 3 to 8) (size 9 to 14) (size 15 to 20)
#    0.750    0.500    3.750    3.375    0.000    3.500 
#    2.250    5.625    0.000    0.000    0.000    0.000 
#    0.000    0.000    0.000    0.000    0.000    0.000 
#
# Total GULP energy -89112.773562 kJ/mol
# GULP energy per Si atom -5569.548348 kJ/mol
# Density = 2.761217 g / cm^3
# Si number density = 27.675159 Si / 1000 Ang^3
#
#
#
# Elastic Constant Matrix: (Units=GPa)
#
#
# Indices 1 2 3 4 5 6 
#
# 1 153.0492 54.2368 53.3894 7.4256 44.1679 16.5366
# 2 54.2368 103.9373 37.4830 25.5067 15.2626 11.4599
# 3 53.3894 37.4830 116.3805 34.3095 3.3612 -1.9072
# 4 7.4256 25.5067 34.3095 43.0662 -6.0665 10.2303
# 5 44.1679 15.2626 3.3612 -6.0665 57.5979 8.4981
# 6 16.5366 11.4599 -1.9072 10.2303 8.4981 56.3361
#
#
#
# Elastic Compliance Matrix: (Units=1/GPa)
#
#
# Indices 1 2 3 4 5 6 
#
# 1 0.011833 -0.004018 -0.005185 0.004101 -0.006901 -0.002535
# 2 -0.004018 0.013884 -0.000425 -0.007349 -0.001328 -0.000124
# 3 -0.005185 -0.000425 0.014373 -0.011008 0.001521 0.003865
# 4 0.004101 -0.007349 -0.011008 0.038111 0.004594 -0.007695
# 5 -0.006901 -0.001328 0.001521 0.004594 0.023705 -0.002063
# 6 -0.002535 -0.000124 0.003865 -0.007695 -0.002063 0.020360
#
#
# Mechanical properties :
#
#
# Convention : Reuss Voigt Hill
#
# Bulk Modulus (GPa) = 48.00414 73.73172 60.86793
# Shear Modulus (GPa) = 33.67753 46.61724 40.14739
#
# Velocity S-wave (km/s) = 3.49217 4.10865 3.81289
# Velocity P-wave (km/s) = 5.80031 7.01482 6.43628
#
# Compressibility (1/GPa) = 0.02083154
#
# Stress axis : x y z
#
# Youngs Moduli (GPa) = 84.50871 72.02754 69.57437
#
# Poissons Ratio (x) = 0.28943 0.36077
# Poissons Ratio (y) = 0.33958 0.02960
# Poissons Ratio (z) = 0.43822 0.03064
#
# Static dielectric constant tensor:
#      x y z
#    x 2.254400 -0.157060 0.102640 
#    y -0.157060 1.556260 0.600120 
#    z 0.102640 0.600120 1.636060 
# 
# From -- ./inp_files/307926.got.cif
#   From: 2010.05.17/outbox.cif.g08.bks.cpg/sg2_154_cif.got.tgz:307926.got - 2010.06.03 11:33:40.
