data_PCOD9054264
_publ_section_title
;
Structure prediction by ZEFSAII (Michael W. Deem and Ramdas Pophale) SiO2 
 PCOD9054264
Probable space group: P -1
;
_chemical_formula_sum "Si O2"
_cell_formula_units_Z 15
_cell_length_a 8.829996
_cell_length_b 11.454985
_cell_length_c 14.904005
_cell_angle_alpha 29.562385
_cell_angle_beta 68.821962
_cell_angle_gamma 68.917203
_cell_volume 690.129010
_symmetry_space_group_name_H-M "P -1"
_symmetry_group_IT_number 2
_symmetry_cell_setting 'triclinic'
loop_
_space_group_symop_operation_xyz
x,y,z
-x,-y,-z
loop_
_atom_site_type_symbol
_atom_site_label
_atom_site_fract_x
_atom_site_fract_y
_atom_site_fract_z
Si Si1 0.213310 0.773298 0.058741
Si Si2 0.000000 0.000000 0.500000
Si Si3 0.099682 0.487798 0.755187
Si Si4 0.812142 0.801805 0.363460
Si Si5 0.468838 0.389767 0.178563
Si Si6 0.278190 0.005199 0.560241
Si Si7 0.812603 0.340344 0.564275
Si Si8 0.312032 0.015264 0.055912
O O1 0.373164 0.596358 0.119633
O O2 0.223384 0.885028 0.080374
O O3 0.057150 0.626691 0.176383
O O4 0.200002 0.983290 0.848102
O O5 0.956318 0.293199 0.315994
O O6 0.091930 0.011380 0.569077
O O7 0.194669 0.590273 0.583395
O O8 0.218900 0.274982 0.912911
O O9 0.710406 0.874056 0.426083
O O10 0.756924 0.571505 0.480784
O O11 0.000287 0.740090 0.393607
O O12 0.357051 0.165204 0.360019
O O13 0.633128 0.259357 0.273293
O O14 0.500000 0.500000 0.000000
O O15 0.707292 0.130721 0.752364
O O16 0.500000 0.000000 0.000000
#
# Coordination Sequence:
#
# PCOD9054264 Si02
#       8
#     2   1   2   2   2   2   2   2
#     4  12  22  46  73 102 133 182 237 284 341 420
#     4  12  26  46  70 102 144 184 228 292 344 410
#     4  12  25  48  71 101 137 185 236 278 342 420
#     4  11  20  41  76 102 127 181 241 283 334 412
#     4  11  23  42  67  98 135 181 232 276 342 412
#     4  11  24  43  65 101 139 183 232 285 341 406
#     4  11  22  42  73 100 128 177 230 287 342 400
#     4  12  28  46  67 107 144 172 225 296 354 406
#
# _framework density 21.735066
#
# number of rings (size 3 to 8) (size 9 to 14) (size 15 to 20)
#    0.000    0.533    6.667    2.800    1.867    0.533 
#    2.400    4.667    0.000    0.000    0.000    0.000 
#    0.000    0.000    0.000    0.000    0.000    0.000 
#
# Total GULP energy -83621.624574 kJ/mol
# GULP energy per Si atom -5574.774972 kJ/mol
# Density = 2.168560 g / cm^3
# Si number density = 21.735066 Si / 1000 Ang^3
#
#
#
# Elastic Constant Matrix: (Units=GPa)
#
#
# Indices 1 2 3 4 5 6 
#
# 1 26.2527 21.7872 15.7054 -11.4180 1.9063 -7.1374
# 2 21.7872 75.1252 43.0891 -21.2334 2.0098 -9.0562
# 3 15.7054 43.0891 177.3924 -1.5395 5.3175 -8.2222
# 4 -11.4180 -21.2334 -1.5395 47.9404 -10.2986 8.5600
# 5 1.9063 2.0098 5.3175 -10.2986 24.4978 -3.1542
# 6 -7.1374 -9.0562 -8.2222 8.5600 -3.1542 31.1320
#
#
#
# Elastic Compliance Matrix: (Units=1/GPa)
#
#
# Indices 1 2 3 4 5 6 
#
# 1 0.053527 -0.012131 -0.001447 0.006271 0.000643 0.006702
# 2 -0.012131 0.021093 -0.004049 0.006855 0.003065 0.000711
# 3 -0.001447 -0.004049 0.006822 -0.002482 -0.001980 0.000774
# 4 0.006271 0.006855 -0.002482 0.028350 0.010903 -0.003914
# 5 0.000643 0.003065 -0.001980 0.010903 0.045810 0.002160
# 6 0.006702 0.000711 0.000774 -0.003914 0.002160 0.035364
#
#
# Mechanical properties :
#
#
# Convention : Reuss Voigt Hill
#
# Bulk Modulus (GPa) = 21.64999 48.88153 35.26576
# Shear Modulus (GPa) = 20.69415 33.92662 27.31039
#
# Velocity S-wave (km/s) = 3.08897 3.95513 3.54858
# Velocity P-wave (km/s) = 4.76496 6.58756 5.74895
#
# Compressibility (1/GPa) = 0.04618940
#
# Stress axis : x y z
#
# Youngs Moduli (GPa) = 18.68230 47.41019 146.57409
#
# Poissons Ratio (x) = 0.57511 0.21204
# Poissons Ratio (y) = 0.22663 0.59346
# Poissons Ratio (z) = 0.02703 0.19196
#
# Static dielectric constant tensor:
#      x y z
#    x 1.822250 -0.037490 -0.026310 
#    y -0.037490 1.769780 -0.007640 
#    z -0.026310 -0.007640 1.796030 
# 
# From -- ./inp_files/499650.got.cif
#   From: 2010.05.17/outbox.cif.g08.bks.cpg/sg2_250_cif.got.tgz:499650.got - 2010.06.03 11:33:40.
