data_PCOD9054950
_publ_section_title
;
Structure prediction by ZEFSAII (Michael W. Deem and Ramdas Pophale) SiO2 
 PCOD9054950
Probable space group: P -1
;
_chemical_formula_sum "Si O2"
_cell_formula_units_Z 12
_cell_length_a 8.751694
_cell_length_b 11.436540
_cell_length_c 7.974793
_cell_angle_alpha 63.022315
_cell_angle_beta 125.154546
_cell_angle_gamma 128.321428
_cell_volume 506.153856
_symmetry_space_group_name_H-M "P -1"
_symmetry_group_IT_number 2
_symmetry_cell_setting 'triclinic'
loop_
_space_group_symop_operation_xyz
x,y,z
-x,-y,-z
loop_
_atom_site_type_symbol
_atom_site_label
_atom_site_fract_x
_atom_site_fract_y
_atom_site_fract_z
Si Si1 0.828488 0.952754 0.074418
Si Si2 0.477585 0.339803 0.119243
Si Si3 0.848967 0.323903 0.487081
Si Si4 0.611566 0.669332 0.533412
Si Si5 0.451036 0.887658 0.265207
Si Si6 0.047324 0.870595 0.529159
O O1 0.674488 0.783134 0.027958
O O2 0.691083 0.040981 0.944993
O O3 0.948624 0.966179 0.316399
O O4 0.000000 0.000000 0.000000
O O5 0.692414 0.329373 0.245579
O O6 0.420056 0.315516 0.297571
O O7 0.500000 0.500000 0.000000
O O8 0.699026 0.208074 0.610906
O O9 0.982215 0.249603 0.554645
O O10 0.000000 0.500000 0.500000
O O11 0.500000 0.500000 0.500000
O O12 0.507404 0.760978 0.312985
O O13 0.868103 0.754671 0.618310
O O14 0.693625 0.026122 0.360025
#
# Coordination Sequence:
#
# PCOD9054950 Si02
#       6
#     2   2   2   2   2   2
#     4  12  23  41  75 105 132 180 241 285 334 416
#     4  11  24  44  69 101 137 177 240 283 337 426
#     4  11  21  39  67  96 136 183 225 284 340 401
#     4  11  25  45  69  99 147 185 223 292 361 405
#     4  11  24  44  70 104 139 182 239 280 347 420
#     4  12  23  44  71 101 144 178 226 296 350 403
#
# _framework density 23.708207000000002
#
# number of rings (size 3 to 8) (size 9 to 14) (size 15 to 20)
#    0.000    0.667    3.333    7.000    0.000    0.667 
#    0.000    0.833    0.000    0.000    0.000    0.000 
#    0.000    0.000    0.000    0.000    0.000    0.000 
#
# Total GULP energy -66897.589759 kJ/mol
# GULP energy per Si atom -5574.799147 kJ/mol
# Density = 2.365425 g / cm^3
# Si number density = 23.708207 Si / 1000 Ang^3
#
#
#
# Elastic Constant Matrix: (Units=GPa)
#
#
# Indices 1 2 3 4 5 6 
#
# 1 98.6211 28.2081 17.6338 -8.1935 17.2539 7.2629
# 2 28.2081 177.8249 38.1798 -4.3058 22.7254 -11.7800
# 3 17.6338 38.1798 123.0240 -6.3999 31.6294 17.5436
# 4 -8.1935 -4.3058 -6.3999 37.3118 -4.5582 5.9984
# 5 17.2539 22.7254 31.6294 -4.5582 47.7976 -3.7971
# 6 7.2629 -11.7800 17.5436 5.9984 -3.7971 32.5824
#
#
#
# Elastic Compliance Matrix: (Units=1/GPa)
#
#
# Indices 1 2 3 4 5 6 
#
# 1 0.011779 -0.001742 0.000670 0.002753 -0.003969 -0.004585
# 2 -0.001742 0.006741 -0.002247 -0.000748 -0.000836 0.004076
# 3 0.000670 -0.002247 0.012073 0.002442 -0.007629 -0.008801
# 4 0.002753 -0.000748 0.002442 0.028938 -0.000093 -0.007537
# 5 -0.003969 -0.000836 -0.007629 -0.000093 0.028428 0.008020
# 6 -0.004585 0.004076 -0.008801 -0.007537 0.008020 0.040248
#
#
# Mechanical properties :
#
#
# Convention : Reuss Voigt Hill
#
# Bulk Modulus (GPa) = 41.74671 63.05704 52.40188
# Shear Modulus (GPa) = 35.00578 44.56826 39.78702
#
# Velocity S-wave (km/s) = 3.84673 4.34045 4.10102
# Velocity P-wave (km/s) = 6.11363 7.19543 6.67648
#
# Compressibility (1/GPa) = 0.02395398
#
# Stress axis : x y z
#
# Youngs Moduli (GPa) = 84.89606 148.34115 82.82618
#
# Poissons Ratio (x) = 0.25845 -0.05547
# Poissons Ratio (y) = 0.14791 0.18615
# Poissons Ratio (z) = -0.05686 0.33339
#
# Static dielectric constant tensor:
#      x y z
#    x 1.986640 -0.015420 -0.048060 
#    y -0.015420 2.245460 0.062410 
#    z -0.048060 0.062410 2.043760 
# 
# From -- ./inp_files/175626.got.cif
#   From: 2010.05.17/outbox.cif.g08.bks.cpg/sg2_88_cif.got.tgz:175626.got - 2010.06.03 11:33:40.
