data_PCOD9054114
_publ_section_title
;
Structure prediction by ZEFSAII (Michael W. Deem and Ramdas Pophale) SiO2 
 PCOD9054114
Probable space group: P -1
;
_chemical_formula_sum "Si O2"
_cell_formula_units_Z 16
_cell_length_a 16.819843
_cell_length_b 7.899111
_cell_length_c 15.192355
_cell_angle_alpha 145.297029
_cell_angle_beta 34.395025
_cell_angle_gamma 131.352922
_cell_volume 648.177414
_symmetry_space_group_name_H-M "P -1"
_symmetry_group_IT_number 2
_symmetry_cell_setting 'triclinic'
loop_
_space_group_symop_operation_xyz
x,y,z
-x,-y,-z
loop_
_atom_site_type_symbol
_atom_site_label
_atom_site_fract_x
_atom_site_fract_y
_atom_site_fract_z
Si Si1 0.397773 0.916884 0.976623
Si Si2 0.513181 0.885370 0.212292
Si Si3 0.236232 0.257004 0.394756
Si Si4 0.963162 0.589326 0.709670
Si Si5 0.334883 0.748993 0.629837
Si Si6 0.034091 0.734252 0.995944
Si Si7 0.228187 0.346424 0.921446
Si Si8 0.726966 0.307603 0.748112
O O1 0.273608 0.156830 0.218862
O O2 0.329365 0.600821 0.910713
O O3 0.500000 0.000000 0.000000
O O4 0.448987 0.982307 0.860944
O O5 0.349575 0.821196 0.323319
O O6 0.551409 0.130202 0.354343
O O7 0.607223 0.570612 0.999196
O O8 0.344159 0.466315 0.436009
O O9 0.087282 0.430845 0.586196
O O10 0.240832 0.963367 0.327149
O O11 0.880838 0.423599 0.637869
O O12 0.830864 0.609533 0.907616
O O13 0.989893 0.926123 0.806240
O O14 0.191752 0.701414 0.797120
O O15 0.308833 0.027864 0.708378
O O16 0.915477 0.676119 0.008817
O O17 0.000000 0.500000 0.000000
#
# Coordination Sequence:
#
# PCOD9054114 Si02
#       8
#     2   2   2   2   2   2   2   2
#     4  12  25  44  66  98 133 180 224 270 337 400
#     4  11  23  45  68  97 133 180 228 264 331 413
#     4  12  23  43  69 101 132 172 229 279 336 385
#     4  11  20  41  68  99 130 174 225 273 331 402
#     4  11  22  42  70  98 133 177 227 268 329 407
#     4  11  21  38  64 103 137 175 217 274 338 395
#     4  11  20  40  69  93 131 185 218 260 339 415
#     4  11  23  41  71  93 133 182 222 269 332 406
#
# _framework density 24.684598999999999
#
# number of rings (size 3 to 8) (size 9 to 14) (size 15 to 20)
#    0.000    0.750    7.500    1.875    1.750    0.500 
#    2.250    1.250    0.000    0.000    0.000    0.000 
#    0.000    0.000    0.000    0.000    0.000    0.000 
#
# Total GULP energy -89384.282300 kJ/mol
# GULP energy per Si atom -5586.517644 kJ/mol
# Density = 2.462842 g / cm^3
# Si number density = 24.684599 Si / 1000 Ang^3
#
#
#
# Elastic Constant Matrix: (Units=GPa)
#
#
# Indices 1 2 3 4 5 6 
#
# 1 121.9434 53.0991 16.7049 3.5811 -17.4682 31.1631
# 2 53.0991 171.2686 43.6012 25.8593 0.4923 27.0035
# 3 16.7049 43.6012 46.0584 23.0351 -4.2537 -5.4353
# 4 3.5811 25.8593 23.0351 36.9200 3.6270 -4.9661
# 5 -17.4682 0.4923 -4.2537 3.6270 30.8739 1.5760
# 6 31.1631 27.0035 -5.4353 -4.9661 1.5760 47.5999
#
#
#
# Elastic Compliance Matrix: (Units=1/GPa)
#
#
# Indices 1 2 3 4 5 6 
#
# 1 0.012383 -0.001938 -0.003103 0.000394 0.006949 -0.007551
# 2 -0.001938 0.009690 -0.008296 -0.001952 -0.001893 -0.005317
# 3 -0.003103 -0.008296 0.042086 -0.019482 0.005989 0.009313
# 4 0.000394 -0.001952 -0.019482 0.041741 -0.007499 0.003228
# 5 0.006949 -0.001893 0.005989 -0.007499 0.038305 -0.004842
# 6 -0.007551 -0.005317 0.009313 0.003228 -0.004842 0.030528
#
#
# Mechanical properties :
#
#
# Convention : Reuss Voigt Hill
#
# Bulk Modulus (GPa) = 26.67733 62.89787 44.78760
# Shear Modulus (GPa) = 23.37512 38.13644 30.75578
#
# Velocity S-wave (km/s) = 3.08060 3.93485 3.53363
# Velocity P-wave (km/s) = 4.84605 6.79558 5.90187
#
# Compressibility (1/GPa) = 0.03748502
#
# Stress axis : x y z
#
# Youngs Moduli (GPa) = 80.75603 103.19746 23.76079
#
# Poissons Ratio (x) = 0.20002 0.07372
# Poissons Ratio (y) = 0.15652 0.19712
# Poissons Ratio (z) = 0.25057 0.85614
#
# Static dielectric constant tensor:
#      x y z
#    x 1.933560 0.071050 0.042020 
#    y 0.071050 2.013690 -0.014320 
#    z 0.042020 -0.014320 2.080210 
# 
# From -- ./inp_files/575614.got.cif
#   From: 2010.05.17/outbox.cif.g08.bks.cpg/sg2_288_cif.got.tgz:575614.got - 2010.06.03 11:33:40.
