data_PCOD9054912
_publ_section_title
;
Structure prediction by ZEFSAII (Michael W. Deem and Ramdas Pophale) SiO2 
 PCOD9054912
Probable space group: P -1
;
_chemical_formula_sum "Si O2"
_cell_formula_units_Z 16
_cell_length_a 9.504553
_cell_length_b 12.509175
_cell_length_c 12.206296
_cell_angle_alpha 49.364045
_cell_angle_beta 94.948132
_cell_angle_gamma 123.562244
_cell_volume 827.226054
_symmetry_space_group_name_H-M "P -1"
_symmetry_group_IT_number 2
_symmetry_cell_setting 'triclinic'
loop_
_space_group_symop_operation_xyz
x,y,z
-x,-y,-z
loop_
_atom_site_type_symbol
_atom_site_label
_atom_site_fract_x
_atom_site_fract_y
_atom_site_fract_z
Si Si1 0.584756 0.017135 0.876655
Si Si2 0.547476 0.290340 0.600934
Si Si3 0.908547 0.644602 0.975125
Si Si4 0.677422 0.539049 0.654359
Si Si5 0.221016 0.623353 0.060039
Si Si6 0.872783 0.926800 0.321591
Si Si7 0.027789 0.883362 0.155361
Si Si8 0.678447 0.533514 0.250601
O O1 0.624760 0.189406 0.704178
O O2 0.770353 0.050689 0.884722
O O3 0.500000 0.000000 0.000000
O O4 0.425105 0.826747 0.929721
O O5 0.633203 0.459925 0.579521
O O6 0.322724 0.149819 0.695214
O O7 0.582582 0.345025 0.438795
O O8 0.824892 0.503776 0.962097
O O9 0.751197 0.568006 0.108754
O O10 0.005710 0.852522 0.799415
O O11 0.068655 0.648878 0.036175
O O12 0.773202 0.474236 0.768605
O O13 0.800964 0.763357 0.513720
O O14 0.475736 0.443922 0.759015
O O15 0.990673 0.910438 0.256629
O O16 0.865094 0.676947 0.238888
O O17 0.000000 0.000000 0.000000
#
# Coordination Sequence:
#
# PCOD9054912 Si02
#       8
#     2   2   2   2   2   2   2   2
#     4  12  23  37  63  92 124 160 205 257 312 358
#     4  11  21  39  64  96 127 157 196 261 317 355
#     4  11  25  43  66  82 124 171 211 246 299 374
#     4  11  22  39  66  95 129 152 203 260 309 359
#     4  11  25  44  61  89 122 166 213 249 303 365
#     4  11  21  40  63  94 123 162 196 255 314 357
#     4  12  21  33  60  94 123 153 207 249 300 368
#     4  11  22  38  62  95 126 160 195 254 310 362
#
# _framework density 19.341752
#
# number of rings (size 3 to 8) (size 9 to 14) (size 15 to 20)
#    0.000    0.750    6.250    3.000    0.000    2.500 
#    0.000    0.625    0.000    0.000    0.000    0.000 
#    0.000    0.000    0.000    0.000    0.000    0.000 
#
# Total GULP energy -89282.737962 kJ/mol
# GULP energy per Si atom -5580.171123 kJ/mol
# Density = 1.929773 g / cm^3
# Si number density = 19.341752 Si / 1000 Ang^3
#
#
#
# Elastic Constant Matrix: (Units=GPa)
#
#
# Indices 1 2 3 4 5 6 
#
# 1 105.8389 16.2649 33.3445 -10.9229 -8.5319 5.0393
# 2 16.2649 69.8642 22.1751 -18.0873 -9.4566 -6.9986
# 3 33.3445 22.1751 84.9868 -15.3593 1.3264 -6.7026
# 4 -10.9229 -18.0873 -15.3593 20.6290 -1.6045 4.3677
# 5 -8.5319 -9.4566 1.3264 -1.6045 39.5464 1.7755
# 6 5.0393 -6.9986 -6.7026 4.3677 1.7755 22.3260
#
#
#
# Elastic Compliance Matrix: (Units=1/GPa)
#
#
# Indices 1 2 3 4 5 6 
#
# 1 0.011736 -0.000479 -0.004209 0.003963 0.002947 -0.005073
# 2 -0.000479 0.020121 -0.002121 0.015740 0.005316 0.002277
# 3 -0.004209 -0.002121 0.015472 0.006482 -0.001842 0.003809
# 4 0.003963 0.015740 0.006482 0.071628 0.007696 -0.008639
# 5 0.002947 0.005316 -0.001842 0.007696 0.027714 -0.003261
# 6 -0.005073 0.002277 0.003809 -0.008639 -0.003261 0.049742
#
#
# Mechanical properties :
#
#
# Convention : Reuss Voigt Hill
#
# Bulk Modulus (GPa) = 29.66473 44.91764 37.29118
# Shear Modulus (GPa) = 22.59685 29.09398 25.84541
#
# Velocity S-wave (km/s) = 3.42174 3.88262 3.65944
# Velocity P-wave (km/s) = 5.56610 6.58583 6.09732
#
# Compressibility (1/GPa) = 0.03371006
#
# Stress axis : x y z
#
# Youngs Moduli (GPa) = 85.20582 49.69974 64.63295
#
# Poissons Ratio (x) = 0.02383 0.27207
# Poissons Ratio (y) = 0.04085 0.13706
# Poissons Ratio (z) = 0.35867 0.10539
#
# Static dielectric constant tensor:
#      x y z
#    x 1.666000 -0.006390 0.010510 
#    y -0.006390 1.667700 -0.019640 
#    z 0.010510 -0.019640 1.773530 
# 
# From -- ./inp_files/206288.got.cif
#   From: 2010.05.17/outbox.cif.g08.bks.cpg/sg2_104_cif.got.tgz:206288.got - 2010.06.03 11:33:40.
