data_PCOD9054418
_publ_section_title
;
Structure prediction by ZEFSAII (Michael W. Deem and Ramdas Pophale) SiO2 
 PCOD9054418
Probable space group: P -1
;
_chemical_formula_sum "Si O2"
_cell_formula_units_Z 16
_cell_length_a 8.541101
_cell_length_b 12.525488
_cell_length_c 16.972555
_cell_angle_alpha 39.630864
_cell_angle_beta 37.865661
_cell_angle_gamma 40.934514
_cell_volume 658.549091
_symmetry_space_group_name_H-M "P -1"
_symmetry_group_IT_number 2
_symmetry_cell_setting 'triclinic'
loop_
_space_group_symop_operation_xyz
x,y,z
-x,-y,-z
loop_
_atom_site_type_symbol
_atom_site_label
_atom_site_fract_x
_atom_site_fract_y
_atom_site_fract_z
Si Si1 0.779604 0.349151 0.631549
Si Si2 0.974723 0.808724 0.096739
Si Si3 0.665873 0.105555 0.699800
Si Si4 0.666203 0.320789 0.430006
Si Si5 0.197518 0.305306 0.160934
Si Si6 0.350848 0.790780 0.826292
Si Si7 0.548920 0.458437 0.833815
Si Si8 0.377820 0.128550 0.548974
O O1 0.748008 0.170026 0.712253
O O2 0.620557 0.509623 0.543055
O O3 0.627277 0.411314 0.739561
O O4 0.103630 0.298362 0.540257
O O5 0.179700 0.656997 0.158115
O O6 0.663654 0.826154 0.216081
O O7 0.092737 0.767995 0.984310
O O8 0.000000 0.000000 0.000000
O O9 0.769396 0.202327 0.534272
O O10 0.775680 0.892629 0.765568
O O11 0.595955 0.191884 0.469173
O O12 0.890739 0.393370 0.265951
O O13 0.405908 0.280163 0.165483
O O14 0.307517 0.396211 0.996565
O O15 0.447322 0.667066 0.781297
O O16 0.293380 0.999142 0.715013
O O17 0.500000 0.000000 0.500000
#
# Coordination Sequence:
#
# PCOD9054418 Si02
#       8
#     2   2   2   2   2   2   2   2
#     4  12  29  46  69 109 143 188 235 296 358 418
#     4  11  20  44  72 104 135 190 242 290 349 415
#     4  12  25  44  72 103 144 188 238 292 349 429
#     4  12  26  48  70 104 147 188 237 288 355 436
#     4  11  24  45  76 107 138 187 238 293 353 422
#     4  11  24  44  76 102 141 189 242 292 350 430
#     4  11  25  46  72 107 146 184 239 293 356 419
#     4  12  26  48  74 103 144 190 234 297 362 423
#
# _framework density 24.295835
#
# number of rings (size 3 to 8) (size 9 to 14) (size 15 to 20)
#    0.000    0.500    3.750    5.625    5.250    2.000 
#    2.250    0.000    0.000    0.000    0.000    0.000 
#    0.000    0.000    0.000    0.000    0.000    0.000 
#
# Total GULP energy -89731.866005 kJ/mol
# GULP energy per Si atom -5608.241625 kJ/mol
# Density = 2.424054 g / cm^3
# Si number density = 24.295835 Si / 1000 Ang^3
#
#
#
# Elastic Constant Matrix: (Units=GPa)
#
#
# Indices 1 2 3 4 5 6 
#
# 1 56.2022 20.3205 21.5524 11.8824 -6.3117 17.5382
# 2 20.3205 98.5165 14.9381 4.6599 -1.5849 13.3125
# 3 21.5524 14.9381 99.9711 10.1351 -11.1433 -3.0267
# 4 11.8824 4.6599 10.1351 37.8867 -3.8172 1.1406
# 5 -6.3117 -1.5849 -11.1433 -3.8172 28.9497 6.7351
# 6 17.5382 13.3125 -3.0267 1.1406 6.7351 56.5464
#
#
#
# Elastic Compliance Matrix: (Units=1/GPa)
#
#
# Indices 1 2 3 4 5 6 
#
# 1 0.024470 -0.003094 -0.003960 -0.005539 0.004660 -0.007516
# 2 -0.003094 0.011184 -0.001057 -0.000079 -0.000080 -0.001719
# 3 -0.003960 -0.001057 0.011543 -0.001476 0.002914 0.001777
# 4 -0.005539 -0.000079 -0.001476 0.028692 0.001802 0.000864
# 5 0.004660 -0.000080 0.002914 0.001802 0.038278 -0.005866
# 6 -0.007516 -0.001719 0.001777 0.000864 -0.005866 0.021197
#
#
# Mechanical properties :
#
#
# Convention : Reuss Voigt Hill
#
# Bulk Modulus (GPa) = 32.28447 40.92352 36.60399
# Shear Modulus (GPa) = 30.88138 37.86848 34.37493
#
# Velocity S-wave (km/s) = 3.56906 3.95225 3.76553
# Velocity P-wave (km/s) = 5.50465 6.14064 5.83132
#
# Compressibility (1/GPa) = 0.03097465
#
# Stress axis : x y z
#
# Youngs Moduli (GPa) = 40.86642 89.41518 86.63487
#
# Poissons Ratio (x) = 0.27667 0.34304
# Poissons Ratio (y) = 0.12645 0.09157
# Poissons Ratio (z) = 0.16182 0.09451
#
# Static dielectric constant tensor:
#      x y z
#    x 1.904810 0.014290 0.023740 
#    y 0.014290 1.941470 0.000860 
#    z 0.023740 0.000860 1.927160 
# 
# From -- ./inp_files/559631.got.cif
#   From: 2010.05.17/outbox.cif.g08.bks.cpg/sg2_280_cif.got.tgz:559631.got - 2010.06.03 11:33:40.
