data_PCOD9054845
_publ_section_title
;
Structure prediction by ZEFSAII (Michael W. Deem and Ramdas Pophale) SiO2 
 PCOD9054845
Probable space group: P -1
;
_chemical_formula_sum "Si O2"
_cell_formula_units_Z 16
_cell_length_a 9.830534
_cell_length_b 9.926068
_cell_length_c 13.280153
_cell_angle_alpha 146.266581
_cell_angle_beta 68.751261
_cell_angle_gamma 106.004410
_cell_volume 669.878550
_symmetry_space_group_name_H-M "P -1"
_symmetry_group_IT_number 2
_symmetry_cell_setting 'triclinic'
loop_
_space_group_symop_operation_xyz
x,y,z
-x,-y,-z
loop_
_atom_site_type_symbol
_atom_site_label
_atom_site_fract_x
_atom_site_fract_y
_atom_site_fract_z
Si Si1 0.108973 0.686120 0.038543
Si Si2 0.339577 0.899565 0.561386
Si Si3 0.628944 0.372150 0.324034
Si Si4 0.568411 0.490095 0.181914
Si Si5 0.124086 0.631434 0.607202
Si Si6 0.028289 0.334695 0.151586
Si Si7 0.951368 0.089996 0.459809
Si Si8 0.644849 0.843858 0.087008
O O1 0.271124 0.572681 0.946297
O O2 0.059473 0.948283 0.262747
O O3 0.000000 0.500000 0.000000
O O4 0.078950 0.691573 0.930478
O O5 0.477472 0.746653 0.383609
O O6 0.236024 0.738428 0.563367
O O7 0.215129 0.981202 0.565147
O O8 0.392122 0.095326 0.749141
O O9 0.500000 0.500000 0.500000
O O10 0.594875 0.402438 0.235448
O O11 0.769758 0.489357 0.410339
O O12 0.637177 0.090822 0.177704
O O13 0.459277 0.337822 0.050935
O O14 0.000000 0.500000 0.500000
O O15 0.024636 0.793847 0.811813
O O16 0.043391 0.619402 0.354907
O O17 0.188739 0.253272 0.021572
O O18 0.000000 0.000000 0.500000
#
# Coordination Sequence:
#
# PCOD9054845 Si02
#       8
#     2   2   2   2   2   2   2   2
#     4  12  28  48  72 105 134 184 253 305 357 424
#     4  11  24  45  71 111 149 185 240 291 361 440
#     4  11  23  40  64 108 152 188 232 283 353 436
#     4  12  24  47  72 102 148 191 232 296 365 429
#     4  11  21  38  70 105 147 191 230 286 355 426
#     4  12  24  44  73 103 146 192 240 297 358 421
#     4  12  25  47  76 100 140 188 245 306 354 419
#     4  11  24  42  70 103 151 187 235 284 361 436
#
# _framework density 23.884927000000001
#
# number of rings (size 3 to 8) (size 9 to 14) (size 15 to 20)
#    0.000    0.500    8.750    0.375    0.000    5.000 
#    2.250    3.125    0.000    0.000    0.000    0.000 
#    0.000    0.000    0.000    0.000    0.000    0.000 
#
# Total GULP energy -89425.726350 kJ/mol
# GULP energy per Si atom -5589.107897 kJ/mol
# Density = 2.383056 g / cm^3
# Si number density = 23.884927 Si / 1000 Ang^3
#
#
#
# Elastic Constant Matrix: (Units=GPa)
#
#
# Indices 1 2 3 4 5 6 
#
# 1 180.4883 15.2502 79.8541 -12.1001 5.7947 -19.4107
# 2 15.2502 59.9121 26.5379 -12.7113 0.1724 -18.3964
# 3 79.8541 26.5379 198.5784 -4.9093 -10.4190 -1.2859
# 4 -12.1001 -12.7113 -4.9093 39.0880 -5.5190 2.3249
# 5 5.7947 0.1724 -10.4190 -5.5190 51.3056 -13.2762
# 6 -19.4107 -18.3964 -1.2859 2.3249 -13.2762 44.1407
#
#
#
# Elastic Compliance Matrix: (Units=1/GPa)
#
#
# Indices 1 2 3 4 5 6 
#
# 1 0.007285 0.000886 -0.003000 0.001918 -0.000383 0.003270
# 2 0.000886 0.022315 -0.002968 0.006924 0.002557 0.010008
# 3 -0.003000 -0.002968 0.006664 -0.000783 0.001103 -0.001989
# 4 0.001918 0.006924 -0.000783 0.028634 0.003524 0.003258
# 5 -0.000383 0.002557 0.001103 0.003524 0.022036 0.007372
# 6 0.003270 0.010008 -0.001989 0.003258 0.007372 0.030251
#
#
# Mechanical properties :
#
#
# Convention : Reuss Voigt Hill
#
# Bulk Modulus (GPa) = 38.31251 75.80702 57.05976
# Shear Modulus (GPa) = 36.75119 48.06265 42.40692
#
# Velocity S-wave (km/s) = 3.92685 4.49069 4.21820
# Velocity P-wave (km/s) = 6.05273 7.66131 6.90403
#
# Compressibility (1/GPa) = 0.02610114
#
# Stress axis : x y z
#
# Youngs Moduli (GPa) = 137.26395 44.81299 150.05247
#
# Poissons Ratio (x) = -0.03971 0.45008
# Poissons Ratio (y) = -0.12165 0.44542
# Poissons Ratio (z) = 0.41173 0.13302
#
# Static dielectric constant tensor:
#      x y z
#    x 1.909030 0.064640 -0.020150 
#    y 0.064640 1.993430 0.050690 
#    z -0.020150 0.050690 1.960180 
# 
# From -- ./inp_files/352073.got.cif
#   From: 2010.05.17/outbox.cif.g08.bks.cpg/sg2_177_cif.got.tgz:352073.got - 2010.06.03 11:33:40.
