data_PCOD9054401
_publ_section_title
;
Structure prediction by ZEFSAII (Michael W. Deem and Ramdas Pophale) SiO2 
 PCOD9054401
Probable space group: P -1
;
_chemical_formula_sum "Si O2"
_cell_formula_units_Z 12
_cell_length_a 12.337505
_cell_length_b 16.855803
_cell_length_c 20.570420
_cell_angle_alpha 159.870773
_cell_angle_beta 159.109894
_cell_angle_gamma 30.545814
_cell_volume 520.467714
_symmetry_space_group_name_H-M "P -1"
_symmetry_group_IT_number 2
_symmetry_cell_setting 'triclinic'
loop_
_space_group_symop_operation_xyz
x,y,z
-x,-y,-z
loop_
_atom_site_type_symbol
_atom_site_label
_atom_site_fract_x
_atom_site_fract_y
_atom_site_fract_z
Si Si1 0.227294 0.523697 0.517524
Si Si2 0.445137 0.674502 0.016884
Si Si3 0.286478 0.758986 0.210868
Si Si4 0.763114 0.162964 0.111409
Si Si5 0.550261 0.843617 0.557971
Si Si6 0.417230 0.258022 0.230000
O O1 0.170043 0.644304 0.646797
O O2 0.431077 0.320868 0.495153
O O3 0.381255 0.712864 0.699448
O O4 0.902310 0.410812 0.221003
O O5 0.624954 0.453323 0.946225
O O6 0.405023 0.749403 0.977294
O O7 0.565730 0.910568 0.303186
O O8 0.356484 0.717016 0.293530
O O9 0.500000 0.000000 0.500000
O O10 0.935998 0.781194 0.019530
O O11 0.093626 0.105721 0.227155
O O12 0.556427 0.949236 0.865001
O O13 0.500000 0.500000 0.500000
#
# Coordination Sequence:
#
# PCOD9054401 Si02
#       6
#     2   2   2   2   2   2
#     4  11  21  41  71  98 135 178 219 277 334 391
#     4  11  22  43  75  96 128 182 229 268 323 404
#     4  12  25  46  68 100 136 172 227 280 323 397
#     4  11  20  44  68  97 134 179 222 269 331 404
#     4  11  21  42  71  99 130 177 228 270 326 400
#     4  12  26  44  64 101 141 172 219 278 340 393
#
# _framework density 23.056184999999999
#
# number of rings (size 3 to 8) (size 9 to 14) (size 15 to 20)
#    0.000    0.667    5.000    5.500    0.000    1.333 
#    6.000    1.667    0.000    0.000    0.000    0.000 
#    0.000    0.000    0.000    0.000    0.000    0.000 
#
# Total GULP energy -67203.706904 kJ/mol
# GULP energy per Si atom -5600.308909 kJ/mol
# Density = 2.300371 g / cm^3
# Si number density = 23.056185 Si / 1000 Ang^3
#
#
#
# Elastic Constant Matrix: (Units=GPa)
#
#
# Indices 1 2 3 4 5 6 
#
# 1 87.8649 25.0137 25.4235 2.5821 14.2768 15.1547
# 2 25.0137 71.3553 11.5925 23.2850 7.2166 -1.6880
# 3 25.4235 11.5925 77.0662 18.0911 6.1669 0.6408
# 4 2.5821 23.2850 18.0911 41.0095 -0.5915 -9.3138
# 5 14.2768 7.2166 6.1669 -0.5915 45.6229 21.6923
# 6 15.1547 -1.6880 0.6408 -9.3138 21.6923 34.5628
#
#
#
# Elastic Compliance Matrix: (Units=1/GPa)
#
#
# Indices 1 2 3 4 5 6 
#
# 1 0.015400 -0.005708 -0.004862 0.003086 -0.000448 -0.005828
# 2 -0.005708 0.019696 0.001737 -0.011143 -0.002726 0.002141
# 3 -0.004862 0.001737 0.016231 -0.007699 -0.001385 0.000710
# 4 0.003086 -0.011143 -0.007699 0.035986 -0.002099 0.009260
# 5 -0.000448 -0.002726 -0.001385 -0.002099 0.032607 -0.020942
# 6 -0.005828 0.002141 0.000710 0.009260 -0.020942 0.047218
#
#
# Mechanical properties :
#
#
# Convention : Reuss Voigt Hill
#
# Bulk Modulus (GPa) = 29.70930 40.03840 34.87385
# Shear Modulus (GPa) = 25.50676 35.85615 30.68145
#
# Velocity S-wave (km/s) = 3.32970 3.94783 3.65187
# Velocity P-wave (km/s) = 5.26271 6.17931 5.73933
#
# Compressibility (1/GPa) = 0.03365949
#
# Stress axis : x y z
#
# Youngs Moduli (GPa) = 64.93359 50.77179 61.61163
#
# Poissons Ratio (x) = 0.28983 0.29955
# Poissons Ratio (y) = 0.37067 -0.10700
# Poissons Ratio (z) = 0.31570 -0.08817
#
# Static dielectric constant tensor:
#      x y z
#    x 1.912310 0.014580 -0.001170 
#    y 0.014580 1.902100 0.054700 
#    z -0.001170 0.054700 1.820500 
# 
# From -- ./inp_files/152011.got.cif
#   From: 2010.05.17/outbox.cif.g08.bks.cpg/sg2_77_cif.got.tgz:152011.got - 2010.06.03 11:33:40.
