data_PCOD9054995
_publ_section_title
;
Structure prediction by ZEFSAII (Michael W. Deem and Ramdas Pophale) SiO2 
 PCOD9054995
Probable space group: P -1
;
_chemical_formula_sum "Si O2"
_cell_formula_units_Z 16
_cell_length_a 8.363521
_cell_length_b 12.391604
_cell_length_c 15.812131
_cell_angle_alpha 152.818992
_cell_angle_beta 82.196479
_cell_angle_gamma 89.004984
_cell_volume 706.247195
_symmetry_space_group_name_H-M "P -1"
_symmetry_group_IT_number 2
_symmetry_cell_setting 'triclinic'
loop_
_space_group_symop_operation_xyz
x,y,z
-x,-y,-z
loop_
_atom_site_type_symbol
_atom_site_label
_atom_site_fract_x
_atom_site_fract_y
_atom_site_fract_z
Si Si1 0.749738 0.349265 0.084814
Si Si2 0.905680 0.430577 0.379096
Si Si3 0.309760 0.088968 0.542739
Si Si4 0.616811 0.169836 0.254942
Si Si5 0.537174 0.497039 0.643640
Si Si6 0.909236 0.713134 0.901271
Si Si7 0.214522 0.037828 0.323882
Si Si8 0.858414 0.216771 0.538337
O O1 0.749667 0.615118 0.234821
O O2 0.615729 0.414905 0.217434
O O3 0.939917 0.218206 0.013861
O O4 0.702362 0.176118 0.897999
O O5 0.770161 0.290477 0.312839
O O6 0.000000 0.500000 0.500000
O O7 0.042945 0.281221 0.196926
O O8 0.811776 0.690876 0.522912
O O9 0.500000 0.000000 0.500000
O O10 0.299797 0.022740 0.398630
O O11 0.207998 0.943625 0.503093
O O12 0.536680 0.278193 0.425216
O O13 0.486148 0.271873 0.258562
O O14 0.719124 0.882859 0.049372
O O15 0.710096 0.376676 0.598457
O O16 0.922675 0.430268 0.725428
O O17 0.019887 0.040959 0.355401
#
# Coordination Sequence:
#
# PCOD9054995 Si02
#       8
#     2   2   2   2   2   2   2   2
#     4  12  24  48  72 103 139 190 230 295 357 417
#     4  11  21  39  70 101 142 181 234 292 340 416
#     4  12  25  50  76 100 147 181 232 303 354 409
#     4  11  23  42  69  98 141 193 233 282 360 412
#     4  11  24  44  62 101 143 180 231 293 349 415
#     4  11  23  43  71 103 139 187 241 285 348 425
#     4  11  26  46  75 109 138 184 246 285 348 427
#     4  11  24  47  69 103 143 179 237 294 346 416
#
# _framework density 22.654957
#
# number of rings (size 3 to 8) (size 9 to 14) (size 15 to 20)
#    0.000    0.750    5.000    3.750    1.750    1.500 
#    9.000    0.000    0.000    0.000    0.000    0.000 
#    0.000    0.000    0.000    0.000    0.000    0.000 
#
# Total GULP energy -89532.616350 kJ/mol
# GULP energy per Si atom -5595.788522 kJ/mol
# Density = 2.260339 g / cm^3
# Si number density = 22.654957 Si / 1000 Ang^3
#
#
#
# Elastic Constant Matrix: (Units=GPa)
#
#
# Indices 1 2 3 4 5 6 
#
# 1 71.2385 41.0021 11.1291 -14.3856 -15.2740 -11.6111
# 2 41.0021 95.1623 36.8831 -11.5483 -4.5638 -13.0551
# 3 11.1291 36.8831 126.2794 -20.3674 -20.6342 -1.6749
# 4 -14.3856 -11.5483 -20.3674 28.9589 -0.1002 0.4057
# 5 -15.2740 -4.5638 -20.6342 -0.1002 33.0731 3.7805
# 6 -11.6111 -13.0551 -1.6749 0.4057 3.7805 54.3589
#
#
#
# Elastic Compliance Matrix: (Units=1/GPa)
#
#
# Indices 1 2 3 4 5 6 
#
# 1 0.024475 -0.010112 0.004746 0.011479 0.012677 0.001978
# 2 -0.010112 0.016648 -0.005249 -0.002127 -0.005895 0.002102
# 3 0.004746 -0.005249 0.011891 0.008666 0.008978 -0.000570
# 4 0.011479 -0.002127 0.008666 0.045501 0.010422 0.001144
# 5 0.012677 -0.005895 0.008978 0.010422 0.041066 -0.001365
# 6 0.001978 0.002102 -0.000570 0.001144 -0.001365 0.019392
#
#
# Mechanical properties :
#
#
# Convention : Reuss Voigt Hill
#
# Bulk Modulus (GPa) = 31.46477 52.30098 41.88287
# Shear Modulus (GPa) = 26.20556 36.85592 31.53074
#
# Velocity S-wave (km/s) = 3.40476 4.03778 3.73471
# Velocity P-wave (km/s) = 5.41990 6.69883 6.09301
#
# Compressibility (1/GPa) = 0.03178158
#
# Stress axis : x y z
#
# Youngs Moduli (GPa) = 40.85834 60.06860 84.09640
#
# Poissons Ratio (x) = 0.60743 -0.39910
# Poissons Ratio (y) = 0.41317 0.44146
# Poissons Ratio (z) = -0.19390 0.31533
#
# Static dielectric constant tensor:
#      x y z
#    x 1.913870 0.001770 -0.000790 
#    y 0.001770 1.832780 -0.003940 
#    z -0.000790 -0.003940 1.829870 
# 
# From -- ./inp_files/501186.got.cif
#   From: 2010.05.17/outbox.cif.g08.bks.cpg/sg2_251_cif.got.tgz:501186.got - 2010.06.03 11:33:40.
