data_PCOD9054844
_publ_section_title
;
Structure prediction by ZEFSAII (Michael W. Deem and Ramdas Pophale) SiO2 
 PCOD9054844
Probable space group: P -1
;
_chemical_formula_sum "Si O2"
_cell_formula_units_Z 16
_cell_length_a 14.189818
_cell_length_b 9.612879
_cell_length_c 11.378843
_cell_angle_alpha 58.647672
_cell_angle_beta 28.765044
_cell_angle_gamma 62.342256
_cell_volume 637.729641
_symmetry_space_group_name_H-M "P -1"
_symmetry_group_IT_number 2
_symmetry_cell_setting 'triclinic'
loop_
_space_group_symop_operation_xyz
x,y,z
-x,-y,-z
loop_
_atom_site_type_symbol
_atom_site_label
_atom_site_fract_x
_atom_site_fract_y
_atom_site_fract_z
Si Si1 0.112075 0.804574 0.166955
Si Si2 0.598000 0.330968 0.925629
Si Si3 0.820045 0.060558 0.439854
Si Si4 0.600278 0.591979 0.509104
Si Si5 0.524602 0.774983 0.129727
Si Si6 0.671784 0.103579 0.322490
Si Si7 0.085090 0.471945 0.630684
Si Si8 0.146483 0.311237 0.032906
O O1 0.323894 0.779653 0.005982
O O2 0.025617 0.633254 0.297185
O O3 0.150369 0.900841 0.961940
O O4 0.958218 0.902071 0.372128
O O5 0.462643 0.248416 0.013500
O O6 0.799345 0.380951 0.619224
O O7 0.500000 0.500000 0.000000
O O8 0.648729 0.099991 0.702102
O O9 0.725902 0.053338 0.416736
O O10 0.968658 0.210893 0.218669
O O11 0.541736 0.405050 0.673052
O O12 0.413692 0.711295 0.660533
O O13 0.746097 0.631436 0.440383
O O14 0.720636 0.621117 0.246241
O O15 0.720260 0.802942 0.977083
O O16 0.500000 0.000000 0.500000
O O17 0.941906 0.545617 0.852803
#
# Coordination Sequence:
#
# PCOD9054844 Si02
#       8
#     2   2   2   2   2   2   2   2
#     4  12  26  43  72 100 144 194 227 286 360 409
#     4  11  24  48  72 103 141 180 242 293 340 422
#     4  12  26  45  67 103 145 176 238 285 351 421
#     4  11  21  38  70 100 139 182 230 291 356 404
#     4  11  25  43  68 106 138 184 237 295 341 416
#     4  12  25  45  69 106 148 184 234 288 356 422
#     4  11  23  42  70 106 135 179 243 289 342 421
#     4  12  22  42  70 101 141 178 232 294 353 405
#
# _framework density 25.089003999999999
#
# number of rings (size 3 to 8) (size 9 to 14) (size 15 to 20)
#    0.000    0.500    3.750    6.750    1.750    0.500 
#    0.000    0.625    0.000    0.000    0.000    0.000 
#    0.000    0.000    0.000    0.000    0.000    0.000 
#
# Total GULP energy -89752.864601 kJ/mol
# GULP energy per Si atom -5609.554038 kJ/mol
# Density = 2.503190 g / cm^3
# Si number density = 25.089004 Si / 1000 Ang^3
#
#
#
# Elastic Constant Matrix: (Units=GPa)
#
#
# Indices 1 2 3 4 5 6 
#
# 1 135.7753 25.2843 5.4692 9.1826 -8.6878 2.5348
# 2 25.2843 110.7458 18.8384 19.4127 -8.8077 6.0824
# 3 5.4692 18.8384 62.4829 13.1417 -7.0871 6.9325
# 4 9.1826 19.4127 13.1417 50.5649 3.2669 -13.1899
# 5 -8.6878 -8.8077 -7.0871 3.2669 34.0240 0.3820
# 6 2.5348 6.0824 6.9325 -13.1899 0.3820 37.8347
#
#
#
# Elastic Compliance Matrix: (Units=1/GPa)
#
#
# Indices 1 2 3 4 5 6 
#
# 1 0.007838 -0.001426 0.000314 -0.001290 0.001831 -0.000822
# 2 -0.001426 0.010753 -0.001588 -0.004376 0.002542 -0.002893
# 3 0.000314 -0.001588 0.018788 -0.005996 0.004218 -0.005341
# 4 -0.001290 -0.004376 -0.005996 0.026515 -0.005383 0.011187
# 5 0.001831 0.002542 0.004218 -0.005383 0.031951 -0.003503
# 6 -0.000822 -0.002893 -0.005341 0.011187 -0.003503 0.031865
#
#
# Mechanical properties :
#
#
# Convention : Reuss Voigt Hill
#
# Bulk Modulus (GPa) = 31.26991 45.35423 38.31207
# Shear Modulus (GPa) = 34.77800 41.77887 38.27843
#
# Velocity S-wave (km/s) = 3.72719 4.08515 3.91027
# Velocity P-wave (km/s) = 5.56895 6.35357 5.97415
#
# Compressibility (1/GPa) = 0.03197963
#
# Stress axis : x y z
#
# Youngs Moduli (GPa) = 127.58788 92.99390 53.22608
#
# Poissons Ratio (x) = 0.13261 -0.01671
# Poissons Ratio (y) = 0.18194 0.08451
# Poissons Ratio (z) = -0.04007 0.14764
#
# Static dielectric constant tensor:
#      x y z
#    x 2.035150 -0.033930 0.018370 
#    y -0.033930 1.959580 -0.022460 
#    z 0.018370 -0.022460 1.954140 
# 
# From -- ./inp_files/447038.got.cif
#   From: 2010.05.17/outbox.cif.g08.bks.cpg/sg2_224_cif.got.tgz:447038.got - 2010.06.03 11:33:40.
