data_PCOD9054655
_publ_section_title
;
Structure prediction by ZEFSAII (Michael W. Deem and Ramdas Pophale) SiO2 
 PCOD9054655
Probable space group: P -1
;
_chemical_formula_sum "Si O2"
_cell_formula_units_Z 16
_cell_length_a 18.045363
_cell_length_b 8.751879
_cell_length_c 9.141464
_cell_angle_alpha 46.178332
_cell_angle_beta 51.340962
_cell_angle_gamma 44.351543
_cell_volume 703.733385
_symmetry_space_group_name_H-M "P -1"
_symmetry_group_IT_number 2
_symmetry_cell_setting 'triclinic'
loop_
_space_group_symop_operation_xyz
x,y,z
-x,-y,-z
loop_
_atom_site_type_symbol
_atom_site_label
_atom_site_fract_x
_atom_site_fract_y
_atom_site_fract_z
Si Si1 0.203741 0.372996 0.937221
Si Si2 0.751131 0.258071 0.460549
Si Si3 0.395578 0.916802 0.078081
Si Si4 0.599159 0.258130 0.104811
Si Si5 0.578882 0.462274 0.293234
Si Si6 0.002973 0.322616 0.820210
Si Si7 0.995067 0.810354 0.429111
Si Si8 0.157708 0.985773 0.089756
O O1 0.234569 0.508030 0.684771
O O2 0.105633 0.585048 0.010019
O O3 0.162827 0.197571 0.035064
O O4 0.306538 0.199167 0.031121
O O5 0.671344 0.218696 0.694281
O O6 0.695502 0.328524 0.320370
O O7 0.868932 0.014949 0.474706
O O8 0.402150 0.933185 0.881946
O O9 0.516233 0.736357 0.114543
O O10 0.718537 0.226771 0.951686
O O11 0.500000 0.500000 0.000000
O O12 0.581302 0.280200 0.284993
O O13 0.500000 0.500000 0.500000
O O14 0.989971 0.244654 0.726733
O O15 0.019699 0.556210 0.636882
O O16 0.103377 0.106035 0.923337
O O17 0.079503 0.897568 0.315038
#
# Coordination Sequence:
#
# PCOD9054655 Si02
#       8
#     2   2   2   2   2   2   2   2
#     4  11  23  37  61  88 125 161 207 251 302 366
#     4  11  21  37  63  89 126 164 205 254 304 357
#     4   9  20  40  59  89 125 162 203 254 306 357
#     4   9  19  38  63  87 119 157 201 251 303 359
#     4   9  19  36  65  91 116 163 208 246 309 366
#     4  11  23  39  57  91 123 157 208 250 303 364
#     4  11  24  38  61  87 126 162 200 255 304 359
#     4  11  23  39  62  88 120 165 201 245 307 365
#
# _framework density 22.735882
#
# number of rings (size 3 to 8) (size 9 to 14) (size 15 to 20)
#    0.000    1.750    2.500    1.500    1.750    3.000 
#    0.000    0.000    0.000   37.500    0.000    0.000 
#    0.000    0.000    0.000    0.000    0.000    0.000 
#
# Total GULP energy -89212.613529 kJ/mol
# GULP energy per Si atom -5575.788346 kJ/mol
# Density = 2.268413 g / cm^3
# Si number density = 22.735882 Si / 1000 Ang^3
#
#
#
# Elastic Constant Matrix: (Units=GPa)
#
#
# Indices 1 2 3 4 5 6 
#
# 1 90.4749 35.6022 40.4505 -0.2722 -7.3520 -16.9936
# 2 35.6022 87.1437 24.9666 2.8053 -4.9324 -24.4712
# 3 40.4505 24.9666 90.1649 -8.5678 1.0949 6.7007
# 4 -0.2722 2.8053 -8.5678 43.3979 3.0224 5.2339
# 5 -7.3520 -4.9324 1.0949 3.0224 38.2254 -2.0566
# 6 -16.9936 -24.4712 6.7007 5.2339 -2.0566 41.4032
#
#
#
# Elastic Compliance Matrix: (Units=1/GPa)
#
#
# Indices 1 2 3 4 5 6 
#
# 1 0.017225 -0.002390 -0.007899 -0.002460 0.003825 0.007436
# 2 -0.002390 0.017016 -0.004780 -0.003505 0.002711 0.010427
# 3 -0.007899 -0.004780 0.017201 0.005069 -0.003550 -0.009668
# 4 -0.002460 -0.003505 0.005069 0.025374 -0.003469 -0.007282
# 5 0.003825 0.002711 -0.003550 -0.003469 0.027922 0.005572
# 6 0.007436 0.010427 -0.009668 -0.007282 0.005572 0.036130
#
#
# Mechanical properties :
#
#
# Convention : Reuss Voigt Hill
#
# Bulk Modulus (GPa) = 46.94007 52.20247 49.57127
# Shear Modulus (GPa) = 28.07291 35.72291 31.89791
#
# Velocity S-wave (km/s) = 3.51770 3.96815 3.74970
# Velocity P-wave (km/s) = 6.09833 6.63364 6.37161
#
# Compressibility (1/GPa) = 0.02130376
#
# Stress axis : x y z
#
# Youngs Moduli (GPa) = 58.05523 58.76881 58.13540
#
# Poissons Ratio (x) = 0.14047 0.45919
# Poissons Ratio (y) = 0.13877 0.27790
# Poissons Ratio (z) = 0.45856 0.28093
#
# Static dielectric constant tensor:
#      x y z
#    x 1.944400 0.019270 -0.016960 
#    y 0.019270 1.895910 -0.002990 
#    z -0.016960 -0.002990 1.871390 
# 
# From -- ./inp_files/327055.got.cif
#   From: 2010.05.17/outbox.cif.g08.bks.cpg/sg2_164_cif.got.tgz:327055.got - 2010.06.03 11:33:40.
