data_PCOD9054119
_publ_section_title
;
Structure prediction by ZEFSAII (Michael W. Deem and Ramdas Pophale) SiO2 
 PCOD9054119
Probable space group: P -1
;
_chemical_formula_sum "Si O2"
_cell_formula_units_Z 16
_cell_length_a 12.035167
_cell_length_b 11.621894
_cell_length_c 18.187372
_cell_angle_alpha 153.342375
_cell_angle_beta 127.913574
_cell_angle_gamma 71.495462
_cell_volume 680.557670
_symmetry_space_group_name_H-M "P -1"
_symmetry_group_IT_number 2
_symmetry_cell_setting 'triclinic'
loop_
_space_group_symop_operation_xyz
x,y,z
-x,-y,-z
loop_
_atom_site_type_symbol
_atom_site_label
_atom_site_fract_x
_atom_site_fract_y
_atom_site_fract_z
Si Si1 0.579581 0.417655 0.849579
Si Si2 0.300440 0.857034 0.653553
Si Si3 0.228164 0.261135 0.044014
Si Si4 0.572570 0.936674 0.921746
Si Si5 0.823930 0.895741 0.463897
Si Si6 0.808222 0.442833 0.080101
Si Si7 0.970282 0.661468 0.495182
Si Si8 0.958540 0.725903 0.885967
O O1 0.672216 0.508503 0.857744
O O2 0.355169 0.161791 0.614015
O O3 0.664554 0.313565 0.881401
O O4 0.636581 0.770190 0.105458
O O5 0.226192 0.650035 0.430581
O O6 0.109755 0.643648 0.499518
O O7 0.444408 0.852623 0.753036
O O8 0.101405 0.265440 0.051344
O O9 0.083086 0.871029 0.733032
O O10 0.391650 0.314304 0.186427
O O11 0.771770 0.300633 0.201001
O O12 0.500000 0.000000 0.000000
O O13 0.760607 0.591926 0.209224
O O14 0.934834 0.891638 0.572435
O O15 0.985242 0.238035 0.682793
O O16 0.851649 0.215805 0.999933
O O17 0.000000 0.000000 0.000000
#
# Coordination Sequence:
#
# PCOD9054119 Si02
#       8
#     2   2   2   2   2   2   2   2
#     4  11  22  44  75 109 132 173 242 297 342 399
#     4  11  22  42  69 100 134 177 229 283 339 409
#     4  11  25  43  66 105 143 187 230 281 348 422
#     4  12  22  37  70 102 133 176 231 291 338 392
#     4  11  20  41  76 107 133 169 240 295 344 393
#     4  11  23  43  72 103 138 184 226 290 346 413
#     4  11  20  40  69  97 136 173 232 289 333 394
#     4  12  28  47  67  99 148 193 228 273 356 429
#
# _framework density 23.51013
#
# number of rings (size 3 to 8) (size 9 to 14) (size 15 to 20)
#    0.000    0.750    7.500    2.250    1.750    1.000 
#    0.000    1.875    0.000    0.000    0.000    0.000 
#    0.000    0.000    0.000    0.000    0.000    0.000 
#
# Total GULP energy -89418.713652 kJ/mol
# GULP energy per Si atom -5588.669603 kJ/mol
# Density = 2.345662 g / cm^3
# Si number density = 23.510130 Si / 1000 Ang^3
#
#
#
# Elastic Constant Matrix: (Units=GPa)
#
#
# Indices 1 2 3 4 5 6 
#
# 1 120.5633 17.2053 37.8670 -9.9712 19.9607 2.0620
# 2 17.2053 148.0352 20.5057 -35.7643 15.8937 -26.8380
# 3 37.8670 20.5057 48.4907 -25.6354 20.9879 2.3413
# 4 -9.9712 -35.7643 -25.6354 37.8726 -4.6274 15.5592
# 5 19.9607 15.8937 20.9879 -4.6274 41.7782 -0.6962
# 6 2.0620 -26.8380 2.3413 15.5592 -0.6962 27.7331
#
#
#
# Elastic Compliance Matrix: (Units=1/GPa)
#
#
# Indices 1 2 3 4 5 6 
#
# 1 0.011994 -0.000881 -0.014660 -0.009456 0.001002 0.004824
# 2 -0.000881 0.009718 0.001944 0.007887 -0.003299 0.004798
# 3 -0.014660 0.001944 0.079563 0.065409 -0.027146 -0.041123
# 4 -0.009456 0.007887 0.065409 0.093619 -0.021810 -0.050258
# 5 0.001002 -0.003299 -0.027146 -0.021810 0.036136 0.012167
# 6 0.004824 0.004798 -0.041123 -0.050258 0.012167 0.072316
#
#
# Mechanical properties :
#
#
# Convention : Reuss Voigt Hill
#
# Bulk Modulus (GPa) = 13.49861 52.02724 32.76293
# Shear Modulus (GPa) = 14.07530 37.57753 25.82642
#
# Velocity S-wave (km/s) = 2.44947 4.00228 3.31799
# Velocity P-wave (km/s) = 3.70863 6.59814 5.35207
#
# Compressibility (1/GPa) = 0.07408168
#
# Stress axis : x y z
#
# Youngs Moduli (GPa) = 83.37527 102.90589 12.56870
#
# Poissons Ratio (x) = 0.09066 0.18425
# Poissons Ratio (y) = 0.07346 -0.02444
# Poissons Ratio (z) = 1.22224 -0.20008
#
# Static dielectric constant tensor:
#      x y z
#    x 1.885960 0.015630 -0.007880 
#    y 0.015630 2.025690 0.049510 
#    z -0.007880 0.049510 1.883450 
# 
# From -- ./inp_files/569021.got.cif
#   From: 2010.05.17/outbox.cif.g08.bks.cpg/sg2_285_cif.got.tgz:569021.got - 2010.06.03 11:33:40.
