data_PCOD9054188
_publ_section_title
;
Structure prediction by ZEFSAII (Michael W. Deem and Ramdas Pophale) SiO2 
 PCOD9054188
Probable space group: P -1
;
_chemical_formula_sum "Si O2"
_cell_formula_units_Z 14
_cell_length_a 14.409993
_cell_length_b 12.226858
_cell_length_c 8.234138
_cell_angle_alpha 62.763101
_cell_angle_beta 94.196581
_cell_angle_gamma 146.486103
_cell_volume 554.123118
_symmetry_space_group_name_H-M "P -1"
_symmetry_group_IT_number 2
_symmetry_cell_setting 'triclinic'
loop_
_space_group_symop_operation_xyz
x,y,z
-x,-y,-z
loop_
_atom_site_type_symbol
_atom_site_label
_atom_site_fract_x
_atom_site_fract_y
_atom_site_fract_z
Si Si1 0.550436 0.788515 0.079077
Si Si2 0.970733 0.583881 0.826303
Si Si3 0.623443 0.333526 0.352970
Si Si4 0.504856 0.967487 0.791186
Si Si5 0.705625 0.914763 0.677921
Si Si6 0.918346 0.832845 0.444370
Si Si7 0.914267 0.080549 0.116844
O O1 0.311437 0.501999 0.316045
O O2 0.714375 0.912668 0.128549
O O3 0.635819 0.024855 0.873995
O O4 0.556131 0.730329 0.943192
O O5 0.030432 0.776889 0.808291
O O6 0.718040 0.286941 0.967797
O O7 0.128417 0.775523 0.561985
O O8 0.000000 0.500000 0.000000
O O9 0.556983 0.176753 0.287992
O O10 0.472110 0.274217 0.360262
O O11 0.583850 0.195111 0.592169
O O12 0.874994 0.658872 0.146408
O O13 0.883288 0.021820 0.660655
O O14 0.876770 0.892769 0.272158
O O15 0.000000 0.000000 0.500000
#
# Coordination Sequence:
#
# PCOD9054188 Si02
#       7
#     2   2   2   2   2   2   2
#     4  11  25  42  64  99 137 170 209 274 335 378
#     4  11  20  41  67  95 127 173 226 264 314 392
#     4   9  19  36  62  93 120 168 218 258 312 385
#     4   9  17  36  62  87 127 166 212 264 313 376
#     4  11  22  41  68  97 121 172 227 264 311 389
#     4  12  23  45  70  93 129 176 224 264 314 393
#     4  11  25  43  61  97 140 170 208 277 332 375
#
# _framework density 25.265142999999998
#
# number of rings (size 3 to 8) (size 9 to 14) (size 15 to 20)
#    0.000    1.429    4.286    2.143    2.000    3.429 
#    2.571    0.714    0.000    0.000    0.000    0.000 
#    0.000    0.000    0.000    0.000    0.000    0.000 
#
# Total GULP energy -78225.940569 kJ/mol
# GULP energy per Si atom -5587.567184 kJ/mol
# Density = 2.520764 g / cm^3
# Si number density = 25.265143 Si / 1000 Ang^3
#
#
#
# Elastic Constant Matrix: (Units=GPa)
#
#
# Indices 1 2 3 4 5 6 
#
# 1 125.0878 55.9060 45.5127 -2.2287 27.9168 47.0731
# 2 55.9060 66.5327 50.2887 9.7290 11.2218 28.4548
# 3 45.5127 50.2887 89.9599 -41.0485 47.3065 17.3141
# 4 -2.2287 9.7290 -41.0485 7.1500 40.8622 -1.2698
# 5 27.9168 11.2218 47.3065 40.8622 28.0709 8.5443
# 6 47.0731 28.4548 17.3141 -1.2698 8.5443 52.8952
#
#
#
# Elastic Compliance Matrix: (Units=1/GPa)
#
#
# Indices 1 2 3 4 5 6 
#
# 1 0.015650 -0.006019 -0.003367 -0.002502 -0.000953 -0.009494
# 2 -0.006019 0.024212 -0.001610 0.006700 -0.009054 -0.005518
# 3 -0.003367 -0.001610 0.005605 -0.008972 0.007419 0.000613
# 4 -0.002502 0.006700 -0.008972 0.001096 0.013517 -0.000598
# 5 -0.000953 -0.009054 0.007419 0.013517 0.007268 0.002440
# 6 -0.009494 -0.005518 0.000613 -0.000598 0.002440 0.029713
#
#
# Mechanical properties :
#
#
# Convention : Reuss Voigt Hill
#
# Bulk Modulus (GPa) = 42.59507 64.99948 53.79728
# Shear Modulus (GPa) = 44.10732 26.28142 35.19437
#
# Velocity S-wave (km/s) = 4.18278 3.22875 3.73634
# Velocity P-wave (km/s) = 6.34219 6.29941 6.32084
#
# Compressibility (1/GPa) = 0.02347690
#
# Stress axis : x y z
#
# Youngs Moduli (GPa) = 63.89722 41.30244 178.40237
#
# Poissons Ratio (x) = 0.24860 0.60061
# Poissons Ratio (y) = 0.38459 0.28714
# Poissons Ratio (z) = 0.21512 0.06648
#
# Static dielectric constant tensor:
#      x y z
#    x 2.149600 -0.047580 -0.028180 
#    y -0.047580 2.024560 0.062560 
#    z -0.028180 0.062560 1.994640 
# 
# From -- ./inp_files/314707.got.cif
#   From: 2010.05.17/outbox.cif.g08.bks.cpg/sg2_158_cif.got.tgz:314707.got - 2010.06.03 11:33:40.
