data_PCOD9054231
_publ_section_title
;
Structure prediction by ZEFSAII (Michael W. Deem and Ramdas Pophale) SiO2 
 PCOD9054231
Probable space group: P -1
;
_chemical_formula_sum "Si O2"
_cell_formula_units_Z 16
_cell_length_a 8.239534
_cell_length_b 11.376754
_cell_length_c 12.755145
_cell_angle_alpha 57.459281
_cell_angle_beta 119.079351
_cell_angle_gamma 120.941583
_cell_volume 827.442673
_symmetry_space_group_name_H-M "P -1"
_symmetry_group_IT_number 2
_symmetry_cell_setting 'triclinic'
loop_
_space_group_symop_operation_xyz
x,y,z
-x,-y,-z
loop_
_atom_site_type_symbol
_atom_site_label
_atom_site_fract_x
_atom_site_fract_y
_atom_site_fract_z
Si Si1 0.402406 0.625147 0.426422
Si Si2 0.292735 0.132741 0.199205
Si Si3 0.558878 0.913288 0.951128
Si Si4 0.036119 0.409259 0.709495
Si Si5 0.343259 0.122956 0.772321
Si Si6 0.964562 0.144083 0.971557
Si Si7 0.639984 0.290923 0.386257
Si Si8 0.068829 0.833349 0.376168
O O1 0.500000 0.500000 0.500000
O O2 0.169751 0.561827 0.355362
O O3 0.517079 0.762404 0.321302
O O4 0.409266 0.679430 0.523261
O O5 0.400070 0.159253 0.107332
O O6 0.097114 0.175722 0.101741
O O7 0.442005 0.214864 0.296171
O O8 0.208959 0.957157 0.282464
O O9 0.369157 0.962133 0.850332
O O10 0.591269 0.832637 0.106212
O O11 0.730313 0.076542 0.940641
O O12 0.018036 0.324594 0.633481
O O13 0.226729 0.554164 0.697293
O O14 0.036353 0.286809 0.853349
O O15 0.120809 0.119955 0.682800
O O16 0.000000 0.000000 0.000000
O O17 0.781137 0.189856 0.480151
#
# Coordination Sequence:
#
# PCOD9054231 Si02
#       8
#     2   2   2   2   2   2   2   2
#     4  11  22  39  60  85 122 160 197 239 293 363
#     4  11  21  39  61  89 121 156 198 250 300 339
#     4  10  19  36  61  91 116 148 202 255 288 348
#     4  11  20  39  62  87 114 158 211 242 283 353
#     4  11  20  33  63  92 111 150 206 246 292 338
#     4  10  17  35  64  85 111 150 199 251 282 343
#     4  11  25  38  59  89 124 158 198 244 295 356
#     4  11  19  37  61  86 117 162 200 239 284 362
#
# _framework density 19.336686
#
# number of rings (size 3 to 8) (size 9 to 14) (size 15 to 20)
#    0.000    1.250    5.000    4.875    0.000    0.500 
#    0.000    3.750    0.000    1.500    0.000    0.000 
#    0.000    0.000    0.000    0.000    0.000    0.000 
#
# Total GULP energy -89189.378216 kJ/mol
# GULP energy per Si atom -5574.336138 kJ/mol
# Density = 1.929267 g / cm^3
# Si number density = 19.336686 Si / 1000 Ang^3
#
#
#
# Elastic Constant Matrix: (Units=GPa)
#
#
# Indices 1 2 3 4 5 6 
#
# 1 88.7088 25.0623 38.3421 -3.6561 8.3954 6.1683
# 2 25.0623 57.1471 45.2126 7.8469 -0.0405 13.0495
# 3 38.3421 45.2126 128.2578 -1.1984 8.8875 9.7274
# 4 -3.6561 7.8469 -1.1984 30.8805 11.7367 -0.5699
# 5 8.3954 -0.0405 8.8875 11.7367 45.8450 -5.0038
# 6 6.1683 13.0495 9.7274 -0.5699 -5.0038 19.3180
#
#
#
# Elastic Compliance Matrix: (Units=1/GPa)
#
#
# Indices 1 2 3 4 5 6 
#
# 1 0.014121 -0.004815 -0.002190 0.004048 -0.003299 -0.000888
# 2 -0.004815 0.031430 -0.008896 -0.010599 0.003759 -0.014553
# 3 -0.002190 -0.008896 0.011801 0.003518 -0.002779 0.000150
# 4 0.004048 -0.010599 0.003518 0.040083 -0.011442 0.002315
# 5 -0.003299 0.003759 -0.002779 -0.011442 0.026593 0.006464
# 6 -0.000888 -0.014553 0.000150 0.002315 0.006464 0.063547
#
#
# Mechanical properties :
#
#
# Convention : Reuss Voigt Hill
#
# Bulk Modulus (GPa) = 39.13951 54.59418 46.86685
# Shear Modulus (GPa) = 21.94008 30.24182 26.09095
#
# Velocity S-wave (km/s) = 3.37209 3.95898 3.67726
# Velocity P-wave (km/s) = 5.95368 7.01376 6.50535
#
# Compressibility (1/GPa) = 0.02554963
#
# Stress axis : x y z
#
# Youngs Moduli (GPa) = 70.81813 31.81719 84.73589
#
# Poissons Ratio (x) = 0.15321 0.18558
# Poissons Ratio (y) = 0.34101 0.75377
# Poissons Ratio (z) = 0.15510 0.28303
#
# Static dielectric constant tensor:
#      x y z
#    x 1.766930 0.011260 0.022150 
#    y 0.011260 1.643970 0.004970 
#    z 0.022150 0.004970 1.739070 
# 
# From -- ./inp_files/500086.got.cif
#   From: 2010.05.17/outbox.cif.g08.bks.cpg/sg2_251_cif.got.tgz:500086.got - 2010.06.03 11:33:40.
