data_PCOD9054195
_publ_section_title
;
Structure prediction by ZEFSAII (Michael W. Deem and Ramdas Pophale) SiO2 
 PCOD9054195
Probable space group: P -1
;
_chemical_formula_sum "Si O2"
_cell_formula_units_Z 12
_cell_length_a 7.071493
_cell_length_b 11.697411
_cell_length_c 9.007207
_cell_angle_alpha 127.307051
_cell_angle_beta 53.303979
_cell_angle_gamma 111.552933
_cell_volume 475.156853
_symmetry_space_group_name_H-M "P -1"
_symmetry_group_IT_number 2
_symmetry_cell_setting 'triclinic'
loop_
_space_group_symop_operation_xyz
x,y,z
-x,-y,-z
loop_
_atom_site_type_symbol
_atom_site_label
_atom_site_fract_x
_atom_site_fract_y
_atom_site_fract_z
Si Si1 0.632574 0.408220 0.108317
Si Si2 0.862786 0.693779 0.126304
Si Si3 0.622557 0.913385 0.546313
Si Si4 0.731416 0.212726 0.640161
Si Si5 0.134934 0.375872 0.427308
Si Si6 0.213540 0.108809 0.973609
O O1 0.869899 0.361977 0.046035
O O2 0.598638 0.287000 0.900892
O O3 0.409900 0.426322 0.336341
O O4 0.694776 0.554783 0.107322
O O5 0.804084 0.784280 0.375186
O O6 0.823151 0.802857 0.094414
O O7 0.436628 0.828608 0.455248
O O8 0.787239 0.047389 0.522273
O O9 0.440752 0.004366 0.801311
O O10 0.936421 0.326440 0.598352
O O11 0.174725 0.224653 0.208789
O O12 0.000000 0.500000 0.500000
O O13 0.000000 0.000000 0.000000
#
# Coordination Sequence:
#
# PCOD9054195 Si02
#       6
#     2   2   2   2   2   2
#     4  11  26  43  64  96 138 171 212 265 329 389
#     4  11  23  45  64  92 134 178 209 267 331 379
#     4  11  20  41  68  91 128 168 221 262 319 378
#     4  11  21  42  64  97 124 168 221 260 321 378
#     4  12  24  39  67  98 127 169 224 266 314 387
#     4  12  22  42  67  99 127 168 224 270 314 383
#
# _framework density 25.254819000000001
#
# number of rings (size 3 to 8) (size 9 to 14) (size 15 to 20)
#    0.000    0.667    6.667    2.000    0.000    2.667 
#    3.000    4.167    0.000    0.000    0.000    0.000 
#    0.000    0.000    0.000    0.000    0.000    0.000 
#
# Total GULP energy -66809.783837 kJ/mol
# GULP energy per Si atom -5567.481986 kJ/mol
# Density = 2.519734 g / cm^3
# Si number density = 25.254819 Si / 1000 Ang^3
#
#
#
# Elastic Constant Matrix: (Units=GPa)
#
#
# Indices 1 2 3 4 5 6 
#
# 1 59.7245 30.0243 -6.7064 -9.6050 -11.4114 13.6559
# 2 30.0243 129.7034 19.0058 -1.4215 -17.4026 27.4956
# 3 -6.7064 19.0058 102.4726 4.4744 -21.6249 12.8379
# 4 -9.6050 -1.4215 4.4744 55.9334 17.6255 -5.1558
# 5 -11.4114 -17.4026 -21.6249 17.6255 37.5954 -1.6700
# 6 13.6559 27.4956 12.8379 -5.1558 -1.6700 26.4655
#
#
#
# Elastic Compliance Matrix: (Units=1/GPa)
#
#
# Indices 1 2 3 4 5 6 
#
# 1 0.022656 -0.002553 0.005078 -0.000184 0.008213 -0.011019
# 2 -0.002553 0.011238 0.000397 -0.002926 0.005549 -0.010771
# 3 0.005078 0.000397 0.013909 -0.004782 0.011524 -0.009984
# 4 -0.000184 -0.002926 -0.004782 0.023678 -0.014856 0.009130
# 5 0.008213 0.005549 0.011524 -0.014856 0.044557 -0.015675
# 6 -0.011019 -0.010771 -0.009984 0.009130 -0.015675 0.060293
#
#
# Mechanical properties :
#
#
# Convention : Reuss Voigt Hill
#
# Bulk Modulus (GPa) = 18.64039 41.83867 30.23953
# Shear Modulus (GPa) = 26.54341 40.63732 33.59037
#
# Velocity S-wave (km/s) = 3.24547 4.01570 3.65095
# Velocity P-wave (km/s) = 4.63044 6.17282 5.45641
#
# Compressibility (1/GPa) = 0.05364695
#
# Stress axis : x y z
#
# Youngs Moduli (GPa) = 44.13815 88.98050 71.89624
#
# Poissons Ratio (x) = 0.22715 -0.36508
# Poissons Ratio (y) = 0.11268 -0.02851
# Poissons Ratio (z) = -0.22413 -0.03529
#
# Static dielectric constant tensor:
#      x y z
#    x 2.252650 -0.066070 0.038950 
#    y -0.066070 2.138000 -0.192310 
#    z 0.038950 -0.192310 2.162220 
# 
# From -- ./inp_files/385929.got.cif
#   From: 2010.05.17/outbox.cif.g08.bks.cpg/sg2_193_cif.got.tgz:385929.got - 2010.06.03 11:33:40.
