data_PCOD9054256
_publ_section_title
;
Structure prediction by ZEFSAII (Michael W. Deem and Ramdas Pophale) SiO2 
 PCOD9054256
Probable space group: P -1
;
_chemical_formula_sum "Si O2"
_cell_formula_units_Z 16
_cell_length_a 7.925401
_cell_length_b 11.513719
_cell_length_c 9.213836
_cell_angle_alpha 86.583850
_cell_angle_beta 90.906317
_cell_angle_gamma 121.388192
_cell_volume 716.340791
_symmetry_space_group_name_H-M "P -1"
_symmetry_group_IT_number 2
_symmetry_cell_setting 'triclinic'
loop_
_space_group_symop_operation_xyz
x,y,z
-x,-y,-z
loop_
_atom_site_type_symbol
_atom_site_label
_atom_site_fract_x
_atom_site_fract_y
_atom_site_fract_z
Si Si1 0.801613 0.771537 0.387478
Si Si2 0.193225 0.426180 0.090043
Si Si3 0.378968 0.690274 0.259320
Si Si4 0.324346 0.613874 0.812314
Si Si5 0.248379 0.779912 0.991060
Si Si6 0.107625 0.961441 0.125102
Si Si7 0.988188 0.595557 0.378113
Si Si8 0.733140 0.776765 0.711495
O O1 0.582241 0.729741 0.335433
O O2 0.848631 0.652004 0.412004
O O3 0.829864 0.824264 0.550417
O O4 0.948346 0.859648 0.250583
O O5 0.262752 0.533165 0.215983
O O6 0.192580 0.297811 0.171835
O O7 0.336358 0.528685 0.956043
O O8 0.976451 0.352145 0.016761
O O9 0.396750 0.772023 0.107438
O O10 0.216609 0.708129 0.342871
O O11 0.120449 0.504764 0.748223
O O12 0.503293 0.661019 0.701107
O O13 0.324377 0.750453 0.845102
O O14 0.216245 0.897340 0.042690
O O15 0.243960 0.095915 0.209946
O O16 0.000000 0.000000 0.000000
O O17 0.000000 0.500000 0.500000
#
# Coordination Sequence:
#
# PCOD9054256 Si02
#       8
#     2   2   2   2   2   2   2   2
#     4  12  28  49  70 110 149 191 242 295 365 434
#     4  11  20  41  73 107 143 183 227 305 364 427
#     4  11  22  43  74 103 145 183 227 293 370 426
#     4  11  23  41  70 111 145 179 241 298 368 429
#     4  11  22  44  71 105 142 187 240 300 353 414
#     4  12  27  49  75  99 138 201 254 298 347 419
#     4  12  23  41  74 107 152 188 224 296 372 441
#     4  12  27  45  70 105 147 192 242 295 363 421
#
# _framework density 22.335737000000002
#
# number of rings (size 3 to 8) (size 9 to 14) (size 15 to 20)
#    0.000    0.500    5.000    3.750    3.500    2.000 
#    0.000    0.625    0.000    0.000    0.000    0.000 
#    0.000    0.000    0.000    0.000    0.000    0.000 
#
# Total GULP energy -89095.804354 kJ/mol
# GULP energy per Si atom -5568.487772 kJ/mol
# Density = 2.228490 g / cm^3
# Si number density = 22.335737 Si / 1000 Ang^3
#
#
#
# Elastic Constant Matrix: (Units=GPa)
#
#
# Indices 1 2 3 4 5 6 
#
# 1 120.9889 35.5460 35.2736 6.7876 17.3693 -13.3598
# 2 35.5460 68.4080 19.9385 17.2458 5.8521 -20.9582
# 3 35.2736 19.9385 69.8183 -9.9556 0.3159 -13.2499
# 4 6.7876 17.2458 -9.9556 32.5341 -4.6146 -9.5578
# 5 17.3693 5.8521 0.3159 -4.6146 31.0640 -1.5372
# 6 -13.3598 -20.9582 -13.2499 -9.5578 -1.5372 36.1946
#
#
#
# Elastic Compliance Matrix: (Units=1/GPa)
#
#
# Indices 1 2 3 4 5 6 
#
# 1 0.011981 -0.003310 -0.005770 -0.003702 -0.006610 -0.000865
# 2 -0.003310 0.023366 -0.005321 -0.011797 -0.003899 0.007079
# 3 -0.005770 -0.005321 0.021936 0.013602 0.006357 0.006681
# 4 -0.003702 -0.011797 0.013602 0.046351 0.011510 0.009510
# 5 -0.006610 -0.003899 0.006357 0.011510 0.038381 0.002299
# 6 -0.000865 0.007079 0.006681 0.009510 0.002299 0.036463
#
#
# Mechanical properties :
#
#
# Convention : Reuss Voigt Hill
#
# Bulk Modulus (GPa) = 35.11233 48.97015 42.04124
# Shear Modulus (GPa) = 23.06546 31.18900 27.12723
#
# Velocity S-wave (km/s) = 3.21701 3.74086 3.48878
# Velocity P-wave (km/s) = 5.43629 6.37424 5.92385
#
# Compressibility (1/GPa) = 0.02848003
#
# Stress axis : x y z
#
# Youngs Moduli (GPa) = 83.46578 42.79809 45.58658
#
# Poissons Ratio (x) = 0.14166 0.26303
# Poissons Ratio (y) = 0.27627 0.24259
# Poissons Ratio (z) = 0.48159 0.22775
#
# Static dielectric constant tensor:
#      x y z
#    x 1.877970 -0.029820 -0.047380 
#    y -0.029820 1.869560 -0.045910 
#    z -0.047380 -0.045910 1.910620 
# 
# From -- ./inp_files/187656.got.cif
#   From: 2010.05.17/outbox.cif.g08.bks.cpg/sg2_94_cif.got.tgz:187656.got - 2010.06.03 11:33:40.
