data_PCOD9054584
_publ_section_title
;
Structure prediction by ZEFSAII (Michael W. Deem and Ramdas Pophale) SiO2 
 PCOD9054584
Probable space group: P -1
;
_chemical_formula_sum "Si O2"
_cell_formula_units_Z 16
_cell_length_a 11.929280
_cell_length_b 17.057643
_cell_length_c 6.219918
_cell_angle_alpha 103.983331
_cell_angle_beta 129.513715
_cell_angle_gamma 49.896452
_cell_volume 715.856491
_symmetry_space_group_name_H-M "P -1"
_symmetry_group_IT_number 2
_symmetry_cell_setting 'triclinic'
loop_
_space_group_symop_operation_xyz
x,y,z
-x,-y,-z
loop_
_atom_site_type_symbol
_atom_site_label
_atom_site_fract_x
_atom_site_fract_y
_atom_site_fract_z
Si Si1 0.879849 0.322910 0.683221
Si Si2 0.702080 0.816236 0.093340
Si Si3 0.638735 0.000859 0.397640
Si Si4 0.189341 0.912840 0.543024
Si Si5 0.941906 0.459608 0.090667
Si Si6 0.678649 0.279141 0.128525
Si Si7 0.031507 0.852515 0.991605
Si Si8 0.295385 0.344855 0.742519
O O1 0.709716 0.351590 0.342062
O O2 0.072795 0.266829 0.742463
O O3 0.930531 0.232547 0.849850
O O4 0.846416 0.416097 0.838465
O O5 0.654131 0.905563 0.260418
O O6 0.654222 0.748769 0.102261
O O7 0.579381 0.887036 0.776351
O O8 0.803072 0.946806 0.742010
O O9 0.708172 0.039603 0.328278
O O10 0.291388 0.803632 0.718871
O O11 0.129073 0.897666 0.231742
O O12 0.000000 0.000000 0.500000
O O13 0.139244 0.368506 0.398176
O O14 0.805196 0.553094 0.157063
O O15 0.000000 0.500000 0.000000
O O16 0.851753 0.210845 0.124040
O O17 0.467882 0.330226 0.823451
#
# Coordination Sequence:
#
# PCOD9054584 Si02
#       8
#     2   2   2   2   2   2   2   2
#     4  11  24  44  69  98 136 177 222 285 334 398
#     4  11  22  41  67  96 139 174 224 278 323 397
#     4  11  21  36  63  98 134 180 223 264 322 395
#     4  11  21  39  60  95 138 179 225 273 323 392
#     4  11  25  46  75  99 132 169 221 285 353 403
#     4  11  24  42  69  96 139 176 222 278 332 402
#     4  11  23  40  65  96 138 184 218 270 338 387
#     4  11  25  46  71 102 130 175 226 280 343 405
#
# _framework density 22.350850000000001
#
# number of rings (size 3 to 8) (size 9 to 14) (size 15 to 20)
#    0.000    1.000    5.000    1.875    0.000    4.000 
#    0.000    1.250    0.000    0.000    0.000    0.000 
#    0.000    0.000    0.000    0.000    0.000    0.000 
#
# Total GULP energy -89340.273379 kJ/mol
# GULP energy per Si atom -5583.767086 kJ/mol
# Density = 2.229998 g / cm^3
# Si number density = 22.350850 Si / 1000 Ang^3
#
#
#
# Elastic Constant Matrix: (Units=GPa)
#
#
# Indices 1 2 3 4 5 6 
#
# 1 73.0045 2.9252 15.4333 7.5296 17.1981 14.9262
# 2 2.9252 62.9224 23.3154 18.1446 13.7261 14.6981
# 3 15.4333 23.3154 71.5484 18.6315 12.9520 3.8040
# 4 7.5296 18.1446 18.6315 34.2527 9.8514 4.8590
# 5 17.1981 13.7261 12.9520 9.8514 34.3481 2.7199
# 6 14.9262 14.6981 3.8040 4.8590 2.7199 19.0260
#
#
#
# Elastic Compliance Matrix: (Units=1/GPa)
#
#
# Indices 1 2 3 4 5 6 
#
# 1 0.020668 0.007443 -0.003823 -0.000718 -0.010126 -0.019569
# 2 0.007443 0.026799 -0.005773 -0.007087 -0.008455 -0.022369
# 3 -0.003823 -0.005773 0.018302 -0.006493 -0.001264 0.005639
# 4 -0.000718 -0.007087 -0.006493 0.038388 -0.005234 -0.001719
# 5 -0.010126 -0.008455 -0.001264 -0.005234 0.038706 0.010532
# 6 -0.019569 -0.022369 0.005639 -0.001719 0.010532 0.082999
#
#
# Mechanical properties :
#
#
# Convention : Reuss Voigt Hill
#
# Bulk Modulus (GPa) = 16.26990 32.31368 24.29179
# Shear Modulus (GPa) = 19.94755 28.57877 24.26316
#
# Velocity S-wave (km/s) = 2.99067 3.57969 3.29836
# Velocity P-wave (km/s) = 4.38413 5.61911 5.03960
#
# Compressibility (1/GPa) = 0.06146320
#
# Stress axis : x y z
#
# Youngs Moduli (GPa) = 48.38340 37.31464 54.63749
#
# Poissons Ratio (x) = -0.27773 0.20889
# Poissons Ratio (y) = -0.36012 0.31543
# Poissons Ratio (z) = 0.18498 0.21542
#
# Static dielectric constant tensor:
#      x y z
#    x 1.781710 -0.000800 0.082590 
#    y -0.000800 1.782090 -0.145390 
#    z 0.082590 -0.145390 1.769450 
# 
# From -- ./inp_files/81536.got.cif
#   From: 2010.05.17/outbox.cif.g08.bks.cpg/sg2_41_cif.got.tgz:81536.got - 2010.06.03 11:33:40.
