data_PCOD9054736
_publ_section_title
;
Structure prediction by ZEFSAII (Michael W. Deem and Ramdas Pophale) SiO2 
 PCOD9054736
Probable space group: P -1
;
_chemical_formula_sum "Si O2"
_cell_formula_units_Z 16
_cell_length_a 8.332515
_cell_length_b 16.414574
_cell_length_c 7.853897
_cell_angle_alpha 124.095732
_cell_angle_beta 127.430007
_cell_angle_gamma 61.248030
_cell_volume 690.129836
_symmetry_space_group_name_H-M "P -1"
_symmetry_group_IT_number 2
_symmetry_cell_setting 'triclinic'
loop_
_space_group_symop_operation_xyz
x,y,z
-x,-y,-z
loop_
_atom_site_type_symbol
_atom_site_label
_atom_site_fract_x
_atom_site_fract_y
_atom_site_fract_z
Si Si1 0.049068 0.299543 0.050088
Si Si2 0.652853 0.434389 0.837286
Si Si3 0.202253 0.620493 0.501175
Si Si4 0.777106 0.563585 0.480721
Si Si5 0.754495 0.651681 0.117769
Si Si6 0.353283 0.799590 0.980701
Si Si7 0.312104 0.940175 0.792193
Si Si8 0.111579 0.900565 0.264434
O O1 0.158007 0.330674 0.990403
O O2 0.828207 0.376962 0.009108
O O3 0.002561 0.190843 0.877820
O O4 0.192507 0.326347 0.322386
O O5 0.702580 0.374090 0.619091
O O6 0.427655 0.428422 0.751648
O O7 0.686661 0.545381 0.950074
O O8 0.276432 0.506885 0.482896
O O9 0.258176 0.703252 0.758385
O O10 0.954776 0.641304 0.351600
O O11 0.000000 0.500000 0.500000
O O12 0.573480 0.747915 0.142999
O O13 0.364799 0.854616 0.871683
O O14 0.226189 0.872584 0.125719
O O15 0.269778 0.908827 0.532164
O O16 0.080343 0.004298 0.761382
O O17 0.500000 0.000000 0.000000
#
# Coordination Sequence:
#
# PCOD9054736 Si02
#       8
#     2   2   2   2   2   2   2   2
#     4  11  22  40  63  94 138 183 231 282 335 405
#     4  11  21  38  61  88 137 194 238 277 330 395
#     4  11  21  40  62  96 137 188 233 273 335 406
#     4  12  23  34  56  89 133 185 231 274 329 396
#     4  11  21  38  65  96 138 190 238 281 339 404
#     4  12  25  43  74 106 141 181 229 292 351 414
#     4  11  26  51  78 100 134 178 228 292 367 425
#     4  11  27  48  71 107 139 173 232 295 352 422
#
# _framework density 23.184041000000001
#
# number of rings (size 3 to 8) (size 9 to 14) (size 15 to 20)
#    0.000    0.750    3.750    5.250    0.000    5.000 
#    0.000    0.000    0.000    0.000    0.000    0.000 
#    0.000    0.000    0.000    0.000    0.000    0.000 
#
# Total GULP energy -89481.143692 kJ/mol
# GULP energy per Si atom -5592.571481 kJ/mol
# Density = 2.313127 g / cm^3
# Si number density = 23.184041 Si / 1000 Ang^3
#
#
#
# Elastic Constant Matrix: (Units=GPa)
#
#
# Indices 1 2 3 4 5 6 
#
# 1 81.6526 5.5998 46.2038 -8.4533 2.3034 -9.4466
# 2 5.5998 81.5375 13.7049 -9.5801 3.2649 -3.5312
# 3 46.2038 13.7049 130.3455 -2.2975 6.7876 4.4344
# 4 -8.4533 -9.5801 -2.2975 28.6339 0.6017 5.5097
# 5 2.3034 3.2649 6.7876 0.6017 43.0405 -5.3863
# 6 -9.4466 -3.5312 4.4344 5.5097 -5.3863 40.6674
#
#
#
# Elastic Compliance Matrix: (Units=1/GPa)
#
#
# Indices 1 2 3 4 5 6 
#
# 1 0.016440 0.000471 -0.005975 0.003739 0.000484 0.004069
# 2 0.000471 0.013038 -0.001448 0.004262 -0.000755 0.000722
# 3 -0.005975 -0.001448 0.010095 -0.000889 -0.001487 -0.002691
# 4 0.003739 0.004262 -0.000889 0.038186 -0.001421 -0.004026
# 5 0.000484 -0.000755 -0.001487 -0.001421 0.023967 0.003576
# 6 0.004069 0.000722 -0.002691 -0.004026 0.003576 0.026910
#
#
# Mechanical properties :
#
#
# Convention : Reuss Voigt Hill
#
# Bulk Modulus (GPa) = 38.95634 47.17254 43.06444
# Shear Modulus (GPa) = 33.09169 37.67017 35.38093
#
# Velocity S-wave (km/s) = 3.78212 4.03529 3.91076
# Velocity P-wave (km/s) = 5.99268 6.48865 6.24559
#
# Compressibility (1/GPa) = 0.02566976
#
# Stress axis : x y z
#
# Youngs Moduli (GPa) = 60.82867 76.70155 99.05605
#
# Poissons Ratio (x) = -0.03615 0.59182
# Poissons Ratio (y) = -0.02867 0.14343
# Poissons Ratio (z) = 0.36343 0.11106
#
# Static dielectric constant tensor:
#      x y z
#    x 1.919360 -0.008720 -0.036050 
#    y -0.008720 1.870390 -0.010740 
#    z -0.036050 -0.010740 1.895300 
# 
# From -- ./inp_files/218768.got.cif
#   From: 2010.05.17/outbox.cif.g08.bks.cpg/sg2_110_cif.got.tgz:218768.got - 2010.06.03 11:33:40.
