data_PCOD9054905
_publ_section_title
;
Structure prediction by ZEFSAII (Michael W. Deem and Ramdas Pophale) SiO2 
 PCOD9054905
Probable space group: P -1
;
_chemical_formula_sum "Si O2"
_cell_formula_units_Z 16
_cell_length_a 25.722166
_cell_length_b 7.876120
_cell_length_c 19.927467
_cell_angle_alpha 59.747768
_cell_angle_beta 11.235573
_cell_angle_gamma 57.650807
_cell_volume 659.089277
_symmetry_space_group_name_H-M "P -1"
_symmetry_group_IT_number 2
_symmetry_cell_setting 'triclinic'
loop_
_space_group_symop_operation_xyz
x,y,z
-x,-y,-z
loop_
_atom_site_type_symbol
_atom_site_label
_atom_site_fract_x
_atom_site_fract_y
_atom_site_fract_z
Si Si1 0.717090 0.476323 0.290748
Si Si2 0.288234 0.766738 0.848044
Si Si3 0.939124 0.820605 0.567389
Si Si4 0.688202 0.609696 0.779853
Si Si5 0.614853 0.264756 0.733330
Si Si6 0.050198 0.887384 0.256592
Si Si7 0.842425 0.635264 0.355187
Si Si8 0.118778 0.954017 0.783644
O O1 0.500000 0.500000 0.500000
O O2 0.729112 0.279125 0.360935
O O3 0.591351 0.670449 0.456043
O O4 0.003935 0.436497 0.895678
O O5 0.129189 0.970944 0.969987
O O6 0.294164 0.806567 0.911713
O O7 0.090641 0.620358 0.099517
O O8 0.091864 0.584481 0.431726
O O9 0.028823 0.857015 0.369655
O O10 0.000000 0.000000 0.500000
O O11 0.625552 0.810815 0.983778
O O12 0.838677 0.758235 0.522857
O O13 0.500000 0.500000 0.000000
O O14 0.486444 0.750536 0.059648
O O15 0.635824 0.494895 0.655717
O O16 0.911797 0.122215 0.372130
O O17 0.707283 0.876594 0.480643
O O18 0.000000 0.000000 0.000000
#
# Coordination Sequence:
#
# PCOD9054905 Si02
#       8
#     2   2   2   2   2   2   2   2
#     4   9  15  33  61  94 133 183 221 261 323 402
#     4   9  19  34  60  97 135 175 224 266 330 390
#     4  11  24  44  66  93 121 179 224 268 337 402
#     4  11  22  42  69  90 128 169 208 269 343 406
#     4  11  21  39  64  93 134 165 213 279 324 398
#     4  11  22  39  62  97 133 167 215 279 331 392
#     4   8  18  33  59  95 130 175 218 263 331 387
#     4   8  15  32  59  90 131 175 225 256 329 393
#
# _framework density 24.275924
#
# number of rings (size 3 to 8) (size 9 to 14) (size 15 to 20)
#    0.750    1.500    1.250    5.250    0.000    0.000 
#    4.500    5.625    0.000    3.000    0.000    0.875 
#    0.000    0.500    0.000    0.000    0.000    0.000 
#
# Total GULP energy -89152.713377 kJ/mol
# GULP energy per Si atom -5572.044586 kJ/mol
# Density = 2.422067 g / cm^3
# Si number density = 24.275924 Si / 1000 Ang^3
#
#
#
# Elastic Constant Matrix: (Units=GPa)
#
#
# Indices 1 2 3 4 5 6 
#
# 1 73.0509 21.6643 20.2061 6.0322 15.1002 14.9489
# 2 21.6643 128.9087 27.1251 -0.3334 -3.8950 -3.8642
# 3 20.2061 27.1251 44.0367 -1.4185 8.0278 10.9213
# 4 6.0322 -0.3334 -1.4185 44.5363 12.7619 -2.1627
# 5 15.1002 -3.8950 8.0278 12.7619 38.2872 3.8735
# 6 14.9489 -3.8642 10.9213 -2.1627 3.8735 38.5329
#
#
#
# Elastic Compliance Matrix: (Units=1/GPa)
#
#
# Indices 1 2 3 4 5 6 
#
# 1 0.017990 -0.002416 -0.004461 -0.001312 -0.005413 -0.005486
# 2 -0.002416 0.009672 -0.006257 -0.000521 0.003084 0.003341
# 3 -0.004461 -0.006257 0.031502 0.002854 -0.005716 -0.007090
# 4 -0.001312 -0.000521 0.002854 0.025327 -0.008774 0.001951
# 5 -0.005413 0.003084 -0.005716 -0.008774 0.032664 0.000253
# 6 -0.005486 0.003341 -0.007090 0.001951 0.000253 0.030509
#
#
# Mechanical properties :
#
#
# Convention : Reuss Voigt Hill
#
# Bulk Modulus (GPa) = 30.39926 42.66524 36.53225
# Shear Modulus (GPa) = 27.04212 36.07133 31.55672
#
# Velocity S-wave (km/s) = 3.34121 3.85890 3.60935
# Velocity P-wave (km/s) = 5.23779 6.12112 5.69660
#
# Compressibility (1/GPa) = 0.03289554
#
# Stress axis : x y z
#
# Youngs Moduli (GPa) = 55.58797 103.39092 31.74424
#
# Poissons Ratio (x) = 0.24979 0.14161
# Poissons Ratio (y) = 0.13430 0.19862
# Poissons Ratio (z) = 0.24798 0.64690
#
# Static dielectric constant tensor:
#      x y z
#    x 1.861310 0.062760 0.159700 
#    y 0.062760 1.903800 -0.087060 
#    z 0.159700 -0.087060 1.675740 
# 
# From -- ./inp_files/614473.got.cif
#   From: 2010.05.17/outbox.cif.g08.bks.cpg/sg2_308_cif.got.tgz:614473.got - 2010.06.03 11:33:40.
