data_PCOD9054378
_publ_section_title
;
Structure prediction by ZEFSAII (Michael W. Deem and Ramdas Pophale) SiO2 
 PCOD9054378
Probable space group: P -1
;
_chemical_formula_sum "Si O2"
_cell_formula_units_Z 16
_cell_length_a 12.617523
_cell_length_b 16.584923
_cell_length_c 9.702476
_cell_angle_alpha 144.907595
_cell_angle_beta 134.169342
_cell_angle_gamma 45.763525
_cell_volume 796.218557
_symmetry_space_group_name_H-M "P -1"
_symmetry_group_IT_number 2
_symmetry_cell_setting 'triclinic'
loop_
_space_group_symop_operation_xyz
x,y,z
-x,-y,-z
loop_
_atom_site_type_symbol
_atom_site_label
_atom_site_fract_x
_atom_site_fract_y
_atom_site_fract_z
Si Si1 0.938769 0.464596 0.246441
Si Si2 0.272475 0.745138 0.188408
Si Si3 0.548589 0.325775 0.488392
Si Si4 0.211874 0.709974 0.589386
Si Si5 0.207041 0.379385 0.155547
Si Si6 0.249677 0.257305 0.717901
Si Si7 0.920665 0.967948 0.744170
Si Si8 0.451761 0.664837 0.969657
O O1 0.851330 0.615736 0.298598
O O2 0.000000 0.500000 0.500000
O O3 0.078637 0.377083 0.149134
O O4 0.820554 0.371117 0.030384
O O5 0.354739 0.773613 0.441411
O O6 0.153780 0.890044 0.217441
O O7 0.409746 0.678274 0.109871
O O8 0.655855 0.297997 0.412940
O O9 0.379592 0.314963 0.285758
O O10 0.520391 0.495325 0.746891
O O11 0.182057 0.552391 0.343358
O O12 0.289168 0.725946 0.827715
O O13 0.056635 0.842888 0.614027
O O14 0.204835 0.304107 0.901192
O O15 0.210969 0.107727 0.445338
O O16 0.426458 0.252472 0.846763
O O17 0.000000 0.000000 0.000000
#
# Coordination Sequence:
#
# PCOD9054378 Si02
#       8
#     2   2   2   2   2   2   2   2
#     4  12  24  40  66 103 137 171 225 281 328 386
#     4  12  26  43  64 100 141 180 210 271 350 392
#     4  11  22  40  68 106 132 165 223 287 341 368
#     4  11  20  43  71  95 139 172 223 276 327 396
#     4  11  22  42  70 106 127 170 232 284 323 387
#     4  12  24  43  73  98 127 178 233 274 321 398
#     4  12  27  47  64  96 140 185 219 262 340 414
#     4  11  21  42  71  98 131 174 227 275 326 392
#
# _framework density 20.094985999999999
#
# number of rings (size 3 to 8) (size 9 to 14) (size 15 to 20)
#    0.000    0.500    6.250    3.750    3.500    1.000 
#    0.000    0.625    0.000    0.000    0.000    0.000 
#    0.000    0.000    0.000    0.000    0.000    0.000 
#
# Total GULP energy -89498.753338 kJ/mol
# GULP energy per Si atom -5593.672084 kJ/mol
# Density = 2.004925 g / cm^3
# Si number density = 20.094986 Si / 1000 Ang^3
#
#
#
# Elastic Constant Matrix: (Units=GPa)
#
#
# Indices 1 2 3 4 5 6 
#
# 1 102.2283 -11.6234 17.9485 1.5818 -3.1798 5.7810
# 2 -11.6234 92.4833 16.2044 -16.4393 -12.6265 9.9636
# 3 17.9485 16.2044 89.5921 -19.2915 4.7491 15.2504
# 4 1.5818 -16.4393 -19.2915 18.3583 2.9197 -4.6754
# 5 -3.1798 -12.6265 4.7491 2.9197 19.5417 -2.3645
# 6 5.7810 9.9636 15.2504 -4.6754 -2.3645 31.4217
#
#
#
# Elastic Compliance Matrix: (Units=1/GPa)
#
#
# Indices 1 2 3 4 5 6 
#
# 1 0.010857 0.002022 -0.003338 -0.003628 0.004277 -0.001236
# 2 0.002022 0.014328 -0.000898 0.009818 0.008046 -0.002413
# 3 -0.003338 -0.000898 0.017136 0.017460 -0.008558 -0.005464
# 4 -0.003628 0.009818 0.017460 0.083848 -0.010928 0.000734
# 5 0.004277 0.008046 -0.008558 -0.010928 0.061239 0.003798
# 6 -0.001236 -0.002413 -0.005464 0.000734 0.003798 0.035865
#
#
# Mechanical properties :
#
#
# Convention : Reuss Voigt Hill
#
# Bulk Modulus (GPa) = 26.39094 36.59584 31.49339
# Shear Modulus (GPa) = 20.80446 31.31596 26.06021
#
# Velocity S-wave (km/s) = 3.22111 3.95194 3.60509
# Velocity P-wave (km/s) = 5.19573 6.25098 5.74762
#
# Compressibility (1/GPa) = 0.03789179
#
# Stress axis : x y z
#
# Youngs Moduli (GPa) = 92.10614 69.79401 58.35596
#
# Poissons Ratio (x) = -0.14109 0.19480
# Poissons Ratio (y) = -0.18620 0.05241
# Poissons Ratio (z) = 0.30746 0.06268
#
# Static dielectric constant tensor:
#      x y z
#    x 1.740170 0.009470 -0.020480 
#    y 0.009470 1.742240 -0.031120 
#    z -0.020480 -0.031120 1.711780 
# 
# From -- ./inp_files/186750.got.cif
#   From: 2010.05.17/outbox.cif.g08.bks.cpg/sg2_94_cif.got.tgz:186750.got - 2010.06.03 11:33:40.
