data_PCOD9054514
_publ_section_title
;
Structure prediction by ZEFSAII (Michael W. Deem and Ramdas Pophale) SiO2 
 PCOD9054514
Probable space group: P -1
;
_chemical_formula_sum "Si O2"
_cell_formula_units_Z 16
_cell_length_a 10.900255
_cell_length_b 24.962569
_cell_length_c 10.917523
_cell_angle_alpha 33.574305
_cell_angle_beta 39.255646
_cell_angle_gamma 29.100556
_cell_volume 787.028878
_symmetry_space_group_name_H-M "P -1"
_symmetry_group_IT_number 2
_symmetry_cell_setting 'triclinic'
loop_
_space_group_symop_operation_xyz
x,y,z
-x,-y,-z
loop_
_atom_site_type_symbol
_atom_site_label
_atom_site_fract_x
_atom_site_fract_y
_atom_site_fract_z
Si Si1 0.417098 0.940370 0.885605
Si Si2 0.956517 0.102224 0.238828
Si Si3 0.633046 0.688054 0.643334
Si Si4 0.027050 0.219463 0.366984
Si Si5 0.257635 0.200298 0.870099
Si Si6 0.215208 0.572193 0.040763
Si Si7 0.833627 0.037103 0.207970
Si Si8 0.732630 0.801321 0.547187
O O1 0.693003 0.862367 0.755409
O O2 0.243447 0.936496 0.930089
O O3 0.288263 0.088055 0.713347
O O4 0.509568 0.873610 0.072309
O O5 0.667341 0.232924 0.245787
O O6 0.944779 0.073983 0.157013
O O7 0.000000 0.000000 0.500000
O O8 0.162349 0.121249 0.065807
O O9 0.653729 0.763063 0.380326
O O10 0.781992 0.541635 0.777629
O O11 0.762066 0.699070 0.636759
O O12 0.049802 0.261234 0.401068
O O13 0.002120 0.113669 0.608355
O O14 0.836019 0.338034 0.202752
O O15 0.007240 0.331599 0.873932
O O16 0.500000 0.500000 0.000000
O O17 0.546293 0.116498 0.331802
#
# Coordination Sequence:
#
# PCOD9054514 Si02
#       8
#     2   2   2   2   2   2   2   2
#     4   8  15  31  55  81 113 149 178 225 285 335
#     4  11  21  35  59  88 115 149 186 231 288 336
#     4  11  23  36  57  85 115 149 191 234 281 333
#     4   8  15  30  55  81 107 146 187 228 272 335
#     4  11  22  38  59  83 118 150 189 237 278 334
#     4  11  21  37  57  80 109 152 197 232 278 329
#     4   8  15  30  56  84 113 143 183 227 281 340
#     4   8  15  30  53  84 109 138 185 227 280 339
#
# _framework density 20.329622000000001
#
# number of rings (size 3 to 8) (size 9 to 14) (size 15 to 20)
#    0.000    2.500    1.250    4.875    0.000    2.500 
#    0.000    0.000    2.750    3.000    0.000    0.000 
#    0.000    0.000    0.000    0.000    0.000    0.000 
#
# Total GULP energy -89161.961656 kJ/mol
# GULP energy per Si atom -5572.622604 kJ/mol
# Density = 2.028335 g / cm^3
# Si number density = 20.329622 Si / 1000 Ang^3
#
#
#
# Elastic Constant Matrix: (Units=GPa)
#
#
# Indices 1 2 3 4 5 6 
#
# 1 134.3889 99.8874 82.9395 16.3561 42.6204 32.7159
# 2 99.8874 -118.4348 -45.9692 -112.1657 -176.7042 -122.5837
# 3 82.9395 -45.9692 70.7923 -51.2765 -72.0081 -48.3033
# 4 16.3561 -112.1657 -51.2765 -44.3195 -102.8995 -74.5113
# 5 42.6204 -176.7042 -72.0081 -102.8995 -130.3413 -113.7214
# 6 32.7159 -122.5837 -48.3033 -74.5113 -113.7214 -35.4681
#
#
#
# Elastic Compliance Matrix: (Units=1/GPa)
#
#
# Indices 1 2 3 4 5 6 
#
# 1 0.010671 -0.004082 -0.004473 0.007913 0.003595 0.001895
# 2 -0.004082 0.014670 -0.003576 -0.010486 -0.007279 -0.004229
# 3 -0.004473 -0.003576 0.013341 -0.000895 -0.002086 -0.001366
# 4 0.007913 -0.010486 -0.000895 0.040215 -0.011243 -0.003676
# 5 0.003595 -0.007279 -0.002086 -0.011243 0.019210 -0.006659
# 6 0.001895 -0.004229 -0.001366 -0.003676 -0.006659 0.019106
#
#
# Mechanical properties :
#
#
# Convention : Reuss Voigt Hill
#
# Bulk Modulus (GPa) = 69.34713 40.05131 54.69922
# Shear Modulus (GPa) = 34.18077 -45.36653 -5.59288
#
# Velocity S-wave (km/s) = 4.10485 -4.72905 -1.66044
# Velocity P-wave (km/s) = 7.52674 3.17409 4.82581
#
# Compressibility (1/GPa) = 0.01442021
#
# Stress axis : x y z
#
# Youngs Moduli (GPa) = 93.70963 68.16813 74.95594
#
# Poissons Ratio (x) = 0.27829 0.33524
# Poissons Ratio (y) = 0.38255 0.26805
# Poissons Ratio (z) = 0.41912 0.24377
#
# Static dielectric constant tensor:
#      x y z
#    x 1.788080 0.027230 0.001910 
#    y 0.027230 1.717400 0.052900 
#    z 0.001910 0.052900 1.759580 
# 
# From -- ./inp_files/439371.got.cif
#   From: 2010.05.17/outbox.cif.g08.bks.cpg/sg2_220_cif.got.tgz:439371.got - 2010.06.03 11:33:40.
