data_PCOD9054801
_publ_section_title
;
Structure prediction by ZEFSAII (Michael W. Deem and Ramdas Pophale) SiO2 
 PCOD9054801
Probable space group: P -1
;
_chemical_formula_sum "Si O2"
_cell_formula_units_Z 16
_cell_length_a 22.430984
_cell_length_b 12.758642
_cell_length_c 18.774453
_cell_angle_alpha 161.641074
_cell_angle_beta 25.570882
_cell_angle_gamma 156.648221
_cell_volume 650.214833
_symmetry_space_group_name_H-M "P -1"
_symmetry_group_IT_number 2
_symmetry_cell_setting 'triclinic'
loop_
_space_group_symop_operation_xyz
x,y,z
-x,-y,-z
loop_
_atom_site_type_symbol
_atom_site_label
_atom_site_fract_x
_atom_site_fract_y
_atom_site_fract_z
Si Si1 0.925959 0.822088 0.638160
Si Si2 0.576675 0.427640 0.543112
Si Si3 0.330044 0.103518 0.851484
Si Si4 0.402865 0.359654 0.177505
Si Si5 0.029500 0.735253 0.853843
Si Si6 0.132244 0.238668 0.806838
Si Si7 0.746729 0.270474 0.594983
Si Si8 0.482654 0.766863 0.748452
O O1 0.777033 0.852128 0.786976
O O2 0.013395 0.683119 0.397185
O O3 0.848118 0.455685 0.536219
O O4 0.032964 0.165581 0.794851
O O5 0.590935 0.524393 0.672716
O O6 0.589337 0.768518 0.700259
O O7 0.682864 0.215274 0.284053
O O8 0.406100 0.107399 0.501219
O O9 0.503113 0.306174 0.763184
O O10 0.211879 0.919855 0.795832
O O11 0.292127 0.410672 0.126871
O O12 0.507980 0.142191 0.924808
O O13 0.950826 0.737099 0.015661
O O14 0.000000 0.000000 0.000000
O O15 0.301228 0.588375 0.848937
O O16 0.160375 0.870687 0.543920
O O17 0.500000 0.500000 0.500000
#
# Coordination Sequence:
#
# PCOD9054801 Si02
#       8
#     2   2   2   2   2   2   2   2
#     4  12  23  41  67 103 141 178 230 284 349 412
#     4  11  23  43  68 104 137 177 238 287 341 414
#     4  12  23  39  72 109 139 180 231 292 351 407
#     4  12  25  44  69 105 140 185 230 291 348 412
#     4  12  24  40  69 107 145 180 229 292 355 408
#     4  11  25  46  67 101 144 187 231 285 350 420
#     4  11  21  38  66 104 141 177 224 287 345 405
#     4  11  28  50  70  97 137 190 234 283 355 418
#
# _framework density 24.607251999999999
#
# number of rings (size 3 to 8) (size 9 to 14) (size 15 to 20)
#    0.000    0.500    5.000    4.500    3.500    0.500 
#    2.250    0.625    0.000    0.000    0.000    0.000 
#    0.000    0.000    0.000    0.000    0.000    0.000 
#
# Total GULP energy -89529.094539 kJ/mol
# GULP energy per Si atom -5595.568409 kJ/mol
# Density = 2.455124 g / cm^3
# Si number density = 24.607252 Si / 1000 Ang^3
#
#
#
# Elastic Constant Matrix: (Units=GPa)
#
#
# Indices 1 2 3 4 5 6 
#
# 1 157.0878 22.6686 56.2915 -6.2582 -13.5242 10.3813
# 2 22.6686 42.3563 7.5192 -12.7641 1.9597 6.9624
# 3 56.2915 7.5192 116.6748 -15.2568 -6.8475 -7.8868
# 4 -6.2582 -12.7641 -15.2568 29.4169 -10.0640 -2.3869
# 5 -13.5242 1.9597 -6.8475 -10.0640 56.8459 0.3186
# 6 10.3813 6.9624 -7.8868 -2.3869 0.3186 20.8759
#
#
#
# Elastic Compliance Matrix: (Units=1/GPa)
#
#
# Indices 1 2 3 4 5 6 
#
# 1 0.008946 -0.003812 -0.004615 -0.002099 0.001361 -0.005182
# 2 -0.003812 0.030249 0.001126 0.012534 0.000440 -0.006341
# 3 -0.004615 0.001126 0.012218 0.006959 0.001526 0.007308
# 4 -0.002099 0.012534 0.006959 0.045695 0.007971 0.004596
# 5 0.001361 0.000440 0.001526 0.007971 0.019493 0.000367
# 6 -0.005182 -0.006341 0.007308 0.004596 0.000367 0.055874
#
#
# Mechanical properties :
#
#
# Convention : Reuss Voigt Hill
#
# Bulk Modulus (GPa) = 27.16636 54.34194 40.75415
# Shear Modulus (GPa) = 25.08174 36.73704 30.90939
#
# Velocity S-wave (km/s) = 3.19608 3.86804 3.54801
# Velocity P-wave (km/s) = 4.96829 6.48696 5.77774
#
# Compressibility (1/GPa) = 0.03681023
#
# Stress axis : x y z
#
# Youngs Moduli (GPa) = 111.78387 33.05923 81.84339
#
# Poissons Ratio (x) = 0.12603 0.37773
# Poissons Ratio (y) = 0.42615 -0.09217
# Poissons Ratio (z) = 0.51591 -0.03723
#
# Static dielectric constant tensor:
#      x y z
#    x 1.957090 -0.020380 -0.008890 
#    y -0.020380 1.952850 0.024070 
#    z -0.008890 0.024070 2.064010 
# 
# From -- ./inp_files/578069.got.cif
#   From: 2010.05.17/outbox.cif.g08.bks.cpg/sg2_290_cif.got.tgz:578069.got - 2010.06.03 11:33:40.
