data_PCOD9054330
_publ_section_title
;
Structure prediction by ZEFSAII (Michael W. Deem and Ramdas Pophale) SiO2 
 PCOD9054330
Probable space group: P -1
;
_chemical_formula_sum "Si O2"
_cell_formula_units_Z 16
_cell_length_a 12.121855
_cell_length_b 11.396595
_cell_length_c 8.414147
_cell_angle_alpha 70.184161
_cell_angle_beta 45.857565
_cell_angle_gamma 49.367964
_cell_volume 618.885299
_symmetry_space_group_name_H-M "P -1"
_symmetry_group_IT_number 2
_symmetry_cell_setting 'triclinic'
loop_
_space_group_symop_operation_xyz
x,y,z
-x,-y,-z
loop_
_atom_site_type_symbol
_atom_site_label
_atom_site_fract_x
_atom_site_fract_y
_atom_site_fract_z
Si Si1 0.001695 0.599408 0.659338
Si Si2 0.669107 0.253420 0.277821
Si Si3 0.008359 0.181551 0.168272
Si Si4 0.210382 0.097164 0.685448
Si Si5 0.581023 0.828669 0.061019
Si Si6 0.220154 0.879391 0.270151
Si Si7 0.834482 0.318933 0.785200
Si Si8 0.691333 0.718912 0.362437
O O1 0.007614 0.716102 0.717835
O O2 0.128894 0.566685 0.389203
O O3 0.097756 0.439384 0.732016
O O4 0.770158 0.695949 0.830694
O O5 0.797835 0.229924 0.311506
O O6 0.439738 0.342712 0.472763
O O7 0.730509 0.076264 0.273974
O O8 0.724455 0.326190 0.051381
O O9 0.184984 0.997790 0.112479
O O10 0.079410 0.199333 0.921690
O O11 0.348920 0.150262 0.527187
O O12 0.062523 0.168705 0.653630
O O13 0.397912 0.830358 0.221812
O O14 0.643688 0.794307 0.199000
O O15 0.500000 0.000000 0.000000
O O16 0.256981 0.726538 0.232033
O O17 0.000000 0.000000 0.500000
#
# Coordination Sequence:
#
# PCOD9054330 Si02
#       8
#     2   2   2   2   2   2   2   2
#     4  12  27  47  71 105 151 188 236 294 363 426
#     4  11  24  43  73 108 140 191 244 291 360 414
#     4  11  20  42  72 102 142 179 238 298 353 411
#     4  11  22  43  73  99 146 184 239 295 355 427
#     4  12  25  43  74 108 137 186 242 299 351 413
#     4  12  20  39  70 110 136 172 242 306 342 401
#     4  11  24  42  72 103 140 191 233 301 351 416
#     4  12  28  46  70 107 149 192 233 291 368 433
#
# _framework density 25.852933
#
# number of rings (size 3 to 8) (size 9 to 14) (size 15 to 20)
#    0.000    0.500    6.250    2.250    1.750    2.500 
#    0.000    0.000    0.000    0.000    0.000    0.000 
#    0.000    0.000    0.000    0.000    0.000    0.000 
#
# Total GULP energy -89283.911852 kJ/mol
# GULP energy per Si atom -5580.244491 kJ/mol
# Density = 2.579409 g / cm^3
# Si number density = 25.852933 Si / 1000 Ang^3
#
#
#
# Elastic Constant Matrix: (Units=GPa)
#
#
# Indices 1 2 3 4 5 6 
#
# 1 126.3038 13.0456 37.1295 5.6050 -23.2628 -10.7877
# 2 13.0456 98.8075 30.1247 -9.7557 -2.6408 -26.4878
# 3 37.1295 30.1247 103.2796 -25.7401 -14.0407 -4.9293
# 4 5.6050 -9.7557 -25.7401 29.4718 -2.5504 3.0622
# 5 -23.2628 -2.6408 -14.0407 -2.5504 33.0186 2.8233
# 6 -10.7877 -26.4878 -4.9293 3.0622 2.8233 34.5381
#
#
#
# Elastic Compliance Matrix: (Units=1/GPa)
#
#
# Indices 1 2 3 4 5 6 
#
# 1 0.010638 0.000369 -0.004564 -0.005785 0.004874 0.003068
# 2 0.000369 0.014013 -0.003882 -0.000003 -0.001160 0.010403
# 3 -0.004564 -0.003882 0.016701 0.014998 0.005056 -0.003762
# 4 -0.005785 -0.000003 0.014998 0.049164 0.006489 -0.004558
# 5 0.004874 -0.001160 0.005056 0.006489 0.036467 -0.002202
# 6 0.003068 0.010403 -0.003762 -0.004558 -0.002202 0.037937
#
#
# Mechanical properties :
#
#
# Convention : Reuss Voigt Hill
#
# Bulk Modulus (GPa) = 39.68729 54.33229 47.00979
# Shear Modulus (GPa) = 26.38881 35.94511 31.16696
#
# Velocity S-wave (km/s) = 3.19835 3.73281 3.47587
# Velocity P-wave (km/s) = 5.38737 6.29603 5.85934
#
# Compressibility (1/GPa) = 0.02519698
#
# Stress axis : x y z
#
# Youngs Moduli (GPa) = 94.00623 71.36240 59.87500
#
# Poissons Ratio (x) = -0.02632 0.27330
# Poissons Ratio (y) = -0.03467 0.23243
# Poissons Ratio (z) = 0.42909 0.27702
#
# Static dielectric constant tensor:
#      x y z
#    x 2.064620 -0.002100 -0.058980 
#    y -0.002100 2.107510 -0.086580 
#    z -0.058980 -0.086580 2.303760 
# 
# From -- ./inp_files/262267.got.cif
#   From: 2010.05.17/outbox.cif.g08.bks.cpg/sg2_132_cif.got.tgz:262267.got - 2010.06.03 11:33:40.
