data_PCOD9054796
_publ_section_title
;
Structure prediction by ZEFSAII (Michael W. Deem and Ramdas Pophale) SiO2 
 PCOD9054796
Probable space group: P -1
;
_chemical_formula_sum "Si O2"
_cell_formula_units_Z 16
_cell_length_a 14.361402
_cell_length_b 12.030291
_cell_length_c 12.814523
_cell_angle_alpha 84.216578
_cell_angle_beta 84.549092
_cell_angle_gamma 18.935573
_cell_volume 714.792539
_symmetry_space_group_name_H-M "P -1"
_symmetry_group_IT_number 2
_symmetry_cell_setting 'triclinic'
loop_
_space_group_symop_operation_xyz
x,y,z
-x,-y,-z
loop_
_atom_site_type_symbol
_atom_site_label
_atom_site_fract_x
_atom_site_fract_y
_atom_site_fract_z
Si Si1 0.353110 0.459602 0.864376
Si Si2 0.987884 0.880652 0.510216
Si Si3 0.049493 0.257842 0.767360
Si Si4 0.734681 0.237603 0.811904
Si Si5 0.068822 0.394824 0.381919
Si Si6 0.325013 0.353889 0.676749
Si Si7 0.508072 0.637977 0.617444
Si Si8 0.582207 0.636322 0.894400
O O1 0.615838 0.248466 0.843152
O O2 0.368368 0.340935 0.792506
O O3 0.342069 0.432875 0.986924
O O4 0.073274 0.849710 0.830177
O O5 0.106645 0.690195 0.618810
O O6 0.231579 0.577428 0.425642
O O7 0.000000 0.000000 0.500000
O O8 0.678134 0.191102 0.477219
O O9 0.905396 0.525337 0.700951
O O10 0.815345 0.434260 0.815557
O O11 0.277117 0.954749 0.687524
O O12 0.265262 0.038203 0.861629
O O13 0.641442 0.385726 0.693631
O O14 0.602533 0.480853 0.880062
O O15 0.000000 0.500000 0.500000
O O16 0.820419 0.599659 0.338636
O O17 0.368422 0.991348 0.379909
#
# Coordination Sequence:
#
# PCOD9054796 Si02
#       8
#     2   2   2   2   2   2   2   2
#     4  12  24  42  62  95 137 172 210 264 315 380
#     4  12  23  38  60  91 130 168 198 245 317 391
#     4  11  23  43  66  93 121 161 220 274 316 368
#     4  11  21  38  65  96 132 175 211 253 315 385
#     4  12  26  47  71  94 124 166 216 274 325 378
#     4  12  26  43  65  97 129 170 216 260 323 387
#     4  11  22  38  60  91 124 161 208 261 311 374
#     4  11  23  41  67  97 129 171 218 261 312 377
#
# _framework density 22.384115000000001
#
# number of rings (size 3 to 8) (size 9 to 14) (size 15 to 20)
#    0.000    0.500    0.000   11.250    0.000    0.000 
#    0.000    3.750    0.000    0.000    0.000    0.000 
#    0.000    0.000    0.000    0.000    0.000    0.000 
#
# Total GULP energy -89583.736787 kJ/mol
# GULP energy per Si atom -5598.983549 kJ/mol
# Density = 2.233317 g / cm^3
# Si number density = 22.384115 Si / 1000 Ang^3
#
#
#
# Elastic Constant Matrix: (Units=GPa)
#
#
# Indices 1 2 3 4 5 6 
#
# 1 93.8497 4.0086 39.6870 5.2436 9.7661 -7.9396
# 2 4.0086 82.4516 17.6990 -15.9303 13.3973 -7.8347
# 3 39.6870 17.6990 121.6420 -6.1942 26.3226 10.1467
# 4 5.2436 -15.9303 -6.1942 30.0284 -0.2676 -2.9271
# 5 9.7661 13.3973 26.3226 -0.2676 36.0697 0.0607
# 6 -7.9396 -7.8347 10.1467 -2.9271 0.0607 37.7549
#
#
#
# Elastic Compliance Matrix: (Units=1/GPa)
#
#
# Indices 1 2 3 4 5 6 
#
# 1 0.013157 0.000248 -0.004746 -0.002769 -0.000218 0.003880
# 2 0.000248 0.015098 -0.001181 0.008084 -0.004760 0.004137
# 3 -0.004746 -0.001181 0.011911 0.002182 -0.006945 -0.004264
# 4 -0.002769 0.008084 0.002182 0.038836 -0.003563 0.003526
# 5 -0.000218 -0.004760 -0.006945 -0.003563 0.034592 0.000501
# 6 0.003880 0.004137 -0.004264 0.003526 0.000501 0.029579
#
#
# Mechanical properties :
#
#
# Convention : Reuss Voigt Hill
#
# Bulk Modulus (GPa) = 34.71253 46.74805 40.73029
# Shear Modulus (GPa) = 30.46276 36.54052 33.50164
#
# Velocity S-wave (km/s) = 3.69305 4.04472 3.87288
# Velocity P-wave (km/s) = 5.80743 6.53780 6.18340
#
# Compressibility (1/GPa) = 0.02880804
#
# Stress axis : x y z
#
# Youngs Moduli (GPa) = 76.00257 66.23320 83.95680
#
# Poissons Ratio (x) = -0.01645 0.39849
# Poissons Ratio (y) = -0.01887 0.09917
# Poissons Ratio (z) = 0.36073 0.07824
#
# Static dielectric constant tensor:
#      x y z
#    x 1.818920 0.011360 0.027620 
#    y 0.011360 1.837120 0.024350 
#    z 0.027620 0.024350 1.843030 
# 
# From -- ./inp_files/452279.got.cif
#   From: 2010.05.17/outbox.cif.g08.bks.cpg/sg2_227_cif.got.tgz:452279.got - 2010.06.03 11:33:40.
