data_PCOD9054267
_publ_section_title
;
Structure prediction by ZEFSAII (Michael W. Deem and Ramdas Pophale) SiO2 
 PCOD9054267
Probable space group: P -1
;
_chemical_formula_sum "Si O2"
_cell_formula_units_Z 16
_cell_length_a 10.034954
_cell_length_b 11.138931
_cell_length_c 8.448539
_cell_angle_alpha 49.202668
_cell_angle_beta 74.498641
_cell_angle_gamma 55.232720
_cell_volume 578.795360
_symmetry_space_group_name_H-M "P -1"
_symmetry_group_IT_number 2
_symmetry_cell_setting 'triclinic'
loop_
_space_group_symop_operation_xyz
x,y,z
-x,-y,-z
loop_
_atom_site_type_symbol
_atom_site_label
_atom_site_fract_x
_atom_site_fract_y
_atom_site_fract_z
Si Si1 0.584054 0.433315 0.785559
Si Si2 0.345310 0.129624 0.313852
Si Si3 0.030785 0.263493 0.125327
Si Si4 0.825190 0.561073 0.665261
Si Si5 0.041980 0.970158 0.200307
Si Si6 0.690415 0.209565 0.277744
Si Si7 0.869474 0.414024 0.383936
Si Si8 0.462074 0.194387 0.921932
O O1 0.713930 0.497846 0.664914
O O2 0.402989 0.623318 0.706257
O O3 0.569775 0.289681 0.798354
O O4 0.626912 0.326138 0.033473
O O5 0.181235 0.267367 0.145440
O O6 0.315326 0.239582 0.390483
O O7 0.345435 0.945625 0.515178
O O8 0.473402 0.133749 0.155470
O O9 0.923816 0.326823 0.264413
O O10 0.129071 0.068190 0.162424
O O11 0.911914 0.403586 0.909086
O O12 0.979047 0.589761 0.567885
O O13 0.135894 0.752544 0.390643
O O14 0.883543 0.076984 0.279779
O O15 0.000000 0.000000 0.000000
O O16 0.713905 0.627739 0.237821
O O17 0.500000 0.000000 0.000000
#
# Coordination Sequence:
#
# PCOD9054267 Si02
#       8
#     2   2   2   2   2   2   2   2
#     4  11  26  44  74 110 156 198 259 317 385 459
#     4  11  22  42  77 111 143 202 262 315 375 465
#     4  11  20  41  80 109 145 190 265 311 370 457
#     4  11  20  43  80 113 144 192 263 322 370 454
#     4  12  26  44  73 116 160 199 256 326 394 456
#     4  11  23  45  72 113 152 198 254 320 388 454
#     4  11  23  48  80 110 147 208 265 316 382 469
#     4  12  27  49  73 110 159 203 257 324 394 459
#
# _framework density 27.643621
#
# number of rings (size 3 to 8) (size 9 to 14) (size 15 to 20)
#    0.000    0.750    6.250    3.375    1.750    3.000 
#    4.500    3.125    0.000    0.000    3.250    0.875 
#    0.000    0.000    0.000    0.000    0.000    0.000 
#
# Total GULP energy -89216.673894 kJ/mol
# GULP energy per Si atom -5576.042118 kJ/mol
# Density = 2.758070 g / cm^3
# Si number density = 27.643621 Si / 1000 Ang^3
#
#
#
# Elastic Constant Matrix: (Units=GPa)
#
#
# Indices 1 2 3 4 5 6 
#
# 1 128.3439 43.0049 4.2843 0.4517 -16.6800 8.8492
# 2 43.0049 183.7765 32.4060 -47.1595 -2.6750 47.7311
# 3 4.2843 32.4060 121.4916 -34.2720 -9.2362 0.3232
# 4 0.4517 -47.1595 -34.2720 9.6193 17.6876 -9.4382
# 5 -16.6800 -2.6750 -9.2362 17.6876 40.6669 -9.4351
# 6 8.8492 47.7311 0.3232 -9.4382 -9.4351 42.4354
#
#
#
# Elastic Compliance Matrix: (Units=1/GPa)
#
#
# Indices 1 2 3 4 5 6 
#
# 1 0.007580 0.000130 0.002280 0.009245 -0.000330 0.000239
# 2 0.000130 0.003766 -0.005578 -0.017631 0.005075 -0.007013
# 3 0.002280 -0.005578 0.007515 -0.009541 0.007660 0.005322
# 4 0.009245 -0.017631 -0.009541 -0.056725 0.027815 0.011544
# 5 -0.000330 0.005075 0.007660 0.027815 0.015335 0.003898
# 6 0.000239 -0.007013 0.005322 0.011544 0.003898 0.034797
#
#
# Mechanical properties :
#
#
# Convention : Reuss Voigt Hill
#
# Bulk Modulus (GPa) = 79.84197 65.88915 72.86556
# Shear Modulus (GPa) = 219.49774 42.13879 130.81827
#
# Velocity S-wave (km/s) = 8.92048 3.90854 6.88664
# Velocity P-wave (km/s) = 11.62090 6.65251 9.46840
#
# Compressibility (1/GPa) = 0.01252474
#
# Stress axis : x y z
#
# Youngs Moduli (GPa) = 131.92383 265.54934 133.06498
#
# Poissons Ratio (x) = -0.03441 -0.30343
# Poissons Ratio (y) = -0.01709 0.74224
# Poissons Ratio (z) = -0.30083 1.48124
#
# Static dielectric constant tensor:
#      x y z
#    x 2.425490 -0.024400 -0.114240 
#    y -0.024400 2.279510 0.077010 
#    z -0.114240 0.077010 2.167260 
# 
# From -- ./inp_files/261561.got.cif
#   From: 2010.05.17/outbox.cif.g08.bks.cpg/sg2_131_cif.got.tgz:261561.got - 2010.06.03 11:33:40.
