data_PCOD9054643
_publ_section_title
;
Structure prediction by ZEFSAII (Michael W. Deem and Ramdas Pophale) SiO2 
 PCOD9054643
Probable space group: P -1
;
_chemical_formula_sum "Si O2"
_cell_formula_units_Z 16
_cell_length_a 7.349267
_cell_length_b 17.245005
_cell_length_c 8.617481
_cell_angle_alpha 50.211196
_cell_angle_beta 51.601810
_cell_angle_gamma 61.423656
_cell_volume 651.761561
_symmetry_space_group_name_H-M "P -1"
_symmetry_group_IT_number 2
_symmetry_cell_setting 'triclinic'
loop_
_space_group_symop_operation_xyz
x,y,z
-x,-y,-z
loop_
_atom_site_type_symbol
_atom_site_label
_atom_site_fract_x
_atom_site_fract_y
_atom_site_fract_z
Si Si1 0.369728 0.099417 0.514825
Si Si2 0.853787 0.927054 0.766533
Si Si3 0.264131 0.744601 0.820022
Si Si4 0.755340 0.404611 0.236554
Si Si5 0.696205 0.046999 0.008979
Si Si6 0.024465 0.352137 0.665055
Si Si7 0.966263 0.227703 0.580677
Si Si8 0.157325 0.468670 0.712512
O O1 0.557039 0.174540 0.355180
O O2 0.160281 0.163828 0.452379
O O3 0.500000 0.000000 0.500000
O O4 0.237232 0.044121 0.788979
O O5 0.015314 0.817497 0.830730
O O6 0.800604 0.990359 0.872706
O O7 0.584873 0.926339 0.861659
O O8 0.000000 0.000000 0.500000
O O9 0.364438 0.664646 0.734516
O O10 0.203719 0.678006 0.085120
O O11 0.669881 0.496430 0.287791
O O12 0.860786 0.321307 0.412765
O O13 0.944742 0.443414 0.968805
O O14 0.782683 0.156544 0.826923
O O15 0.099072 0.262573 0.617983
O O16 0.200467 0.377399 0.678159
O O17 0.943646 0.443789 0.469583
#
# Coordination Sequence:
#
# PCOD9054643 Si02
#       8
#     2   2   2   2   2   2   2   2
#     4  12  25  39  60  88 138 179 217 262 312 370
#     4  11  22  40  62  90 128 170 222 265 317 359
#     4  11  21  37  62  93 122 174 213 263 310 378
#     4   9  19  34  65  96 117 157 211 267 321 387
#     4  11  24  39  62  90 128 177 214 267 309 370
#     4   9  18  36  63  92 122 159 209 265 322 396
#     4  11  22  38  60  96 124 168 222 256 311 380
#     4   8  16  36  65  93 117 160 198 265 347 373
#
# _framework density 24.548853999999999
#
# number of rings (size 3 to 8) (size 9 to 14) (size 15 to 20)
#    0.000    1.750    1.250    3.375    3.500    0.000 
#    0.000    0.000    0.000   28.500    0.000    0.000 
#    0.000    0.000    0.000    0.000    0.000    0.000 
#
# Total GULP energy -89095.933521 kJ/mol
# GULP energy per Si atom -5568.495845 kJ/mol
# Density = 2.449298 g / cm^3
# Si number density = 24.548854 Si / 1000 Ang^3
#
#
#
# Elastic Constant Matrix: (Units=GPa)
#
#
# Indices 1 2 3 4 5 6 
#
# 1 53.6972 13.1616 36.4615 -4.7110 -2.4296 19.5718
# 2 13.1616 79.7254 54.0089 9.8765 0.0856 35.2567
# 3 36.4615 54.0089 160.9234 2.9207 21.0001 12.3629
# 4 -4.7110 9.8765 2.9207 55.0950 17.4528 -3.2417
# 5 -2.4296 0.0856 21.0001 17.4528 47.6954 -0.6995
# 6 19.5718 35.2567 12.3629 -3.2417 -0.6995 44.8207
#
#
#
# Elastic Compliance Matrix: (Units=1/GPa)
#
#
# Indices 1 2 3 4 5 6 
#
# 1 0.028998 0.009265 -0.009061 -0.001555 0.005763 -0.017473
# 2 0.009265 0.031351 -0.011538 -0.008332 0.008163 -0.025999
# 3 -0.009061 -0.011538 0.012229 0.003418 -0.006932 0.009798
# 4 -0.001555 -0.008332 0.003418 0.022904 -0.009836 0.007793
# 5 0.005763 0.008163 -0.006932 -0.009836 0.027790 -0.007303
# 6 -0.017473 -0.025999 0.009798 0.007793 -0.007303 0.048140
#
#
# Mechanical properties :
#
#
# Convention : Reuss Voigt Hill
#
# Bulk Modulus (GPa) = 20.03613 55.73447 37.88530
# Shear Modulus (GPa) = 23.72858 42.23647 32.98253
#
# Velocity S-wave (km/s) = 3.11237 4.15240 3.66942
# Velocity P-wave (km/s) = 4.59296 6.76333 5.78091
#
# Compressibility (1/GPa) = 0.04990983
#
# Stress axis : x y z
#
# Youngs Moduli (GPa) = 34.48527 31.89721 81.77071
#
# Poissons Ratio (x) = -0.29552 0.74093
# Poissons Ratio (y) = -0.31950 0.94345
# Poissons Ratio (z) = 0.31247 0.36802
#
# Static dielectric constant tensor:
#      x y z
#    x 2.024430 0.148560 -0.042740 
#    y 0.148560 2.090240 0.033100 
#    z -0.042740 0.033100 1.893870 
# 
# From -- ./inp_files/214255.got.cif
#   From: 2010.05.17/outbox.cif.g08.bks.cpg/sg2_108_cif.got.tgz:214255.got - 2010.06.03 11:33:40.
