data_PCOD9054251
_publ_section_title
;
Structure prediction by ZEFSAII (Michael W. Deem and Ramdas Pophale) SiO2 
 PCOD9054251
Probable space group: P -1
;
_chemical_formula_sum "Si O2"
_cell_formula_units_Z 14
_cell_length_a 9.431251
_cell_length_b 12.276222
_cell_length_c 19.733290
_cell_angle_alpha 37.673177
_cell_angle_beta 141.903684
_cell_angle_gamma 113.708074
_cell_volume 698.330317
_symmetry_space_group_name_H-M "P -1"
_symmetry_group_IT_number 2
_symmetry_cell_setting 'triclinic'
loop_
_space_group_symop_operation_xyz
x,y,z
-x,-y,-z
loop_
_atom_site_type_symbol
_atom_site_label
_atom_site_fract_x
_atom_site_fract_y
_atom_site_fract_z
Si Si1 0.807648 0.961183 0.993130
Si Si2 0.140553 0.977426 0.864462
Si Si3 0.307445 0.390127 0.923399
Si Si4 0.601446 0.489663 0.243460
Si Si5 0.293228 0.928669 0.457307
Si Si6 0.820588 0.717470 0.371087
Si Si7 0.892800 0.171153 0.314966
O O1 0.484405 0.184497 0.761072
O O2 0.913320 0.925199 0.128607
O O3 0.795302 0.759519 0.063617
O O4 0.000000 0.000000 0.000000
O O5 0.238248 0.089848 0.795511
O O6 0.868652 0.024234 0.698544
O O7 0.398234 0.720251 0.092127
O O8 0.435885 0.440590 0.882704
O O9 0.088475 0.629021 0.755935
O O10 0.568587 0.260143 0.137017
O O11 0.538729 0.324344 0.331125
O O12 0.941239 0.349265 0.450887
O O13 0.500000 0.000000 0.500000
O O14 0.060602 0.062815 0.362284
O O15 0.000000 0.500000 0.500000
O O16 0.000000 0.000000 0.500000
#
# Coordination Sequence:
#
# PCOD9054251 Si02
#       7
#     2   2   2   2   2   2   2
#     4  12  26  44  67 106 145 173 219 294 357 391
#     4  11  23  45  69  95 134 185 231 270 342 423
#     4  11  23  43  70  96 133 182 226 275 336 410
#     4  11  20  41  72  95 126 181 236 273 329 413
#     4  11  25  42  65 104 134 173 229 290 342 397
#     4  11  21  39  72  95 127 181 231 265 323 423
#     4  11  23  43  71  97 129 181 236 272 330 406
#
# _framework density 20.047817999999999
#
# number of rings (size 3 to 8) (size 9 to 14) (size 15 to 20)
#    0.000    0.857    5.714    2.143    0.000    2.857 
#    0.000    1.429    0.000    0.000    0.000    0.000 
#    0.000    0.000    0.000    0.000    0.000    0.000 
#
# Total GULP energy -78136.759590 kJ/mol
# GULP energy per Si atom -5581.197114 kJ/mol
# Density = 2.000219 g / cm^3
# Si number density = 20.047818 Si / 1000 Ang^3
#
#
#
# Elastic Constant Matrix: (Units=GPa)
#
#
# Indices 1 2 3 4 5 6 
#
# 1 71.9731 46.7677 55.1245 8.7264 -0.0461 12.7371
# 2 46.7677 155.0437 71.2898 -8.1463 -0.0663 -0.1197
# 3 55.1245 71.2898 123.4023 -10.4183 -20.2946 15.0566
# 4 8.7264 -8.1463 -10.4183 44.1804 -10.6276 -0.0277
# 5 -0.0461 -0.0663 -20.2946 -10.6276 23.7759 7.1359
# 6 12.7371 -0.1197 15.0566 -0.0277 7.1359 33.3243
#
#
#
# Elastic Compliance Matrix: (Units=1/GPa)
#
#
# Indices 1 2 3 4 5 6 
#
# 1 0.030340 -0.001883 -0.017646 -0.015905 -0.022468 0.001168
# 2 -0.001883 0.010381 -0.007498 -0.001624 -0.008918 0.006053
# 3 -0.017646 -0.007498 0.029993 0.018370 0.038263 -0.015012
# 4 -0.015905 -0.001624 0.018370 0.038407 0.035770 -0.009855
# 5 -0.022468 -0.008918 0.038263 0.035770 0.099658 -0.030043
# 6 0.001168 0.006053 -0.015012 -0.009855 -0.030043 0.042791
#
#
# Mechanical properties :
#
#
# Convention : Reuss Voigt Hill
#
# Bulk Modulus (GPa) = 60.02139 77.42034 68.72086
# Shear Modulus (GPa) = 16.06808 32.07194 24.07001
#
# Velocity S-wave (km/s) = 2.83413 4.00405 3.46877
# Velocity P-wave (km/s) = 6.38074 7.75102 7.09902
#
# Compressibility (1/GPa) = 0.01666073
#
# Stress axis : x y z
#
# Youngs Moduli (GPa) = 32.96031 96.33011 33.34096
#
# Poissons Ratio (x) = 0.18134 0.58832
# Poissons Ratio (y) = 0.06205 0.25000
# Poissons Ratio (z) = 0.58160 0.72232
#
# Static dielectric constant tensor:
#      x y z
#    x 1.683520 -0.027310 0.014090 
#    y -0.027310 1.817530 -0.002420 
#    z 0.014090 -0.002420 1.750820 
# 
# From -- ./inp_files/27724.got.cif
#   From: 2010.05.17/outbox.cif.g08.bks.cpg/sg2_14_cif.got.tgz:27724.got - 2010.06.03 11:33:40.
