data_PCOD9054373
_publ_section_title
;
Structure prediction by ZEFSAII (Michael W. Deem and Ramdas Pophale) SiO2 
 PCOD9054373
Probable space group: P -1
;
_chemical_formula_sum "Si O2"
_cell_formula_units_Z 16
_cell_length_a 14.477259
_cell_length_b 9.427670
_cell_length_c 20.963092
_cell_angle_alpha 54.979016
_cell_angle_beta 160.652891
_cell_angle_gamma 124.029667
_cell_volume 774.521578
_symmetry_space_group_name_H-M "P -1"
_symmetry_group_IT_number 2
_symmetry_cell_setting 'triclinic'
loop_
_space_group_symop_operation_xyz
x,y,z
-x,-y,-z
loop_
_atom_site_type_symbol
_atom_site_label
_atom_site_fract_x
_atom_site_fract_y
_atom_site_fract_z
Si Si1 0.697139 0.033790 0.376324
Si Si2 0.655380 0.881035 0.081712
Si Si3 0.123984 0.803246 0.941684
Si Si4 0.892994 0.151375 0.935788
Si Si5 0.610619 0.572974 0.365026
Si Si6 0.850118 0.194143 0.300716
Si Si7 0.281495 0.491972 0.301386
Si Si8 0.137584 0.661316 0.508644
O O1 0.721512 0.088002 0.304598
O O2 0.688088 0.206292 0.366436
O O3 0.434597 0.905141 0.253233
O O4 0.975996 0.934915 0.595283
O O5 0.888637 0.767302 0.291634
O O6 0.796221 0.015100 0.087259
O O7 0.411875 0.754073 0.923666
O O8 0.500000 0.000000 0.000000
O O9 0.915596 0.682730 0.792546
O O10 0.000943 0.830270 0.926279
O O11 0.405220 0.699867 0.162797
O O12 0.906163 0.340634 0.862982
O O13 0.000000 0.000000 0.000000
O O14 0.458773 0.514563 0.346017
O O15 0.669958 0.412361 0.400922
O O16 0.912900 0.668360 0.553776
O O17 0.500000 0.500000 0.500000
O O18 0.000000 0.500000 0.500000
#
# Coordination Sequence:
#
# PCOD9054373 Si02
#       8
#     2   2   2   2   2   2   2   2
#     4  11  21  40  70  95 135 172 222 272 338 402
#     4  12  25  41  69  99 132 176 221 275 338 401
#     4  11  24  47  69  96 133 183 228 273 337 406
#     4  11  24  44  70 100 132 179 228 277 339 399
#     4  11  23  46  68  95 138 177 219 280 340 397
#     4  11  20  43  70  97 131 176 224 272 333 407
#     4  11  27  46  65  99 134 182 230 278 334 393
#     4  12  26  42  62 103 136 172 213 275 343 401
#
# _framework density 20.657914999999999
#
# number of rings (size 3 to 8) (size 9 to 14) (size 15 to 20)
#    0.000    0.750    6.250    3.000    7.000    1.500 
#    0.000    1.250    0.000    0.000    0.000    0.000 
#    0.000    0.000    0.000    0.000    0.000    0.000 
#
# Total GULP energy -89407.262754 kJ/mol
# GULP energy per Si atom -5587.953922 kJ/mol
# Density = 2.061090 g / cm^3
# Si number density = 20.657915 Si / 1000 Ang^3
#
#
#
# Elastic Constant Matrix: (Units=GPa)
#
#
# Indices 1 2 3 4 5 6 
#
# 1 74.6039 30.1051 30.5397 -16.5811 4.6310 -23.3035
# 2 30.1051 101.1591 33.7148 11.6254 -6.3013 -18.6426
# 3 30.5397 33.7148 96.3448 4.1686 -13.8167 -1.0122
# 4 -16.5811 11.6254 4.1686 45.7900 -4.3581 1.2821
# 5 4.6310 -6.3013 -13.8167 -4.3581 26.1389 -3.4305
# 6 -23.3035 -18.6426 -1.0122 1.2821 -3.4305 44.5702
#
#
#
# Elastic Compliance Matrix: (Units=1/GPa)
#
#
# Indices 1 2 3 4 5 6 
#
# 1 0.023545 -0.004325 -0.007140 0.009419 -0.006158 0.009594
# 2 -0.004325 0.013428 -0.002769 -0.004611 0.002243 0.003597
# 3 -0.007140 -0.002769 0.014747 -0.002404 0.007478 -0.003912
# 4 0.009419 -0.004611 -0.002404 0.026642 0.000684 0.002228
# 5 -0.006158 0.002243 0.007478 0.000684 0.044122 0.001264
# 6 0.009594 0.003597 -0.003912 0.002228 0.001264 0.028902
#
#
# Mechanical properties :
#
#
# Convention : Reuss Voigt Hill
#
# Bulk Modulus (GPa) = 43.00744 51.20300 47.10522
# Shear Modulus (GPa) = 26.65187 35.14970 30.90078
#
# Velocity S-wave (km/s) = 3.59577 4.12941 3.87180
# Velocity P-wave (km/s) = 6.17280 6.89754 6.54521
#
# Compressibility (1/GPa) = 0.02325179
#
# Stress axis : x y z
#
# Youngs Moduli (GPa) = 42.47204 74.47072 67.81105
#
# Poissons Ratio (x) = 0.32212 0.48415
# Poissons Ratio (y) = 0.18371 0.18776
# Poissons Ratio (z) = 0.30324 0.20620
#
# Static dielectric constant tensor:
#      x y z
#    x 1.742310 -0.020640 -0.011730 
#    y -0.020640 1.737940 0.019830 
#    z -0.011730 0.019830 1.740510 
# 
# From -- ./inp_files/271876.got.cif
#   From: 2010.05.17/outbox.cif.g08.bks.cpg/sg2_136_cif.got.tgz:271876.got - 2010.06.03 11:33:40.
