data_PCOD9054074
_publ_section_title
;
Structure prediction by ZEFSAII (Michael W. Deem and Ramdas Pophale) SiO2 
 PCOD9054074
Probable space group: P -1
;
_chemical_formula_sum "Si O2"
_cell_formula_units_Z 16
_cell_length_a 14.123787
_cell_length_b 9.550670
_cell_length_c 11.768322
_cell_angle_alpha 94.675407
_cell_angle_beta 32.622035
_cell_angle_gamma 104.652449
_cell_volume 801.189024
_symmetry_space_group_name_H-M "P -1"
_symmetry_group_IT_number 2
_symmetry_cell_setting 'triclinic'
loop_
_space_group_symop_operation_xyz
x,y,z
-x,-y,-z
loop_
_atom_site_type_symbol
_atom_site_label
_atom_site_fract_x
_atom_site_fract_y
_atom_site_fract_z
Si Si1 0.407373 0.693339 0.850837
Si Si2 0.198063 0.343940 0.017589
Si Si3 0.181679 0.827868 0.498109
Si Si4 0.608013 0.870901 0.096910
Si Si5 0.045326 0.174837 0.936949
Si Si6 0.646511 0.102658 0.270445
Si Si7 0.180050 0.859049 0.234821
Si Si8 0.177460 0.159971 0.552521
O O1 0.304681 0.519322 0.924633
O O2 0.285739 0.759283 0.060477
O O3 0.425164 0.784335 0.720523
O O4 0.617611 0.736407 0.686368
O O5 0.309813 0.258966 0.972520
O O6 0.989751 0.296158 0.276607
O O7 0.172694 0.276610 0.911829
O O8 0.155877 0.823037 0.388672
O O9 0.177725 0.990362 0.550323
O O10 0.384630 0.820252 0.319922
O O11 0.690335 0.968255 0.907913
O O12 0.680994 0.991122 0.133650
O O13 0.132932 0.206776 0.725629
O O14 0.841654 0.190940 0.138784
O O15 0.000000 0.000000 0.000000
O O16 0.500000 0.000000 0.500000
O O17 0.984573 0.837023 0.368998
#
# Coordination Sequence:
#
# PCOD9054074 Si02
#       8
#     2   2   2   2   2   2   2   2
#     4  11  27  44  62 100 140 170 217 274 335 386
#     4  12  27  43  63 102 140 170 216 274 336 392
#     4  12  23  41  76  97 125 177 228 275 324 385
#     4  11  22  40  65 102 127 169 228 267 322 396
#     4  12  20  40  68  97 132 167 220 269 317 399
#     4  11  20  40  67  93 130 176 219 267 319 390
#     4  11  23  44  71  99 128 169 237 274 313 397
#     4  12  22  42  70  97 127 178 218 273 329 383
#
# _framework density 19.970319
#
# number of rings (size 3 to 8) (size 9 to 14) (size 15 to 20)
#    0.000    0.500    8.750    2.250    0.000    2.500 
#    0.000    1.250    0.000    0.000    0.000    0.000 
#    0.000    0.000    0.000    0.000    0.000    0.000 
#
# Total GULP energy -89523.820094 kJ/mol
# GULP energy per Si atom -5595.238756 kJ/mol
# Density = 1.992487 g / cm^3
# Si number density = 19.970319 Si / 1000 Ang^3
#
#
#
# Elastic Constant Matrix: (Units=GPa)
#
#
# Indices 1 2 3 4 5 6 
#
# 1 73.2614 23.8604 40.4228 3.6781 -16.3148 -3.8938
# 2 23.8604 102.1556 42.3400 -20.0351 -4.4998 1.8447
# 3 40.4228 42.3400 89.2749 -9.4177 -31.0641 7.6297
# 4 3.6781 -20.0351 -9.4177 24.2070 -0.0767 -4.3524
# 5 -16.3148 -4.4998 -31.0641 -0.0767 46.3562 3.7004
# 6 -3.8938 1.8447 7.6297 -4.3524 3.7004 12.8410
#
#
#
# Elastic Compliance Matrix: (Units=1/GPa)
#
#
# Indices 1 2 3 4 5 6 
#
# 1 0.020785 -0.002237 -0.010192 -0.007099 -0.000577 0.010440
# 2 -0.002237 0.015166 -0.007156 0.011270 -0.004614 0.006545
# 3 -0.010192 -0.007156 0.026584 0.002146 0.015255 -0.021527
# 4 -0.007099 0.011270 0.002146 0.055047 -0.000984 0.013894
# 5 -0.000577 -0.004614 0.015255 -0.000984 0.032603 -0.018305
# 6 0.010440 0.006545 -0.021527 0.013894 -0.018305 0.102876
#
#
# Mechanical properties :
#
#
# Convention : Reuss Voigt Hill
#
# Bulk Modulus (GPa) = 42.79833 53.10426 47.95129
# Shear Modulus (GPa) = 16.66555 27.21876 21.94216
#
# Velocity S-wave (km/s) = 2.89193 3.69584 3.31832
# Velocity P-wave (km/s) = 5.71214 6.69788 6.22455
#
# Compressibility (1/GPa) = 0.02336540
#
# Stress axis : x y z
#
# Youngs Moduli (GPa) = 48.11235 65.93564 37.61591
#
# Poissons Ratio (x) = 0.14747 0.38340
# Poissons Ratio (y) = 0.10761 0.26918
# Poissons Ratio (z) = 0.49038 0.47184
#
# Static dielectric constant tensor:
#      x y z
#    x 1.734770 -0.004970 -0.006570 
#    y -0.004970 1.669340 0.013090 
#    z -0.006570 0.013090 1.727840 
# 
# From -- ./inp_files/447617.got.cif
#   From: 2010.05.17/outbox.cif.g08.bks.cpg/sg2_224_cif.got.tgz:447617.got - 2010.06.03 11:33:40.
