data_PCOD9054954
_publ_section_title
;
Structure prediction by ZEFSAII (Michael W. Deem and Ramdas Pophale) SiO2 
 PCOD9054954
Probable space group: P -1
;
_chemical_formula_sum "Si O2"
_cell_formula_units_Z 16
_cell_length_a 18.293122
_cell_length_b 11.918819
_cell_length_c 13.896820
_cell_angle_alpha 137.379481
_cell_angle_beta 148.266298
_cell_angle_gamma 28.320783
_cell_volume 755.047675
_symmetry_space_group_name_H-M "P -1"
_symmetry_group_IT_number 2
_symmetry_cell_setting 'triclinic'
loop_
_space_group_symop_operation_xyz
x,y,z
-x,-y,-z
loop_
_atom_site_type_symbol
_atom_site_label
_atom_site_fract_x
_atom_site_fract_y
_atom_site_fract_z
Si Si1 0.119166 0.669938 0.480416
Si Si2 0.598684 0.447115 0.432080
Si Si3 0.383835 0.340782 0.027599
Si Si4 0.183627 0.980823 0.472846
Si Si5 0.473823 0.133036 0.303587
Si Si6 0.767091 0.795554 0.074547
Si Si7 0.656310 0.812273 0.476857
Si Si8 0.985700 0.344068 0.319482
O O1 0.246651 0.681740 0.564774
O O2 0.263981 0.432556 0.556013
O O3 0.962214 0.872463 0.508563
O O4 0.985463 0.677195 0.261933
O O5 0.702146 0.285151 0.541740
O O6 0.535950 0.688779 0.534604
O O7 0.427274 0.469726 0.218662
O O8 0.230416 0.496710 0.866884
O O9 0.596870 0.082829 0.072275
O O10 0.281720 0.293365 0.952601
O O11 0.358651 0.970282 0.655068
O O12 0.059572 0.127503 0.330759
O O13 0.272438 0.259844 0.105556
O O14 0.546851 0.925689 0.323884
O O15 0.851533 0.760830 0.647960
O O16 0.500000 0.000000 0.500000
O O17 0.000000 0.500000 0.500000
#
# Coordination Sequence:
#
# PCOD9054954 Si02
#       8
#     2   2   2   2   2   2   2   2
#     4  12  23  43  69  97 133 178 217 273 331 394
#     4  12  25  43  65  98 143 169 210 278 348 375
#     4  11  22  40  67 100 129 172 224 269 321 397
#     4  11  22  40  67  94 128 172 220 265 328 392
#     4  11  24  41  70  96 132 174 222 277 318 390
#     4  11  21  39  67  99 126 171 233 264 312 399
#     4  11  22  42  64  96 133 174 215 268 334 380
#     4  11  21  40  71  95 122 172 229 267 308 391
#
# _framework density 21.190714
#
# number of rings (size 3 to 8) (size 9 to 14) (size 15 to 20)
#    0.000    0.750    6.250    3.000    0.000    0.500 
#    0.000    5.625    0.000    0.000    0.000    0.000 
#    0.000    0.000    0.000    0.000    0.000    0.000 
#
# Total GULP energy -89386.619359 kJ/mol
# GULP energy per Si atom -5586.663710 kJ/mol
# Density = 2.114248 g / cm^3
# Si number density = 21.190714 Si / 1000 Ang^3
#
#
#
# Elastic Constant Matrix: (Units=GPa)
#
#
# Indices 1 2 3 4 5 6 
#
# 1 97.0493 34.9451 10.0628 -17.3151 -5.4544 7.7871
# 2 34.9451 96.5768 41.2247 -13.3254 -11.6821 13.0054
# 3 10.0628 41.2247 105.6662 -11.9151 -2.2007 19.2211
# 4 -17.3151 -13.3254 -11.9151 29.2893 5.9997 -16.5302
# 5 -5.4544 -11.6821 -2.2007 5.9997 23.2339 -8.1821
# 6 7.7871 13.0054 19.2211 -16.5302 -8.1821 45.7823
#
#
#
# Elastic Compliance Matrix: (Units=1/GPa)
#
#
# Indices 1 2 3 4 5 6 
#
# 1 0.012854 -0.004362 0.001049 0.006665 -0.000468 0.000935
# 2 -0.004362 0.014982 -0.005211 0.000964 0.005786 0.000056
# 3 0.001049 -0.005211 0.012208 0.001717 -0.002976 -0.003735
# 4 0.006665 0.000964 0.001717 0.048429 -0.005214 0.014425
# 5 -0.000468 0.005786 -0.002976 -0.005214 0.049229 0.006601
# 6 0.000935 0.000056 -0.003735 0.014425 0.006601 0.029624
#
#
# Mechanical properties :
#
#
# Convention : Reuss Voigt Hill
#
# Bulk Modulus (GPa) = 43.48299 52.41751 47.95025
# Shear Modulus (GPa) = 26.03648 33.86507 29.95078
#
# Velocity S-wave (km/s) = 3.50905 4.00197 3.76359
# Velocity P-wave (km/s) = 6.08130 6.79295 6.44695
#
# Compressibility (1/GPa) = 0.02299750
#
# Stress axis : x y z
#
# Youngs Moduli (GPa) = 77.79943 66.74491 81.91395
#
# Poissons Ratio (x) = 0.29112 -0.08595
# Poissons Ratio (y) = 0.33934 0.42684
# Poissons Ratio (z) = -0.08164 0.34779
#
# Static dielectric constant tensor:
#      x y z
#    x 1.762690 -0.026650 -0.027780 
#    y -0.026650 1.818340 0.015590 
#    z -0.027780 0.015590 1.768510 
# 
# From -- ./inp_files/464827.got.cif
#   From: 2010.05.17/outbox.cif.g08.bks.cpg/sg2_233_cif.got.tgz:464827.got - 2010.06.03 11:33:40.
