data_PCOD9054472
_publ_section_title
;
Structure prediction by ZEFSAII (Michael W. Deem and Ramdas Pophale) SiO2 
 PCOD9054472
Probable space group: P -1
;
_chemical_formula_sum "Si O2"
_cell_formula_units_Z 16
_cell_length_a 17.207343
_cell_length_b 7.622488
_cell_length_c 7.789091
_cell_angle_alpha 127.180713
_cell_angle_beta 96.931266
_cell_angle_gamma 112.617350
_cell_volume 659.118536
_symmetry_space_group_name_H-M "P -1"
_symmetry_group_IT_number 2
_symmetry_cell_setting 'triclinic'
loop_
_space_group_symop_operation_xyz
x,y,z
-x,-y,-z
loop_
_atom_site_type_symbol
_atom_site_label
_atom_site_fract_x
_atom_site_fract_y
_atom_site_fract_z
Si Si1 0.802049 0.861847 0.935696
Si Si2 0.389934 0.618120 0.271855
Si Si3 0.514574 0.446952 0.278279
Si Si4 0.119189 0.097158 0.395452
Si Si5 0.942554 0.738046 0.957984
Si Si6 0.149176 0.605838 0.575990
Si Si7 0.310529 0.339654 0.762028
Si Si8 0.362528 0.959926 0.729779
O O1 0.847629 0.723959 0.961761
O O2 0.849600 0.157801 0.196406
O O3 0.689902 0.669416 0.829844
O O4 0.827486 0.886477 0.757828
O O5 0.484320 0.624108 0.278246
O O6 0.397591 0.834943 0.529127
O O7 0.348087 0.585250 0.050918
O O8 0.500000 0.500000 0.500000
O O9 0.621339 0.544322 0.317626
O O10 0.441639 0.146688 0.004736
O O11 0.106721 0.341019 0.524220
O O12 0.197486 0.169544 0.600531
O O13 0.014091 0.818136 0.181975
O O14 0.907526 0.488045 0.675737
O O15 0.000000 0.000000 0.000000
O O16 0.260427 0.719956 0.640295
O O17 0.333894 0.141162 0.735081
#
# Coordination Sequence:
#
# PCOD9054472 Si02
#       8
#     2   2   2   2   2   2   2   2
#     4  10  17  35  65  85 119 158 203 252 293 354
#     4  11  21  41  63  88 123 162 197 245 303 363
#     4  11  25  42  64  93 121 152 202 251 299 360
#     4  10  22  38  57  92 127 153 206 255 290 352
#     4   8  18  33  57  92 122 151 204 251 295 352
#     4  10  18  35  66  87 113 163 203 243 304 351
#     4  11  25  41  59  90 128 157 198 250 300 359
#     4  11  22  41  67  87 120 165 198 240 312 357
#
# _framework density 24.274844999999999
#
# number of rings (size 3 to 8) (size 9 to 14) (size 15 to 20)
#    0.000    2.000    5.000    2.250    0.000    8.000 
#    0.000    1.250    0.000    0.000    0.000    0.000 
#    0.000    0.000    0.000    0.000    0.000    0.000 
#
# Total GULP energy -89389.278459 kJ/mol
# GULP energy per Si atom -5586.829904 kJ/mol
# Density = 2.421959 g / cm^3
# Si number density = 24.274845 Si / 1000 Ang^3
#
#
#
# Elastic Constant Matrix: (Units=GPa)
#
#
# Indices 1 2 3 4 5 6 
#
# 1 61.0177 -5.1933 38.1444 -13.3069 4.9510 -5.2835
# 2 -5.1933 20.1256 23.3945 1.6952 -4.8450 3.2954
# 3 38.1444 23.3945 197.2323 -2.2874 -12.7185 -17.8185
# 4 -13.3069 1.6952 -2.2874 32.0559 -2.5700 -1.7409
# 5 4.9510 -4.8450 -12.7185 -2.5700 58.8023 -4.7978
# 6 -5.2835 3.2954 -17.8185 -1.7409 -4.7978 24.0620
#
#
#
# Elastic Compliance Matrix: (Units=1/GPa)
#
#
# Indices 1 2 3 4 5 6 
#
# 1 0.023019 0.011812 -0.005951 0.008309 -0.001951 -0.000758
# 2 0.011812 0.069302 -0.011856 -0.000382 0.000867 -0.015532
# 3 -0.005951 -0.011856 0.008355 -0.000728 0.001856 0.006822
# 4 0.008309 -0.000382 -0.000728 0.034911 0.000968 0.004057
# 5 -0.001951 0.000867 0.001856 0.000968 0.018052 0.004497
# 6 -0.000758 -0.015532 0.006822 0.004057 0.004497 0.049762
#
#
# Mechanical properties :
#
#
# Convention : Reuss Voigt Hill
#
# Bulk Modulus (GPa) = 11.27584 43.45187 27.36385
# Shear Modulus (GPa) = 20.41207 37.78605 29.09906
#
# Velocity S-wave (km/s) = 2.90293 3.94965 3.46603
# Velocity P-wave (km/s) = 3.98637 6.22402 5.22636
#
# Compressibility (1/GPa) = 0.08868521
#
# Stress axis : x y z
#
# Youngs Moduli (GPa) = 43.44316 14.42952 119.69075
#
# Poissons Ratio (x) = -0.17044 0.71224
# Poissons Ratio (y) = -0.51314 1.41909
# Poissons Ratio (z) = 0.25852 0.17108
#
# Static dielectric constant tensor:
#      x y z
#    x 1.981970 -0.015540 0.055340 
#    y -0.015540 2.016070 -0.030730 
#    z 0.055340 -0.030730 1.985490 
# 
# From -- ./inp_files/329610.got.cif
#   From: 2010.05.17/outbox.cif.g08.bks.cpg/sg2_165_cif.got.tgz:329610.got - 2010.06.03 11:33:40.
