data_PCOD9054185
_publ_section_title
;
Structure prediction by ZEFSAII (Michael W. Deem and Ramdas Pophale) SiO2 
 PCOD9054185
Probable space group: P -1
;
_chemical_formula_sum "Si O2"
_cell_formula_units_Z 14
_cell_length_a 5.310389
_cell_length_b 12.085087
_cell_length_c 18.506123
_cell_angle_alpha 41.752057
_cell_angle_beta 90.693537
_cell_angle_gamma 67.996770
_cell_volume 646.321763
_symmetry_space_group_name_H-M "P -1"
_symmetry_group_IT_number 2
_symmetry_cell_setting 'triclinic'
loop_
_space_group_symop_operation_xyz
x,y,z
-x,-y,-z
loop_
_atom_site_type_symbol
_atom_site_label
_atom_site_fract_x
_atom_site_fract_y
_atom_site_fract_z
Si Si1 0.671681 0.149910 0.962873
Si Si2 0.640345 0.800028 0.200902
Si Si3 0.252489 0.117148 0.151966
Si Si4 0.222963 0.552352 0.113289
Si Si5 0.734823 0.141116 0.234368
Si Si6 0.933345 0.158697 0.485564
Si Si7 0.205787 0.422186 0.339351
O O1 0.464210 0.267518 0.835491
O O2 0.669751 0.300211 0.944662
O O3 0.612865 0.998634 0.074877
O O4 0.000000 0.000000 0.000000
O O5 0.990452 0.609440 0.302523
O O6 0.401386 0.901123 0.216194
O O7 0.532502 0.100506 0.201641
O O8 0.983505 0.155887 0.184926
O O9 0.080951 0.311021 0.002867
O O10 0.485562 0.349676 0.173210
O O11 0.164751 0.502822 0.217345
O O12 0.919259 0.966028 0.379702
O O13 0.563445 0.309527 0.415082
O O14 0.096414 0.272538 0.414311
O O15 0.000000 0.000000 0.500000
#
# Coordination Sequence:
#
# PCOD9054185 Si02
#       7
#     2   2   2   2   2   2   2
#     4  11  20  41  67 107 148 184 232 294 356 422
#     4  11  24  41  69 106 148 187 236 291 359 420
#     4  12  27  47  69 106 156 191 221 285 365 458
#     4  12  24  44  76 111 145 182 238 295 371 420
#     4  12  29  47  71 101 149 196 239 282 356 432
#     4  12  27  50  73 103 139 185 252 302 344 402
#     4  12  26  44  80 108 133 185 247 309 348 401
#
# _framework density 21.66104
#
# number of rings (size 3 to 8) (size 9 to 14) (size 15 to 20)
#    0.000    0.286    4.286    4.714    2.000    2.286 
#    0.000    4.286    0.000    0.000    0.000    0.000 
#    0.000    0.000    0.000    0.000    0.000    0.000 
#
# Total GULP energy -78329.584187 kJ/mol
# GULP energy per Si atom -5594.970299 kJ/mol
# Density = 2.161174 g / cm^3
# Si number density = 21.661040 Si / 1000 Ang^3
#
#
#
# Elastic Constant Matrix: (Units=GPa)
#
#
# Indices 1 2 3 4 5 6 
#
# 1 122.6431 21.7244 59.1668 5.7635 17.3109 -9.8001
# 2 21.7244 88.7254 33.4321 -10.1079 14.1486 -17.9502
# 3 59.1668 33.4321 141.1207 8.6029 21.6506 1.0383
# 4 5.7635 -10.1079 8.6029 28.3326 3.7554 9.7402
# 5 17.3109 14.1486 21.6506 3.7554 45.4880 -4.7702
# 6 -9.8001 -17.9502 1.0383 9.7402 -4.7702 51.0788
#
#
#
# Elastic Compliance Matrix: (Units=1/GPa)
#
#
# Indices 1 2 3 4 5 6 
#
# 1 0.010660 -0.000622 -0.003988 -0.001681 -0.001608 0.002078
# 2 -0.000622 0.014383 -0.003063 0.005281 -0.002824 0.003727
# 3 -0.003988 -0.003063 0.009992 -0.002395 -0.002277 -0.001801
# 4 -0.001681 0.005281 -0.002395 0.041044 -0.003945 -0.006613
# 5 -0.001608 -0.002824 -0.002277 -0.003945 0.025077 0.001839
# 6 0.002078 0.003727 -0.001801 -0.006613 0.001839 0.022755
#
#
# Mechanical properties :
#
#
# Convention : Reuss Voigt Hill
#
# Bulk Modulus (GPa) = 50.78745 64.57063 57.67904
# Shear Modulus (GPa) = 34.28878 40.85761 37.57319
#
# Velocity S-wave (km/s) = 3.98297 4.34778 4.16937
# Velocity P-wave (km/s) = 6.68202 7.42149 7.06144
#
# Compressibility (1/GPa) = 0.01968991
#
# Stress axis : x y z
#
# Youngs Moduli (GPa) = 93.80935 69.52651 100.07744
#
# Poissons Ratio (x) = 0.04324 0.39911
# Poissons Ratio (y) = 0.05834 0.30650
# Poissons Ratio (z) = 0.37412 0.21294
#
# Static dielectric constant tensor:
#      x y z
#    x 1.823730 0.011060 0.036440 
#    y 0.011060 1.798300 0.024540 
#    z 0.036440 0.024540 1.816960 
# 
# From -- ./inp_files/549041.got.cif
#   From: 2010.05.17/outbox.cif.g08.bks.cpg/sg2_275_cif.got.tgz:549041.got - 2010.06.03 11:33:40.
