data_PCOD9054810
_publ_section_title
;
Structure prediction by ZEFSAII (Michael W. Deem and Ramdas Pophale) SiO2 
 PCOD9054810
Probable space group: P -1
;
_chemical_formula_sum "Si O2"
_cell_formula_units_Z 14
_cell_length_a 14.645803
_cell_length_b 5.223043
_cell_length_c 14.492443
_cell_angle_alpha 110.772801
_cell_angle_beta 141.692057
_cell_angle_gamma 57.925189
_cell_volume 578.239429
_symmetry_space_group_name_H-M "P -1"
_symmetry_group_IT_number 2
_symmetry_cell_setting 'triclinic'
loop_
_space_group_symop_operation_xyz
x,y,z
-x,-y,-z
loop_
_atom_site_type_symbol
_atom_site_label
_atom_site_fract_x
_atom_site_fract_y
_atom_site_fract_z
Si Si1 0.723460 0.259840 0.578173
Si Si2 0.521443 0.445501 0.731408
Si Si3 0.079034 0.397331 0.403235
Si Si4 0.236408 0.511759 0.711040
Si Si5 0.834819 0.917114 0.181937
Si Si6 0.390478 0.241981 0.312640
Si Si7 0.643464 0.532797 0.018762
O O1 0.649156 0.409186 0.439875
O O2 0.571025 0.191646 0.486478
O O3 0.734573 0.510975 0.685537
O O4 0.868816 0.930061 0.641305
O O5 0.622127 0.595463 0.774816
O O6 0.511574 0.534520 0.841727
O O7 0.605100 0.084433 0.737220
O O8 0.221200 0.377835 0.584307
O O9 0.918159 0.480052 0.350146
O O10 0.017536 0.658486 0.310123
O O11 0.198367 0.866365 0.725993
O O12 0.387159 0.359617 0.883936
O O13 0.725531 0.736007 0.068623
O O14 0.772256 0.176621 0.087297
#
# Coordination Sequence:
#
# PCOD9054810 Si02
#       7
#     2   2   2   2   2   2   2
#     4   9  21  31  58  80 106 132 176 219 262 306
#     4  10  18  36  57  77 104 141 169 217 262 310
#     4  10  17  36  52  84 105 137 173 218 260 302
#     4   8  19  31  56  77 108 140 170 212 257 310
#     4   9  18  33  52  75 105 139 174 211 249 307
#     4   9  20  36  54  80 103 136 177 211 269 296
#     4   9  18  32  56  75 102 143 177 199 261 314
#
# _framework density 24.211427
#
# number of rings (size 3 to 8) (size 9 to 14) (size 15 to 20)
#    1.714    1.143    0.000    1.714    0.000    1.143 
#    0.000    0.714    0.000   13.714    0.000    0.000 
#    0.000    0.000    0.000    0.000    0.000    0.000 
#
# Total GULP energy -78044.894971 kJ/mol
# GULP energy per Si atom -5574.635355 kJ/mol
# Density = 2.415632 g / cm^3
# Si number density = 24.211427 Si / 1000 Ang^3
#
#
#
# Elastic Constant Matrix: (Units=GPa)
#
#
# Indices 1 2 3 4 5 6 
#
# 1 56.1481 29.5337 25.0579 -9.6746 -12.0181 3.7093
# 2 29.5337 163.4278 35.8429 -12.3476 -0.5501 27.0049
# 3 25.0579 35.8429 103.8774 1.5195 -9.0931 0.1608
# 4 -9.6746 -12.3476 1.5195 19.2457 3.9216 2.5159
# 5 -12.0181 -0.5501 -9.0931 3.9216 21.9689 0.2782
# 6 3.7093 27.0049 0.1608 2.5159 0.2782 37.6221
#
#
#
# Elastic Compliance Matrix: (Units=1/GPa)
#
#
# Indices 1 2 3 4 5 6 
#
# 1 0.025001 -0.002608 -0.004377 0.009339 0.010149 -0.001274
# 2 -0.002608 0.008677 -0.002734 0.005978 -0.003328 -0.006335
# 3 -0.004377 -0.002734 0.012020 -0.005981 0.003545 0.002716
# 4 0.009339 0.005978 -0.005981 0.063924 -0.008509 -0.009398
# 5 0.010149 -0.003328 0.003545 -0.008509 0.053954 0.001543
# 6 -0.001274 -0.006335 0.002716 -0.009398 0.001543 0.031858
#
#
# Mechanical properties :
#
#
# Convention : Reuss Voigt Hill
#
# Bulk Modulus (GPa) = 38.08146 56.03581 47.05864
# Shear Modulus (GPa) = 22.35890 31.30192 26.83041
#
# Velocity S-wave (km/s) = 3.04219 3.59953 3.33253
# Velocity P-wave (km/s) = 5.30120 6.36161 5.85546
#
# Compressibility (1/GPa) = 0.02625950
#
# Stress axis : x y z
#
# Youngs Moduli (GPa) = 39.99895 115.24763 83.19755
#
# Poissons Ratio (x) = 0.30053 0.36418
# Poissons Ratio (y) = 0.10431 0.22745
# Poissons Ratio (z) = 0.17509 0.31507
#
# Static dielectric constant tensor:
#      x y z
#    x 2.118050 0.044020 0.059290 
#    y 0.044020 1.886840 -0.001300 
#    z 0.059290 -0.001300 1.988550 
# 
# From -- ./inp_files/578664.got.cif
#   From: 2010.05.17/outbox.cif.g08.bks.cpg/sg2_290_cif.got.tgz:578664.got - 2010.06.03 11:33:40.
