data_PCOD9054199
_publ_section_title
;
Structure prediction by ZEFSAII (Michael W. Deem and Ramdas Pophale) SiO2 
 PCOD9054199
Probable space group: P -1
;
_chemical_formula_sum "Si O2"
_cell_formula_units_Z 16
_cell_length_a 9.205894
_cell_length_b 8.064306
_cell_length_c 12.736246
_cell_angle_alpha 82.825756
_cell_angle_beta 104.093633
_cell_angle_gamma 128.385873
_cell_volume 718.408752
_symmetry_space_group_name_H-M "P -1"
_symmetry_group_IT_number 2
_symmetry_cell_setting 'triclinic'
loop_
_space_group_symop_operation_xyz
x,y,z
-x,-y,-z
loop_
_atom_site_type_symbol
_atom_site_label
_atom_site_fract_x
_atom_site_fract_y
_atom_site_fract_z
Si Si1 0.952350 0.519429 0.673362
Si Si2 0.870438 0.331975 0.081806
Si Si3 0.360246 0.505259 0.901926
Si Si4 0.114520 0.044184 0.344654
Si Si5 0.602701 0.066014 0.623969
Si Si6 0.658691 0.364588 0.317574
Si Si7 0.177803 0.310085 0.517246
Si Si8 0.078260 0.010067 0.897089
O O1 0.967176 0.664425 0.571047
O O2 0.010650 0.601259 0.794954
O O3 0.116516 0.499152 0.675441
O O4 0.732891 0.313067 0.651547
O O5 0.712452 0.367453 0.073478
O O6 0.820047 0.103003 0.066862
O O7 0.000000 0.500000 0.000000
O O8 0.442047 0.604172 0.794742
O O9 0.196580 0.257789 0.872898
O O10 0.500000 0.500000 0.000000
O O11 0.240179 0.971103 0.346056
O O12 0.232993 0.232724 0.435295
O O13 0.928853 0.867043 0.395876
O O14 0.060853 0.091983 0.220718
O O15 0.434267 0.882469 0.681690
O O16 0.500000 0.000000 0.500000
O O17 0.660656 0.468315 0.417283
O O18 0.000000 0.000000 0.000000
#
# Coordination Sequence:
#
# PCOD9054199 Si02
#       8
#     2   2   2   2   2   2   2   2
#     4  11  22  44  67  98 137 175 230 283 342 415
#     4  11  24  44  74 104 132 188 243 288 349 425
#     4  11  26  46  67 104 147 178 231 303 358 405
#     4  11  24  40  68 101 129 181 228 283 351 418
#     4  12  24  39  66  98 132 182 226 267 355 419
#     4  11  23  41  69  96 137 183 219 285 347 417
#     4  11  20  41  68  95 138 169 222 283 344 408
#     4  12  24  45  77  99 132 189 242 286 351 425
#
# _framework density 22.271443999999999
#
# number of rings (size 3 to 8) (size 9 to 14) (size 15 to 20)
#    0.000    0.750    6.250    1.875    1.750    1.000 
#    0.000    1.250    0.000    0.000    0.000    0.000 
#    0.000    0.000    0.000    0.000    0.000    0.000 
#
# Total GULP energy -89163.388486 kJ/mol
# GULP energy per Si atom -5572.711780 kJ/mol
# Density = 2.222075 g / cm^3
# Si number density = 22.271444 Si / 1000 Ang^3
#
#
#
# Elastic Constant Matrix: (Units=GPa)
#
#
# Indices 1 2 3 4 5 6 
#
# 1 62.4265 29.0854 36.0723 5.2543 8.9926 -17.6043
# 2 29.0854 87.4409 16.3203 -8.1058 -6.2817 -6.9510
# 3 36.0723 16.3203 158.7742 -17.4491 -0.4629 -4.6242
# 4 5.2543 -8.1058 -17.4491 27.0790 -13.6761 4.6996
# 5 8.9926 -6.2817 -0.4629 -13.6761 32.2719 -0.8070
# 6 -17.6043 -6.9510 -4.6242 4.6996 -0.8070 39.1489
#
#
#
# Elastic Compliance Matrix: (Units=1/GPa)
#
#
# Indices 1 2 3 4 5 6 
#
# 1 0.046431 -0.017927 -0.013027 -0.043887 -0.034695 0.020710
# 2 -0.017927 0.019456 0.004406 0.022443 0.018196 -0.006406
# 3 -0.013027 0.004406 0.010625 0.017755 0.012021 -0.005704
# 4 -0.043887 0.022443 0.017755 0.096682 0.057222 -0.024079
# 5 -0.034695 0.018196 0.012021 0.057222 0.068208 -0.016414
# 6 0.020710 -0.006406 -0.005704 -0.024079 -0.016414 0.035597
#
#
# Mechanical properties :
#
#
# Convention : Reuss Voigt Hill
#
# Bulk Modulus (GPa) = 42.70754 52.39973 47.55364
# Shear Modulus (GPa) = 14.79728 34.84420 24.82074
#
# Velocity S-wave (km/s) = 2.58040 3.95970 3.34198
# Velocity P-wave (km/s) = 5.30052 6.66967 6.02412
#
# Compressibility (1/GPa) = 0.02341507
#
# Stress axis : x y z
#
# Youngs Moduli (GPa) = 21.53741 51.39924 94.11642
#
# Poissons Ratio (x) = 0.92145 1.22606
# Poissons Ratio (y) = 0.38611 -0.41469
# Poissons Ratio (z) = 0.28057 -0.22647
#
# Static dielectric constant tensor:
#      x y z
#    x 2.002820 -0.093380 0.054580 
#    y -0.093380 2.381640 -0.204020 
#    z 0.054580 -0.204020 2.009720 
# 
# From -- ./inp_files/416937.got.cif
#   From: 2010.05.17/outbox.cif.g08.bks.cpg/sg2_209_cif.got.tgz:416937.got - 2010.06.03 11:33:40.
