data_PCOD9054848
_publ_section_title
;
Structure prediction by ZEFSAII (Michael W. Deem and Ramdas Pophale) SiO2 
 PCOD9054848
Probable space group: P -1
;
_chemical_formula_sum "Si O2"
_cell_formula_units_Z 16
_cell_length_a 8.371362
_cell_length_b 20.304735
_cell_length_c 11.587406
_cell_angle_alpha 141.989952
_cell_angle_beta 127.715606
_cell_angle_gamma 79.851771
_cell_volume 746.856820
_symmetry_space_group_name_H-M "P -1"
_symmetry_group_IT_number 2
_symmetry_cell_setting 'triclinic'
loop_
_space_group_symop_operation_xyz
x,y,z
-x,-y,-z
loop_
_atom_site_type_symbol
_atom_site_label
_atom_site_fract_x
_atom_site_fract_y
_atom_site_fract_z
Si Si1 0.801183 0.718794 0.884716
Si Si2 0.328466 0.513870 0.229717
Si Si3 0.127096 0.667875 0.676779
Si Si4 0.261694 0.925362 0.201678
Si Si5 0.647972 0.626070 0.328087
Si Si6 0.665784 0.816873 0.447777
Si Si7 0.945860 0.417204 0.100580
Si Si8 0.392140 0.285923 0.960595
O O1 0.525205 0.611085 0.553160
O O2 0.919230 0.640871 0.858703
O O3 0.742644 0.762894 0.039605
O O4 0.005218 0.835163 0.044695
O O5 0.434759 0.604508 0.288314
O O6 0.040218 0.436757 0.038585
O O7 0.358989 0.397359 0.063547
O O8 0.068640 0.569948 0.408464
O O9 0.841120 0.625296 0.495956
O O10 0.282095 0.830308 0.993591
O O11 0.303403 0.646788 0.802779
O O12 0.500000 0.000000 0.500000
O O13 0.271117 0.040588 0.298454
O O14 0.789340 0.765563 0.510665
O O15 0.500000 0.500000 0.000000
O O16 0.724750 0.820421 0.343063
O O17 0.356720 0.693049 0.156754
#
# Coordination Sequence:
#
# PCOD9054848 Si02
#       8
#     2   2   2   2   2   2   2   2
#     4  11  21  39  65 105 124 162 215 279 322 369
#     4  11  21  39  65 105 124 162 215 279 322 369
#     4  12  22  41  68  94 126 175 214 270 311 385
#     4  12  25  41  67  96 132 169 219 261 326 384
#     4  12  25  41  67  96 132 169 219 261 326 384
#     4  12  26  44  62 100 132 176 208 266 326 390
#     4  11  21  38  70  96 129 159 220 273 319 370
#     4  11  21  38  70  96 129 159 220 273 319 370
#
# _framework density 21.423117000000001
#
# number of rings (size 3 to 8) (size 9 to 14) (size 15 to 20)
#    0.000    0.500    8.750    0.750    0.000    3.000 
#    0.000    0.000    0.000    1.500    0.000    0.000 
#    0.000    0.000    0.000    0.000    0.000    0.000 
#
# Total GULP energy -89150.963329 kJ/mol
# GULP energy per Si atom -5571.935208 kJ/mol
# Density = 2.137436 g / cm^3
# Si number density = 21.423117 Si / 1000 Ang^3
#
#
#
# Elastic Constant Matrix: (Units=GPa)
#
#
# Indices 1 2 3 4 5 6 
#
# 1 100.4601 35.0627 27.9830 1.9872 -6.9585 -8.6721
# 2 35.0627 76.0125 8.7553 13.1027 -9.8966 -6.7332
# 3 27.9830 8.7553 61.1201 13.5703 -10.2823 -14.1011
# 4 1.9872 13.1027 13.5703 29.0538 -12.3497 -0.4279
# 5 -6.9585 -9.8966 -10.2823 -12.3497 36.7636 -2.2714
# 6 -8.6721 -6.7332 -14.1011 -0.4279 -2.2714 32.9621
#
#
#
# Elastic Compliance Matrix: (Units=1/GPa)
#
#
# Indices 1 2 3 4 5 6 
#
# 1 0.014009 -0.006560 -0.006625 0.005446 0.000840 -0.000360
# 2 -0.006560 0.017768 0.003402 -0.008288 0.001918 0.003383
# 3 -0.006625 0.003402 0.024001 -0.010732 0.003344 0.009310
# 4 0.005446 -0.008288 -0.010732 0.047678 0.011602 -0.003433
# 5 0.000840 0.001918 0.003344 0.011602 0.032985 0.004467
# 6 -0.000360 0.003383 0.009310 -0.003433 0.004467 0.035181
#
#
# Mechanical properties :
#
#
# Convention : Reuss Voigt Hill
#
# Bulk Modulus (GPa) = 27.61643 42.35499 34.98571
# Shear Modulus (GPa) = 24.59938 30.80868 27.70403
#
# Velocity S-wave (km/s) = 3.39228 3.79635 3.59999
# Velocity P-wave (km/s) = 5.31623 6.24740 5.80053
#
# Compressibility (1/GPa) = 0.03621032
#
# Stress axis : x y z
#
# Youngs Moduli (GPa) = 71.38513 56.28104 41.66568
#
# Poissons Ratio (x) = 0.36921 0.27603
# Poissons Ratio (y) = 0.46829 -0.14173
# Poissons Ratio (z) = 0.47292 -0.19144
#
# Static dielectric constant tensor:
#      x y z
#    x 1.811890 -0.015770 -0.006190 
#    y -0.015770 1.849720 -0.021090 
#    z -0.006190 -0.021090 1.807460 
# 
# From -- ./inp_files/405619.got.cif
#   From: 2010.05.17/outbox.cif.g08.bks.cpg/sg2_203_cif.got.tgz:405619.got - 2010.06.03 11:33:40.
